#------------------------------------------------------------------------------
#$Date: 2021-02-18 12:14:41 +0200 (Thu, 18 Feb 2021) $
#$Revision: 262065 $
#$URL: file:///home/coder/svn-repositories/cod/cif/1/56/04/1560470.cif $
#------------------------------------------------------------------------------
#
# This file is available in the Crystallography Open Database (COD),
# http://www.crystallography.net/
#
# All data on this site have been placed in the public domain by the
# contributors.
#
data_1560470
loop_
_publ_author_name
'Iyer, Abishek K.'
'Yin, Wenlong'
'Lee, Emma J.'
'Lin, Xinsong'
'Mar, Arthur'
_publ_section_title
;
 Quaternary rare-earth sulfides RE 3 M 0.5 GeS 7 (RE=La--Nd, Sm; M=Co, Ni)
 and Y 3 Pd 0.5 SiS 7
;
_journal_name_full               'Journal of Solid State Chemistry'
_journal_page_first              14
_journal_page_last               23
_journal_paper_doi               10.1016/j.jssc.2017.03.009
_journal_volume                  250
_journal_year                    2017
_chemical_absolute_configuration ad
_chemical_formula_structural     'Nd3 Ni0.50 Ge S7'
_chemical_formula_sum            'Ge Nd3 Ni0.5 S7'
_chemical_formula_weight         759.09
_chemical_name_common
'neodymium nickel germanium sulfide (3/0.5/1/7)'
_chemical_name_systematic
'neodymium nickel germanium sulfide (3/0.5/1/7)'
_space_group_crystal_system      hexagonal
_space_group_IT_number           173
_space_group_name_Hall           'P 6c'
_space_group_name_H-M_alt        'P 63'
_atom_sites_solution_hydrogens   .
_audit_creation_method           SHELXL-2014/7
_cell_angle_alpha                90
_cell_angle_beta                 90
_cell_angle_gamma                120
_cell_formula_units_Z            2
_cell_length_a                   10.0760(3)
_cell_length_b                   10.0760(3)
_cell_length_c                   5.7605(2)
_cell_measurement_reflns_used    7588
_cell_measurement_temperature    296(2)
_cell_measurement_theta_max      33.06
_cell_measurement_theta_min      2.33
_cell_volume                     506.49(3)
_computing_cell_refinement       'Bruker SAINT 8.34A (Bruker, 2013)'
_computing_data_collection       'Bruker APEX 2 (Bruker, 2008)'
_computing_data_reduction        'Bruker SAINT 8.34A'
_computing_molecular_graphics    'ATOMS 5.1 (Dowty, 1999)'
_computing_publication_material  'SHELXL-2014/7 (Sheldrick, 2014)'
_computing_structure_refinement  'SHELXL-2014/7 (Sheldrick, 2014)'
_computing_structure_solution    'SHELXS-97 (Sheldrick, 2008)'
_diffrn_ambient_temperature      296(2)
_diffrn_measured_fraction_theta_full 1.000
_diffrn_measured_fraction_theta_max 0.999
_diffrn_measurement_device_type  'Bruker PLATFORM/SMART APEX II CCD'
_diffrn_measurement_method       '\w and \f scans'
_diffrn_radiation_type           MoK\a
_diffrn_radiation_wavelength     0.71073
_diffrn_reflns_av_R_equivalents  0.0254
_diffrn_reflns_av_unetI/netI     0.0179
_diffrn_reflns_Laue_measured_fraction_full 1.000
_diffrn_reflns_Laue_measured_fraction_max 0.999
_diffrn_reflns_limit_h_max       15
_diffrn_reflns_limit_h_min       -15
_diffrn_reflns_limit_k_max       15
_diffrn_reflns_limit_k_min       -15
_diffrn_reflns_limit_l_max       8
_diffrn_reflns_limit_l_min       -8
_diffrn_reflns_number            7287
_diffrn_reflns_point_group_measured_fraction_full 1.000
_diffrn_reflns_point_group_measured_fraction_max 0.998
_diffrn_reflns_theta_full        25.242
_diffrn_reflns_theta_max         33.137
_diffrn_reflns_theta_min         2.334
_diffrn_source                   'fine-focus sealed tube'
_exptl_absorpt_coefficient_mu    20.332
_exptl_absorpt_correction_T_max  0.461
_exptl_absorpt_correction_T_min  0.361
_exptl_absorpt_correction_type   numerical
_exptl_absorpt_process_details   'SHELXL-2014/7 (Sheldrick, 2014)'
_exptl_crystal_colour            grey
_exptl_crystal_density_diffrn    4.977
_exptl_crystal_description       irregular
_exptl_crystal_F_000             676
_exptl_crystal_size_max          0.075
_exptl_crystal_size_mid          0.061
_exptl_crystal_size_min          0.061
_refine_diff_density_max         1.169
_refine_diff_density_min         -0.705
_refine_diff_density_rms         0.148
_refine_ls_abs_structure_details
;
 Refined as an inversion twin.
;
_refine_ls_abs_structure_Flack   0.009(17)
_refine_ls_extinction_coef       0.0122(4)
_refine_ls_extinction_expression Fc^*^=kFc[1+0.001xFc^2^\l^3^/sin(2\q)]^-1/4^
_refine_ls_extinction_method     'SHELXL-2014/7 (Sheldrick 2014)'
_refine_ls_goodness_of_fit_ref   1.104
_refine_ls_hydrogen_treatment    undef
_refine_ls_matrix_type           full
_refine_ls_number_parameters     41
_refine_ls_number_reflns         1286
_refine_ls_number_restraints     1
_refine_ls_restrained_S_all      1.104
_refine_ls_R_factor_all          0.0131
_refine_ls_R_factor_gt           0.0129
_refine_ls_shift/su_max          0.001
_refine_ls_shift/su_mean         0.000
_refine_ls_structure_factor_coef Fsqd
_refine_ls_weighting_details
'w=1/[\s^2^(Fo^2^)+(0.0116P)^2^+0.3902P] where P=(Fo^2^+2Fc^2^)/3'
_refine_ls_weighting_scheme      calc
_refine_ls_wR_factor_gt          0.0298
_refine_ls_wR_factor_ref         0.0299
_reflns_Friedel_coverage         0.846
_reflns_Friedel_fraction_full    1.000
_reflns_Friedel_fraction_max     0.998
_reflns_number_gt                1270
_reflns_number_total             1286
_reflns_threshold_expression     'I > 2\s(I)'
_cod_data_source_file            mmc20.cif
_cod_data_source_block           9
_cod_original_formula_sum        'Ge Nd3 Ni0.50 S7'
_cod_database_code               1560470
_shelx_shelxl_version_number     2014/7
_shelx_space_group_comment
;
The symmetry employed for this shelxl refinement is uniquely defined
by the following loop, which should always be used as a source of
symmetry information in preference to the above space-group names.
They are only intended as comments.
;
_shelx_estimated_absorpt_t_min   0.311
_shelx_estimated_absorpt_t_max   0.370
_shelx_res_file
;

    p63.res created by SHELXL-2014/7

TITL Nd3Ni0.5GeS7 P6(3) lsf final refinement
CELL 0.71073  10.07600  10.07600   5.76050  90.0000  90.0000 120.0000
ZERR    2.00   0.00030   0.00030   0.00020   0.0000   0.0000   0.0000
LATT -1
SYMM -Y, X-Y, Z
SYMM -X+Y, -X, Z
SYMM -X, -Y, 0.5+Z
SYMM Y, -X+Y, 0.5+Z
SYMM X-Y, X, 0.5+Z
SFAC S NI GE ND
UNIT 14 1 2 6
TEMP 23
SIZE 0.061 0.061 0.075

L.S. 4
ACTA

TWIN

EADP NIA NIB
WGHT    0.011600    0.390200
EXTI    0.012223
BASF   0.00878
FVAR       0.12110   0.94715
ND    4    0.128698    0.355831    0.017643    11.00000    0.00906    0.00734 =
         0.00932    0.00064    0.00076    0.00405
NIA   2    0.000000    0.000000    0.248952    20.16667    0.00781    0.00781 =
         0.01256    0.00000    0.00000    0.00390
NIB   2    0.000000    0.000000   -0.001634   -20.16667    0.00781    0.00781 =
         0.01256    0.00000    0.00000    0.00390
GE    3    0.333333    0.666667    0.599321    10.33333    0.00930    0.00930 =
         0.00645    0.00000    0.00000    0.00465
S1    1    0.243202    0.154871    0.000000    11.00000    0.01131    0.00952 =
         0.01880    0.00269    0.00094    0.00638
S2    1    0.519816    0.101856    0.251172    11.00000    0.00887    0.00927 =
         0.00960   -0.00001   -0.00105    0.00399
S3    1    0.333333    0.666667    0.222696    10.33333    0.01123    0.01123 =
         0.00640    0.00000    0.00000    0.00561
HKLF 4

REM  Nd3Ni0.5GeS7 P6(3) lsf final refinement
REM R1 =  0.0129 for    1270 Fo > 4sig(Fo)  and  0.0131 for all    1286 data
REM     41 parameters refined using      1 restraints

END

WGHT      0.0116      0.3902

REM Highest difference peak  1.169,  deepest hole -0.705,  1-sigma level  0.148
Q1    1   0.2545  0.7145  0.5183  11.00000  0.05    1.17
Q2    1   0.3333  0.6667  0.4302  10.33333  0.05    0.77
Q3    1   0.1268  0.4134 -0.0873  11.00000  0.05    0.53
Q4    1   0.2727  0.4410  0.0948  11.00000  0.05    0.51
Q5    1   0.2991  0.2711  0.0162  11.00000  0.05    0.49
Q6    1  -0.0069  0.3510  0.0903  11.00000  0.05    0.49
Q7    1   0.1648  0.4782  0.1926  11.00000  0.05    0.47
Q8    1   0.3198  0.3812  0.0193  11.00000  0.05    0.46
Q9    1   0.1052  0.4029  0.1246  11.00000  0.05    0.45
Q10   1   0.1763  0.4138  0.1069  11.00000  0.05    0.45
Q11   1   0.1577  0.1994  0.0112  11.00000  0.05    0.45
Q12   1   0.2067  0.3575  0.2539  11.00000  0.05    0.45
Q13   1  -0.0118  0.3478 -0.0693  11.00000  0.05    0.44
Q14   1   0.4223  0.1764 -0.0046  11.00000  0.05    0.44
Q15   1   0.4439  0.1462  0.4366  11.00000  0.05    0.44
Q16   1   0.4717  0.7024  0.0810  11.00000  0.05    0.44
Q17   1   0.1231  0.4481  0.0059  11.00000  0.05    0.44
Q18   1   0.1528 -0.0194  0.0070  11.00000  0.05    0.43
Q19   1   0.2179  0.3622 -0.0161  11.00000  0.05    0.43
Q20   1   0.5952  0.1147  0.2616  11.00000  0.05    0.43
;
_shelx_res_checksum              49196
_shelx_hkl_file
;
   1  -6  -8  147.08   10.21
   2  -6  -8    4.57    1.43
   3  -6  -8   41.57    3.52
   4  -6  -8    0.87    0.83
   5  -6  -8    0.99    0.74
   0  -5  -8    5.13    1.46
   1  -5  -8    8.99    1.89
   2  -5  -8   12.73    2.19
   3  -5  -8    0.50    0.70
   4  -5  -8   54.37    4.00
   5  -5  -8    4.12    1.27
   6  -5  -8  142.47    8.00
  -1  -4  -8   52.40    4.10
   0  -4  -8   10.86    2.04
   1  -4  -8   14.42    2.40
   2  -4  -8   55.29    4.06
   3  -4  -8  117.77    6.29
   4  -4  -8   11.17    2.08
   5  -4  -8   10.35    2.07
   6  -4  -8    4.04    1.25
  -2  -3  -8    0.48    0.69
  -1  -3  -8  114.34    6.25
   0  -3  -8   15.99    2.46
   1  -3  -8    3.38    1.26
   2  -3  -8   68.95    4.58
   3  -3  -8   17.80    2.67
   4  -3  -8   17.61    2.62
   5  -3  -8    9.38    1.96
   6  -3  -8   40.80    4.08
  -3  -2  -8   11.90    2.29
  -2  -2  -8   58.07    4.12
  -1  -2  -8   68.15    4.59
   0  -2  -8    9.90    1.93
   1  -2  -8   51.00    3.80
   2  -2  -8    5.41    1.48
   3  -2  -8    2.42    1.05
   4  -2  -8   55.01    4.08
   5  -2  -8    0.92    0.80
  -4  -1  -8   10.91    2.12
  -3  -1  -8   19.97    2.81
  -2  -1  -8    2.53    1.06
  -1  -1  -8   52.97    3.87
   0  -1  -8    5.00    1.42
   1  -1  -8    6.91    1.67
   2  -1  -8   47.32    3.70
   3  -1  -8   69.67    4.68
   4  -1  -8  119.81    6.40
   5  -1  -8   54.78    4.10
   6  -1  -8    2.26    0.98
  -5   0  -8    5.18    1.65
  -4   0  -8   12.93    2.24
  -3   0  -8   16.86    2.57
  -2   0  -8    9.44    1.91
  -1   0  -8    7.87    1.70
   0   0  -8  270.08   10.71
   1   0  -8    5.72    1.48
   2   0  -8   11.62    2.16
   3   0  -8   19.07    2.77
   4   0  -8   10.32    2.02
   5   0  -8    4.62    1.29
  -5   1  -8   53.75    4.08
  -4   1  -8  121.66    6.30
  -3   1  -8   66.03    4.44
  -2   1  -8   50.44    3.79
  -1   1  -8    4.82    1.32
   0   1  -8    4.68    1.43
   1   1  -8   49.99    3.79
   2   1  -8    1.44    0.79
   3   1  -8   20.60    1.71
   4   1  -8   11.05    1.43
   5   1  -8  149.11    7.07
  -6   2  -8    2.75    1.07
  -5   2  -8    0.90    0.76
  -4   2  -8   56.91    3.95
  -3   2  -8    3.18    1.06
  -2   2  -8   11.46    1.98
  -1   2  -8   50.02    3.74
   0   2  -8    9.45    1.83
   1   2  -8   69.91    4.63
   2   2  -8   52.98    2.65
   3   2  -8   12.39    1.54
   4   2  -8    3.96    1.23
  -6   3  -8   40.10    3.42
  -5   3  -8   12.20    2.11
  -4   3  -8   16.99    2.45
  -3   3  -8   17.45    2.52
  -2   3  -8   71.58    4.50
  -1   3  -8    1.09    0.78
   0   3  -8   20.20    2.21
   1   3  -8  122.75    4.31
   2   3  -8    0.31    0.40
   3   3  -8   37.78    3.18
  -6   4  -8    3.89    1.31
  -5   4  -8   10.73    1.98
  -4   4  -8   10.66    1.90
  -3   4  -8  125.06    6.18
  -2   4  -8   49.35    3.72
  -1   4  -8   19.94    1.66
   0   4  -8   14.40    1.57
   1   4  -8   50.96    3.65
   2   4  -8    0.38    0.46
  -5   5  -8    2.74    1.03
  -4   5  -8   53.12    3.77
  -3   5  -8    0.13    0.50
  -2   5  -8   14.27    1.57
  -1   5  -8   12.20    1.46
   0   5  -8    3.68    0.83
   1   5  -8    1.82    0.66
  -3   6  -8   41.93    3.24
  -2   6  -8    2.69    0.71
  -1   6  -8  147.91    5.01
   4  -9  -7    9.11    2.07
   5  -9  -7   82.99    5.33
   6  -9  -7   24.81    3.34
   0  -8  -7    3.45    1.27
   1  -8  -7  103.98    4.32
   2  -8  -7   20.70    2.05
   3  -8  -7  108.63    6.22
   4  -8  -7   25.93    2.80
   5  -8  -7    0.67    0.73
   6  -8  -7   10.32    2.02
  -1  -7  -7    9.14    1.98
   0  -7  -7   22.82    2.99
   1  -7  -7   16.96    2.51
   2  -7  -7    9.15    1.80
   3  -7  -7   20.76    2.25
   4  -7  -7    1.02    0.74
   5  -7  -7    3.58    1.12
   6  -7  -7  116.77    4.22
  -3  -6  -7   18.26    3.38
  -2  -6  -7   14.50    2.43
  -1  -6  -7  125.54    6.40
   0  -6  -7   24.17    2.57
   1  -6  -7    8.53    1.78
   2  -6  -7   20.33    2.19
   3  -6  -7  110.25    5.72
   4  -6  -7    3.05    1.05
   5  -6  -7   32.90    2.87
   6  -6  -7   23.27    2.43
   7  -6  -7   20.23    2.73
   8  -6  -7   23.04    2.47
  -4  -5  -7   80.50    7.28
  -3  -5  -7    1.66    0.86
  -2  -5  -7    2.94    1.11
  -1  -5  -7   38.50    3.24
   0  -5  -7   29.52    2.73
   1  -5  -7   11.14    1.91
   2  -5  -7   73.11    4.54
   3  -5  -7    4.83    1.28
   4  -5  -7  112.96    5.71
   5  -5  -7   25.19    2.52
   6  -5  -7   11.27    1.96
   7  -5  -7    7.77    1.68
   8  -5  -7  101.67    5.69
   9  -5  -7    9.08    1.37
  -4  -4  -7   26.15    2.76
  -3  -4  -7    0.94    0.75
  -2  -4  -7    6.23    1.57
  -1  -4  -7  105.02    5.65
   0  -4  -7   23.98    2.41
   1  -4  -7  195.15    8.12
   2  -4  -7    3.94    1.14
   3  -4  -7   -0.05    0.44
   4  -4  -7   24.16    2.43
   5  -4  -7    9.63    1.81
   6  -4  -7   14.75    2.25
   7  -4  -7   21.99    2.90
   8  -4  -7   22.53    2.32
   9  -4  -7   81.94    4.83
  -5  -3  -7  109.11    6.10
  -4  -3  -7   24.98    2.63
  -3  -3  -7  108.71    5.87
  -2  -3  -7    4.45    1.28
  -1  -3  -7    0.07    0.47
   0  -3  -7   21.90    2.25
   1  -3  -7    6.59    1.48
   2  -3  -7    0.47    0.51
   3  -3  -7   19.75    2.58
   4  -3  -7  172.49    7.84
   5  -3  -7   76.20    4.59
   6  -3  -7  107.08    3.85
   7  -3  -7    1.09    0.67
   8  -3  -7    2.10    0.92
   9  -3  -7   26.58    2.62
  -6  -2  -7   25.78    2.74
  -5  -2  -7    8.37    1.84
  -4  -2  -7   18.02    2.57
  -3  -2  -7   81.54    4.83
  -2  -2  -7    2.39    0.93
  -1  -2  -7    0.30    0.46
   0  -2  -7   85.69    4.81
   1  -2  -7   27.70    2.54
   2  -2  -7   82.65    4.77
   3  -2  -7    5.62    1.37
   4  -2  -7    2.73    1.02
   5  -2  -7    4.20    0.80
   6  -2  -7    3.53    1.02
   7  -2  -7    2.54    0.93
   8  -2  -7   12.68    2.07
  -7  -1  -7  103.03    6.01
  -6  -1  -7   16.96    2.63
  -5  -1  -7    8.36    1.78
  -4  -1  -7   12.31    2.13
  -3  -1  -7  187.40    7.97
  -2  -1  -7    5.58    1.31
  -1  -1  -7   29.67    2.62
   0  -1  -7   48.35    3.46
   1  -1  -7   45.12    3.34
   2  -1  -7   21.32    2.28
   3  -1  -7    0.74    0.38
   4  -1  -7    1.25    0.47
   5  -1  -7  115.34    5.35
   6  -1  -7   34.08    2.79
   7  -1  -7  116.87    5.86
   8  -1  -7    9.56    1.87
  -7   0  -7   27.40    2.78
  -6   0  -7   25.60    2.63
  -5   0  -7   32.66    2.86
  -4   0  -7   24.65    2.47
  -3   0  -7   15.49    2.21
  -2   0  -7   80.35    4.68
  -1   0  -7   49.57    3.44
   0   0  -7    0.00    0.26
   1   0  -7   53.17    3.62
   2   0  -7   87.07    3.17
   3   0  -7   19.19    1.46
   4   0  -7   24.81    2.22
   5   0  -7   24.87    2.35
   6   0  -7   22.32    2.30
   7   0  -7   22.63    2.41
  -8   1  -7    8.68    1.84
  -7   1  -7  111.59    6.01
  -6   1  -7   33.34    2.96
  -5   1  -7  112.68    5.74
  -4   1  -7    1.68    0.80
  -3   1  -7    0.12    0.37
  -2   1  -7   29.84    2.56
  -1   1  -7   46.27    3.35
   0   1  -7   50.11    3.49
   1   1  -7   26.38    1.59
   2   1  -7    7.86    1.07
   3   1  -7  177.34    5.38
   4   1  -7   10.28    1.70
   5   1  -7    9.98    1.81
   6   1  -7   15.15    2.28
   7   1  -7  101.59    5.70
  -8   2  -7   13.89    2.26
  -7   2  -7    4.47    1.29
  -6   2  -7    4.48    1.23
  -5   2  -7    4.81    1.28
  -4   2  -7    4.24    1.17
  -3   2  -7    5.46    1.34
  -2   2  -7   85.47    4.71
  -1   2  -7   29.01    1.72
   0   2  -7   87.33    3.18
   1   2  -7    0.65    0.37
   2   2  -7    2.61    0.66
   3   2  -7   79.90    4.40
   4   2  -7   22.68    2.20
   5   2  -7    9.78    1.76
   6   2  -7   24.48    2.51
  -9   3  -7   21.65    2.84
  -8   3  -7    1.50    0.80
  -7   3  -7    1.01    0.74
  -6   3  -7  117.29    5.77
  -5   3  -7   77.09    4.45
  -4   3  -7  190.87    7.79
  -3   3  -7   21.20    2.11
  -2   3  -7    0.34    0.31
  -1   3  -7    6.18    0.89
   0   3  -7   20.26    1.42
   1   3  -7    1.03    0.45
   2   3  -7    6.26    1.33
   3   3  -7  108.12    5.42
   4   3  -7   22.32    2.33
   5   3  -7  120.87    5.98
  -9   4  -7   79.85    4.86
  -8   4  -7   26.39    2.55
  -7   4  -7   25.00    2.40
  -6   4  -7   17.20    2.30
  -5   4  -7    9.95    1.70
  -4   4  -7   24.00    2.30
  -3   4  -7    0.64    0.37
  -2   4  -7    2.70    0.64
  -1   4  -7  185.61    5.35
   0   4  -7   25.28    1.63
   1   4  -7  111.98    3.88
   2   4  -7    5.60    1.31
   3   4  -7    0.83    0.62
   4   4  -7   22.11    2.81
  -7   5  -7    9.36    1.73
  -6   5  -7    9.49    1.65
  -5   5  -7   28.50    2.46
  -4   5  -7  113.20    3.75
  -3   5  -7    6.86    0.98
  -2   5  -7   80.77    3.10
  -1   5  -7   13.15    1.36
   0   5  -7   26.52    1.73
   1   5  -7   35.38    2.05
   2   5  -7    3.08    1.03
   3   5  -7    1.88    0.89
  -5   6  -7   34.24    2.70
  -4   6  -7    6.39    0.97
  -3   6  -7  103.01    3.73
  -2   6  -7   19.51    1.57
  -1   6  -7    8.96    1.20
   0   6  -7   26.83    1.76
   1   6  -7  121.06    5.97
   2   6  -7    9.89    1.82
  -6   7  -7  117.15    5.70
  -5   7  -7    4.70    1.24
  -4   7  -7    0.96    0.62
  -3   7  -7   21.48    2.22
  -2   7  -7    6.85    1.53
  -1   7  -7   12.78    2.02
   0   7  -7   22.15    2.36
   1   7  -7    9.33    1.79
  -7   8  -7    9.40    1.74
  -6   8  -7   11.39    1.96
  -5   8  -7    3.44    1.09
  -4   8  -7   27.86    2.59
  -3   8  -7  110.50    5.69
  -2   8  -7   23.69    2.45
  -1   8  -7  110.43    5.81
  -7   9  -7   46.74    4.03
  -6   9  -7   21.94    2.85
  -5   9  -7   77.14    4.76
  -4   9  -7    9.86    1.93
   5 -11  -6   20.31    3.31
   6 -11  -6    0.72    0.76
   7 -11  -6  146.59    7.38
   2 -10  -6   43.62    3.88
   3 -10  -6   77.08    5.22
   4 -10  -6   66.06    4.79
   5 -10  -6   42.64    3.61
   6 -10  -6    5.23    1.48
   7 -10  -6   12.21    2.22
  -1  -9  -6    1.87    1.58
   0  -9  -6   20.28    3.06
   1  -9  -6    3.27    1.32
   2  -9  -6    0.69    0.68
   3  -9  -6   43.65    3.67
   4  -9  -6   11.85    2.24
   5  -9  -6   23.16    2.53
   6  -9  -6   60.46    4.13
   7  -9  -6   22.98    2.95
  -3  -8  -6    9.67    2.11
  -2  -8  -6   80.63    3.65
  -1  -8  -6   75.70    3.46
   0  -8  -6   93.27    3.78
   1  -8  -6   30.89    2.05
   2  -8  -6    8.48    1.24
   3  -8  -6   37.55    2.15
   4  -8  -6   29.78    2.78
   5  -8  -6   50.31    3.66
   6  -8  -6    2.93    1.07
   7  -8  -6   45.53    3.38
  -4  -7  -6  140.65    5.27
  -3  -7  -6   11.86    1.58
  -2  -7  -6   19.29    1.95
  -1  -7  -6   45.59    2.50
   0  -7  -6   21.31    2.27
   1  -7  -6    0.54    0.55
   2  -7  -6   16.75    2.23
   3  -7  -6   24.09    2.23
   4  -7  -6  111.79    5.31
   5  -7  -6   56.53    2.58
   6  -7  -6   28.78    1.76
  10  -7  -6   76.79    4.54
  11  -7  -6   53.43    3.82
  -5  -6  -6    0.25    0.53
  -4  -6  -6    5.75    1.04
  -3  -6  -6   56.64    4.03
  -2  -6  -6    2.84    1.05
  -1  -6  -6   28.07    2.62
   0  -6  -6    6.51    1.47
   1  -6  -6  243.20    9.17
   2  -6  -6    8.30    1.51
   3  -6  -6  122.63    5.63
   4  -6  -6   10.00    1.71
   5  -6  -6   55.31    3.45
   6  -6  -6    4.25    1.14
   7  -6  -6    0.18    0.37
   8  -6  -6    8.82    1.13
   9  -6  -6   50.18    3.39
  10  -6  -6   83.06    4.67
  11  -6  -6   23.93    3.04
  -6  -5  -6   22.65    3.84
  -5  -5  -6   39.90    3.47
  -4  -5  -6   22.55    2.99
  -3  -5  -6   50.43    3.64
  -2  -5  -6   59.35    3.89
  -1  -5  -6   51.06    3.55
   0  -5  -6    3.15    1.04
   1  -5  -6   38.94    2.82
   2  -5  -6   15.66    2.08
   3  -5  -6    6.00    1.29
   4  -5  -6   65.75    3.82
   5  -5  -6    4.46    1.14
   6  -5  -6  227.79    8.94
   7  -5  -6   16.63    1.35
   8  -5  -6   33.44    2.67
   9  -5  -6    9.61    1.74
  10  -5  -6   42.54    3.27
  11  -5  -6    0.24    0.60
  -6  -4  -6   74.45    4.86
  -5  -4  -6   13.55    2.30
  -4  -4  -6   26.50    2.57
  -3  -4  -6  106.06    5.56
  -2  -4  -6    8.16    1.60
  -1  -4  -6   62.70    3.81
   0  -4  -6   25.45    2.25
   1  -4  -6   58.25    3.61
   2  -4  -6   58.41    3.52
   3  -4  -6   94.54    4.83
   4  -4  -6   20.46    2.06
   5  -4  -6   37.80    1.82
   6  -4  -6    9.66    1.14
   7  -4  -6   26.03    2.19
   8  -4  -6   24.85    2.27
   9  -4  -6   20.26    2.57
  10  -4  -6    5.71    1.36
  11  -4  -6  148.71    9.30
  -7  -3  -6   80.86    5.14
  -6  -3  -6   45.13    3.60
  -5  -3  -6   37.14    3.14
  -4  -3  -6   25.27    2.45
  -3  -3  -6  120.04    5.82
  -2  -3  -6    6.85    1.47
  -1  -3  -6   99.67    4.93
   0  -3  -6   27.01    2.30
   1  -3  -6    6.24    1.30
   2  -3  -6  151.33    6.47
   3  -3  -6   27.48    2.33
   4  -3  -6   64.36    2.45
   5  -3  -6   14.67    1.52
   6  -3  -6  122.64    5.34
   7  -3  -6  114.93    5.28
   8  -3  -6   44.08    3.21
   9  -3  -6   56.04    3.77
  10  -3  -6   10.71    1.95
  11  -3  -6    9.99    2.06
  -8  -2  -6   42.86    3.71
  -7  -2  -6    0.95    0.82
  -6  -2  -6    4.62    1.32
  -5  -2  -6   12.01    2.01
  -4  -2  -6    8.90    1.72
  -3  -2  -6   13.08    1.98
  -2  -2  -6   51.63    3.34
  -1  -2  -6  161.65    6.65
   0  -2  -6   92.37    4.64
   1  -2  -6  120.32    5.38
   2  -2  -6   97.03    4.77
   3  -2  -6    7.33    0.89
   4  -2  -6   57.90    3.10
   5  -2  -6    6.29    1.23
   6  -2  -6   10.00    1.61
   7  -2  -6   58.18    3.60
   8  -2  -6    2.89    0.95
   9  -2  -6   24.62    2.41
  10  -2  -6   82.16    3.45
  -8  -1  -6    3.23    1.20
  -7  -1  -6   31.32    2.92
  -6  -1  -6   -0.17    0.40
  -5  -1  -6  241.72    9.37
  -4  -1  -6   35.09    2.79
  -3  -1  -6   58.98    3.63
  -2  -1  -6    8.08    1.49
  -1  -1  -6  117.02    5.31
   0  -1  -6   24.96    2.16
   1  -1  -6   23.91    1.32
   2  -1  -6  116.82    3.48
   3  -1  -6  152.42    4.39
   4  -1  -6   97.86    4.50
   5  -1  -6   69.17    3.69
   6  -1  -6   52.53    3.33
   7  -1  -6   27.01    2.44
   8  -1  -6   47.93    3.42
   9  -1  -6   77.41    3.35
  10  -1  -6    2.22    1.05
  -9   0  -6   23.45    3.05
  -8   0  -6   84.36    5.09
  -7   0  -6   20.19    2.68
  -6   0  -6    9.00    1.68
  -5   0  -6    4.79    1.18
  -4   0  -6   25.29    2.26
  -3   0  -6   28.16    2.32
  -2   0  -6   91.27    4.59
  -1   0  -6   22.17    2.05
   0   0  -6  195.69    5.09
   1   0  -6   26.14    1.40
   2   0  -6   96.00    3.12
   3   0  -6   28.47    2.09
   4   0  -6   25.11    2.07
   5   0  -6    4.59    1.11
   6   0  -6    7.03    1.40
   7   0  -6   23.29    2.27
   8   0  -6   88.53    5.02
   9   0  -6   21.51    1.83
 -10   1  -6    2.84    1.21
  -9   1  -6   82.99    4.91
  -8   1  -6   42.62    3.36
  -7   1  -6   32.06    2.69
  -6   1  -6   54.18    3.55
  -5   1  -6   60.38    3.72
  -4   1  -6   93.79    4.72
  -3   1  -6  157.74    6.49
  -2   1  -6  116.54    5.23
  -1   1  -6   25.99    1.38
   0   1  -6   25.78    1.39
   1   1  -6  110.11    3.47
   2   1  -6    8.74    1.34
   3   1  -6   66.46    3.51
   4   1  -6   37.05    2.62
   5   1  -6  238.67    8.96
   6   1  -6    0.49    0.46
   7   1  -6   33.93    2.85
   8   1  -6    4.41    0.93
   9   1  -6   10.11    1.97
 -10   2  -6   81.65    4.97
  -9   2  -6   22.21    2.37
  -8   2  -6    3.35    1.08
  -7   2  -6   59.16    3.73
  -6   2  -6   10.74    1.76
  -5   2  -6    8.39    1.55
  -4   2  -6   53.19    3.28
  -3   2  -6    8.61    0.98
  -2   2  -6   96.46    3.05
  -1   2  -6  116.19    3.50
   0   2  -6   95.17    3.10
   1   2  -6  156.27    4.44
   2   2  -6   53.17    3.11
   3   2  -6   12.61    1.80
   4   2  -6    9.64    1.57
   5   2  -6   15.85    2.19
   6   2  -6    6.80    1.42
   7   2  -6    0.58    0.63
   8   2  -6   48.72    2.58
 -11   3  -6    9.17    1.95
 -10   3  -6    9.49    1.83
  -9   3  -6   54.32    3.74
  -8   3  -6   47.80    3.35
  -7   3  -6  111.53    5.36
  -6   3  -6  124.99    5.62
  -5   3  -6   12.07    1.74
  -4   3  -6   63.62    2.39
  -3   3  -6   30.85    1.54
  -2   3  -6  158.35    4.36
  -1   3  -6    6.63    0.86
   0   3  -6   29.18    1.57
   1   3  -6   95.64    4.52
   2   3  -6    6.50    1.27
   3   3  -6  123.93    5.51
   4   3  -6   25.44    2.27
   5   3  -6   38.12    2.96
   6   3  -6   47.27    3.46
   7   3  -6   83.27    3.92
   8   3  -6   10.09    1.92
 -10   4  -6    5.61    1.41
  -9   4  -6   21.64    2.21
  -8   4  -6   23.99    2.26
  -7   4  -6   25.33    2.25
  -6   4  -6    9.11    1.58
  -5   4  -6   38.12    1.79
  -4   4  -6   25.79    1.45
  -3   4  -6  101.39    3.26
  -2   4  -6   54.88    2.26
  -1   4  -6   60.96    2.43
   0   4  -6   25.56    1.51
   1   4  -6   59.02    3.48
   2   4  -6    8.94    1.53
   3   4  -6  107.28    5.25
   4   4  -6   23.87    2.29
   5   4  -6    7.90    1.57
   6   4  -6   76.77    4.62
   7   4  -6   58.16    4.82
  -8   5  -6   39.71    2.85
  -7   5  -6   16.16    1.75
  -6   5  -6  242.08    6.13
  -5   5  -6    5.92    0.83
  -4   5  -6   61.97    2.45
  -3   5  -6    4.75    0.75
  -2   5  -6   14.16    1.33
  -1   5  -6   36.12    1.83
   0   5  -6    4.13    1.05
   1   5  -6   49.14    3.26
   2   5  -6   62.68    3.72
   3   5  -6   46.86    3.31
   4   5  -6   21.67    2.69
   5   5  -6   37.87    3.21
  -7   6  -6   -0.01    0.39
  -6   6  -6    8.22    1.45
  -5   6  -6   55.29    2.29
  -4   6  -6    9.93    1.11
  -3   6  -6  121.26    3.78
  -2   6  -6    9.13    1.08
  -1   6  -6  232.23    6.21
   0   6  -6    9.94    1.70
   1   6  -6   28.62    2.47
   2   6  -6    1.86    0.82
   3   6  -6   56.13    3.79
   4   6  -6    6.94    1.56
  -8   7  -6   34.34    2.74
  -7   7  -6   21.99    2.09
  -6   7  -6   28.90    2.43
  -5   7  -6   59.19    3.56
  -4   7  -6  105.93    5.14
  -3   7  -6   23.72    2.19
  -2   7  -6   16.79    1.66
  -1   7  -6    0.16    0.26
   0   7  -6   19.34    2.05
   1   7  -6   45.56    3.30
   2   7  -6   18.53    2.52
   3   7  -6   10.67    1.98
  -9   8  -6    1.65    0.80
  -8   8  -6   85.84    4.77
  -7   8  -6   44.96    3.21
  -6   8  -6    3.13    1.02
  -5   8  -6   46.16    3.25
  -4   8  -6   27.50    2.41
  -3   8  -6   44.38    3.12
  -2   8  -6    8.15    1.63
  -1   8  -6   32.84    2.73
   0   8  -6   84.46    4.82
   1   8  -6   79.59    4.65
   2   8  -6   75.70    4.71
 -10   9  -6    9.57    1.87
  -9   9  -6   24.37    2.43
  -8   9  -6   81.95    4.66
  -7   9  -6   19.56    2.51
  -6   9  -6   59.24    3.86
  -5   9  -6   19.11    2.54
  -4   9  -6    8.92    1.70
  -3   9  -6   48.82    3.46
  -2   9  -6    0.97    0.73
  -1   9  -6    2.03    0.80
   0   9  -6   18.78    2.53
  -9  10  -6    1.56    0.84
  -8  10  -6   81.66    4.82
  -7  10  -6   11.04    1.96
  -6  10  -6    4.84    1.34
  -5  10  -6   40.63    3.24
  -4  10  -6   78.44    4.67
  -3  10  -6   80.40    4.78
  -2  10  -6   46.37    3.55
   4 -12  -5  139.60    7.57
   5 -12  -5    6.99    1.78
   6 -12  -5   25.25    3.35
   7 -12  -5   45.62    3.76
   8 -12  -5   29.83    2.98
   9 -12  -5   19.72    2.99
   1 -11  -5   22.98    3.32
   2 -11  -5    5.75    1.65
   3 -11  -5   15.48    2.57
   4 -11  -5   25.64    2.82
   5 -11  -5   59.15    4.31
   6 -11  -5   44.70    3.68
   7 -11  -5    4.43    1.33
   8 -11  -5   38.60    3.33
   9 -11  -5   42.91    3.48
  10 -11  -5   12.53    2.31
  11 -11  -5    3.82    0.93
  -1 -10  -5    7.98    1.95
   0 -10  -5  183.39    8.83
   1 -10  -5   57.04    4.45
   2 -10  -5  119.77    6.59
   3 -10  -5    6.60    1.66
   4 -10  -5    5.86    1.49
   5 -10  -5   29.01    2.85
   6 -10  -5   52.78    3.83
   7 -10  -5   40.56    3.24
   8 -10  -5   26.93    1.82
   9 -10  -5   11.03    1.52
  10 -10  -5  187.08    5.83
  11 -10  -5   21.55    1.87
  -3  -9  -5   19.16    2.09
  -2  -9  -5   35.26    2.40
  -1  -9  -5   10.83    2.13
   0  -9  -5    2.17    0.97
   1  -9  -5    0.15    0.44
   2  -9  -5    1.05    0.66
   3  -9  -5    1.14    0.71
   4  -9  -5   21.51    2.33
   5  -9  -5   47.76    3.50
   6  -9  -5   22.98    2.32
   7  -9  -5   91.27    5.00
   8  -9  -5   17.40    2.43
   9  -9  -5    3.28    0.79
  10  -9  -5   64.82    3.01
  11  -9  -5    8.63    1.26
  12  -9  -5    4.63    0.97
  -4  -8  -5   28.85    2.12
  -3  -8  -5   42.31    2.51
  -2  -8  -5   25.14    1.86
  -1  -8  -5   15.70    1.68
   0  -8  -5    6.86    1.07
   1  -8  -5  117.85    4.08
   2  -8  -5  119.85    4.10
   3  -8  -5  283.48    7.36
   4  -8  -5   32.71    2.77
   5  -8  -5   13.20    1.99
   6  -8  -5   21.47    2.17
   7  -8  -5   18.85    1.40
   8  -8  -5    7.21    1.03
   9  -8  -5    0.21    0.26
  10  -8  -5  123.95    4.24
  11  -8  -5   13.33    1.54
  12  -8  -5  146.41    4.92
  -5  -7  -5   41.55    2.63
  -4  -7  -5    3.54    0.88
  -3  -7  -5   39.87    2.32
  -2  -7  -5   85.55    3.57
  -1  -7  -5   19.67    1.51
   0  -7  -5   14.28    1.51
   1  -7  -5    9.84    1.19
   2  -7  -5   23.98    2.05
   3  -7  -5   34.95    1.83
   4  -7  -5   14.90    1.16
   5  -7  -5    6.09    0.88
   6  -7  -5  344.94    8.20
   7  -7  -5   15.19    0.87
   8  -7  -5  125.29    3.19
   9  -7  -5    0.60    0.38
  10  -7  -5    8.72    1.19
  11  -7  -5   26.23    1.80
  12  -7  -5    7.09    1.18
  -6  -6  -5   24.80    3.23
  -5  -6  -5   49.02    2.65
  -4  -6  -5   48.83    2.59
  -3  -6  -5   20.23    1.57
  -2  -6  -5   21.24    2.15
  -1  -6  -5  337.55   11.83
   0  -6  -5   18.94    1.88
   1  -6  -5   47.74    2.95
   2  -6  -5   34.33    2.44
   3  -6  -5  189.89    7.26
   4  -6  -5    0.63    0.42
   5  -6  -5  100.66    4.67
   6  -6  -5   19.64    0.87
   7  -6  -5   10.90    0.83
   8  -6  -5  116.29    3.86
   9  -6  -5    2.08    0.53
  10  -6  -5    4.96    0.90
  11  -6  -5   56.54    2.75
  12  -6  -5   22.70    1.88
  -7  -5  -5    9.06    1.96
  -6  -5  -5   57.37    4.23
  -5  -5  -5   26.00    2.66
  -4  -5  -5   44.18    3.30
  -3  -5  -5   13.96    2.14
  -2  -5  -5    5.60    1.30
  -1  -5  -5  100.48    4.90
   0  -5  -5   11.23    1.62
   1  -5  -5   14.84    1.57
   2  -5  -5  124.18    5.23
   3  -5  -5    4.53    1.02
   4  -5  -5  242.28    8.54
   5  -5  -5   12.13    1.10
   6  -5  -5   46.25    1.94
   7  -5  -5   23.73    1.42
   8  -5  -5  290.02    7.19
   9  -5  -5   19.67    1.44
  10  -5  -5   31.47    1.90
  11  -5  -5   44.64    2.43
  12  -5  -5   43.03    2.48
  -8  -4  -5  134.42    7.34
  -7  -4  -5   25.16    2.71
  -6  -4  -5    6.35    1.58
  -5  -4  -5   18.93    2.54
  -4  -4  -5   33.22    2.71
  -3  -4  -5   16.08    2.21
  -2  -4  -5    0.27    0.39
  -1  -4  -5  228.65    8.56
   0  -4  -5   10.85    1.53
   1  -4  -5  403.26   12.69
   2  -4  -5    3.84    0.91
   3  -4  -5   15.87    1.06
   4  -4  -5   10.81    0.89
   5  -4  -5   15.76    1.03
   6  -4  -5   35.16    1.67
   7  -4  -5   34.95    1.75
   8  -4  -5   37.56    1.90
   9  -4  -5   41.74    2.17
  10  -4  -5   51.32    2.52
  11  -4  -5    2.51    0.72
  12  -4  -5   27.38    1.97
  -8  -3  -5   13.52    2.30
  -7  -3  -5    6.59    1.58
  -6  -3  -5    0.58    0.54
  -5  -3  -5  282.50   10.57
  -4  -3  -5   38.35    2.83
  -3  -3  -5  186.42    7.53
  -2  -3  -5    5.20    1.18
  -1  -3  -5   16.83    1.64
   0  -3  -5   78.36    3.88
   1  -3  -5   39.94    2.66
   2  -3  -5   36.94    1.56
   3  -3  -5   76.48    2.50
   4  -3  -5  393.06   12.03
   5  -3  -5  127.33    3.51
   6  -3  -5  201.58    5.15
   7  -3  -5   14.32    1.22
   8  -3  -5   14.10    1.43
   9  -3  -5   19.80    1.47
  10  -3  -5   37.50    2.16
  11  -3  -5   37.68    2.24
  12  -3  -5   16.07    2.59
  -9  -2  -5    6.40    1.62
  -8  -2  -5  125.34    6.45
  -7  -2  -5    0.50    0.51
  -6  -2  -5  112.55    5.79
  -5  -2  -5   25.09    2.26
  -4  -2  -5   32.03    2.53
  -3  -2  -5  119.84    5.35
  -2  -2  -5    5.02    1.07
  -1  -2  -5   41.54    2.66
   0  -2  -5  103.91    4.71
   1  -2  -5   66.94    2.17
   2  -2  -5  105.22    3.08
   3  -2  -5   42.17    2.35
   4  -2  -5    4.56    0.61
   5  -2  -5    6.71    0.82
   6  -2  -5    0.61    0.31
   7  -2  -5    5.34    0.79
   8  -2  -5   21.58    1.46
   9  -2  -5   90.88    3.45
  10  -2  -5   25.34    1.75
  11  -2  -5   39.16    2.33
 -10  -1  -5   20.34    2.95
  -9  -1  -5   66.29    4.50
  -8  -1  -5    0.25    0.50
  -7  -1  -5  118.76    5.83
  -6  -1  -5    8.34    1.56
  -5  -1  -5   43.66    2.98
  -4  -1  -5   19.20    1.85
  -3  -1  -5  379.68   12.62
  -2  -1  -5   42.11    2.70
  -1  -1  -5   66.60    3.45
   0  -1  -5  101.99    2.88
   1  -1  -5  102.28    2.94
   2  -1  -5   65.33    2.26
   3  -1  -5   37.99    2.26
   4  -1  -5   17.72    1.05
   5  -1  -5  236.72    5.82
   6  -1  -5   99.39    3.28
   7  -1  -5  334.65    8.19
   8  -1  -5   20.44    1.44
   9  -1  -5   17.09    1.68
  10  -1  -5   12.09    1.49
  11  -1  -5   10.88    1.39
 -10   0  -5  187.78    8.41
  -9   0  -5    4.09    1.26
  -8   0  -5    8.66    1.67
  -7   0  -5   14.28    2.04
  -6   0  -5   18.90    1.90
  -5   0  -5   14.60    1.98
  -4   0  -5   11.50    1.65
  -3   0  -5   69.29    3.69
  -2   0  -5  106.16    3.01
  -1   0  -5  101.44    2.89
   0   0  -5   -0.05    0.15
   1   0  -5  100.53    2.98
   2   0  -5  100.10    4.24
   3   0  -5   78.61    2.45
   4   0  -5   10.99    0.90
   5   0  -5   14.16    1.01
   6   0  -5   16.99    1.21
   7   0  -5   14.12    1.39
   8   0  -5   10.52    1.27
   9   0  -5    2.90    0.70
  10   0  -5  189.47    5.85
 -11   1  -5   11.40    2.12
 -10   1  -5   12.66    2.21
  -9   1  -5   18.42    2.53
  -8   1  -5   24.09    2.28
  -7   1  -5  328.83   11.71
  -6   1  -5   93.40    4.71
  -5   1  -5  231.84    8.55
  -4   1  -5   16.05    1.57
  -3   1  -5   38.67    1.59
  -2   1  -5   65.67    2.20
  -1   1  -5  103.09    2.96
   0   1  -5  102.14    2.98
   1   1  -5   63.14    3.02
   2   1  -5   41.97    2.46
   3   1  -5  398.75    8.57
   4   1  -5   15.39    1.05
   5   1  -5   44.06    1.97
   6   1  -5    9.60    1.12
   7   1  -5  116.51    3.92
   8   1  -5   -0.07    0.29
   9   1  -5   67.29    3.05
  10   1  -5   19.67    1.97
 -11   2  -5   41.94    3.41
 -10   2  -5   23.51    2.46
  -9   2  -5   86.13    4.81
  -8   2  -5   21.16    2.09
  -7   2  -5    5.05    1.15
  -6   2  -5    0.56    0.42
  -5   2  -5    7.05    1.29
  -4   2  -5    4.21    0.59
  -3   2  -5   42.10    1.71
  -2   2  -5  108.05    3.12
  -1   2  -5   66.05    2.27
   0   2  -5  106.50    3.18
   1   2  -5   36.70    2.27
   2   2  -5    4.16    0.58
   3   2  -5  120.98    3.45
   4   2  -5   35.33    1.69
   5   2  -5   24.21    1.46
   6   2  -5  114.71    3.90
   7   2  -5    0.76    0.39
   8   2  -5  122.25    4.30
   9   2  -5    8.64    1.27
 -12   3  -5   21.19    2.89
 -11   3  -5   45.14    3.39
 -10   3  -5   41.06    3.10
  -9   3  -5   21.64    2.10
  -8   3  -5   14.05    1.93
  -7   3  -5   14.79    1.60
  -6   3  -5  195.08    5.00
  -5   3  -5  125.66    3.48
  -4   3  -5  393.67    8.64
  -3   3  -5   81.42    2.58
  -2   3  -5   40.08    1.69
  -1   3  -5   43.37    1.79
   0   3  -5   75.42    3.55
   1   3  -5   19.04    1.61
   2   3  -5    6.52    0.78
   3   3  -5  189.14    4.99
   4   3  -5   32.84    1.69
   5   3  -5  273.48    7.10
   6   3  -5    1.89    0.53
   7   3  -5    8.31    1.17
   8   3  -5   15.27    1.68
   9   3  -5    4.88    1.45
 -11   4  -5    2.55    0.98
 -10   4  -5   53.79    3.53
  -9   4  -5   48.96    3.14
  -8   4  -5   37.46    2.59
  -7   4  -5   37.88    1.74
  -6   4  -5   37.66    1.68
  -5   4  -5   15.93    1.04
  -4   4  -5   10.97    0.89
  -3   4  -5   16.26    1.04
  -2   4  -5    4.65    0.66
  -1   4  -5  389.64    8.73
   0   4  -5   14.18    1.38
   1   4  -5  238.37    5.72
   2   4  -5    0.17    0.23
   3   4  -5   15.95    1.12
   4   4  -5   33.84    1.77
   5   4  -5   24.06    1.56
   6   4  -5    5.40    0.93
   7   4  -5   25.26    1.89
   8   4  -5  143.87    4.94
  -9   5  -5   18.62    1.88
  -8   5  -5  292.48    6.98
  -7   5  -5   25.54    1.42
  -6   5  -5   45.96    1.91
  -5   5  -5   12.20    0.99
  -4   5  -5  233.49    5.76
  -3   5  -5    4.39    0.63
  -2   5  -5  123.73    3.54
  -1   5  -5   19.18    1.68
   0   5  -5   15.05    1.49
   1   5  -5   98.89    3.15
   2   5  -5    5.67    0.75
   3   5  -5   12.45    1.30
   4   5  -5   46.22    2.17
   5   5  -5   31.93    1.86
   6   5  -5   58.71    2.74
   7   5  -5    5.74    1.00
  -9   6  -5    1.13    0.65
  -8   6  -5  122.97    5.43
  -7   6  -5   10.22    1.53
  -6   6  -5   19.78    1.19
  -5   6  -5   99.82    3.13
  -4   6  -5    0.75    0.31
  -3   6  -5  195.76    5.04
  -2   6  -5   35.14    1.66
  -1   6  -5   48.69    2.92
   0   6  -5   16.85    1.12
   1   6  -5  339.22    8.04
   2   6  -5   21.22    1.40
   3   6  -5   22.11    1.47
   4   6  -5   48.37    2.37
   5   6  -5   45.28    2.39
   6   6  -5   23.52    1.92
 -10   7  -5    8.06    1.53
  -9   7  -5    0.50    0.43
  -8   7  -5  124.70    5.50
  -7   7  -5   16.66    2.07
  -6   7  -5  335.08   11.49
  -5   7  -5    5.91    1.23
  -4   7  -5   14.48    1.89
  -3   7  -5   31.21    1.69
  -2   7  -5   23.83    1.39
  -1   7  -5   10.47    1.68
   0   7  -5   15.46    1.23
   1   7  -5   19.30    1.33
   2   7  -5   87.71    3.29
   3   7  -5   36.95    2.04
   4   7  -5    3.05    0.72
   5   7  -5   44.58    2.45
 -11   8  -5   14.48    2.19
 -10   8  -5  123.89    5.89
  -9   8  -5    0.41    0.47
  -8   8  -5   11.89    1.84
  -7   8  -5   19.32    1.94
  -6   8  -5   20.02    1.97
  -5   8  -5   10.80    1.68
  -4   8  -5   32.91    2.53
  -3   8  -5  285.22   10.18
  -2   8  -5  118.22    5.53
  -1   8  -5  114.50    5.44
   0   8  -5    8.24    1.07
   1   8  -5   17.24    1.43
   2   8  -5   26.09    1.69
   3   8  -5   36.65    2.14
   4   8  -5   27.76    1.92
 -12   9  -5    4.97    1.30
 -11   9  -5    8.05    1.68
 -10   9  -5   67.17    4.16
  -9   9  -5    3.53    1.08
  -8   9  -5   15.68    2.19
  -7   9  -5   88.27    4.76
  -6   9  -5   20.91    2.09
  -5   9  -5   48.69    3.19
  -4   9  -5   21.96    2.11
  -3   9  -5    0.63    0.53
  -2   9  -5    0.59    0.59
  -1   9  -5   -0.10    0.27
   0   9  -5    3.58    0.75
   1   9  -5   10.60    1.33
   2   9  -5   36.11    2.15
   3   9  -5   16.08    1.82
 -11  10  -5   22.28    2.85
 -10  10  -5  184.04    8.00
  -9  10  -5   11.27    1.91
  -8  10  -5   23.67    2.37
  -7  10  -5   38.04    3.01
  -6  10  -5   48.69    3.47
  -5  10  -5   31.38    2.66
  -4  10  -5    5.38    1.28
  -3  10  -5    8.45    1.64
  -2  10  -5  125.61    6.03
  -1  10  -5   61.99    2.86
   0  10  -5  181.06    5.56
   1  10  -5   12.20    1.45
 -10  11  -5   12.63    2.19
  -9  11  -5   43.22    3.38
  -8  11  -5   39.67    3.22
  -7  11  -5    5.19    1.37
  -6  11  -5   43.23    3.36
  -5  11  -5   60.33    3.99
  -4  11  -5   24.98    2.48
  -3  11  -5   13.67    2.18
  -2  11  -5    7.85    1.61
  -1  11  -5   23.77    2.02
   0  11  -5    4.96    1.33
  -8  12  -5   30.07    2.90
  -7  12  -5   43.92    3.51
  -6  12  -5   24.03    2.53
  -5  12  -5    5.87    1.46
  -4  12  -5  143.47    6.87
   4 -13  -4    3.30    1.32
   5 -13  -4   86.06    5.60
   6 -13  -4  108.61    6.33
   7 -13  -4   22.88    3.33
   8 -13  -4   27.31    2.86
   9 -13  -4   24.37    2.70
   1 -12  -4    3.38    1.33
   2 -12  -4  161.11    8.17
   3 -12  -4    3.41    1.28
   4 -12  -4   39.04    3.51
   5 -12  -4    3.17    1.17
   6 -12  -4   20.80    2.90
   7 -12  -4    1.02    0.75
   8 -12  -4   24.56    2.61
   9 -12  -4   37.59    2.28
  10 -12  -4  124.15    6.61
  11 -12  -4   88.15    5.49
  -1 -11  -4   91.11    5.73
   0 -11  -4   12.38    2.40
   1 -11  -4    3.63    1.32
   2 -11  -4   11.75    2.24
   3 -11  -4   43.14    3.59
   4 -11  -4    0.35    0.56
   5 -11  -4   49.48    3.78
   6 -11  -4   25.29    2.64
   7 -11  -4  279.21   10.55
   8 -11  -4    7.10    1.56
   9 -11  -4   40.72    3.33
  10 -11  -4    4.81    1.34
  11 -11  -4   11.24    2.08
  12 -11  -4    5.58    1.11
  -3 -10  -4    5.98    1.65
  -2 -10  -4  120.74    6.74
  -1 -10  -4    7.69    1.85
   0 -10  -4   20.85    2.94
   1 -10  -4   25.37    2.69
   2 -10  -4   35.53    3.14
   3 -10  -4   92.43    5.35
   4 -10  -4   80.06    4.90
   5 -10  -4   31.39    2.82
   6 -10  -4   31.80    2.80
   7 -10  -4   27.02    2.54
   8 -10  -4    7.75    1.59
   9 -10  -4    8.45    1.67
  10 -10  -4   23.80    2.47
  11 -10  -4    4.92    0.95
  12 -10  -4  155.53    5.38
  13 -10  -4    0.90    0.63
  -4  -9  -4   26.30    2.79
  -3  -9  -4   38.73    2.34
  -2  -9  -4   43.63    2.42
  -1  -9  -4    7.57    1.32
   0  -9  -4  100.49    5.55
   1  -9  -4    9.86    1.93
   2  -9  -4   25.60    2.59
   3  -9  -4  118.89    5.93
   4  -9  -4    4.48    1.26
   5  -9  -4   72.78    4.22
   6  -9  -4   33.99    2.74
   7  -9  -4   60.76    3.66
   8  -9  -4   70.32    2.89
   9  -9  -4  102.66    5.27
  10  -9  -4   24.18    1.71
  11  -9  -4   14.96    1.66
  12  -9  -4    2.55    0.76
  13  -9  -4    4.06    0.94
  -5  -8  -4   28.63    3.01
  -4  -8  -4   19.12    1.90
  -3  -8  -4    9.72    1.32
  -2  -8  -4    7.96    1.15
  -1  -8  -4   67.52    2.94
   0  -8  -4  192.05    5.53
   1  -8  -4   32.66    1.83
   2  -8  -4   28.33    1.62
   3  -8  -4   50.00    2.17
   4  -8  -4   28.40    2.44
   5  -8  -4  188.04    7.52
   6  -8  -4    5.42    1.21
   7  -8  -4    2.23    0.77
   8  -8  -4  189.67    5.33
   9  -8  -4   10.44    1.29
  10  -8  -4   29.06    1.88
  11  -8  -4   35.86    2.13
  12  -8  -4   40.70    2.33
  13  -8  -4   85.29    3.63
  -6  -7  -4   19.23    2.94
  -5  -7  -4    1.03    0.71
  -4  -7  -4  270.31    7.42
  -3  -7  -4   27.56    1.81
  -2  -7  -4   59.44    2.65
  -1  -7  -4    2.61    0.64
   0  -7  -4   28.71    1.66
   1  -7  -4   22.41    1.42
   2  -7  -4    2.72    0.56
   3  -7  -4   43.11    1.88
   4  -7  -4  198.97    5.17
   5  -7  -4  129.02    3.75
   6  -7  -4   88.15    2.87
   7  -7  -4   29.24    1.60
   8  -7  -4   36.82    1.92
   9  -7  -4   33.29    1.89
  10  -7  -4   90.71    3.50
  11  -7  -4    0.58    0.38
  12  -7  -4    3.64    0.66
  13  -7  -4   96.12    3.23
  -7  -6  -4   95.96    5.84
  -6  -6  -4   24.23    2.60
  -5  -6  -4   29.07    1.90
  -4  -6  -4   33.17    1.98
  -3  -6  -4   30.11    1.82
  -2  -6  -4    3.44    0.71
  -1  -6  -4   94.95    4.38
   0  -6  -4    6.23    1.17
   1  -6  -4  393.90   12.39
   2  -6  -4    1.78    0.60
   3  -6  -4   11.72    1.25
   4  -6  -4    7.66    0.78
   5  -6  -4   10.51    1.05
   6  -6  -4    6.60    0.81
   7  -6  -4   23.30    1.12
   8  -6  -4   29.53    1.65
   9  -6  -4  122.75    3.99
  10  -6  -4   86.55    3.33
  11  -6  -4   49.53    1.99
  12  -6  -4   24.70    1.43
  13  -6  -4   22.30    2.07
  -8  -5  -4   84.79    5.35
  -7  -5  -4    3.66    1.20
  -6  -5  -4   55.83    3.85
  -5  -5  -4   35.66    2.02
  -4  -5  -4   69.68    2.83
  -3  -5  -4  180.19    7.34
  -2  -5  -4  125.54    5.49
  -1  -5  -4    8.29    1.37
   0  -5  -4    1.48    0.61
   1  -5  -4   11.82    1.23
   2  -5  -4   50.15    2.67
   3  -5  -4   15.35    0.87
   4  -5  -4   62.24    2.11
   5  -5  -4    2.18    0.42
   6  -5  -4  384.91    7.08
   7  -5  -4    3.96    0.49
   8  -5  -4   49.34    1.76
   9  -5  -4    3.85    0.62
  10  -5  -4   35.82    1.59
  11  -5  -4   23.81    1.38
  12  -5  -4    0.73    0.48
  13  -5  -4   25.51    2.04
  -9  -4  -4    3.44    1.30
  -8  -4  -4   34.14    3.18
  -7  -4  -4    0.12    0.47
  -6  -4  -4   83.88    3.31
  -5  -4  -4    4.36    1.23
  -4  -4  -4   27.81    2.36
  -3  -4  -4  191.27    7.45
  -2  -4  -4    7.69    1.33
  -1  -4  -4   63.34    3.34
   0  -4  -4   52.15    2.79
   1  -4  -4   79.01    3.54
   2  -4  -4  231.58    5.07
   3  -4  -4  414.47    8.64
   4  -4  -4   52.03    1.51
   5  -4  -4   13.06    0.72
   6  -4  -4    1.55    0.33
   7  -4  -4   41.32    1.50
   8  -4  -4   25.59    1.23
   9  -4  -4   68.45    2.20
  10  -4  -4   32.12    1.89
  11  -4  -4  268.50    7.27
  12  -4  -4   18.50    1.85
  13  -4  -4   25.98    2.78
  -9  -3  -4    1.97    1.05
  -8  -3  -4   35.09    3.10
  -7  -3  -4   86.84    5.04
  -6  -3  -4  126.18    5.89
  -5  -3  -4   51.52    3.29
  -4  -3  -4   40.75    2.75
  -3  -3  -4   12.72    1.74
  -2  -3  -4   16.44    1.55
  -1  -3  -4  399.62   12.57
   0  -3  -4   40.81    2.37
   1  -3  -4    4.96    0.44
   2  -3  -4  197.64    3.72
   3  -3  -4   40.25    1.23
   4  -3  -4   76.63    1.89
   5  -3  -4   49.02    1.48
   6  -3  -4   11.75    0.76
   7  -3  -4  197.45    4.20
   8  -3  -4  180.48    4.08
   9  -3  -4   29.47    1.74
  10  -3  -4   27.34    1.74
  11  -3  -4    9.97    1.31
  12  -3  -4   34.28    2.18
 -10  -2  -4  155.86    7.74
  -9  -2  -4   13.05    2.20
  -8  -2  -4   28.39    2.70
  -7  -2  -4   34.39    2.80
  -6  -2  -4   26.22    2.30
  -5  -2  -4    2.73    0.82
  -4  -2  -4    1.15    0.54
  -3  -2  -4   44.63    2.73
  -2  -2  -4  216.19    7.63
  -1  -2  -4  187.91    6.91
   0  -2  -4   53.47    1.62
   1  -2  -4   94.08    1.97
   2  -2  -4   51.35    1.35
   3  -2  -4    4.92    0.44
   4  -2  -4  230.45    4.22
   5  -2  -4   15.81    0.78
   6  -2  -4    7.10    0.66
   7  -2  -4  127.45    3.85
   8  -2  -4    4.18    0.71
   9  -2  -4   60.03    2.60
  10  -2  -4    8.58    1.14
  11  -2  -4   42.04    2.33
  12  -2  -4  122.22    4.54
 -11  -1  -4    4.70    1.52
 -10  -1  -4    3.28    1.24
  -9  -1  -4   25.55    2.54
  -8  -1  -4   11.03    1.91
  -7  -1  -4   32.53    2.66
  -6  -1  -4   24.76    2.16
  -5  -1  -4  379.71   12.56
  -4  -1  -4   14.43    1.44
  -3  -1  -4   75.75    3.57
  -2  -1  -4    4.46    0.41
  -1  -1  -4   91.03    2.47
   0  -1  -4   27.77    1.11
   1  -1  -4   27.71    0.85
   2  -1  -4   91.60    1.94
   3  -1  -4  199.82    3.71
   4  -1  -4  405.82    8.73
   5  -1  -4   62.98    2.25
   6  -1  -4   10.57    1.09
   7  -1  -4   86.38    2.99
   8  -1  -4    2.55    0.61
   9  -1  -4   66.52    2.86
  10  -1  -4   10.33    1.30
  11  -1  -4    5.01    0.95
  12  -1  -4   90.01    3.80
 -11   0  -4   12.85    2.21
 -10   0  -4   22.05    2.33
  -9   0  -4  101.82    5.30
  -8   0  -4  190.48    7.77
  -7   0  -4   32.31    2.47
  -6   0  -4    6.41    1.24
  -5   0  -4    1.22    0.50
  -4   0  -4   54.54    2.90
  -3   0  -4   40.70    1.43
  -2   0  -4   50.66    1.64
  -1   0  -4   27.66    1.13
   0   0  -4  952.52   14.88
   1   0  -4   27.23    1.00
   2   0  -4   50.13    1.62
   3   0  -4   39.79    1.51
   4   0  -4   56.03    1.93
   5   0  -4    3.24    0.55
   6   0  -4    7.64    0.93
   7   0  -4   29.37    1.62
   8   0  -4  185.31    5.37
   9   0  -4   97.71    3.60
  10   0  -4   21.04    1.73
  11   0  -4   12.09    1.55
 -12   1  -4   82.44    5.24
 -11   1  -4    5.59    1.47
 -10   1  -4   12.59    2.07
  -9   1  -4   68.95    4.13
  -8   1  -4    1.59    0.73
  -7   1  -4   92.65    4.38
  -6   1  -4    9.70    1.44
  -5   1  -4   63.22    2.10
  -4   1  -4  410.21    8.60
  -3   1  -4  192.72    4.61
  -2   1  -4   91.37    2.56
  -1   1  -4   29.24    1.20
   0   1  -4   25.51    0.82
   1   1  -4   91.75    2.43
   2   1  -4    4.66    0.56
   3   1  -4   77.61    2.36
   4   1  -4   14.64    0.94
   5   1  -4  377.66    8.69
   6   1  -4   22.10    1.36
   7   1  -4   36.73    1.88
   8   1  -4    8.81    1.12
   9   1  -4   27.03    1.76
  10   1  -4    2.34    0.65
  11   1  -4    4.29    0.96
 -12   2  -4  119.66    6.34
 -11   2  -4   40.73    3.21
 -10   2  -4    8.31    1.59
  -9   2  -4   59.80    3.60
  -8   2  -4    5.05    1.12
  -7   2  -4  128.48    5.37
  -6   2  -4    7.02    0.75
  -5   2  -4   15.86    0.93
  -4   2  -4  224.23    5.15
  -3   2  -4    6.68    0.65
  -2   2  -4   51.55    1.74
  -1   2  -4   92.84    1.99
   0   2  -4   53.07    1.60
   1   2  -4  196.62    4.57
   2   2  -4  228.40    5.18
   3   2  -4   48.72    1.81
   4   2  -4    1.55    0.38
   5   2  -4    2.53    0.53
   6   2  -4   28.17    1.58
   7   2  -4   33.16    1.84
   8   2  -4   30.17    1.85
   9   2  -4   12.94    1.49
  10   2  -4  166.31    5.41
 -13   3  -4    5.16    1.38
 -12   3  -4   37.84    3.12
 -11   3  -4    8.23    1.59
 -10   3  -4   28.03    2.41
  -9   3  -4   29.37    2.38
  -8   3  -4  186.66    7.07
  -7   3  -4  196.41    4.96
  -6   3  -4   12.07    0.87
  -5   3  -4   49.45    1.78
  -4   3  -4   74.74    2.30
  -3   3  -4   38.41    1.51
  -2   3  -4  197.43    3.70
  -1   3  -4    4.77    0.51
   0   3  -4   40.81    1.46
   1   3  -4  405.58    8.59
   2   3  -4   16.00    0.96
   3   3  -4   12.33    0.97
   4   3  -4   38.04    1.75
   5   3  -4   49.87    2.13
   6   3  -4  122.69    3.89
   7   3  -4   93.42    3.44
   8   3  -4   36.59    2.09
   9   3  -4    1.70    0.59
  10   3  -4    0.71    0.75
 -12   4  -4   27.52    2.49
 -11   4  -4  277.19    9.94
 -10   4  -4   31.31    2.51
  -9   4  -4   70.63    2.57
  -8   4  -4   26.75    1.42
  -7   4  -4   43.00    1.76
  -6   4  -4    1.37    0.35
  -5   4  -4   13.79    0.86
  -4   4  -4   49.80    1.79
  -3   4  -4  406.46    8.69
  -2   4  -4  228.85    4.17
  -1   4  -4   78.83    2.25
   0   4  -4   52.45    1.80
   1   4  -4   62.83    2.17
   2   4  -4    7.22    0.81
   3   4  -4  192.81    5.05
   4   4  -4   29.93    1.56
   5   4  -4    3.75    0.69
   6   4  -4   88.75    3.27
   7   4  -4   -0.15    0.26
   8   4  -4   34.19    2.10
   9   4  -4    3.80    0.87
 -10   5  -4   35.52    1.80
  -9   5  -4    3.92    0.66
  -8   5  -4   53.15    2.05
  -7   5  -4    3.83    0.61
  -6   5  -4  382.30    8.49
  -5   5  -4    1.42    0.35
  -4   5  -4   64.15    2.15
  -3   5  -4   16.21    0.74
  -2   5  -4   50.28    1.44
  -1   5  -4   14.31    0.87
   0   5  -4    2.09    0.42
   1   5  -4   10.99    0.90
   2   5  -4  130.72    3.74
   3   5  -4  175.79    4.86
   4   5  -4   69.79    2.64
   5   5  -4   31.63    1.79
   6   5  -4   48.51    2.37
   7   5  -4    4.09    0.84
   8   5  -4   83.08    3.49
 -11   6  -4   47.69    3.18
 -10   6  -4   92.01    4.53
  -9   6  -4  121.59    5.29
  -8   6  -4   28.29    2.15
  -7   6  -4   23.18    1.27
  -6   6  -4    6.28    0.73
  -5   6  -4    9.88    0.82
  -4   6  -4    8.00    0.65
  -3   6  -4   12.85    0.70
  -2   6  -4    1.20    0.35
  -1   6  -4  389.68    8.58
   0   6  -4    6.88    0.81
   1   6  -4   88.31    2.86
   2   6  -4    4.19    0.69
   3   6  -4   33.14    1.73
   4   6  -4   31.31    1.79
   5   6  -4   24.40    1.63
   6   6  -4   23.40    1.67
   7   6  -4   99.81    3.87
 -12   7  -4    2.70    0.94
 -11   7  -4    0.10    0.42
 -10   7  -4   92.03    4.66
  -9   7  -4   30.94    2.42
  -8   7  -4   34.06    2.49
  -7   7  -4   31.54    2.27
  -6   7  -4   82.91    4.01
  -5   7  -4  128.52    5.29
  -4   7  -4  193.24    4.94
  -3   7  -4   41.70    1.37
  -2   7  -4    3.32    0.57
  -1   7  -4   23.20    1.32
   0   7  -4   28.71    1.51
   1   7  -4    2.43    0.57
   2   7  -4   58.01    2.40
   3   7  -4   26.50    1.61
   4   7  -4  271.10    7.08
   5   7  -4    1.14    0.52
   6   7  -4   19.43    1.89
 -13   8  -4   80.77    4.73
 -12   8  -4   35.79    2.93
 -11   8  -4   36.70    2.89
 -10   8  -4   29.75    2.50
  -9   8  -4    7.58    1.42
  -8   8  -4  184.46    7.41
  -7   8  -4    0.70    0.46
  -6   8  -4    4.40    1.06
  -5   8  -4  178.89    4.82
  -4   8  -4   26.93    1.45
  -3   8  -4   49.50    2.05
  -2   8  -4   28.79    1.53
  -1   8  -4   35.69    1.77
   0   8  -4  188.37    5.19
   1   8  -4   69.77    2.75
   2   8  -4    8.22    1.08
   3   8  -4    9.10    1.18
   4   8  -4   22.31    1.62
   5   8  -4   28.69    1.91
 -13   9  -4    4.42    1.30
 -12   9  -4    2.36    0.97
 -11   9  -4   14.18    2.15
 -10   9  -4   24.34    2.31
  -9   9  -4   89.01    4.81
  -8   9  -4   66.48    3.93
  -7   9  -4   60.96    3.56
  -6   9  -4   28.46    2.35
  -5   9  -4   68.78    2.59
  -4   9  -4    4.09    0.72
  -3   9  -4  121.86    3.77
  -2   9  -4   32.97    1.76
  -1   9  -4   10.80    1.19
   0   9  -4  101.76    3.51
   1   9  -4    8.40    1.10
   2   9  -4   41.26    2.19
   3   9  -4   35.45    2.09
   4   9  -4   26.70    1.84
 -13  10  -4    1.09    0.73
 -12  10  -4  161.97    7.40
 -11  10  -4    4.48    1.28
 -10  10  -4   17.85    2.37
  -9  10  -4    9.98    1.78
  -8  10  -4    9.78    1.77
  -7  10  -4   29.18    2.45
  -6  10  -4   33.69    1.81
  -5  10  -4   33.10    1.81
  -4  10  -4   87.25    3.17
  -3  10  -4   95.11    3.36
  -2  10  -4   32.13    1.82
  -1  10  -4   24.63    1.62
   0  10  -4   22.74    1.57
   1  10  -4    5.25    0.93
   2  10  -4  127.63    4.39
   3  10  -4    4.92    1.10
 -12  11  -4    4.06    1.24
 -11  11  -4   10.01    1.94
 -10  11  -4    6.44    1.44
  -9  11  -4   43.51    3.27
  -8  11  -4   12.42    2.04
  -7  11  -4  277.01   10.20
  -6  11  -4   26.86    1.68
  -5  11  -4   45.77    2.27
  -4  11  -4    0.13    0.28
  -3  11  -4   35.64    1.99
  -2  11  -4   15.62    1.60
  -1  11  -4    4.15    0.85
   0  11  -4   10.48    1.34
   1  11  -4   92.72    3.66
 -11  12  -4   89.60    5.25
 -10  12  -4  126.57    6.36
  -9  12  -4   35.61    3.07
  -8  12  -4   23.00    2.42
  -7  12  -4    0.87    0.63
  -6  12  -4   24.84    1.72
  -5  12  -4    6.29    0.84
  -4  12  -4   37.68    2.13
  -3  12  -4    2.20    0.61
  -2  12  -4  159.86    5.18
  -1  12  -4    5.78    1.07
  -9  13  -4   26.18    3.21
  -8  13  -4   26.47    2.71
  -7  13  -4   20.35    2.75
  -6  13  -4  104.48    3.95
  -5  13  -4   84.80    3.48
  -4  13  -4    3.41    0.80
  -3  13  -4    1.19    0.56
   5 -14  -3   23.85    4.30
   6 -14  -3   16.62    2.88
   7 -14  -3   29.63    3.16
   8 -14  -3    0.87    0.82
   9 -14  -3    0.41    0.68
   2 -13  -3   12.41    2.50
   3 -13  -3   44.12    3.91
   4 -13  -3   32.18    3.27
   5 -13  -3    0.28    0.66
   6 -13  -3    2.96    1.22
   7 -13  -3   85.78    5.53
   8 -13  -3   28.95    2.91
   9 -13  -3   83.92    5.13
  10 -13  -3   11.26    2.15
  11 -13  -3    2.71    1.17
  -1 -12  -3   15.61    2.78
   0 -12  -3   99.58    5.99
   1 -12  -3   38.59    3.59
   2 -12  -3   17.80    2.84
   3 -12  -3    7.58    1.78
   4 -12  -3  144.61    7.37
   5 -12  -3   -0.20    0.39
   6 -12  -3   26.50    2.75
   7 -12  -3   31.91    2.89
   8 -12  -3   16.56    2.54
   9 -12  -3   25.73    1.86
  10 -12  -3    6.38    1.58
  11 -12  -3   18.26    2.71
  12 -12  -3   94.09    5.76
  -2 -11  -3    3.35    1.25
  -1 -11  -3   16.07    2.66
   0 -11  -3   45.11    3.79
   1 -11  -3    9.40    1.93
   2 -11  -3   51.43    3.84
   3 -11  -3   50.14    3.76
   4 -11  -3   45.83    3.49
   5 -11  -3  123.39    6.19
   6 -11  -3   28.16    2.66
   7 -11  -3    5.47    1.38
   8 -11  -3   23.52    2.32
   9 -11  -3  132.69    4.50
  10 -11  -3   22.61    2.47
  11 -11  -3   47.89    3.74
  12 -11  -3   43.23    3.56
  13 -11  -3   14.17    1.70
  -3 -10  -3   11.10    2.10
  -2 -10  -3    5.70    1.55
  -1 -10  -3   24.31    2.57
   0 -10  -3  178.55    8.00
   1 -10  -3   49.06    3.66
   2 -10  -3  194.16    8.22
   3 -10  -3    6.95    1.56
   4 -10  -3    4.72    1.26
   5 -10  -3   31.57    2.73
   6 -10  -3   34.49    2.72
   7 -10  -3   19.33    2.03
   8 -10  -3   34.71    2.73
   9 -10  -3    1.58    0.52
  10 -10  -3  171.82    7.65
  11 -10  -3   14.14    2.27
  12 -10  -3   19.90    1.99
  13 -10  -3   42.62    2.57
  14 -10  -3   70.01    6.85
  -5  -9  -3   -0.35    0.52
  -4  -9  -3   84.71    5.05
  -3  -9  -3   28.33    1.91
  -2  -9  -3  133.43    4.52
  -1  -9  -3    2.17    0.73
   0  -9  -3    4.15    1.22
   1  -9  -3   62.60    3.90
   2  -9  -3   29.23    2.57
   3  -9  -3    2.29    0.90
   4  -9  -3   10.62    1.80
   5  -9  -3  262.29    9.83
   6  -9  -3   47.92    3.20
   7  -9  -3  172.61    6.86
   8  -9  -3    1.70    0.49
   9  -9  -3    6.10    1.39
  10  -9  -3   50.54    3.51
  11  -9  -3   48.73    2.54
  12  -9  -3    8.45    1.28
  13  -9  -3   33.28    2.21
  14  -9  -3   17.56    2.01
  -6  -8  -3    1.31    0.83
  -5  -8  -3   27.05    2.79
  -4  -8  -3   15.80    1.69
  -3  -8  -3   23.55    1.65
  -2  -8  -3   34.39    1.93
  -1  -8  -3    1.36    0.47
   0  -8  -3    5.66    0.86
   1  -8  -3  242.88    6.27
   2  -8  -3   91.11    2.97
   3  -8  -3  277.38   10.09
   4  -8  -3   79.22    4.15
   5  -8  -3   17.58    1.77
   6  -8  -3    8.56    1.42
   7  -8  -3   37.36    2.57
   8  -8  -3    7.38    0.96
   9  -8  -3   55.34    3.54
  10  -8  -3  180.39    5.46
  11  -8  -3   49.41    2.50
  12  -8  -3  134.95    4.81
  13  -8  -3    0.66    0.45
  14  -8  -3   16.80    1.86
  -7  -7  -3   33.11    3.18
  -6  -7  -3  103.26    5.77
  -5  -7  -3   29.43    2.76
  -4  -7  -3    4.76    0.86
  -3  -7  -3   20.47    1.46
  -2  -7  -3  167.14    4.85
  -1  -7  -3   38.03    1.89
   0  -7  -3  128.67    3.87
   1  -7  -3  105.00    3.28
   2  -7  -3   28.11    1.41
   3  -7  -3  131.51    3.61
   4  -7  -3   26.49    1.30
   5  -7  -3   13.18    0.88
   6  -7  -3  336.96    7.34
   7  -7  -3  125.07    3.75
   8  -7  -3  250.85    6.22
   9  -7  -3   31.44    1.80
  10  -7  -3    7.39    1.10
  11  -7  -3   44.70    2.31
  12  -7  -3    0.08    0.27
  13  -7  -3    4.17    0.89
  14  -7  -3   26.65    1.99
  -8  -6  -3   14.09    2.47
  -7  -6  -3    3.76    1.27
  -6  -6  -3   24.60    2.54
  -5  -6  -3   30.50    1.81
  -4  -6  -3   34.87    1.88
  -3  -6  -3   45.13    2.17
  -2  -6  -3    6.06    0.83
  -1  -6  -3  323.69    7.65
   0  -6  -3   48.27    2.04
   1  -6  -3   27.10    1.39
   2  -6  -3   87.48    2.65
   3  -6  -3  307.34    6.87
   4  -6  -3   79.09    2.47
   5  -6  -3   72.35    2.28
   6  -6  -3   49.08    2.76
   7  -6  -3  105.91    3.20
   8  -6  -3   88.18    3.08
   9  -6  -3    2.09    0.57
  10  -6  -3    4.90    0.86
  11  -6  -3  117.20    4.11
  12  -6  -3   26.92    1.82
  13  -6  -3   93.46    3.83
  14  -6  -3    2.29    0.61
  -9  -5  -3   13.47    2.81
  -8  -5  -3    0.84    0.75
  -7  -5  -3    0.52    0.58
  -6  -5  -3  126.18    6.05
  -5  -5  -3   35.70    1.89
  -4  -5  -3  258.40    6.77
  -3  -5  -3   19.24    1.26
  -2  -5  -3   12.06    1.04
  -1  -5  -3   70.42    3.40
   0  -5  -3  177.91    6.19
   1  -5  -3   26.25    1.67
   2  -5  -3   98.46    3.98
   3  -5  -3   60.27    2.71
   4  -5  -3  331.64   10.03
   5  -5  -3  175.36    6.13
   6  -5  -3   26.20    1.30
   7  -5  -3   26.54    1.09
   8  -5  -3  284.45    6.96
   9  -5  -3    8.52    1.07
  10  -5  -3   33.45    1.85
  11  -5  -3   26.07    1.71
  12  -5  -3   32.23    1.98
  13  -5  -3   25.56    1.52
  14  -5  -3    0.04    0.36
  -9  -4  -3   38.24    3.37
  -8  -4  -3  138.96    7.03
  -7  -4  -3   36.70    3.09
  -6  -4  -3    5.71    0.89
  -5  -4  -3    7.51    0.97
  -4  -4  -3   71.50    3.89
  -3  -4  -3   27.23    2.06
  -2  -4  -3   75.18    3.61
  -1  -4  -3  336.72   10.42
   0  -4  -3  169.28    6.06
   1  -4  -3  443.89    8.76
   2  -4  -3   11.10    0.62
   3  -4  -3   34.51    1.89
   5  -4  -3   23.33    1.68
   6  -4  -3   89.18    2.13
   7  -4  -3  131.79    3.74
   8  -4  -3   73.18    2.72
   9  -4  -3  255.38    6.71
  10  -4  -3   31.59    1.80
  11  -4  -3    4.96    0.71
  12  -4  -3   15.82    1.32
  13  -4  -3   81.23    2.85
  14  -4  -3   16.50    3.87
 -10  -3  -3   48.42    3.87
  -9  -3  -3    8.44    1.86
  -8  -3  -3   50.16    3.60
  -7  -3  -3    5.88    1.37
  -6  -3  -3    1.16    0.67
  -5  -3  -3  297.15   10.04
  -4  -3  -3  128.68    5.35
  -3  -3  -3  289.74    9.80
  -2  -3  -3   62.71    3.01
  -1  -3  -3   32.99    1.97
   0  -3  -3  114.65    2.50
   1  -3  -3   42.32    1.24
   2  -3  -3   96.71    2.50
   3  -3  -3  107.75    3.81
   4  -3  -3  436.73    9.10
   5  -3  -3  100.53    2.94
   6  -3  -3  298.13    6.90
   7  -3  -3   27.52    1.42
   8  -3  -3   18.75    1.00
   9  -3  -3   48.18    1.77
  10  -3  -3   19.53    1.21
  11  -3  -3   20.95    1.25
  12  -3  -3   28.05    1.53
  13  -3  -3    8.81    1.13
 -11  -2  -3   10.47    2.14
 -10  -2  -3   20.54    2.84
  -9  -2  -3   53.19    3.72
  -8  -2  -3  180.10    7.65
  -7  -2  -3   30.48    2.51
  -6  -2  -3   93.37    4.48
  -5  -2  -3   27.18    2.06
  -4  -2  -3   86.17    3.88
  -3  -2  -3  101.37    4.31
  -2  -2  -3   11.34    1.11
  -1  -2  -3   99.53    2.31
   0  -2  -3  394.23    7.83
   1  -2  -3   95.18    2.37
   2  -2  -3  392.07    7.86
   3  -2  -3   41.37    1.37
   4  -2  -3   10.02    0.55
   5  -2  -3   63.15    1.67
   6  -2  -3   76.51    2.06
   7  -2  -3   11.87    0.78
   8  -2  -3    5.99    0.66
   9  -2  -3  166.03    3.88
  10  -2  -3   33.38    1.54
  11  -2  -3  125.74    3.54
  12  -2  -3    5.35    1.00
  13  -2  -3    3.92    0.91
 -11  -1  -3   36.99    3.27
 -10  -1  -3   13.49    2.22
  -9  -1  -3   50.85    3.51
  -8  -1  -3   47.10    3.32
  -7  -1  -3  237.65    9.03
  -6  -1  -3  104.68    4.74
  -5  -1  -3   22.10    1.86
  -4  -1  -3   24.68    1.80
  -3  -1  -3  441.15    8.83
  -2  -1  -3   42.10    1.20
  -1  -1  -3   97.66    2.32
   0  -1  -3   70.17    1.42
   1  -1  -3   68.44    1.76
   2  -1  -3   95.56    2.38
   3  -1  -3  101.51    2.08
   4  -1  -3   36.92    1.12
   5  -1  -3  336.51    5.93
   6  -1  -3   71.04    1.92
   7  -1  -3  334.80    6.16
   8  -1  -3   39.04    1.51
   9  -1  -3    1.27    0.37
  10  -1  -3    2.00    0.47
  11  -1  -3   24.53    1.73
  12  -1  -3   14.85    1.64
 -12   0  -3   93.51    5.59
 -11   0  -3   50.58    3.71
 -10   0  -3  168.29    7.45
  -9   0  -3    5.29    1.23
  -8   0  -3    6.49    1.34
  -7   0  -3  130.89    5.53
  -6   0  -3   50.15    2.92
  -5   0  -3  173.88    4.11
  -4   0  -3  175.31    4.09
  -3   0  -3  112.02    2.67
  -2   0  -3  380.97    7.87
  -1   0  -3   69.68    1.89
   0   0  -3    0.33    0.09
   1   0  -3   69.02    1.80
   2   0  -3  387.65    6.36
   3   0  -3  113.81    2.21
   4   0  -3  178.49    3.44
   5   0  -3  175.15    3.50
   6   0  -3   52.25    1.62
   7   0  -3  127.04    3.04
   8   0  -3    7.25    0.76
   9   0  -3    5.31    0.69
  10   0  -3  168.28    5.21
  11   0  -3   48.14    2.53
  12   0  -3   94.15    3.88
 -13   1  -3   15.68    3.66
 -12   1  -3   15.40    2.33
 -11   1  -3   20.93    2.30
 -10   1  -3    2.61    0.94
  -9   1  -3    2.32    0.85
  -8   1  -3   37.88    2.65
  -7   1  -3  339.97    7.82
  -6   1  -3   72.03    2.23
  -5   1  -3  339.17    7.12
  -4   1  -3   34.93    1.29
  -3   1  -3  100.71    2.53
  -2   1  -3   96.45    2.42
  -1   1  -3   71.43    1.44
   0   1  -3   69.05    1.76
   1   1  -3   96.52    2.36
   2   1  -3   42.00    0.96
   3   1  -3  432.74    7.25
   4   1  -3   25.00    0.91
   5   1  -3   28.79    1.07
   6   1  -3  105.24    2.57
   7   1  -3  243.92    5.00
   8   1  -3   51.93    2.34
   9   1  -3   51.16    2.39
  10   1  -3   15.38    1.57
  11   1  -3   40.60    2.33
  12   1  -3   18.62    2.63
 -13   2  -3    2.36    0.94
 -12   2  -3    3.80    1.12
 -11   2  -3  134.77    6.30
 -10   2  -3   36.45    2.75
  -9   2  -3  161.35    6.58
  -8   2  -3    6.66    0.79
  -7   2  -3   12.66    0.86
  -6   2  -3   79.60    2.40
  -5   2  -3   61.68    1.93
  -4   2  -3   11.06    0.48
  -3   2  -3   42.18    0.98
  -2   2  -3  382.06    6.37
  -1   2  -3   93.98    2.26
   0   2  -3  378.81    7.82
   1   2  -3  100.39    2.53
   2   2  -3   11.70    0.46
   3   2  -3  101.06    2.21
   4   2  -3   83.15    1.98
   5   2  -3   25.39    1.01
   6   2  -3   92.75    2.44
   7   2  -3   29.82    1.64
   8   2  -3  183.91    5.27
   9   2  -3   49.68    2.42
  10   2  -3   20.58    1.71
  11   2  -3   13.94    1.63
 -13   3  -3   11.34    2.03
 -12   3  -3   29.59    2.60
 -11   3  -3   26.57    2.34
 -10   3  -3   18.04    1.81
  -9   3  -3   47.03    1.98
  -8   3  -3   20.29    1.16
  -7   3  -3   26.91    1.28
  -6   3  -3  302.09    5.37
  -5   3  -3  101.58    2.22
  -4   3  -3  426.29    7.21
  -3   3  -3  112.04    2.17
  -2   3  -3  101.32    2.02
  -1   3  -3   42.63    1.30
   0   3  -3  109.36    2.72
   1   3  -3   36.87    0.92
   2   3  -3   62.21    1.45
   3   3  -3  296.81    5.35
   4   3  -3  125.82    3.55
   5   3  -3  285.03    6.77
   6   3  -3    2.25    0.52
   7   3  -3    7.35    0.99
   8   3  -3   55.59    2.46
   9   3  -3    6.74    1.08
  10   3  -3   49.65    2.59
 -12   4  -3   14.91    2.13
 -11   4  -3    4.31    1.08
 -10   4  -3   32.41    1.63
  -9   4  -3  265.03    6.45
  -8   4  -3   77.37    2.55
  -7   4  -3  134.76    2.81
  -6   4  -3   86.69    1.97
  -5   4  -3   24.97    0.88
  -4   4  -3  176.90    3.34
  -3   4  -3   36.20    1.04
  -2   4  -3   11.33    0.65
  -1   4  -3  437.24    8.96
   0   4  -3  179.20    3.28
   1   4  -3  320.71    7.13
   2   4  -3   74.53    2.41
   3   4  -3   25.75    1.30
   4   4  -3   76.15    2.62
   5   4  -3    7.75    0.95
   6   4  -3    5.12    0.82
   7   4  -3   40.97    2.08
   8   4  -3  144.77    4.69
   9   4  -3   33.96    2.09
  10   4  -3   74.15    4.49
 -11   5  -3   31.13    2.34
 -10   5  -3   31.77    1.61
  -9   5  -3    9.52    0.96
  -8   5  -3  288.22    5.36
  -7   5  -3   25.78    0.99
  -6   5  -3   28.85    1.02
  -5   5  -3  167.28    3.33
  -4   5  -3  327.71    5.73
  -3   5  -3   61.07    1.52
  -2   5  -3  101.35    2.18
  -1   5  -3   22.89    1.10
   0   5  -3  169.92    4.22
   1   5  -3   71.31    2.29
   2   5  -3   11.93    0.92
   3   5  -3   18.18    1.12
   4   5  -3  252.31    6.48
   5   5  -3   30.54    1.66
   6   5  -3  119.88    3.93
   7   5  -3    0.33    0.31
   8   5  -3    0.28    0.35
   9   5  -3   18.19    2.04
 -12   6  -3   26.65    2.34
 -11   6  -3  131.43    5.65
 -10   6  -3    4.87    1.14
  -9   6  -3    2.22    0.76
  -8   6  -3   90.55    2.84
  -7   6  -3  106.16    2.44
  -6   6  -3   51.37    1.47
  -5   6  -3   71.86    1.75
  -4   6  -3   80.18    1.89
  -3   6  -3  298.59    4.61
  -2   6  -3   89.80    2.55
  -1   6  -3   26.83    1.29
   0   6  -3   50.39    1.92
   1   6  -3  326.84    7.38
   2   6  -3    5.84    0.77
   3   6  -3   45.84    2.03
   4   6  -3   30.75    1.65
   5   6  -3   26.91    1.60
   6   6  -3   27.64    1.69
   7   6  -3    3.29    0.76
   8   6  -3   16.90    1.75
 -13   7  -3    2.43    0.89
 -12   7  -3    1.10    0.63
 -11   7  -3   39.42    2.87
 -10   7  -3    6.36    1.33
  -9   7  -3   29.44    1.55
  -8   7  -3  238.17    6.03
  -7   7  -3  128.71    3.66
  -6   7  -3  309.25    7.29
  -5   7  -3   11.71    0.85
  -4   7  -3   26.80    1.30
  -3   7  -3  128.90    3.52
  -2   7  -3   26.98    1.32
  -1   7  -3  104.07    3.13
   0   7  -3  127.57    3.65
   1   7  -3   38.87    1.76
   2   7  -3  165.39    4.55
   3   7  -3   17.87    1.26
   4   7  -3    3.96    0.71
   5   7  -3   33.13    1.86
   6   7  -3   94.73    3.62
   7   7  -3   20.26    2.84
 -14   8  -3   12.81    2.10
 -13   8  -3    1.71    0.85
 -12   8  -3  141.04    6.57
 -11   8  -3   46.51    3.22
 -10   8  -3  180.79    7.30
  -9   8  -3   55.65    2.31
  -8   8  -3    5.89    0.78
  -7   8  -3   39.89    1.79
  -6   8  -3    6.48    0.79
  -5   8  -3   20.09    1.17
  -4   8  -3   74.79    2.58
  -3   8  -3  288.56    6.70
  -2   8  -3   93.08    2.91
  -1   8  -3  241.10    6.07
   0   8  -3    7.31    0.91
   1   8  -3    0.91    0.35
   2   8  -3   33.49    1.77
   3   8  -3   22.76    1.49
   4   8  -3   16.81    1.59
   5   8  -3   28.73    1.84
   6   8  -3    0.45    0.60
 -14   9  -3   16.49    2.39
 -13   9  -3   35.45    2.99
 -12   9  -3    6.14    1.45
 -11   9  -3   52.48    3.47
 -10   9  -3   52.40    3.31
  -9   9  -3    4.31    0.74
  -8   9  -3    1.47    0.46
  -7   9  -3  168.19    4.61
  -6   9  -3   47.26    2.06
  -5   9  -3  265.42    6.55
  -4   9  -3    7.46    0.91
  -3   9  -3    1.74    0.47
  -2   9  -3   29.47    1.58
  -1   9  -3   53.61    2.25
   0   9  -3    4.91    0.79
   1   9  -3    2.56    0.60
   2   9  -3  130.26    4.22
   3   9  -3   29.45    1.80
   4   9  -3   81.46    3.31
   5   9  -3    0.55    0.71
 -13  10  -3   45.39    3.52
 -12  10  -3   14.58    2.18
 -11  10  -3   12.40    1.95
 -10  10  -3  172.50    5.08
  -9  10  -3    2.23    0.57
  -8  10  -3   32.73    1.79
  -7  10  -3   17.71    1.27
  -6  10  -3   32.42    1.72
  -5  10  -3   34.31    1.75
  -4  10  -3    5.63    0.83
  -3  10  -3    5.89    0.88
  -2  10  -3  183.08    5.16
  -1  10  -3   51.35    2.28
   0  10  -3  174.71    5.04
   1  10  -3   24.79    1.62
   2  10  -3    5.56    0.93
   3  10  -3    7.13    1.16
 -13  11  -3   11.88    2.07
 -12  11  -3   41.35    3.28
 -11  11  -3   47.45    3.45
 -10  11  -3   23.45    1.62
  -9  11  -3  134.11    4.34
  -8  11  -3   22.45    1.53
  -7  11  -3    5.27    0.86
  -6  11  -3   27.15    1.65
  -5  11  -3  119.90    3.94
  -4  11  -3   40.43    2.05
  -3  11  -3   48.78    2.28
  -2  11  -3   49.90    2.35
  -1  11  -3   14.86    1.52
   0  11  -3   45.50    2.32
   1  11  -3   14.94    1.57
   2  11  -3    4.26    1.38
 -12  12  -3  101.47    5.57
 -11  12  -3   17.55    2.49
 -10  12  -3    6.98    1.13
  -9  12  -3   31.42    1.91
  -8  12  -3   14.87    1.51
  -7  12  -3   31.88    1.88
  -6  12  -3   29.46    1.79
  -5  12  -3    0.25    0.28
  -4  12  -3  145.43    4.65
  -3  12  -3    7.09    1.04
  -2  12  -3   21.01    1.66
  -1  12  -3   40.26    2.21
   0  12  -3   96.03    3.75
 -11  13  -3    3.00    1.11
 -10  13  -3   11.32    1.43
  -9  13  -3   81.26    3.41
  -8  13  -3   28.15    1.88
  -7  13  -3   98.94    3.76
  -6  13  -3    3.93    0.84
  -5  13  -3    0.27    0.37
  -4  13  -3   33.89    2.06
  -3  13  -3   44.27    2.40
  -2  13  -3   15.79    1.67
 -10  14  -3   19.82    2.74
  -9  14  -3    0.35    0.38
  -8  14  -3    2.69    0.76
  -7  14  -3   28.55    1.96
  -6  14  -3   15.43    1.70
  -5  14  -3   19.68    1.91
  -4  14  -3   74.06    3.75
   4 -14  -2    9.90    2.17
   5 -14  -2    1.15    0.86
   6 -14  -2   77.62    5.16
   7 -14  -2    4.29    1.37
   8 -14  -2   10.72    2.15
   9 -14  -2   63.72    4.56
  10 -14  -2   14.29    1.76
   0 -13  -2    3.01    1.80
   1 -13  -2   14.68    2.60
   2 -13  -2    9.24    2.13
   3 -13  -2    2.52    1.18
   4 -13  -2   38.98    3.48
   5 -13  -2   96.75    5.70
   6 -13  -2   45.90    3.74
   7 -13  -2   75.04    4.81
   8 -13  -2   47.56    3.66
   9 -13  -2   61.37    4.17
  10 -13  -2    7.84    1.23
  11 -13  -2   69.77    4.80
  12 -13  -2    1.12    0.81
  -1 -12  -2    2.09    1.00
   0 -12  -2   30.00    3.04
   1 -12  -2    1.22    0.82
   2 -12  -2  149.06    7.57
   3 -12  -2    5.65    1.50
   4 -12  -2   46.40    3.68
   5 -12  -2    2.54    1.04
   6 -12  -2   53.57    3.83
   7 -12  -2    5.11    1.39
   8 -12  -2    7.19    1.61
   9 -12  -2   37.63    2.18
  10 -12  -2   26.16    2.63
  11 -12  -2  107.92    6.09
  12 -12  -2   30.62    3.01
  13 -12  -2   16.87    2.75
  -2 -11  -2   75.76    4.88
  -1 -11  -2  123.67    6.47
   0 -11  -2   28.41    2.82
   1 -11  -2    7.62    1.71
   2 -11  -2    5.55    1.40
   3 -11  -2   45.88    3.51
   4 -11  -2   72.12    4.55
   5 -11  -2   82.92    4.64
   6 -11  -2    1.49    0.83
   7 -11  -2  430.41   14.61
   8 -11  -2    7.40    1.56
   9 -11  -2   61.00    2.73
  10 -11  -2   10.27    1.89
  11 -11  -2   26.35    2.68
  12 -11  -2    3.11    1.22
  13 -11  -2    6.70    1.20
  14 -11  -2   57.42    5.05
  -3 -10  -2    7.34    1.71
  -2 -10  -2   22.10    2.92
  -1 -10  -2    9.07    1.85
   0 -10  -2  132.22    6.50
   1 -10  -2   38.30    3.08
   2 -10  -2   46.20    3.39
   3 -10  -2  126.24    6.03
   4 -10  -2  104.56    5.38
   5 -10  -2   51.89    3.49
   6 -10  -2    6.43    1.36
   7 -10  -2   12.61    1.92
   8 -10  -2  120.01    5.51
   9 -10  -2   21.84    1.48
  10 -10  -2  135.44    6.45
  11 -10  -2    8.50    1.74
  12 -10  -2  159.03    7.49
  13 -10  -2    1.51    0.57
  14 -10  -2    8.86    1.36
  -5  -9  -2   68.88    4.55
  -4  -9  -2   54.20    3.81
  -3  -9  -2   36.27    2.07
  -2  -9  -2   60.37    2.67
  -1  -9  -2   21.05    2.17
   0  -9  -2   98.32    5.17
   1  -9  -2    6.82    1.47
   2  -9  -2    9.42    1.64
   3  -9  -2  191.84    7.76
   4  -9  -2   56.91    3.47
   5  -9  -2   86.67    4.43
   6  -9  -2   77.52    4.06
   7  -9  -2   84.01    4.23
   8  -9  -2  119.22    3.75
   9  -9  -2   97.83    3.43
  10  -9  -2   37.08    2.93
  11  -9  -2    5.53    1.43
  12  -9  -2    7.07    1.15
  13  -9  -2   34.44    2.20
  14  -9  -2    1.25    0.56
  -7  -8  -2   38.64    3.58
  -6  -8  -2   10.09    2.02
  -5  -8  -2   45.71    3.51
  -4  -8  -2    6.39    0.99
  -3  -8  -2   10.62    1.27
  -2  -8  -2  117.95    3.87
  -1  -8  -2  114.37    3.66
   0  -8  -2  153.36    4.31
   1  -8  -2   28.07    1.45
   2  -8  -2   38.45    1.71
   3  -8  -2  157.01    6.42
   4  -8  -2   31.99    2.41
   5  -8  -2   53.15    3.12
   6  -8  -2   35.05    2.40
   7  -8  -2   62.03    3.41
   8  -8  -2  152.84    4.32
   9  -8  -2    4.14    1.06
  10  -8  -2   46.86    3.28
  11  -8  -2   48.15    2.42
  12  -8  -2   46.40    2.45
  13  -8  -2   88.58    3.70
  14  -8  -2   66.78    3.26
  -7  -7  -2    4.64    1.45
  -6  -7  -2   75.50    4.70
  -5  -7  -2    7.19    1.56
  -4  -7  -2  432.58   10.07
  -3  -7  -2   16.10    1.23
  -2  -7  -2   81.63    2.92
  -1  -7  -2   65.17    2.48
   0  -7  -2   98.85    3.08
   1  -7  -2   13.21    0.96
   2  -7  -2   25.74    1.26
   3  -7  -2  132.37    3.45
   4  -7  -2  189.04    4.45
   5  -7  -2  276.52    6.39
   6  -7  -2  132.88    5.31
   7  -7  -2   98.62    3.09
   8  -7  -2   25.94    1.37
   9  -7  -2    8.60    1.49
  10  -7  -2  117.31    4.03
  11  -7  -2   75.08    3.15
  12  -7  -2    5.30    0.95
  13  -7  -2   42.71    2.42
  14  -7  -2    5.18    1.06
  -8  -6  -2   70.24    4.76
  -7  -6  -2   42.26    3.48
  -6  -6  -2   48.19    3.52
  -5  -6  -2    1.71    0.62
  -4  -6  -2    7.70    1.02
  -3  -6  -2   75.74    2.74
  -2  -6  -2   36.36    1.71
  -1  -6  -2  133.87    3.78
   0  -6  -2   23.14    1.24
   1  -6  -2  408.43    8.74
   2  -6  -2    8.29    0.67
   3  -6  -2  182.04    4.26
   4  -6  -2   12.64    0.75
   5  -6  -2  220.44    4.99
   6  -6  -2   25.65    1.74
   7  -6  -2   14.29    0.93
   8  -6  -2   38.39    2.62
   9  -6  -2  200.08    5.46
  10  -6  -2  106.14    3.69
  11  -6  -2   73.10    3.03
  12  -6  -2   46.38    2.43
  13  -6  -2   73.66    3.26
  14  -6  -2    8.70    1.32
  -9  -5  -2    0.74    0.70
  -8  -5  -2   91.41    5.39
  -7  -5  -2    5.48    1.37
  -6  -5  -2   68.56    4.21
  -5  -5  -2   56.08    2.32
  -4  -5  -2   88.67    2.98
  -3  -5  -2   52.09    2.09
  -2  -5  -2  268.30    6.31
  -1  -5  -2  219.16    5.30
   0  -5  -2    4.64    0.61
   1  -5  -2   60.18    1.98
   2  -5  -2   83.32    2.35
   3  -5  -2   10.55    0.67
   4  -5  -2   72.07    2.06
   5  -5  -2    4.43    0.78
   6  -5  -2  399.96    8.66
   7  -5  -2   26.63    1.25
   8  -5  -2  150.38    4.36
   9  -5  -2   58.03    2.40
  10  -5  -2   51.20    2.34
  11  -5  -2    1.87    0.57
  12  -5  -2    4.66    0.88
  13  -5  -2   42.53    2.42
  14  -5  -2   66.86    3.23
 -10  -4  -2   10.07    2.12
  -9  -4  -2   35.76    3.19
  -8  -4  -2   44.77    3.42
  -7  -4  -2   79.48    4.58
  -6  -4  -2  108.16    5.25
  -5  -4  -2   59.41    2.27
  -4  -4  -2   34.63    1.61
  -3  -4  -2  189.07    4.75
  -2  -4  -2   11.93    0.84
  -1  -4  -2   73.02    3.07
   0  -4  -2  156.77    5.18
   1  -4  -2  298.65    8.86
   2  -4  -2  329.02    9.44
   3  -4  -2  179.57    5.59
   4  -4  -2  157.04    5.23
   5  -4  -2   56.93    1.91
   6  -4  -2    8.75    0.63
   7  -4  -2  131.41    2.89
   8  -4  -2   33.98    1.68
   9  -4  -2   85.05    3.03
  10  -4  -2    5.83    0.91
  11  -4  -2  429.97   10.22
  12  -4  -2    5.02    0.92
  13  -4  -2   56.04    2.26
  14  -4  -2   14.55    1.38
 -10  -3  -2    2.02    0.96
  -9  -3  -2    7.70    1.70
  -8  -3  -2   50.51    3.49
  -7  -3  -2  125.03    5.77
  -6  -3  -2  196.46    5.12
  -5  -3  -2  161.61    4.24
  -4  -3  -2  129.09    5.21
  -3  -3  -2  167.59    6.23
  -2  -3  -2   11.53    1.09
  -1  -3  -2  182.06    5.91
   0  -3  -2   55.48    1.35
   1  -3  -2   92.51    3.24
   2  -3  -2  308.93    9.04
   4  -3  -2  305.85    9.13
   5  -3  -2   79.08    1.88
   6  -3  -2  178.46    3.47
   7  -3  -2  185.22    4.80
   8  -3  -2   50.21    2.10
   9  -3  -2   76.15    2.81
  10  -3  -2   12.64    1.33
  11  -3  -2   10.09    1.26
  12  -3  -2   36.50    1.72
  13  -3  -2    6.72    0.92
  14  -3  -2   55.73    2.57
 -11  -2  -2    5.35    1.45
 -10  -2  -2  148.37    7.25
  -9  -2  -2    5.30    1.29
  -8  -2  -2   51.92    3.42
  -7  -2  -2    9.25    1.59
  -6  -2  -2   41.07    2.68
  -5  -2  -2   26.94    2.03
  -4  -2  -2    8.78    0.51
  -3  -2  -2   83.96    2.00
  -2  -2  -2  317.93    9.77
  -1  -2  -2  308.54    9.21
   0  -2  -2  449.51    8.58
   1  -2  -2  222.74    4.61
   3  -2  -2   92.34    2.35
   4  -2  -2  318.64    6.86
   5  -2  -2   10.95    0.75
   6  -2  -2   13.19    0.57
   7  -2  -2  262.34    6.30
   8  -2  -2   33.47    1.67
   9  -2  -2   82.82    3.00
  10  -2  -2  116.74    3.18
  11  -2  -2   61.96    2.22
  12  -2  -2   18.49    1.46
  13  -2  -2   74.16    2.68
 -12  -1  -2   13.45    2.40
 -11  -1  -2    1.95    0.90
 -10  -1  -2   10.14    1.81
  -9  -1  -2   35.60    2.85
  -8  -1  -2    4.12    1.06
  -7  -1  -2   25.38    2.06
  -6  -1  -2   13.26    0.86
  -5  -1  -2  398.31    8.44
  -4  -1  -2   59.29    1.75
  -3  -1  -2  301.47    6.15
  -2  -1  -2   93.40    2.11
  -1  -1  -2  222.00    4.55
   0  -1  -2   60.27    1.52
   1  -1  -2   61.54    1.51
   2  -1  -2  222.73    4.71
   3  -1  -2  308.04    5.27
   4  -1  -2  174.55    3.38
   5  -1  -2   71.10    1.79
   6  -1  -2  222.79    4.32
   7  -1  -2  132.70    3.07
   8  -1  -2   63.26    2.00
   9  -1  -2  114.02    2.99
  10  -1  -2   23.24    1.24
  11  -1  -2    8.82    0.95
  12  -1  -2  115.12    3.43
  13  -1  -2    1.32    0.48
 -12   0  -2   29.34    2.84
 -11   0  -2   29.04    2.69
 -10   0  -2  136.65    6.26
  -9   0  -2  101.77    5.07
  -8   0  -2  152.06    6.20
  -7   0  -2   96.47    2.84
  -6   0  -2   25.95    1.16
  -5   0  -2    4.65    0.51
  -4   0  -2  154.59    3.54
  -3   0  -2   55.07    1.54
  -2   0  -2  438.84    8.66
  -1   0  -2   59.25    1.54
   0   0  -2  743.61   13.93
   1   0  -2   60.55    1.21
   2   0  -2  452.25    7.11
   3   0  -2   55.51    1.33
   4   0  -2  150.62    2.99
   5   0  -2    4.26    0.45
   6   0  -2   23.74    1.00
   7   0  -2   96.87    2.49
   8   0  -2  148.07    3.47
   9   0  -2  104.97    2.87
  10   0  -2  138.46    3.57
  11   0  -2   26.16    1.43
  12   0  -2   26.23    1.53
  13   0  -2    2.42    0.70
 -13   1  -2    0.81    0.64
 -12   1  -2  122.81    6.08
 -11   1  -2    9.57    1.76
 -10   1  -2   25.37    2.25
  -9   1  -2  109.29    5.12
  -8   1  -2   64.96    2.29
  -7   1  -2  132.48    3.55
  -6   1  -2  218.42    5.08
  -5   1  -2   73.79    2.09
  -4   1  -2  181.93    4.03
  -3   1  -2  311.81    6.38
  -2   1  -2  219.08    3.70
  -1   1  -2   58.73    1.20
   0   1  -2   61.62    1.51
   1   1  -2  223.04    3.69
   2   1  -2   91.38    1.79
   3   1  -2  297.54    5.12
   4   1  -2   57.59    1.54
   5   1  -2  409.90    7.07
   6   1  -2   12.96    0.73
   7   1  -2   25.87    1.42
   8   1  -2    5.12    0.65
   9   1  -2   36.39    1.57
  10   1  -2    9.63    1.00
  11   1  -2    1.85    0.47
  12   1  -2   16.61    1.48
 -13   2  -2   72.23    4.55
 -12   2  -2   17.18    2.42
 -11   2  -2   62.66    3.78
 -10   2  -2  123.58    3.72
  -9   2  -2   78.46    2.72
  -8   2  -2   34.68    1.53
  -7   2  -2  261.65    6.06
  -6   2  -2   13.24    0.80
  -5   2  -2   11.56    0.55
  -4   2  -2  322.13    5.44
  -3   2  -2   89.89    1.77
  -2   2  -2  439.48    7.06
  -1   2  -2  224.75    4.59
   0   2  -2  447.42    8.69
   1   2  -2  320.58    5.13
   2   2  -2  320.38    5.42
   3   2  -2   79.76    1.82
   4   2  -2    8.98    0.60
   5   2  -2   27.05    1.05
   6   2  -2   38.09    1.38
   7   2  -2   10.23    0.86
   8   2  -2   47.87    1.75
   9   2  -2    6.64    0.77
  10   2  -2  151.39    3.97
  11   2  -2    5.55    1.00
 -14   3  -2   62.68    4.14
 -13   3  -2    8.44    1.70
 -12   3  -2   37.50    2.89
 -11   3  -2    9.74    1.10
 -10   3  -2   15.27    1.11
  -9   3  -2   72.23    2.52
  -8   3  -2   52.65    1.95
  -7   3  -2  189.89    3.71
  -6   3  -2  176.99    3.44
  -5   3  -2   77.47    1.81
  -4   3  -2  298.54    5.08
  -3   3  -2   54.57    1.26
  -2   3  -2  305.36    5.16
  -1   3  -2   91.29    1.74
   0   3  -2   55.82    1.23
   1   3  -2  177.72    3.21
   2   3  -2   12.77    0.56
   3   3  -2  177.03    3.42
   4   3  -2  130.67    2.79
   5   3  -2  155.54    3.33
   6   3  -2  200.85    4.17
   7   3  -2  123.37    3.07
   8   3  -2   45.21    1.75
   9   3  -2    5.70    0.77
  10   3  -2    1.63    0.57
  11   3  -2   62.48    6.37
 -13   4  -2   56.33    3.63
 -12   4  -2    4.38    0.79
 -11   4  -2  444.08    9.80
 -10   4  -2    7.21    0.88
  -9   4  -2   87.39    2.81
  -8   4  -2   33.82    1.21
  -7   4  -2  133.82    2.81
  -6   4  -2    8.99    0.54
  -5   4  -2   56.42    1.47
  -4   4  -2  151.79    2.86
  -3   4  -2  179.16    3.23
  -2   4  -2  318.10    5.43
  -1   4  -2  296.45    5.05
   0   4  -2  154.66    2.86
   1   4  -2   73.74    1.64
   2   4  -2   12.93    0.62
   3   4  -2  184.33    3.64
   4   4  -2   33.41    1.19
   5   4  -2   58.07    1.74
   6   4  -2  109.85    2.78
   7   4  -2   83.54    2.43
   8   4  -2   47.58    1.83
   9   4  -2   33.12    1.98
  10   4  -2   10.87    2.17
 -13   5  -2   40.63    3.01
 -12   5  -2    5.82    1.28
 -11   5  -2    1.54    0.44
 -10   5  -2   51.81    2.09
  -9   5  -2   60.75    1.77
  -8   5  -2  156.96    3.31
  -7   5  -2   25.13    0.98
  -6   5  -2  402.66    6.92
  -5   5  -2    4.68    0.37
  -4   5  -2   70.93    1.60
  -3   5  -2   11.10    0.44
  -2   5  -2   81.83    1.83
  -1   5  -2   57.00    1.47
   0   5  -2    5.05    0.40
   1   5  -2  229.18    4.11
   2   5  -2  265.93    4.87
   3   5  -2   52.16    1.54
   4   5  -2   86.88    2.25
   5   5  -2   53.04    1.73
   6   5  -2   78.55    2.29
   7   5  -2    5.38    0.87
   8   5  -2   90.95    3.43
   9   5  -2    1.70    0.89
 -14   6  -2   11.44    1.99
 -13   6  -2   78.83    4.41
 -12   6  -2   50.77    3.29
 -11   6  -2   81.21    2.93
 -10   6  -2  104.20    3.44
  -9   6  -2  197.95    5.18
  -8   6  -2   38.31    1.71
  -7   6  -2   13.50    0.65
  -6   6  -2   24.01    0.86
  -5   6  -2  221.98    4.01
  -4   6  -2   13.82    0.51
  -3   6  -2  173.46    3.44
  -2   6  -2    8.92    0.62
  -1   6  -2  401.75    6.94
   0   6  -2   25.10    0.93
   1   6  -2  134.64    2.86
   2   6  -2   35.10    1.22
   3   6  -2   74.89    2.05
   4   6  -2    7.88    0.73
   5   6  -2    2.01    0.40
   6   6  -2   52.53    2.31
   7   6  -2   45.23    3.40
   8   6  -2   68.29    4.53
 -15   7  -2   40.52    3.27
 -14   7  -2    3.83    1.17
 -13   7  -2   46.57    3.31
 -12   7  -2    5.48    0.91
 -11   7  -2   78.84    3.00
 -10   7  -2  125.41    3.86
  -9   7  -2   10.61    1.09
  -8   7  -2   25.11    1.37
  -7   7  -2   93.71    2.97
  -6   7  -2  132.87    3.65
  -5   7  -2  261.53    4.98
  -4   7  -2  181.34    3.69
  -3   7  -2  128.35    2.80
  -2   7  -2   25.96    1.01
  -1   7  -2   13.13    0.68
   0   7  -2   98.60    2.35
   1   7  -2   63.16    1.82
   2   7  -2   84.08    2.21
   3   7  -2   15.78    0.92
   4   7  -2  441.01    9.81
   5   7  -2    4.86    0.81
   6   7  -2   71.67    4.46
   7   7  -2    6.21    1.58
 -15   8  -2   66.06    4.33
 -14   8  -2   82.88    4.71
 -13   8  -2   88.36    3.60
 -12   8  -2   45.46    2.28
 -11   8  -2   45.99    2.22
 -10   8  -2   45.92    2.13
  -9   8  -2    3.99    0.69
  -8   8  -2  142.28    4.17
  -7   8  -2   65.08    2.39
  -6   8  -2   35.71    1.31
  -5   8  -2   51.42    1.61
  -4   8  -2   34.86    1.25
  -3   8  -2  157.86    3.35
  -2   8  -2   38.17    1.33
  -1   8  -2   25.33    1.05
   0   8  -2  148.04    3.28
   1   8  -2  112.02    2.76
   2   8  -2  119.95    3.66
   3   8  -2    9.13    1.07
   4   8  -2    5.38    0.86
   5   8  -2   39.57    3.20
   6   8  -2    7.71    1.70
 -14   9  -2    0.80    0.67
 -13   9  -2   33.83    2.02
 -12   9  -2    6.86    1.04
 -11   9  -2    6.81    1.00
 -10   9  -2   37.11    1.95
  -9   9  -2  102.46    3.44
  -8   9  -2  115.56    3.60
  -7   9  -2   84.22    2.88
  -6   9  -2   73.76    2.14
  -5   9  -2   85.03    2.32
  -4   9  -2   60.16    1.80
  -3   9  -2  198.71    4.15
  -2   9  -2   10.88    0.80
  -1   9  -2    4.31    0.55
   0   9  -2  102.83    2.92
   1   9  -2   21.94    1.37
   2   9  -2   59.04    2.46
   3   9  -2   37.55    1.97
   4   9  -2   58.48    3.92
   5   9  -2   70.04    4.55
 -14  10  -2    9.45    1.82
 -13  10  -2    1.92    0.66
 -12  10  -2  157.02    4.98
 -11  10  -2    8.34    1.13
 -10  10  -2  132.38    4.25
  -9  10  -2   23.17    1.49
  -8  10  -2  116.55    3.78
  -7  10  -2   15.29    0.99
  -6  10  -2    6.84    0.74
  -5  10  -2   53.86    1.80
  -4  10  -2  110.19    2.81
  -3  10  -2  123.99    3.05
  -2  10  -2   46.76    1.73
  -1  10  -2   37.20    1.85
   0  10  -2  136.77    4.14
   1  10  -2   10.30    1.16
   2  10  -2   24.35    2.38
   3  10  -2    6.02    1.48
   4  10  -2   12.06    2.13
 -14  11  -2   61.48    4.67
 -13  11  -2    6.33    1.09
 -12  11  -2    1.52    0.55
 -11  11  -2   25.61    1.73
 -10  11  -2   10.03    1.25
  -9  11  -2   59.24    2.60
  -8  11  -2    9.11    1.11
  -7  11  -2  429.59    8.12
  -6  11  -2    1.82    0.40
  -5  11  -2   74.09    2.29
  -4  11  -2   77.21    2.47
  -3  11  -2   47.62    2.18
  -2  11  -2    6.52    0.88
  -1  11  -2    9.37    1.14
   0  11  -2   25.90    1.63
   1  11  -2  108.80    5.76
   2  11  -2   71.60    4.62
 -13  12  -2   15.13    1.73
 -12  12  -2   25.33    1.82
 -11  12  -2  113.10    4.14
 -10  12  -2   21.69    1.73
  -9  12  -2   34.02    1.98
  -8  12  -2    5.53    0.75
  -7  12  -2    5.01    0.70
  -6  12  -2   49.90    2.36
  -5  12  -2    4.93    0.80
  -4  12  -2   45.77    2.22
  -3  12  -2    7.60    1.03
  -2  12  -2  158.38    4.82
  -1  12  -2    1.61    0.63
   0  12  -2   27.74    2.74
   1  12  -2    0.18    0.55
 -13  13  -2    1.24    0.88
 -12  13  -2    1.01    0.52
 -11  13  -2   76.23    3.30
 -10  13  -2    7.06    1.10
  -9  13  -2   54.49    2.65
  -8  13  -2   42.46    2.28
  -7  13  -2   78.38    3.16
  -6  13  -2   46.63    2.37
  -5  13  -2   90.33    3.46
  -4  13  -2   35.20    2.02
  -3  13  -2    1.82    0.59
  -2  13  -2    7.88    1.74
  -1  13  -2   16.56    2.53
 -11  14  -2   52.89    3.00
 -10  14  -2   14.39    1.67
  -9  14  -2   73.20    3.20
  -8  14  -2   11.76    1.45
  -7  14  -2    7.02    1.16
  -6  14  -2   71.03    3.16
  -5  14  -2    1.90    0.64
  -4  14  -2    9.42    1.56
  -3  14  -2   60.73    4.92
  -8  15  -2   33.88    3.17
  -7  15  -2   59.97    4.08
  -6  15  -2   24.32    2.49
   7 -15  -1   28.44    3.71
   8 -15  -1   83.98    5.56
   9 -15  -1    1.31    0.90
  10 -15  -1    8.53    2.07
   2 -14  -1   94.43    7.51
   3 -14  -1   71.06    5.00
   4 -14  -1   86.02    5.71
   5 -14  -1   21.00    3.09
   6 -14  -1    5.04    1.56
   7 -14  -1   31.77    3.16
   8 -14  -1    2.00    1.06
   9 -14  -1    4.29    0.95
  10 -14  -1   22.73    1.95
  11 -14  -1   86.57    5.47
   0 -13  -1    9.80    2.06
   1 -13  -1   16.53    2.73
   2 -13  -1   17.46    2.74
   3 -13  -1   47.97    3.87
   4 -13  -1   26.05    2.82
   5 -13  -1    1.29    0.85
   6 -13  -1    3.74    1.28
   7 -13  -1  116.42    6.08
   8 -13  -1   34.36    3.04
   9 -13  -1  103.13    4.00
  10 -13  -1    2.28    0.68
  11 -13  -1    2.94    1.08
  12 -13  -1   28.11    2.93
  13 -13  -1   11.90    2.89
  -1 -12  -1   20.87    2.90
   0 -12  -1  113.22    6.27
   1 -12  -1   57.61    4.20
   2 -12  -1    3.48    1.20
   3 -12  -1    7.29    1.69
   4 -12  -1  135.10    6.71
   5 -12  -1    4.52    1.30
   6 -12  -1   33.58    2.98
   7 -12  -1   15.34    2.35
   8 -12  -1    7.66    1.62
   9 -12  -1   33.05    2.00
  10 -12  -1    1.65    0.55
  11 -12  -1    6.65    1.67
  12 -12  -1  112.72    6.25
  13 -12  -1   17.43    2.84
  -1 -11  -1    6.43    1.54
   0 -11  -1   57.93    3.93
   1 -11  -1   25.53    2.58
   2 -11  -1   77.27    4.67
   3 -11  -1   82.16    4.79
   4 -11  -1   56.19    3.77
   5 -11  -1  169.19    7.57
   6 -11  -1   13.00    1.99
   7 -11  -1    3.84    1.09
   8 -11  -1   11.69    1.89
   9 -11  -1  158.57    4.85
  10 -11  -1   27.81    1.82
  11 -11  -1   52.82    3.84
  12 -11  -1   62.02    4.31
  13 -11  -1   18.64    2.86
  14 -11  -1   63.34    3.22
  -2 -10  -1    1.74    0.87
  -1 -10  -1   26.32    2.53
   0 -10  -1  170.37    7.42
   1 -10  -1   27.50    2.54
   2 -10  -1  215.82    8.70
   3 -10  -1    4.94    1.30
   4 -10  -1    8.55    1.58
   5 -10  -1   43.40    3.10
   6 -10  -1   11.09    1.81
   7 -10  -1   10.23    1.64
   8 -10  -1   43.07    2.11
   9 -10  -1    2.43    0.58
  10 -10  -1  161.23    7.35
  11 -10  -1   20.12    2.27
  12 -10  -1    4.21    1.32
  13 -10  -1   47.31    2.60
  14 -10  -1   99.70    4.08
  -6  -9  -1    1.52    0.81
  -5  -9  -1    4.85    1.37
  -4  -9  -1   98.64    5.29
  -3  -9  -1   33.21    1.90
  -2  -9  -1  152.02    4.85
  -1  -9  -1    2.16    0.82
   0  -9  -1    7.44    1.48
   1  -9  -1   49.39    3.21
   2  -9  -1   41.83    2.86
   3  -9  -1    4.97    1.19
   4  -9  -1    0.28    0.36
   5  -9  -1  282.17    9.71
   6  -9  -1   47.27    2.98
   7  -9  -1  267.77    9.57
   8  -9  -1   13.28    1.30
   9  -9  -1    5.25    0.81
  10  -9  -1   23.67    2.36
  11  -9  -1   81.54    4.69
  12  -9  -1    6.73    1.11
  13  -9  -1   26.25    1.88
  14  -9  -1   22.93    1.95
  -7  -8  -1   84.97    5.31
  -6  -8  -1    3.55    1.20
  -5  -8  -1   29.52    2.67
  -4  -8  -1    6.25    1.39
  -3  -8  -1   10.65    1.22
  -2  -8  -1   39.56    1.94
  -1  -8  -1   12.96    1.09
   0  -8  -1   11.11    0.96
   1  -8  -1  271.05    6.25
   2  -8  -1   59.47    3.43
   3  -8  -1  275.76    9.81
   4  -8  -1   93.79    4.35
   5  -8  -1    5.30    1.07
   6  -8  -1    3.29    0.90
   7  -8  -1   50.33    2.84
   8  -8  -1   11.51    1.15
   9  -8  -1   51.93    2.14
  10  -8  -1  220.16    8.59
  11  -8  -1   76.46    4.58
  12  -8  -1  140.40    4.68
  13  -8  -1    0.68    0.49
  14  -8  -1    5.19    1.03
  15  -8  -1   25.15    2.44
  -8  -7  -1   22.06    3.13
  -7  -7  -1   26.48    2.75
  -6  -7  -1  110.82    5.70
  -5  -7  -1   16.59    2.33
  -4  -7  -1    7.01    0.97
  -3  -7  -1   10.04    1.12
  -2  -7  -1  264.89    6.68
  -1  -7  -1   52.22    2.04
   0  -7  -1  167.15    4.29
   1  -7  -1  152.51    3.93
   2  -7  -1   41.46    1.51
   3  -7  -1  240.02    5.23
   4  -7  -1    2.58    0.70
   5  -7  -1   14.92    1.40
   6  -7  -1  314.15   10.68
   7  -7  -1  172.19    4.41
   8  -7  -1  270.82    6.32
   9  -7  -1   36.64    2.68
  10  -7  -1    6.20    1.35
  11  -7  -1   48.85    2.42
  12  -7  -1    3.68    0.79
  13  -7  -1    1.83    0.62
  14  -7  -1   33.98    2.18
  15  -7  -1   79.52    3.73
  -9  -6  -1   95.12    6.63
  -8  -6  -1    4.67    1.39
  -7  -6  -1    4.13    1.29
  -6  -6  -1   35.64    2.88
  -5  -6  -1   12.75    1.95
  -4  -6  -1   12.48    1.08
  -3  -6  -1   49.31    2.02
  -2  -6  -1    1.37    0.39
  -1  -6  -1  329.11    7.58
   0  -6  -1   51.67    1.82
   1  -6  -1   10.50    0.75
   2  -6  -1  226.64    5.04
   3  -6  -1  388.83    7.94
   4  -6  -1   75.33    1.87
   5  -6  -1   40.36    1.27
   6  -6  -1   52.81    1.89
   7  -6  -1  155.65    4.01
   8  -6  -1   57.72    2.10
   9  -6  -1    2.41    0.80
  10  -6  -1    7.97    1.07
  11  -6  -1  174.19    5.24
  12  -6  -1   36.29    2.09
  13  -6  -1  103.01    3.98
  14  -6  -1    1.80    0.63
  15  -6  -1    0.76    0.59
  -9  -5  -1   23.62    3.11
  -8  -5  -1    0.44    0.52
  -7  -5  -1    2.33    0.88
  -6  -5  -1  168.32    7.35
  -5  -5  -1   47.38    2.02
  -4  -5  -1  278.37    6.47
  -3  -5  -1    4.33    0.65
  -2  -5  -1   15.28    0.95
  -1  -5  -1   39.70    1.56
   0  -5  -1  233.78    5.22
   1  -5  -1   31.83    1.19
   2  -5  -1  101.07    2.45
   3  -5  -1  111.54    2.64
   4  -5  -1  462.62    9.16
   5  -5  -1  239.79    7.35
   6  -5  -1    8.36    0.70
   7  -5  -1   41.82    1.57
   8  -5  -1  280.77    9.70
   9  -5  -1    0.28    0.28
  10  -5  -1   46.33    2.18
  11  -5  -1   12.54    1.35
  12  -5  -1   14.67    1.60
  13  -5  -1   28.00    1.91
  14  -5  -1    4.74    0.95
 -10  -4  -1   96.25    5.73
  -9  -4  -1   24.15    2.58
  -8  -4  -1  131.72    6.45
  -7  -4  -1   55.40    3.57
  -6  -4  -1    8.69    1.47
  -5  -4  -1    0.76    0.28
  -4  -4  -1   95.45    2.83
  -3  -4  -1    4.58    0.62
  -2  -4  -1   74.92    2.23
  -1  -4  -1  433.88    9.41
   0  -4  -1  230.45    5.03
   1  -4  -1  471.82    9.37
   2  -4  -1   17.77    0.70
   3  -4  -1   15.17    0.62
   4  -4  -1  228.45    7.05
   5  -4  -1   31.99    1.22
   6  -4  -1  219.59    5.05
   7  -4  -1  234.41    4.37
   8  -4  -1   92.91    2.99
   9  -4  -1  280.80    6.73
  10  -4  -1    9.95    1.17
  11  -4  -1    6.09    0.95
  12  -4  -1    5.01    0.92
  13  -4  -1  101.36    3.93
  14  -4  -1   22.18    2.14
 -11  -3  -1   62.24    4.54
 -10  -3  -1   45.33    3.57
  -9  -3  -1    7.22    1.61
  -8  -3  -1   81.21    4.59
  -7  -3  -1    4.84    1.14
  -6  -3  -1    2.74    0.80
  -5  -3  -1  280.64    6.52
  -4  -3  -1  227.74    5.39
  -3  -3  -1  376.44    8.14
  -2  -3  -1  109.28    2.85
  -1  -3  -1   14.23    0.72
   0  -3  -1  212.45    4.63
   1  -3  -1   18.97    0.72
   2  -3  -1   50.97    1.30
   3  -3  -1  210.82    6.49
   4  -3  -1  456.58    9.36
   5  -3  -1  100.08    2.45
   6  -3  -1  383.49    6.57
   7  -3  -1    3.38    0.57
   8  -3  -1    4.00    0.63
   9  -3  -1   46.89    2.08
  10  -3  -1    8.49    1.05
  11  -3  -1    8.41    1.14
  12  -3  -1   28.44    1.86
  13  -3  -1    2.32    0.53
  14  -3  -1   87.68    3.02
 -11  -2  -1   19.94    2.82
 -10  -2  -1    2.11    0.95
  -9  -2  -1   85.44    4.62
  -8  -2  -1  204.59    8.31
  -7  -2  -1   38.61    2.66
  -6  -2  -1   59.14    1.66
  -5  -2  -1   40.48    1.18
  -4  -2  -1  224.74    4.04
  -3  -2  -1   97.99    3.76
  -2  -2  -1   18.09    1.15
  -1  -2  -1   50.66    1.96
   0  -2  -1  531.93   13.99
   1  -2  -1  168.02    4.73
   3  -2  -1   20.12    0.95
   4  -2  -1   16.81    0.67
   5  -2  -1  113.89    2.20
   6  -2  -1   74.55    2.31
   7  -2  -1   14.83    0.98
   8  -2  -1    1.72    0.45
   9  -2  -1  267.81    6.87
  10  -2  -1   41.34    2.07
  11  -2  -1  155.48    4.87
  12  -2  -1    1.37    0.43
  13  -2  -1    5.50    0.80
  14  -2  -1   12.21    1.29
 -12  -1  -1   11.37    2.20
 -11  -1  -1   65.10    4.22
 -10  -1  -1   20.25    2.21
  -9  -1  -1   26.21    2.36
  -8  -1  -1   50.50    2.06
  -7  -1  -1  265.97    6.13
  -6  -1  -1  158.00    3.05
  -5  -1  -1    7.55    0.59
  -4  -1  -1   32.00    1.13
  -3  -1  -1  463.95    9.25
  -2  -1  -1   20.82    0.65
  -1  -1  -1  162.00    4.88
   0  -1  -1   55.89    1.90
   2  -1  -1  158.54    3.44
   3  -1  -1   46.38    1.94
   4  -1  -1   15.02    0.76
   5  -1  -1  458.24    9.53
   6  -1  -1   38.94    1.61
   7  -1  -1  333.97    7.70
   8  -1  -1   49.76    2.08
   9  -1  -1   12.20    1.26
  10  -1  -1    2.12    0.44
  11  -1  -1   28.64    1.43
  12  -1  -1    6.29    0.84
  13  -1  -1   21.92    1.52
 -13   0  -1   13.91    2.37
 -12   0  -1  114.67    6.06
 -11   0  -1   55.26    3.70
 -10   0  -1  155.65    6.99
  -9   0  -1    6.50    0.82
  -8   0  -1   10.93    1.00
  -7   0  -1  168.43    4.22
  -6   0  -1   51.11    1.74
  -5   0  -1  228.32    5.09
  -4   0  -1  230.88    4.93
  -3   0  -1  208.70    4.51
  -2   0  -1  521.03    9.85
  -1   0  -1   57.39    1.27
   0   0  -1    0.87    0.15
   1   0  -1   57.18    1.27
   2   0  -1  515.33    8.09
   3   0  -1  212.01    4.63
   4   0  -1  240.60    5.08
   5   0  -1  234.95    5.28
   6   0  -1   50.77    1.49
   7   0  -1  165.37    3.54
   8   0  -1    9.88    0.84
   9   0  -1    5.30    0.66
  10   0  -1  165.54    4.04
  11   0  -1   53.14    2.04
  12   0  -1  116.18    3.44
  13   0  -1   12.84    1.63
 -13   1  -1   23.29    2.50
 -12   1  -1    8.52    1.73
 -11   1  -1   27.19    2.42
 -10   1  -1    1.97    0.48
  -9   1  -1   13.58    1.08
  -8   1  -1   47.31    1.88
  -7   1  -1  330.94    7.46
  -6   1  -1   40.13    1.51
  -5   1  -1  436.15    9.29
  -4   1  -1   14.97    0.94
  -3   1  -1   51.07    1.08
  -2   1  -1  159.09    2.72
  -1   1  -1   56.66    1.03
   0   1  -1   57.13    1.29
   1   1  -1  160.87    2.71
   2   1  -1   19.66    0.59
   3   1  -1  471.14    7.63
   4   1  -1   31.63    0.98
   5   1  -1    7.63    0.56
   6   1  -1  156.56    3.25
   7   1  -1  268.02    5.13
   8   1  -1   51.61    1.73
   9   1  -1   27.45    1.31
  10   1  -1   23.97    1.31
  11   1  -1   62.31    2.28
  12   1  -1   13.54    1.63
 -14   2  -1   15.08    2.40
 -13   2  -1    4.59    1.31
 -12   2  -1    1.56    0.77
 -11   2  -1  152.08    4.51
 -10   2  -1   40.41    1.88
  -9   2  -1  274.41    6.59
  -8   2  -1    1.60    0.40
  -7   2  -1   14.66    0.89
  -6   2  -1   72.05    2.11
  -5   2  -1  111.05    2.28
  -4   2  -1   18.10    0.61
  -3   2  -1   19.55    0.58
  -2   2  -1  503.32    8.01
  -1   2  -1  157.54    2.71
   0   2  -1  543.18    8.08
   1   2  -1   51.30    1.27
   2   2  -1   17.34    0.58
   3   2  -1   98.08    2.43
   4   2  -1  225.38    4.16
   5   2  -1   39.84    1.29
   6   2  -1   60.39    1.79
   7   2  -1   39.12    1.43
   8   2  -1  221.71    4.66
   9   2  -1   80.94    2.45
  10   2  -1    2.39    0.52
  11   2  -1   15.10    1.68
  12   2  -1   95.03    4.17
 -14   3  -1   88.58    5.09
 -13   3  -1    2.34    0.86
 -12   3  -1   33.19    1.81
 -11   3  -1    9.86    1.10
 -10   3  -1   10.73    1.09
  -9   3  -1   47.68    1.92
  -8   3  -1    4.19    0.60
  -7   3  -1    5.44    0.53
  -6   3  -1  384.09    6.61
  -5   3  -1   98.91    2.03
  -4   3  -1  470.61    7.59
  -3   3  -1  214.17    3.66
  -2   3  -1   51.21    0.89
  -1   3  -1   20.01    0.70
   0   3  -1  211.95    3.67
   1   3  -1   14.98    0.54
   2   3  -1  112.44    2.23
   3   3  -1  390.30    6.56
   4   3  -1  231.66    4.33
   5   3  -1  283.49    5.29
   6   3  -1    2.98    0.43
   7   3  -1    3.89    0.54
   8   3  -1   83.64    2.44
   9   3  -1    7.31    0.83
  10   3  -1   46.56    2.46
  11   3  -1   67.22    3.18
 -13   4  -1  107.26    3.69
 -12   4  -1    5.53    0.85
 -11   4  -1    6.52    0.88
 -10   4  -1   12.15    1.02
  -9   4  -1  276.50    6.32
  -8   4  -1   91.24    2.24
  -7   4  -1  229.22    4.36
  -6   4  -1  225.97    4.14
  -5   4  -1   31.78    0.92
  -4   4  -1  233.53    3.95
  -3   4  -1   16.07    0.43
  -2   4  -1   17.38    0.60
  -1   4  -1  466.86    7.57
   0   4  -1  235.97    3.99
   1   4  -1  476.50    7.58
   2   4  -1   73.56    2.01
   3   4  -1    4.16    0.42
   4   4  -1   94.17    2.20
   5   4  -1    0.46    0.19
   6   4  -1    8.75    0.78
   7   4  -1   54.15    1.84
   8   4  -1  138.96    4.44
   9   4  -1   25.77    1.78
  10   4  -1   90.42    3.78
 -14   5  -1    9.05    1.77
 -13   5  -1   25.89    2.40
 -12   5  -1   12.91    1.55
 -11   5  -1   14.42    1.15
 -10   5  -1   46.01    1.60
  -9   5  -1    0.25    0.17
  -8   5  -1  280.97    5.29
  -7   5  -1   38.31    1.22
  -6   5  -1    7.91    0.49
  -5   5  -1  236.76    4.06
  -4   5  -1  449.66    6.50
  -3   5  -1  112.31    1.85
  -2   5  -1   96.86    2.02
  -1   5  -1   31.35    0.94
   0   5  -1  237.39    4.13
   1   5  -1   40.77    1.19
   2   5  -1   15.12    0.69
   3   5  -1    4.52    0.48
   4   5  -1  278.27    5.11
   5   5  -1   46.28    1.57
   6   5  -1  181.61    4.01
   7   5  -1    5.06    0.85
   8   5  -1    1.25    0.50
   9   5  -1   19.31    1.90
  10   5  -1   13.56    2.38
 -15   6  -1    0.51    0.63
 -14   6  -1    1.66    0.81
 -13   6  -1  111.66    5.44
 -12   6  -1   36.29    2.75
 -11   6  -1  184.74    5.13
 -10   6  -1    7.71    0.95
  -9   6  -1    2.91    0.58
  -8   6  -1   57.34    1.81
  -7   6  -1  155.80    3.08
  -6   6  -1   54.28    1.27
  -5   6  -1   40.85    1.29
  -4   6  -1   73.08    1.77
  -3   6  -1  379.88    6.58
  -2   6  -1  221.97    4.13
  -1   6  -1    7.38    0.49
   0   6  -1   50.14    1.37
   1   6  -1  337.76    6.00
   2   6  -1    1.16    0.26
   3   6  -1   51.48    1.54
   4   6  -1   12.01    0.77
   5   6  -1   15.17    0.87
   6   6  -1   34.34    1.88
   7   6  -1    2.69    0.67
   8   6  -1    5.23    0.97
   9   6  -1  100.53    4.32
 -15   7  -1   77.36    4.80
 -14   7  -1   31.37    2.79
 -13   7  -1    3.89    1.17
 -12   7  -1    5.20    0.85
 -11   7  -1   53.43    2.37
 -10   7  -1    4.90    0.81
  -9   7  -1   37.90    1.80
  -8   7  -1  271.07    6.37
  -7   7  -1  165.42    4.32
  -6   7  -1  323.74    6.17
  -5   7  -1   14.59    0.74
  -4   7  -1    4.20    0.46
  -3   7  -1  227.91    4.35
  -2   7  -1   39.32    1.25
  -1   7  -1  154.10    3.15
   0   7  -1  166.04    3.37
   1   7  -1   49.03    1.50
   2   7  -1  269.79    5.26
   3   7  -1    9.06    0.77
   4   7  -1    7.94    0.76
   5   7  -1   14.93    1.45
   6   7  -1  105.59    3.78
   7   7  -1   32.85    2.02
   8   7  -1   25.03    2.73
 -15   8  -1   20.40    2.75
 -14   8  -1    6.32    1.59
 -13   8  -1    0.83    0.45
 -12   8  -1  142.83    4.50
 -11   8  -1   82.96    3.14
 -10   8  -1  218.20    5.81
  -9   8  -1   50.44    2.15
  -8   8  -1    9.25    0.99
  -7   8  -1   48.04    1.62
  -6   8  -1    1.94    0.33
  -5   8  -1    4.39    0.51
  -4   8  -1   89.91    2.24
  -3   8  -1  279.23    5.30
  -2   8  -1   56.19    1.69
  -1   8  -1  262.17    4.97
   0   8  -1   10.62    0.70
   1   8  -1   14.79    0.81
   2   8  -1   40.99    1.47
   3   8  -1    9.17    1.09
   4   8  -1    5.22    0.84
   5   8  -1   31.17    1.85
   6   8  -1    1.18    0.52
   7   8  -1   79.17    5.15
 -15   9  -1  101.58    5.80
 -14   9  -1   22.68    1.71
 -13   9  -1   25.05    1.75
 -12   9  -1    9.43    1.21
 -11   9  -1   77.84    3.05
 -10   9  -1   27.95    1.66
  -9   9  -1    6.77    0.92
  -8   9  -1   14.40    1.19
  -7   9  -1  271.88    5.49
  -6   9  -1   47.78    1.61
  -5   9  -1  278.16    5.25
  -4   9  -1    0.31    0.20
  -3   9  -1    2.35    0.39
  -2   9  -1   40.69    1.40
  -1   9  -1   47.65    1.58
   0   9  -1    6.41    0.68
   1   9  -1    3.38    0.50
   2   9  -1  156.51    4.57
   3   9  -1   31.54    1.78
   4   9  -1   99.80    3.67
   5   9  -1    3.96    1.02
   6   9  -1    1.33    1.18
 -14  10  -1   95.16    3.84
 -13  10  -1   43.24    2.37
 -12  10  -1    1.99    0.60
 -11  10  -1   24.38    1.64
 -10  10  -1  165.58    4.98
  -9  10  -1    2.35    0.57
  -8  10  -1   42.06    1.64
  -7  10  -1   10.17    0.92
  -6  10  -1   10.81    0.90
  -5  10  -1   43.69    1.60
  -4  10  -1    7.93    0.76
  -3  10  -1    5.26    0.57
  -2  10  -1  211.87    4.51
  -1  10  -1   27.26    1.24
   0  10  -1  168.37    3.85
   1  10  -1   30.84    1.76
   2  10  -1    0.96    0.45
   3  10  -1    2.62    0.67
   4  10  -1   24.65    2.57
 -14  11  -1   66.91    3.14
 -13  11  -1   17.03    1.75
 -12  11  -1   63.55    2.88
 -11  11  -1   56.20    2.59
 -10  11  -1   28.62    1.75
  -9  11  -1  156.75    4.70
  -8  11  -1   11.95    1.05
  -7  11  -1    5.28    0.67
  -6  11  -1   13.05    0.96
  -5  11  -1  177.75    4.08
  -4  11  -1   55.70    1.87
  -3  11  -1   84.42    2.42
  -2  11  -1   80.53    2.37
  -1  11  -1   23.56    1.56
   0  11  -1   51.77    2.43
   1  11  -1    6.26    1.01
   2  11  -1    4.95    1.32
   3  11  -1   81.11    5.12
 -14  12  -1   87.18    5.43
 -13  12  -1   13.53    1.61
 -12  12  -1  118.89    4.28
 -11  12  -1    5.05    0.92
 -10  12  -1    1.18    0.49
  -9  12  -1   29.59    1.48
  -8  12  -1    6.40    0.78
  -7  12  -1   15.70    1.24
  -6  12  -1   36.22    1.57
  -5  12  -1    5.08    0.68
  -4  12  -1  139.92    3.52
  -3  12  -1    8.65    0.90
  -2  12  -1    1.91    0.58
  -1  12  -1   58.90    2.71
   0  12  -1  107.93    5.86
   1  12  -1   21.06    2.89
 -13  13  -1   11.63    1.57
 -12  13  -1   20.41    1.94
 -11  13  -1    4.63    0.90
 -10  13  -1    4.11    0.85
  -9  13  -1  100.43    3.09
  -8  13  -1   29.82    1.50
  -7  13  -1  106.69    3.10
  -6  13  -1    3.02    0.55
  -5  13  -1    0.76    0.32
  -4  13  -1   26.44    1.50
  -3  13  -1   49.63    2.45
  -2  13  -1   19.85    2.74
  -1  13  -1   14.11    2.32
   0  13  -1   11.50    2.46
 -12  14  -1   14.65    1.98
 -11  14  -1   92.28    3.74
 -10  14  -1   24.20    1.77
  -9  14  -1    5.00    0.79
  -8  14  -1    2.83    0.59
  -7  14  -1   34.09    1.66
  -6  14  -1    4.67    0.71
  -5  14  -1   18.71    1.85
  -4  14  -1   96.46    5.53
  -3  14  -1   69.88    4.56
 -10  15  -1    6.15    1.11
  -9  15  -1    1.40    0.49
  -8  15  -1   80.26    2.96
  -7  15  -1   20.95    3.11
   6 -15   0    1.22    1.11
   7 -15   0   14.48    2.66
   8 -15   0   49.45    4.19
   9 -15   0  172.89    5.90
  10 -15   0   45.62    2.72
   2 -14   0   57.39    4.43
   3 -14   0   15.30    2.69
   4 -14   0    1.16    0.81
   5 -14   0    0.17    0.50
   6 -14   0   50.98    4.05
   7 -14   0    0.09    0.64
   8 -14   0    4.44    1.41
   9 -14   0   51.73    2.79
  10 -14   0   12.99    1.64
  11 -14   0   49.75    2.87
  12 -14   0   13.01    2.35
   0 -13   0    1.28    0.82
   1 -13   0   36.06    3.37
   2 -13   0    9.60    2.05
   3 -13   0    0.27    0.47
   4 -13   0    5.94    1.57
   5 -13   0  217.91    9.45
   6 -13   0  100.82    5.72
   7 -13   0   51.30    3.85
   8 -13   0    3.71    1.24
   9 -13   0   60.42    2.93
  10 -13   0   22.18    1.72
  11 -13   0  118.70    6.34
  12 -13   0    0.30    0.56
  13 -13   0    0.12    0.59
  -1 -12   0    1.90    1.05
   0 -12   0    4.34    1.35
   1 -12   0    0.08    0.51
   2 -12   0  165.30    7.72
   3 -12   0   32.66    2.99
   4 -12   0   86.16    5.08
   5 -12   0   17.38    2.47
   6 -12   0    3.97    1.22
   7 -12   0    0.53    0.56
   8 -12   0    8.81    1.75
   9 -12   0    6.83    1.07
  10 -12   0  124.72    4.40
  11 -12   0   94.82    5.43
  12 -12   0    6.57    1.65
  13 -12   0   34.28    3.26
  -2 -11   0  114.34    6.02
  -1 -11   0   95.90    5.28
   0 -11   0   29.99    2.79
   1 -11   0   11.48    2.06
   2 -11   0    4.93    1.37
   3 -11   0   85.70    4.92
   4 -11   0   24.09    2.37
   5 -11   0  113.29    5.77
   6 -11   0   17.88    2.46
   7 -11   0  573.14   18.81
   8 -11   0    3.21    0.64
   9 -11   0  105.53    3.72
  10 -11   0    2.61    0.67
  11 -11   0   34.63    3.00
  12 -11   0    0.94    0.69
  13 -11   0    6.05    1.63
  14 -11   0   15.27    1.80
  -2 -10   0  131.99    6.24
  -1 -10   0    2.77    0.98
   0 -10   0   55.68    3.70
   1 -10   0   63.64    4.03
   2 -10   0    1.84    0.79
   3 -10   0   88.22    4.73
   4 -10   0   78.56    4.32
   5 -10   0    1.91    0.80
   6 -10   0   23.93    2.18
   7 -10   0   16.58    1.78
   8 -10   0    2.96    0.64
   9 -10   0   39.41    2.02
  10 -10   0   57.83    2.55
  11 -10   0    9.65    1.87
  12 -10   0  158.06    7.56
  13 -10   0    0.22    0.37
  14 -10   0    2.09    0.71
  15 -10   0    1.51    0.98
  -6  -9   0  181.98    8.24
  -5  -9   0   53.28    3.79
  -4  -9   0   58.74    3.93
  -3  -9   0    8.18    1.09
  -2  -9   0   96.60    4.98
  -1  -9   0   35.61    2.77
   0  -9   0  316.49   11.05
   1  -9   0    0.45    0.45
   2  -9   0   15.69    1.74
   3  -9   0  359.50   12.43
   4  -9   0    2.40    0.82
   5  -9   0  171.38    6.99
   6  -9   0    0.36    0.39
   7  -9   0  142.02    6.07
   8  -9   0   56.70    2.37
   9  -9   0  311.23    7.62
  10  -9   0   68.91    4.13
  11  -9   0    6.19    1.47
  12  -9   0   35.14    3.03
  13  -9   0    8.56    1.26
  14  -9   0    0.71    0.46
  15  -9   0    1.37    0.65
  -7  -8   0   49.11    3.90
  -6  -8   0    3.50    1.21
  -5  -8   0    4.67    1.25
  -4  -8   0   12.59    1.95
  -3  -8   0    2.64    0.61
  -2  -8   0    3.35    0.65
  -1  -8   0   58.83    2.28
   0  -8   0  211.21    5.31
   1  -8   0    0.17    0.33
   2  -8   0   85.02    4.24
   3  -8   0  137.44    5.74
   4  -8   0    0.22    0.33
   5  -8   0  187.02    7.12
   6  -8   0   27.97    2.10
   7  -8   0   30.31    1.56
   8  -8   0  212.55    5.50
   9  -8   0    0.63    0.31
  10  -8   0    1.56    0.78
  11  -8   0   90.38    4.95
  12  -8   0   87.99    3.46
  13  -8   0  211.16    6.35
  14  -8   0   50.80    2.69
  15  -8   0   13.23    1.65
  -8  -7   0   13.04    2.41
  -7  -7   0   -0.17    0.46
  -6  -7   0   53.27    3.68
  -5  -7   0    1.10    0.68
  -4  -7   0  586.67   13.19
  -3  -7   0   15.86    1.14
  -2  -7   0  149.02    4.19
  -1  -7   0   31.84    1.51
   0  -7   0   94.26    2.81
   1  -7   0    6.27    0.68
   2  -7   0   86.93    2.41
   3  -7   0  137.20    5.40
   4  -7   0  215.80    7.53
   5  -7   0  425.81   13.45
   6  -7   0  217.16    5.47
   7  -7   0   91.37    2.90
   8  -7   0    0.75    0.31
   9  -7   0   16.94    1.78
  10  -7   0   87.24    4.62
  11  -7   0   24.81    1.62
  12  -7   0   16.74    1.62
  13  -7   0   95.66    3.76
  14  -7   0    0.22    0.40
  15  -7   0   51.32    2.83
  -9  -6   0    2.69    1.18
  -8  -6   0   44.67    3.67
  -7  -6   0   94.22    5.28
  -6  -6   0    1.50    0.76
  -5  -6   0   15.95    2.18
  -4  -6   0   22.58    1.32
  -3  -6   0    0.26    0.21
  -2  -6   0   31.15    1.47
  -1  -6   0  221.77    5.36
   0  -6   0   34.95    1.43
   1  -6   0  435.86    9.36
   2  -6   0    6.99    0.48
   3  -6   0   22.39    1.66
   4  -6   0    1.07    0.46
   5  -6   0   14.04    1.26
   6  -6   0   36.97    1.54
   7  -6   0    5.58    0.68
   8  -6   0   91.20    2.77
   9  -6   0  364.36   12.35
  10  -6   0   71.85    2.83
  11  -6   0  118.32    3.96
  12  -6   0    1.87    0.57
  13  -6   0   52.54    2.64
  14  -6   0    4.90    0.99
  15  -6   0  174.01    6.14
  -9  -5   0    0.82    0.74
  -8  -5   0  222.01    9.14
  -7  -5   0   20.63    2.19
  -6  -5   0  123.26    5.68
  -5  -5   0    1.96    0.74
  -4  -5   0  181.49    4.66
  -3  -5   0  182.95    4.73
  -2  -5   0  429.06    9.33
  -1  -5   0   16.30    0.91
   0  -5   0    6.38    0.63
   1  -5   0  187.15    4.32
   2  -5   0  167.23    3.74
   3  -5   0    0.79    0.37
   4  -5   0    1.14    0.41
   5  -5   0    5.34    0.60
   6  -5   0  445.64    9.48
   7  -5   0   85.70    2.54
   8  -5   0  138.95    3.64
   9  -5   0    0.98    0.37
  10  -5   0    1.19    0.42
  11  -5   0   13.76    1.41
  12  -5   0    0.78    0.42
  13  -5   0    4.38    0.88
  14  -5   0   49.73    2.69
  15  -5   0   40.96    3.54
 -10  -4   0    2.35    1.07
  -9  -4   0    5.00    1.34
  -8  -4   0   84.90    4.88
  -7  -4   0   24.24    2.27
  -6  -4   0   75.14    4.03
  -5  -4   0    2.14    0.43
  -4  -4   0    0.49    0.25
  -3  -4   0  216.87    5.09
  -2  -4   0    1.00    0.27
  -1  -4   0    1.54    0.32
   0  -4   0  202.71    4.51
   1  -4   0  261.46    5.51
   2  -4   0  718.16   14.10
   3  -4   0  513.00   15.23
   4  -4   0  201.20    4.57
   5  -4   0  192.74    4.43
   6  -4   0    6.78    0.56
   7  -4   0  137.58    3.37
   8  -4   0    0.51    0.29
   9  -4   0  173.21    4.85
  10  -4   0   21.79    1.42
  11  -4   0  583.70   13.21
  12  -4   0   11.91    1.39
  13  -4   0   61.06    2.88
  14  -4   0   14.49    1.70
 -11  -3   0   11.47    2.23
 -10  -3   0    2.84    1.11
  -9  -3   0   31.84    2.81
  -8  -3   0   87.63    4.77
  -7  -3   0   87.44    4.50
  -6  -3   0  364.48   12.23
  -5  -3   0  142.50    3.63
  -4  -3   0  135.21    3.45
  -3  -3   0   26.44    1.11
  -2  -3   0    0.60    0.20
  -1  -3   0  505.26   10.66
   0  -3   0    4.64    0.38
   1  -3   0   77.35    1.79
   2  -3   0  208.13    6.30
   3  -3   0    3.37    0.52
   4  -3   0  262.61    7.70
   5  -3   0  169.35    3.84
   6  -3   0   24.89    0.82
   7  -3   0  213.54    3.99
   8  -3   0  190.55    4.96
   9  -3   0    0.26    0.27
  10  -3   0   16.09    1.34
  11  -3   0    2.86    0.69
  12  -3   0    7.85    1.14
  13  -3   0   20.54    1.78
  14  -3   0   46.14    2.06
 -12  -2   0   50.48    6.65
 -11  -2   0   10.47    2.08
 -10  -2   0  160.39    7.38
  -9  -2   0    5.23    1.32
  -8  -2   0    1.43    0.64
  -7  -2   0   21.59    1.92
  -6  -2   0   80.46    4.01
  -5  -2   0   89.75    2.43
  -4  -2   0    7.50    0.56
  -3  -2   0  173.46    3.87
  -2  -2   0  706.12   14.19
  -1  -2   0  202.19    4.34
   0  -2   0  199.90    4.28
   1  -2   0    5.52    0.50
   2  -2   0  202.23    6.07
   3  -2   0   74.15    1.83
   4  -2   0  715.62   14.09
   5  -2   0    0.68    0.13
   6  -2   0    1.51    0.18
   7  -2   0  434.58    9.47
   8  -2   0   29.32    1.50
   9  -2   0  149.23    4.35
  10  -2   0    3.38    0.70
  11  -2   0   95.82    3.58
  12  -2   0  128.60    4.43
  13  -2   0  115.47    3.42
  14  -2   0   14.02    1.70
 -12  -1   0   34.76    3.15
 -11  -1   0    1.70    0.82
 -10  -1   0    8.02    1.63
  -9  -1   0   71.31    2.64
  -8  -1   0    0.29    0.26
  -7  -1   0    0.31    0.22
  -6  -1   0    6.72    0.73
  -5  -1   0  458.72    7.49
  -4  -1   0  196.05    3.45
  -3  -1   0  269.87    4.45
  -2  -1   0   75.78    1.45
  -1  -1   0    5.69    0.30
   0  -1   0    6.44    0.25
   2  -1   0    5.64    0.32
   3  -1   0  206.46    3.47
   4  -1   0  546.54   10.79
   5  -1   0    0.86    0.25
   6  -1   0   15.48    0.93
   7  -1   0  228.31    5.51
   8  -1   0   29.77    1.53
   9  -1   0   60.45    2.43
  10  -1   0   37.14    1.96
  11  -1   0    2.81    0.53
  12  -1   0   92.63    2.89
  13  -1   0    0.15    0.33
 -13   0   0    0.55    0.65
 -12   0   0    4.22    1.33
 -11   0   0   28.22    2.60
 -10   0   0   54.67    2.36
  -9   0   0  304.77    7.38
  -8   0   0  205.16    5.27
  -7   0   0   91.16    2.78
  -6   0   0   35.05    1.43
  -5   0   0    5.59    0.58
  -4   0   0  206.94    3.51
  -3   0   0    3.77    0.21
  -2   0   0  214.45    4.31
  -1   0   0    6.67    0.26
   1   0   0    6.29    0.26
   2   0   0  214.74    4.33
   3   0   0    3.76    0.21
   4   0   0  205.80    4.55
   5   0   0    5.25    0.60
   6   0   0   35.78    1.51
   7   0   0   89.53    2.87
   8   0   0  210.99    5.46
   9   0   0  313.55    6.12
  10   0   0   55.96    1.98
  11   0   0   33.13    1.55
  12   0   0    3.56    0.82
  13   0   0    0.68    0.55
 -13   1   0    0.86    0.68
 -12   1   0   87.23    3.95
 -11   1   0    2.42    0.57
 -10   1   0   36.43    1.83
  -9   1   0   54.28    2.19
  -8   1   0   32.53    1.49
  -7   1   0  225.79    5.36
  -6   1   0   16.18    0.89
  -5   1   0    1.27    0.28
  -4   1   0  529.55   10.67
  -3   1   0  203.80    3.54
  -2   1   0    5.57    0.30
  -1   1   0    6.24    0.27
   0   1   0    6.94    0.36
   1   1   0    4.84    0.21
   2   1   0   74.46    1.46
   3   1   0  265.54    4.50
   4   1   0  193.28    3.55
   5   1   0  453.60    7.66
   6   1   0    6.95    0.61
   7   1   0    0.35    0.18
   8   1   0    0.58    0.24
   9   1   0   70.58    2.18
  10   1   0   10.65    1.00
  11   1   0    0.26    0.37
  12   1   0   33.65    2.17
 -14   2   0   18.44    2.72
 -13   2   0  115.20    4.22
 -12   2   0  128.64    4.20
 -11   2   0  104.10    3.46
 -10   2   0    2.87    0.58
  -9   2   0  151.16    4.18
  -8   2   0   30.38    1.42
  -7   2   0  440.56    9.30
  -6   2   0    1.29    0.27
  -5   2   0    0.40    0.14
  -4   2   0  721.91   11.61
  -3   2   0   76.77    1.50
  -2   2   0  212.53    3.48
  -1   2   0    5.67    0.39
   0   2   0  218.75    3.46
   1   2   0  213.33    3.46
   2   2   0  768.87   11.52
   3   2   0  172.81    3.12
   4   2   0    7.50    0.46
   5   2   0   87.31    2.05
   6   2   0   89.81    2.21
   7   2   0   18.99    0.93
   8   2   0    1.67    0.37
   9   2   0    4.29    0.81
  10   2   0  162.26    5.15
  11   2   0    9.18    1.29
  12   2   0   49.99    2.76
 -14   3   0   50.86    2.62
 -13   3   0   21.65    1.69
 -12   3   0    7.41    1.01
 -11   3   0    4.21    0.75
 -10   3   0   15.25    1.10
  -9   3   0    0.35    0.23
  -8   3   0  190.48    4.75
  -7   3   0  211.29    4.14
  -6   3   0   25.20    0.90
  -5   3   0  166.74    3.17
  -4   3   0  262.38    4.51
  -3   3   0    3.83    0.22
  -2   3   0  208.76    3.54
  -1   3   0   76.87    2.46
   0   3   0    3.47    0.29
   1   3   0  565.25    8.61
   2   3   0    0.43    0.13
   3   3   0   25.13    0.82
   4   3   0  134.43    2.75
   5   3   0  142.86    2.99
   6   3   0  380.87    6.75
   7   3   0   88.52    2.34
   8   3   0   91.13    3.27
   9   3   0   32.44    1.91
  10   3   0    0.87    0.44
  11   3   0   12.61    1.60
 -14   4   0   15.01    1.61
 -13   4   0   60.15    2.67
 -12   4   0   10.47    1.20
 -11   4   0  611.79   12.93
 -10   4   0   22.76    1.31
  -9   4   0  177.76    4.60
  -8   4   0    0.60    0.20
  -7   4   0  131.52    2.84
  -6   4   0    6.55    0.47
  -5   4   0  193.33    3.53
  -4   4   0  199.32    3.11
  -3   4   0  546.62    8.74
  -2   4   0  744.26   11.58
  -1   4   0  266.61    4.48
   0   4   0  205.24    3.57
   1   4   0    1.18    0.19
   2   4   0    0.90    0.19
   3   4   0  222.04    4.01
   4   4   0    0.24    0.13
   5   4   0    1.91    0.33
   6   4   0   77.19    2.09
   7   4   0   23.79    1.50
   8   4   0   82.49    3.23
   9   4   0    6.58    1.05
  10   4   0    1.98    0.69
 -15   5   0   44.32    3.46
 -14   5   0   52.00    3.63
 -13   5   0    6.01    1.41
 -12   5   0    0.47    0.35
 -11   5   0   17.30    1.18
 -10   5   0    2.16    0.40
  -9   5   0    1.82    0.35
  -8   5   0  140.74    3.05
  -7   5   0   86.52    2.06
  -6   5   0  461.51    7.61
  -5   5   0    6.06    0.32
  -4   5   0    0.97    0.21
  -3   5   0    0.54    0.15
  -2   5   0  171.10    3.83
  -1   5   0  195.59    3.51
   0   5   0    6.21    0.39
   1   5   0   15.55    0.64
   2   5   0  446.62    7.43
   3   5   0  195.76    3.73
   4   5   0  182.97    3.65
   5   5   0    1.35    0.36
   6   5   0  121.66    3.80
   7   5   0   18.44    1.37
   8   5   0  211.45    6.16
   9   5   0    0.27    0.35
  10   5   0    1.12    0.58
 -15   6   0  163.17    7.69
 -14   6   0    5.69    1.43
 -13   6   0   52.51    3.53
 -12   6   0    1.63    0.66
 -11   6   0  112.74    3.82
 -10   6   0   73.44    2.75
  -9   6   0  373.32    8.57
  -8   6   0   91.06    2.19
  -7   6   0    6.59    0.45
  -6   6   0   37.08    1.00
  -5   6   0   14.69    0.86
  -4   6   0    0.85    0.21
  -3   6   0   23.31    0.85
  -2   6   0    5.85    0.44
  -1   6   0  451.95    7.58
   0   6   0   35.44    1.08
   1   6   0  227.89    4.21
   2   6   0   29.91    1.05
   3   6   0    0.38    0.17
   4   6   0   21.06    1.29
   5   6   0   15.28    1.28
   6   6   0    2.04    0.54
   7   6   0   96.91    3.61
   8   6   0   46.54    2.49
   9   6   0    2.33    0.75
 -15   7   0   55.37    3.97
 -14   7   0    0.09    0.51
 -13   7   0  105.68    5.30
 -12   7   0   17.32    1.46
 -11   7   0   24.58    1.56
 -10   7   0   86.98    3.09
  -9   7   0   18.96    1.24
  -8   7   0    0.50    0.29
  -7   7   0   90.73    2.87
  -6   7   0  225.11    4.44
  -5   7   0  439.62    7.64
  -4   7   0  213.41    4.14
  -3   7   0  134.30    2.83
  -2   7   0   87.67    2.05
  -1   7   0    6.27    0.53
   0   7   0   93.52    2.17
   1   7   0   30.99    1.09
   2   7   0  152.61    3.23
   3   7   0   14.77    1.08
   4   7   0  602.65   12.97
   5   7   0    2.24    0.54
   6   7   0   48.35    2.40
   7   7   0    0.54    0.40
   8   7   0   13.40    1.60
 -15   8   0   12.52    2.18
 -14   8   0   43.16    3.40
 -13   8   0  221.32    6.35
 -12   8   0   86.18    3.33
 -11   8   0   90.40    3.29
 -10   8   0    1.50    0.46
  -9   8   0    0.89    0.34
  -8   8   0  209.66    5.42
  -7   8   0   28.79    1.22
  -6   8   0   29.46    1.18
  -5   8   0  193.97    3.94
  -4   8   0    0.57    0.20
  -3   8   0  138.39    3.02
  -2   8   0   89.34    2.19
  -1   8   0    0.36    0.16
   0   8   0  211.33    4.19
   1   8   0   57.24    1.71
   2   8   0    2.71    0.56
   3   8   0    2.05    0.54
   4   8   0   10.96    1.23
   5   8   0    5.55    1.33
   6   8   0    5.44    0.97
   7   8   0   52.43    2.75
 -15   9   0    1.06    0.79
 -14   9   0    0.04    0.35
 -13   9   0    7.49    1.13
 -12   9   0   31.93    1.92
 -11   9   0    5.14    0.86
 -10   9   0   67.45    2.74
  -9   9   0  306.98    7.55
  -8   9   0   56.80    1.91
  -7   9   0  148.53    3.47
  -6   9   0    0.26    0.18
  -5   9   0  175.91    3.80
  -4   9   0    1.62    0.29
  -3   9   0  370.90    6.77
  -2   9   0   17.46    0.87
  -1   9   0    0.47    0.22
   0   9   0  306.55    7.41
   1   9   0   38.01    1.87
   2   9   0  100.42    3.45
   3   9   0    9.17    1.15
   4   9   0   63.21    2.78
   5   9   0   49.96    2.56
   6   9   0  170.32    5.62
 -14  10   0    1.07    0.53
 -13  10   0    0.76    0.47
 -12  10   0  171.41    5.22
 -11  10   0    9.50    1.21
 -10  10   0   57.22    2.52
  -9  10   0   38.82    1.62
  -8  10   0    2.70    0.49
  -7  10   0   16.38    0.95
  -6  10   0   22.31    1.09
  -5  10   0    1.98    0.39
  -4  10   0   74.03    2.14
  -3  10   0   86.66    2.35
  -2  10   0    1.63    0.35
  -1  10   0   69.96    2.69
   0  10   0   58.76    2.48
   1  10   0    3.38    0.69
   2  10   0  126.67    4.23
   3  10   0   23.84    1.66
   4  10   0   14.04    1.56
   5  10   0   47.76    2.77
 -14  11   0   14.46    1.67
 -13  11   0    8.89    1.26
 -12  11   0    0.64    0.38
 -11  11   0   32.11    1.94
 -10  11   0    3.17    0.71
  -9  11   0   97.84    2.89
  -8  11   0    2.34    0.48
  -7  11   0  591.87   10.64
  -6  11   0   14.82    0.98
  -5  11   0  118.79    3.04
  -4  11   0   24.49    1.18
  -3  11   0   88.99    2.50
  -2  11   0    6.04    0.91
  -1  11   0    9.53    1.18
   0  11   0   30.87    1.86
   1  11   0   94.53    3.56
   2  11   0  115.34    4.15
   3  11   0   46.39    2.52
 -14  12   0   49.67    3.35
 -13  12   0   35.34    2.17
 -12  12   0    2.05    0.58
 -11  12   0   83.50    3.44
 -10  12   0  125.95    3.56
  -9  12   0    7.25    0.86
  -8  12   0   10.66    1.01
  -7  12   0    0.69    0.29
  -6  12   0    1.68    0.42
  -5  12   0   19.18    1.10
  -4  12   0   90.56    3.35
  -3  12   0   36.04    1.99
  -2  12   0  166.39    5.08
  -1  12   0    0.78    0.44
   0  12   0    3.26    0.80
   1  12   0    0.31    0.36
   2  12   0   14.92    1.69
 -13  13   0    0.44    0.42
 -12  13   0    0.21    0.38
 -11  13   0  117.28    4.23
 -10  13   0   24.93    1.43
  -9  13   0   61.53    2.30
  -8  13   0    4.17    0.68
  -7  13   0   48.70    1.95
  -6  13   0   92.67    2.85
  -5  13   0  218.13    6.27
  -4  13   0    6.37    1.06
  -3  13   0    0.31    0.37
  -2  13   0   10.72    1.34
  -1  13   0   31.94    2.07
   0  13   0    1.03    0.51
 -12  14   0   16.05    1.89
 -11  14   0   44.82    2.50
 -10  14   0   15.70    1.40
  -9  14   0   51.39    2.14
  -8  14   0    5.35    0.78
  -7  14   0    0.25    0.37
  -6  14   0   47.79    2.58
  -5  14   0    0.12    0.33
  -4  14   0    1.57    0.59
  -3  14   0   14.58    1.67
  -2  14   0   48.53    2.84
 -10  15   0   50.46    2.68
  -9  15   0  175.34    4.92
  -8  15   0   51.92    2.83
  -7  15   0   11.99    1.55
  -6  15   0    1.76    0.71
  -5  15   0    0.19    0.66
   7 -15   1   23.05    3.76
   8 -15   1   83.19    3.77
   9 -15   1    0.86    0.55
  10 -15   1    6.81    1.16
   2 -14   1   85.47    5.75
   3 -14   1   62.41    4.69
   4 -14   1   94.87    5.91
   5 -14   1   18.90    2.98
   6 -14   1    1.51    0.89
   7 -14   1   30.09    3.09
   8 -14   1    2.26    0.74
   9 -14   1    5.70    1.11
  10 -14   1   25.64    1.91
  11 -14   1   89.35    3.82
  12 -14   1   11.53    2.21
   0 -13   1   15.29    2.55
   1 -13   1   12.27    2.24
   2 -13   1   14.87    2.49
   3 -13   1   39.53    3.53
   4 -13   1   26.44    2.83
   5 -13   1    0.15    0.52
   6 -13   1    2.56    0.97
   7 -13   1  100.41    5.82
   8 -13   1   26.07    1.85
   9 -13   1   99.29    3.92
  10 -13   1    3.74    0.84
  11 -13   1    5.22    1.00
  12 -13   1   20.94    2.95
  13 -13   1   15.84    2.58
  -1 -12   1   24.36    3.18
   0 -12   1  107.41    6.05
   1 -12   1   59.39    4.22
   2 -12   1    3.17    1.13
   3 -12   1    9.24    1.90
   4 -12   1  132.70    6.73
   5 -12   1    3.77    1.21
   6 -12   1   32.67    2.97
   7 -12   1   18.46    2.54
   8 -12   1    6.84    1.06
   9 -12   1   29.07    1.89
  10 -12   1    0.26    0.35
  11 -12   1    3.65    1.24
  12 -12   1  115.41    6.25
  13 -12   1   13.47    2.40
  14 -12   1   93.54    6.45
  -1 -11   1    4.82    1.41
   0 -11   1   51.64    3.72
   1 -11   1   28.33    2.69
   2 -11   1   74.12    4.59
   3 -11   1   88.42    4.96
   4 -11   1   47.95    3.57
   5 -11   1  175.30    7.73
   6 -11   1   16.39    2.26
   7 -11   1    5.29    1.33
   8 -11   1   11.73    1.34
   9 -11   1  156.82    4.87
  10 -11   1   27.88    1.78
  11 -11   1   49.81    3.68
  12 -11   1   61.07    4.23
  13 -11   1   13.60    2.35
  14 -11   1   60.57    3.12
  -2 -10   1    1.04    0.64
  -1 -10   1   29.11    2.61
   0 -10   1  175.88    7.46
   1 -10   1   29.27    2.56
   2 -10   1  218.53    8.67
   3 -10   1    5.99    1.37
   4 -10   1    5.65    1.25
   5 -10   1   40.60    3.08
   6 -10   1   14.62    2.10
   7 -10   1   10.94    1.24
   8 -10   1   42.04    2.08
   9 -10   1    2.16    0.59
  10 -10   1  176.58    5.12
  11 -10   1   30.32    2.72
  12 -10   1    5.51    1.49
  13 -10   1   34.39    3.21
  14 -10   1  102.97    4.09
  15 -10   1   12.20    2.26
  -6  -9   1    1.67    0.94
  -5  -9   1    4.47    1.33
  -4  -9   1  105.61    6.08
  -2  -9   1  154.75    6.70
  -1  -9   1    5.34    1.23
   0  -9   1    8.05    1.57
   1  -9   1   47.52    3.20
   2  -9   1   38.19    2.81
   3  -9   1    2.07    0.77
   4  -9   1    0.46    0.47
   5  -9   1  257.40    9.59
   6  -9   1   45.78    3.02
   7  -9   1  281.63    6.91
   8  -9   1   17.64    1.25
   9  -9   1    7.27    0.98
  10  -9   1   32.04    1.90
  11  -9   1   75.08    4.53
  12  -9   1    7.81    1.72
  13  -9   1   25.15    1.81
  14  -9   1   16.09    1.82
  15  -9   1  110.92    5.97
  -7  -8   1   90.80    5.46
  -6  -8   1    0.74    0.70
  -5  -8   1   30.96    2.76
  -4  -8   1    7.05    1.52
  -3  -8   1   13.37    1.38
  -2  -8   1   43.67    2.00
  -1  -8   1   16.74    1.15
   0  -8   1   11.81    0.96
   1  -8   1  242.19    9.16
   2  -8   1   69.95    3.66
   3  -8   1  283.58    9.90
   4  -8   1   86.19    4.28
   5  -8   1    3.56    0.95
   6  -8   1    1.72    0.45
   7  -8   1   46.88    2.02
   8  -8   1   12.07    1.18
   9  -8   1   46.04    2.06
  10  -8   1  215.83    8.51
  11  -8   1   86.19    4.74
  12  -8   1  140.57    4.60
  13  -8   1    1.11    0.48
  14  -8   1    3.37    0.84
  15  -8   1   24.39    2.12
  -8  -7   1   25.13    3.34
  -7  -7   1   29.63    2.94
  -6  -7   1  103.69    5.64
  -5  -7   1   16.59    2.32
  -4  -7   1    7.75    1.50
  -3  -7   1   11.80    1.17
  -2  -7   1  282.80    6.71
  -1  -7   1   50.90    1.99
   0  -7   1  158.26    4.22
   1  -7   1  146.34    3.84
   2  -7   1   41.75    1.44
   3  -7   1  225.43    8.11
   4  -7   1    3.52    0.90
   5  -7   1   14.94    1.44
   6  -7   1  351.92    7.76
   7  -7   1  160.98    4.37
   8  -7   1  243.27    6.24
   9  -7   1   35.87    1.70
  10  -7   1    5.45    1.26
  11  -7   1   53.76    2.45
  12  -7   1    3.47    0.77
  13  -7   1    2.32    0.67
  14  -7   1   27.66    1.96
  15  -7   1   84.77    3.92
  -9  -6   1  107.21    6.35
  -8  -6   1    2.40    1.04
  -7  -6   1    1.66    0.90
  -6  -6   1   34.44    2.85
  -5  -6   1   15.23    2.08
  -4  -6   1   15.01    1.05
  -3  -6   1   47.72    1.95
  -2  -6   1    0.79    0.30
  -1  -6   1  339.28    7.56
   0  -6   1   47.29    1.75
   1  -6   1   11.94    0.73
   2  -6   1  224.17    4.97
   3  -6   1  393.72    7.84
   4  -6   1   69.99    3.30
   5  -6   1   46.41    1.72
   6  -6   1   46.50    1.82
   7  -6   1  150.61    4.03
   8  -6   1   65.64    2.27
   9  -6   1    2.49    0.83
  10  -6   1    6.91    0.95
  11  -6   1  180.93    5.23
  12  -6   1   37.89    2.07
  13  -6   1  100.99    3.89
  14  -6   1    0.99    0.46
  15  -6   1    1.00    0.81
  -9  -5   1   17.82    2.74
  -8  -5   1    1.44    0.83
  -7  -5   1    3.41    1.07
  -6  -5   1  181.32    7.50
  -5  -5   1   49.92    3.18
  -4  -5   1  253.89    6.28
  -3  -5   1    3.80    0.58
  -2  -5   1   14.61    0.92
  -1  -5   1   44.35    1.62
   0  -5   1  224.04    5.17
   1  -5   1   32.66    1.17
   2  -5   1   95.24    2.36
   3  -5   1  115.71    4.34
   4  -5   1  443.47    9.50
   5  -5   1  220.36    5.25
   6  -5   1   10.69    0.74
   7  -5   1   43.53    1.64
   8  -5   1  293.55    6.55
   9  -5   1    0.27    0.25
  10  -5   1   49.59    2.17
  11  -5   1   15.75    1.36
  12  -5   1   18.89    1.58
  13  -5   1   25.87    1.80
  14  -5   1    5.87    1.10
  15  -5   1    6.66    1.65
 -10  -4   1   99.24    5.84
  -9  -4   1   24.48    2.62
  -8  -4   1  128.71    6.40
  -7  -4   1   51.64    3.48
  -6  -4   1    5.59    1.26
  -5  -4   1    1.17    0.61
  -4  -4   1   90.82    2.69
  -3  -4   1    5.47    0.66
  -2  -4   1   69.16    2.16
  -1  -4   1  455.84    9.43
   0  -4   1  218.71    4.98
   1  -4   1  445.49    9.32
   2  -4   1   17.51    0.65
   3  -4   1   14.38    1.10
   4  -4   1  215.65    5.03
   5  -4   1   29.87    1.21
   6  -4   1  224.56    5.14
   7  -4   1  232.41    5.35
   8  -4   1   92.21    2.31
   9  -4   1  248.95    6.47
  10  -4   1   13.51    1.31
  11  -4   1    6.42    0.97
  12  -4   1    6.70    1.05
  13  -4   1  104.04    3.91
  14  -4   1   25.30    1.85
 -11  -3   1   57.05    4.39
 -10  -3   1   34.54    3.24
  -9  -3   1    6.67    1.57
  -8  -3   1   80.98    4.57
  -7  -3   1    4.66    1.19
  -6  -3   1    3.82    1.03
  -5  -3   1  282.11    9.67
  -4  -3   1  233.74    5.29
  -3  -3   1  389.51    8.10
  -2  -3   1  113.97    2.85
  -1  -3   1   13.45    0.70
   0  -3   1  216.27    4.62
   1  -3   1   21.24    0.92
   2  -3   1   45.79    1.23
   3  -3   1  210.61    4.64
   4  -3   1  455.66    9.40
   5  -3   1   95.33    2.51
   6  -3   1  383.32    8.06
   7  -3   1    3.55    0.41
   8  -3   1    3.73    0.61
   9  -3   1   42.03    1.95
  10  -3   1    9.49    1.14
  11  -3   1   13.10    1.38
  12  -3   1   28.59    1.81
  13  -3   1    1.78    0.63
  14  -3   1   90.81    3.77
 -11  -2   1   13.51    2.37
 -10  -2   1    0.96    0.66
  -9  -2   1   71.11    4.35
  -8  -2   1  209.16    8.37
  -7  -2   1   35.57    2.65
  -6  -2   1   68.40    3.52
  -5  -2   1   43.48    1.39
  -4  -2   1  228.69    4.98
  -3  -2   1   94.75    2.44
  -2  -2   1   17.24    0.75
  -1  -2   1   46.54    1.35
   0  -2   1  481.70    9.91
   1  -2   1  163.32    3.39
   2  -2   1  463.76    9.90
   3  -2   1   19.97    0.78
   4  -2   1   18.02    0.77
   5  -2   1  109.86    2.27
   6  -2   1   67.90    1.67
   7  -2   1   14.80    0.66
   8  -2   1    0.42    0.24
   9  -2   1  285.11    6.84
  10  -2   1   43.29    2.05
  11  -2   1  150.67    4.72
  12  -2   1    0.95    0.45
  13  -2   1    4.44    0.92
  14  -2   1   22.54    4.56
 -12  -1   1   12.04    2.18
 -11  -1   1   54.13    3.99
 -10  -1   1   27.98    2.54
  -9  -1   1   30.22    2.53
  -8  -1   1   45.16    3.04
  -7  -1   1  257.77    6.30
  -6  -1   1  149.10    4.01
  -5  -1   1   10.82    0.75
  -4  -1   1   31.53    0.86
  -3  -1   1  476.71    9.27
  -2  -1   1   19.16    0.71
  -1  -1   1  161.46    3.41
   0  -1   1   57.26    1.91
   1  -1   1   55.18    1.26
   2  -1   1  167.93    3.43
   3  -1   1   46.34    1.08
   4  -1   1   13.67    0.54
   5  -1   1  474.43    7.61
   6  -1   1   43.24    1.19
   7  -1   1  346.92    7.64
   8  -1   1   48.78    2.00
   9  -1   1   16.14    1.17
  10  -1   1    1.02    0.42
  11  -1   1   24.86    1.67
  12  -1   1    3.59    0.82
  13  -1   1   20.63    1.82
 -13   0   1   12.09    2.19
 -12   0   1  114.40    6.10
 -11   0   1   45.00    3.47
 -10   0   1  170.56    4.95
  -9   0   1    6.15    0.84
  -8   0   1   10.90    1.09
  -7   0   1  160.88    4.32
  -6   0   1   47.44    1.81
  -5   0   1  222.03    5.24
  -4   0   1  221.69    5.04
  -3   0   1  226.71    3.70
  -2   0   1  518.01    8.07
  -1   0   1   55.50    1.35
   0   0   1    1.03    0.16
   1   0   1   53.88    1.32
   2   0   1  495.16    8.04
   3   0   1  224.85    3.72
   4   0   1  228.23    3.99
   5   0   1  226.51    4.11
   6   0   1   46.47    1.31
   7   0   1  157.60    4.26
   8   0   1   11.94    1.14
   9   0   1    7.50    0.97
  10   0   1  172.80    5.06
  11   0   1   50.32    2.51
  12   0   1  111.90    4.19
  13   0   1   13.77    1.82
 -13   1   1   21.96    2.93
 -12   1   1    3.31    0.77
 -11   1   1   26.04    1.67
 -10   1   1    1.17    0.42
  -9   1   1   14.18    1.16
  -8   1   1   48.73    1.98
  -7   1   1  350.01    7.64
  -6   1   1   43.44    1.63
  -5   1   1  459.90    9.48
  -4   1   1   13.77    0.73
  -3   1   1   45.43    0.91
  -2   1   1  162.85    2.15
  -1   1   1   55.60    0.83
   0   1   1   56.20    1.06
   1   1   1  165.33    2.74
   2   1   1   19.57    0.58
   3   1   1  473.13    7.60
   4   1   1   31.53    0.94
   5   1   1   11.89    0.76
   6   1   1  150.61    3.08
   7   1   1  258.15    6.28
   8   1   1   44.38    1.56
   9   1   1   35.76    1.83
  10   1   1   27.60    1.73
  11   1   1   61.68    2.83
  12   1   1   12.43    1.51
 -14   2   1   14.54    1.64
 -13   2   1    4.06    0.85
 -12   2   1    0.67    0.39
 -11   2   1  152.54    4.65
 -10   2   1   39.73    1.95
  -9   2   1  286.33    6.76
  -8   2   1    1.18    0.29
  -7   2   1   17.10    1.00
  -6   2   1   65.04    2.15
  -5   2   1  108.52    2.86
  -4   2   1   17.35    0.65
  -3   2   1   18.61    0.47
  -2   2   1  518.43    6.27
  -1   2   1  163.67    2.39
   0   2   1  519.40    8.09
   1   2   1   44.55    1.06
   2   2   1   17.22    0.45
   3   2   1   93.24    1.65
   4   2   1  224.49    3.48
   5   2   1   42.33    1.04
   6   2   1   67.69    1.73
   7   2   1   38.32    1.33
   8   2   1  216.75    5.73
   9   2   1   74.02    2.97
  10   2   1    2.86    0.73
  11   2   1   14.69    1.65
 -14   3   1   88.41    3.57
 -13   3   1    4.01    0.80
 -12   3   1   26.39    1.69
 -11   3   1   10.03    1.14
 -10   3   1   10.73    1.12
  -9   3   1   45.34    1.95
  -8   3   1    2.91    0.52
  -7   3   1    3.66    0.45
  -6   3   1  377.03    6.69
  -5   3   1   94.56    2.08
  -4   3   1  464.18    6.65
  -3   3   1  216.20    3.24
  -2   3   1   45.20    0.91
  -1   3   1   19.19    0.57
   0   3   1  220.92    3.19
   1   3   1   13.39    0.40
   2   3   1  110.29    1.86
   3   3   1  392.48    5.61
   4   3   1  237.60    4.22
   5   3   1  291.83    5.18
   6   3   1    3.39    0.59
   7   3   1    5.90    0.84
   8   3   1   80.96    3.05
   9   3   1    7.20    1.07
  10   3   1   40.57    2.30
  11   3   1   65.46    3.11
 -14   4   1   22.48    1.80
 -13   4   1  100.42    3.68
 -12   4   1    6.77    0.96
 -11   4   1    7.63    0.97
 -10   4   1   11.94    1.16
  -9   4   1  259.74    6.36
  -8   4   1   84.39    2.24
  -7   4   1  230.09    4.46
  -6   4   1  223.84    4.19
  -5   4   1   31.91    0.96
  -4   4   1  224.94    4.01
  -3   4   1   13.79    0.45
  -2   4   1   17.37    0.60
  -1   4   1  489.02    7.58
   0   4   1  224.98    3.91
   1   4   1  466.59    7.46
   2   4   1   68.20    1.54
   3   4   1    3.92    0.36
   4   4   1   88.12    2.02
   5   4   1    0.83    0.33
   6   4   1    6.86    0.87
   7   4   1   52.15    2.30
   8   4   1  136.77    4.39
   9   4   1   24.74    1.72
  10   4   1  100.13    3.89
 -15   5   1    7.10    1.81
 -14   5   1    5.41    1.39
 -13   5   1   27.68    2.54
 -12   5   1   17.00    1.37
 -11   5   1   16.78    1.23
 -10   5   1   54.10    2.10
  -9   5   1    0.40    0.20
  -8   5   1  287.98    5.39
  -7   5   1   42.96    1.31
  -6   5   1   11.10    0.50
  -5   5   1  223.80    3.61
  -4   5   1  471.05    6.59
  -3   5   1  110.29    2.30
  -2   5   1   92.68    1.99
  -1   5   1   32.15    0.91
   0   5   1  222.51    4.03
   1   5   1   43.99    1.11
   2   5   1   14.27    0.60
   3   5   1    4.60    0.62
   4   5   1  252.61    6.29
   5   5   1   50.28    2.06
   6   5   1  184.82    5.06
   7   5   1    5.29    0.86
   8   5   1    1.12    0.47
   9   5   1   13.60    1.56
  10   5   1   13.18    2.25
 -15   6   1    1.36    0.82
 -14   6   1    1.29    0.72
 -13   6   1   95.95    5.31
 -12   6   1   33.42    2.72
 -11   6   1  179.17    5.22
 -10   6   1    7.97    1.00
  -9   6   1    2.68    0.41
  -8   6   1   66.78    1.78
  -7   6   1  147.13    2.75
  -6   6   1   46.06    1.15
  -5   6   1   44.00    1.12
  -4   6   1   66.86    1.74
  -3   6   1  388.35    6.62
  -2   6   1  228.93    4.12
  -1   6   1   10.70    0.52
   0   6   1   48.12    1.28
   1   6   1  351.41    5.92
   2   6   1    0.88    0.30
   3   6   1   45.97    1.89
   4   6   1   14.45    1.05
   5   6   1   17.28    1.30
   6   6   1   36.06    1.94
   7   6   1    2.40    0.66
   8   6   1    2.44    0.71
   9   6   1  105.03    4.18
 -15   7   1   81.57    5.00
 -14   7   1   31.74    2.89
 -13   7   1    1.05    0.67
 -12   7   1    3.84    0.78
 -11   7   1   53.30    2.42
 -10   7   1    5.08    0.81
  -9   7   1   34.32    1.75
  -8   7   1  250.84    6.32
  -7   7   1  159.94    3.58
  -6   7   1  345.79    6.26
  -5   7   1   15.16    0.77
  -4   7   1    3.41    0.41
  -3   7   1  233.21    4.37
  -2   7   1   44.61    1.27
  -1   7   1  149.22    3.07
   0   7   1  158.93    3.25
   1   7   1   49.19    1.93
   2   7   1  280.92    6.63
   3   7   1   10.95    1.13
   4   7   1    5.73    0.83
   5   7   1   18.15    1.42
   6   7   1  107.39    3.82
   7   7   1   27.70    1.87
   8   7   1   26.51    1.93
 -15   8   1   22.55    3.32
 -14   8   1    4.40    1.31
 -13   8   1    1.03    0.46
 -12   8   1  135.37    4.50
 -11   8   1   82.00    3.18
 -10   8   1  214.65    5.83
  -9   8   1   44.53    2.07
  -8   8   1   11.58    0.96
  -7   8   1   45.83    1.62
  -6   8   1    0.75    0.24
  -5   8   1    4.25    0.46
  -4   8   1   87.56    2.22
  -3   8   1  288.00    5.30
  -2   8   1   68.61    1.75
  -1   8   1  253.33    4.88
   0   8   1   11.68    0.99
   1   8   1   16.16    1.11
   2   8   1   39.73    1.89
   3   8   1   12.32    1.28
   4   8   1    7.05    0.98
   5   8   1   25.80    1.72
   6   8   1    1.61    0.54
   7   8   1   89.18    3.67
 -14   9   1   16.77    1.80
 -13   9   1   27.90    1.86
 -12   9   1    7.45    1.09
 -11   9   1   76.01    3.07
 -10   9   1   28.89    1.70
  -9   9   1    6.48    0.76
  -8   9   1   15.94    1.01
  -7   9   1  281.92    5.54
  -6   9   1   44.26    1.58
  -5   9   1  252.09    5.17
  -4   9   1    0.44    0.19
  -3   9   1    3.85    0.48
  -2   9   1   36.36    1.47
  -1   9   1   43.69    1.99
   0   9   1    7.96    0.98
   1   9   1    1.86    0.48
   2   9   1  148.77    4.57
   3   9   1   27.30    1.71
   4   9   1   92.34    3.60
   5   9   1    4.86    0.90
   6   9   1    0.60    0.53
 -14  10   1   98.37    3.95
 -13  10   1   41.71    2.38
 -12  10   1    1.31    0.49
 -11  10   1   28.68    1.76
 -10  10   1  165.45    5.01
  -9  10   1    1.61    0.41
  -8  10   1   39.41    1.61
  -7  10   1   11.04    0.93
  -6  10   1   13.62    0.89
  -5  10   1   49.98    1.67
  -4  10   1    8.32    0.76
  -3  10   1    6.10    0.86
  -2  10   1  213.92    5.71
  -1  10   1   32.60    1.72
   0  10   1  172.38    4.97
   1  10   1   24.57    1.59
   2  10   1    0.95    0.44
   3  10   1    3.04    0.73
   4  10   1   23.84    1.75
   5  10   1    9.25    1.88
 -14  11   1   65.23    3.16
 -13  11   1   14.85    1.66
 -12  11   1   58.98    2.80
 -11  11   1   45.32    2.38
 -10  11   1   24.19    1.35
  -9  11   1  150.98    3.87
  -8  11   1   11.97    1.06
  -7  11   1    7.05    0.79
  -6  11   1   15.26    1.04
  -5  11   1  181.59    4.06
  -4  11   1   50.01    2.31
  -3  11   1   80.37    3.07
  -2  11   1   74.23    2.95
  -1  11   1   30.18    1.75
   0  11   1   47.03    2.37
   1  11   1    3.33    0.76
   2  11   1    4.14    0.87
   3  11   1   85.80    3.60
 -13  12   1   13.18    1.61
 -12  12   1  114.76    4.21
 -11  12   1    4.35    0.86
 -10  12   1    0.46    0.29
  -9  12   1   28.96    1.47
  -8  12   1    6.79    0.78
  -7  12   1   18.66    1.17
  -6  12   1   36.64    1.63
  -5  12   1    4.42    0.84
  -4  12   1  126.24    4.34
  -3  12   1    7.92    1.11
  -2  12   1    2.43    0.66
  -1  12   1   59.11    2.75
   0  12   1  111.65    4.10
   1  12   1   23.14    1.73
   2  12   1   16.74    1.81
 -13  13   1   14.24    1.74
 -12  13   1   19.18    1.90
 -11  13   1    4.27    0.90
 -10  13   1    2.39    0.54
  -9  13   1  101.15    3.10
  -8  13   1   26.39    1.42
  -7  13   1  105.39    3.94
  -6  13   1    2.05    0.63
  -5  13   1    1.50    0.54
  -4  13   1   26.68    1.79
  -3  13   1   40.47    2.29
  -2  13   1   14.67    1.63
  -1  13   1   13.80    1.59
   0  13   1   16.73    1.78
 -12  14   1   13.86    2.25
 -11  14   1   85.21    2.99
 -10  14   1   20.78    1.42
  -9  14   1    5.78    1.07
  -8  14   1    1.02    0.55
  -7  14   1   32.22    2.09
  -6  14   1    3.87    0.89
  -5  14   1   18.59    1.90
  -4  14   1   94.66    3.86
  -3  14   1   64.49    3.13
  -2  14   1   89.04    3.96
  -9  15   1    2.25    1.23
  -8  15   1   78.71    3.86
  -7  15   1   27.14    2.29
  -6  15   1  104.19    4.90
   3 -14   2   56.92    4.56
   4 -14   2    9.43    2.10
   5 -14   2    3.68    1.40
   6 -14   2   76.74    5.15
   7 -14   2    5.65    1.64
   8 -14   2    9.36    2.07
   9 -14   2   71.46    4.90
  10 -14   2   15.99    2.60
  11 -14   2   57.68    3.48
   0 -13   2    2.49    1.18
   1 -13   2   16.39    2.61
   2 -13   2    9.71    2.04
   3 -13   2    1.69    0.97
   4 -13   2   37.72    3.42
   5 -13   2   96.24    5.68
   6 -13   2   48.07    3.85
   7 -13   2   74.49    4.89
   8 -13   2   42.81    2.41
   9 -13   2   54.49    2.79
  10 -13   2    6.79    1.15
  11 -13   2   73.57    3.34
  12 -13   2    2.17    0.99
  13 -13   2    4.39    1.43
  -1 -12   2    3.61    1.35
   0 -12   2   23.12    2.59
   1 -12   2    1.91    1.01
   2 -12   2  154.44    7.49
   3 -12   2    8.71    1.88
   4 -12   2   41.66    3.49
   5 -12   2    5.75    1.53
   6 -12   2   51.37    3.82
   7 -12   2    6.85    1.09
   8 -12   2    3.87    0.84
   9 -12   2   42.40    2.28
  10 -12   2   20.99    1.78
  11 -12   2  114.66    4.24
  12 -12   2   32.67    3.07
  13 -12   2   17.80    2.71
  -1 -11   2  116.67    6.01
   0 -11   2   24.41    2.55
   1 -11   2   10.93    1.90
   2 -11   2    4.85    1.40
   3 -11   2   46.48    3.51
   4 -11   2   84.89    4.86
   5 -11   2   69.07    4.43
   6 -11   2    2.12    0.88
   7 -11   2  411.92   10.12
   8 -11   2    9.51    1.23
   9 -11   2   65.14    2.82
  10 -11   2    9.61    1.29
  11 -11   2   28.80    2.72
  12 -11   2    2.07    0.92
  13 -11   2    7.33    1.74
  14 -11   2   58.25    2.98
  -2 -10   2   20.41    2.17
  -1 -10   2   10.43    1.84
   0 -10   2  136.62    6.33
   1 -10   2   40.19    3.06
   2 -10   2   45.94    3.32
   3 -10   2  118.72    5.85
   4 -10   2  109.86    5.49
   5 -10   2   52.86    3.57
   6 -10   2    8.08    1.05
   7 -10   2   15.22    1.31
   8 -10   2  125.19    4.02
   9 -10   2   22.83    1.55
  10 -10   2  136.49    4.40
  11 -10   2    9.06    1.76
  12 -10   2  158.28    7.31
  13 -10   2    2.12    0.68
  14 -10   2    9.38    1.40
  -2  -9   2   61.79    3.71
  -1  -9   2   20.49    2.06
   0  -9   2  112.54    5.27
   1  -9   2    7.67    1.45
   2  -9   2    9.85    1.65
   3  -9   2  199.42    7.90
   4  -9   2   56.47    3.52
   5  -9   2   90.22    4.60
   6  -9   2   76.10    2.79
   7  -9   2   87.63    3.06
   8  -9   2  117.93    3.77
   9  -9   2  108.39    3.61
  10  -9   2   42.48    2.10
  11  -9   2    6.31    1.49
  12  -9   2    8.18    1.75
  13  -9   2   37.46    2.21
  14  -9   2    1.92    1.07
  -7  -8   2   36.94    3.40
  -6  -8   2    9.29    1.91
  -5  -8   2   40.92    3.28
  -4  -8   2    3.95    1.20
  -3  -8   2   11.63    1.46
  -2  -8   2  118.70    3.73
  -1  -8   2  107.68    3.46
   0  -8   2  148.67    4.15
   1  -8   2   25.43    2.16
   2  -8   2   44.60    2.87
   3  -8   2  156.04    6.42
   4  -8   2   32.30    2.46
   5  -8   2   51.22    2.08
   6  -8   2   35.87    1.71
   7  -8   2   75.44    2.66
   8  -8   2  148.82    4.34
   9  -8   2    6.75    0.93
  10  -8   2   44.72    3.14
  11  -8   2   51.68    3.48
  12  -8   2   47.06    2.37
  13  -8   2   88.04    3.56
  14  -8   2   72.72    4.85
  -8  -7   2   55.19    6.02
  -7  -7   2    7.86    1.81
  -6  -7   2   72.56    4.56
  -5  -7   2    8.70    1.70
  -4  -7   2  419.43   14.22
  -3  -7   2   15.14    1.12
  -2  -7   2   80.18    2.80
  -1  -7   2   70.11    2.45
   0  -7   2   96.64    2.96
   1  -7   2   12.26    0.88
   2  -7   2   33.96    1.31
   3  -7   2  132.23    5.47
   4  -7   2  179.94    6.93
   5  -7   2  255.06    6.25
   6  -7   2  136.57    3.80
   7  -7   2   99.59    3.13
   8  -7   2   26.04    1.45
   9  -7   2   12.07    1.07
  10  -7   2  120.03    5.62
  11  -7   2   84.46    3.16
  12  -7   2    6.35    0.99
  13  -7   2   43.86    2.36
  14  -7   2    7.55    1.83
  -8  -6   2   74.75    4.87
  -7  -6   2   42.28    3.45
  -6  -6   2   51.38    3.63
  -5  -6   2    1.32    0.66
  -4  -6   2    7.72    1.45
  -3  -6   2   78.58    2.65
  -2  -6   2   36.09    1.62
  -1  -6   2  130.30    3.65
   0  -6   2   26.08    1.24
   1  -6   2  388.94    8.59
   2  -6   2    9.96    0.66
   3  -6   2  182.67    4.16
   4  -6   2   16.29    0.95
   5  -6   2  214.88    5.27
   6  -6   2   25.52    1.30
   7  -6   2   14.32    0.98
   8  -6   2   41.43    1.79
   9  -6   2  199.39    5.16
  10  -6   2  107.61    3.54
  11  -6   2   73.23    2.92
  12  -6   2   55.73    2.52
  13  -6   2   71.12    4.61
  14  -6   2   11.33    2.19
  -9  -5   2    3.68    1.30
  -8  -5   2   91.20    5.36
  -7  -5   2    7.48    1.64
  -6  -5   2   81.56    4.50
  -5  -5   2   52.68    3.37
  -4  -5   2   88.36    2.81
  -3  -5   2   54.38    2.00
  -2  -5   2  255.53    6.10
  -1  -5   2  219.09    5.20
   0  -5   2    4.89    0.59
   1  -5   2   70.31    2.00
   2  -5   2   84.44    2.29
   3  -5   2   17.28    0.62
   4  -5   2   70.00    2.18
   5  -5   2    6.29    0.69
   6  -5   2  400.24    8.75
   7  -5   2   32.51    1.44
   8  -5   2  157.76    4.18
   9  -5   2   53.33    2.19
  10  -5   2   51.51    2.26
  11  -5   2    1.70    0.47
  12  -5   2    7.30    1.04
  13  -5   2   44.88    3.52
  14  -5   2   72.51    4.79
 -10  -4   2    7.81    1.83
  -9  -4   2   37.00    3.26
  -8  -4   2   42.92    3.38
  -7  -4   2   81.29    4.63
  -6  -4   2  105.85    5.27
  -5  -4   2   55.56    3.38
  -4  -4   2   34.57    1.48
  -3  -4   2  188.09    4.58
  -2  -4   2   18.89    0.97
  -1  -4   2   69.11    2.14
   0  -4   2  151.56    3.68
   1  -4   2  290.10    6.35
   2  -4   2  321.51    6.77
   3  -4   2  180.45    4.14
   4  -4   2  149.06    3.69
   5  -4   2   66.73    2.05
   6  -4   2   10.34    0.73
   7  -4   2  126.41    3.50
   8  -4   2   35.91    1.26
   9  -4   2   86.54    2.92
  10  -4   2    7.39    0.94
  11  -4   2  427.67    9.97
  12  -4   2    3.25    0.72
  13  -4   2   57.47    4.07
  14  -4   2   19.18    2.78
 -10  -3   2    2.54    1.08
  -9  -3   2    9.73    1.87
  -8  -3   2   48.81    3.47
  -7  -3   2  124.90    5.87
  -6  -3   2  199.03    7.80
  -5  -3   2  154.96    6.30
  -4  -3   2  129.92    3.40
  -3  -3   2  177.94    4.28
  -2  -3   2   17.52    0.86
  -1  -3   2  177.91    4.14
   0  -3   2   56.82    1.70
   1  -3   2   89.90    2.32
   2  -3   2  306.09    5.20
   3  -3   2   56.94    1.67
   4  -3   2  291.95    6.39
   5  -3   2   86.13    2.41
   6  -3   2  185.42    3.54
   7  -3   2  183.99    3.70
   8  -3   2   51.67    1.57
   9  -3   2   72.39    2.62
  10  -3   2   14.32    1.21
  11  -3   2    9.38    1.17
  12  -3   2   39.99    3.17
  13  -3   2    5.47    1.52
 -11  -2   2    7.84    1.80
 -10  -2   2  156.62    7.41
  -9  -2   2    4.10    1.22
  -8  -2   2   46.08    3.27
  -7  -2   2   12.51    1.87
  -6  -2   2   43.26    2.81
  -5  -2   2   32.60    2.23
  -4  -2   2    9.10    0.64
  -3  -2   2   87.83    2.34
  -2  -2   2  325.62    6.83
  -1  -2   2  310.28    6.52
   0  -2   2  432.46    8.86
   1  -2   2  222.84    3.77
   2  -2   2  437.84    8.75
   3  -2   2   89.52    2.31
   4  -2   2  325.46    6.84
   5  -2   2   17.47    0.68
   6  -2   2   18.27    0.75
   7  -2   2  274.44    4.95
   8  -2   2   33.61    1.57
   9  -2   2   82.96    2.86
  10  -2   2  125.40    3.84
  11  -2   2   62.79    2.64
  12  -2   2   19.66    2.71
  13  -2   2   75.23    4.93
 -12  -1   2   13.36    2.34
 -11  -1   2    2.06    0.93
 -10  -1   2    8.78    1.78
  -9  -1   2   40.19    3.03
  -8  -1   2    5.61    1.24
  -7  -1   2   20.17    1.95
  -6  -1   2   12.81    1.68
  -5  -1   2  421.33    8.45
  -4  -1   2   70.51    1.89
  -3  -1   2  303.62    6.34
  -2  -1   2   91.54    2.33
  -1  -1   2  226.21    4.82
   0  -1   2   64.74    1.73
   1  -1   2   64.01    1.28
   2  -1   2  218.47    4.70
   3  -1   2  309.00    5.18
   4  -1   2  178.75    3.28
   5  -1   2   70.79    1.68
   6  -1   2  219.16    4.13
   7  -1   2  135.85    2.89
   8  -1   2   73.62    2.48
   9  -1   2  110.81    3.52
  10  -1   2   20.70    1.41
  11  -1   2    9.61    1.81
  12  -1   2  122.14    6.40
  13  -1   2    2.85    1.17
 -12   0   2   27.27    2.77
 -11   0   2   22.39    2.40
 -10   0   2  119.91    6.10
  -9   0   2  103.11    5.16
  -8   0   2  146.64    4.30
  -7   0   2   96.08    3.11
  -6   0   2   27.53    1.36
  -5   0   2    5.15    0.35
  -4   0   2  158.81    2.94
  -3   0   2   56.80    1.62
  -2   0   2  435.92    8.83
  -1   0   2   64.54    1.52
   0   0   2  724.25   11.53
   1   0   2   64.74    1.61
   2   0   2  434.50    7.04
   3   0   2   58.41    1.27
   4   0   2  149.40    2.89
   5   0   2    5.70    0.42
   6   0   2   26.86    0.96
   7   0   2  101.16    2.98
   8   0   2  152.05    4.20
   9   0   2  108.68    3.49
  10   0   2  130.62    4.22
  11   0   2   31.85    2.85
  12   0   2   31.37    2.97
 -13   1   2    2.35    1.06
 -12   1   2  114.06    5.97
 -11   1   2   13.20    1.43
 -10   1   2   22.08    1.48
  -9   1   2  112.40    3.66
  -8   1   2   69.29    2.53
  -7   1   2  134.87    3.79
  -6   1   2  216.52    5.29
  -5   1   2   72.14    1.63
  -4   1   2  182.80    3.31
  -3   1   2  313.52    5.27
  -2   1   2  227.09    3.34
  -1   1   2   65.17    1.14
   0   1   2   65.32    1.44
   1   1   2  226.50    3.75
   2   1   2   89.92    1.77
   3   1   2  294.91    5.09
   4   1   2   67.85    1.55
   5   1   2  408.62    6.97
   6   1   2   11.80    0.66
   7   1   2   25.41    1.34
   8   1   2    8.00    0.97
   9   1   2   39.69    1.94
  10   1   2   13.78    2.19
  11   1   2    2.50    1.06
  12   1   2   12.05    2.25
 -13   2   2   71.13    3.15
 -12   2   2   19.65    1.60
 -11   2   2   59.36    2.62
 -10   2   2  113.47    3.79
  -9   2   2   80.66    2.90
  -8   2   2   36.04    1.68
  -7   2   2  262.31    6.23
  -6   2   2   17.42    0.63
  -5   2   2   17.35    0.90
  -4   2   2  330.10    4.81
  -3   2   2   89.32    1.45
  -2   2   2  438.31    5.54
  -1   2   2  226.78    2.95
   0   2   2  447.33    7.14
   1   2   2  314.13    5.21
   2   2   2  324.37    5.48
   3   2   2   87.32    1.49
   4   2   2    9.50    0.38
   5   2   2   32.16    1.07
   6   2   2   41.02    1.35
   7   2   2   10.81    0.96
   8   2   2   45.04    2.06
   9   2   2    5.85    0.92
  10   2   2  157.16    7.32
  11   2   2    7.07    1.69
 -14   3   2   52.65    2.74
 -13   3   2    7.63    1.16
 -12   3   2   36.25    2.02
 -11   3   2   10.27    1.20
 -10   3   2   16.28    1.28
  -9   3   2   75.11    2.68
  -8   3   2   50.50    2.03
  -7   3   2  191.53    4.71
  -6   3   2  178.69    4.43
  -5   3   2   85.62    1.66
  -4   3   2  306.27    4.53
  -3   3   2   58.53    1.07
  -2   3   2  316.14    4.07
  -1   3   2   89.94    1.56
   0   3   2   57.81    1.34
   1   3   2  180.80    3.33
   2   3   2   15.78    0.76
   3   3   2  176.63    3.46
   4   3   2  127.29    2.77
   5   3   2  154.97    3.31
   6   3   2  197.39    5.06
   7   3   2  122.60    3.75
   8   3   2   48.84    2.22
   9   3   2    8.79    1.81
  10   3   2    3.37    1.22
 -14   4   2   17.16    1.77
 -13   4   2   53.97    2.61
 -12   4   2    5.04    0.87
 -11   4   2  420.45    9.90
 -10   4   2    8.91    1.03
  -9   4   2   87.36    2.92
  -8   4   2   35.37    1.34
  -7   4   2  127.85    2.91
  -6   4   2   10.14    0.63
  -5   4   2   68.07    1.27
  -4   4   2  151.96    2.31
  -3   4   2  179.13    2.59
  -2   4   2  327.31    4.79
  -1   4   2  303.64    4.43
   0   4   2  154.38    2.99
   1   4   2   68.70    1.71
   2   4   2   16.92    0.73
   3   4   2  185.21    3.72
   4   4   2   35.59    1.25
   5   4   2   53.55    2.09
   6   4   2  106.72    3.38
   7   4   2   86.99    3.04
   8   4   2   43.37    2.19
   9   4   2   36.54    3.14
  10   4   2    8.54    1.91
 -14   5   2   63.50    4.29
 -13   5   2   46.58    3.40
 -12   5   2    6.40    0.97
 -11   5   2    1.60    0.49
 -10   5   2   57.34    2.28
  -9   5   2   56.39    1.82
  -8   5   2  155.65    3.44
  -7   5   2   32.90    1.16
  -6   5   2  405.58    6.15
  -5   5   2    5.03    0.41
  -4   5   2   72.21    1.34
  -3   5   2   16.12    0.59
  -2   5   2   86.98    1.65
  -1   5   2   69.02    1.33
   0   5   2    5.29    0.28
   1   5   2  215.32    4.22
   2   5   2  264.71    5.00
   3   5   2   53.17    1.93
   4   5   2   90.00    2.82
   5   5   2   53.75    2.16
   6   5   2   71.78    2.76
   7   5   2    5.35    0.87
   8   5   2   90.59    5.19
   9   5   2    2.84    1.09
 -14   6   2    6.76    1.60
 -13   6   2   70.82    4.35
 -12   6   2   50.44    3.43
 -11   6   2   71.80    4.10
 -10   6   2  111.20    2.87
  -9   6   2  193.42    4.20
  -8   6   2   42.63    1.43
  -7   6   2   11.29    0.63
  -6   6   2   26.01    0.86
  -5   6   2  221.16    3.61
  -4   6   2   18.36    0.77
  -3   6   2  183.38    3.48
  -2   6   2    9.60    0.51
  -1   6   2  412.29    6.85
   0   6   2   26.31    1.21
   1   6   2  132.29    3.57
   2   6   2   35.19    1.54
   3   6   2   73.52    2.54
   4   6   2    8.08    0.95
   5   6   2    1.63    0.46
   6   6   2   52.14    2.35
   7   6   2   48.68    3.56
   8   6   2   70.10    4.67
 -14   7   2    6.90    1.61
 -13   7   2   46.78    3.44
 -12   7   2    5.74    1.38
 -11   7   2   81.04    3.15
 -10   7   2  123.44    3.99
  -9   7   2   12.03    1.25
  -8   7   2   28.39    1.24
  -7   7   2   99.01    2.55
  -6   7   2  132.32    2.66
  -5   7   2  266.47    5.04
  -4   7   2  190.02    3.76
  -3   7   2  132.00    2.80
  -2   7   2   31.82    1.03
  -1   7   2   11.65    0.84
   0   7   2   95.74    2.92
   1   7   2   70.88    2.40
   2   7   2   82.16    2.79
   3   7   2   16.63    1.15
   4   7   2  417.06    9.77
   5   7   2    7.03    0.97
   6   7   2   71.21    3.01
   7   7   2    7.30    1.73
 -14   8   2   67.96    4.48
 -13   8   2   80.76    4.85
 -12   8   2   47.36    2.41
 -11   8   2   45.18    2.29
 -10   8   2   50.52    2.30
  -9   8   2    7.31    0.95
  -8   8   2  147.00    3.54
  -7   8   2   70.47    2.07
  -6   8   2   34.80    1.33
  -5   8   2   53.24    1.96
  -4   8   2   37.24    1.28
  -3   8   2  157.15    3.30
  -2   8   2   43.16    1.78
  -1   8   2   24.05    1.33
   0   8   2  143.05    4.11
   1   8   2  114.75    3.52
   2   8   2  114.51    3.65
   3   8   2   10.20    1.17
   4   8   2    4.59    0.84
   5   8   2   42.04    2.22
   6   8   2   11.54    2.15
 -14   9   2    3.45    1.22
 -13   9   2   32.57    2.09
 -12   9   2    9.08    1.24
 -11   9   2    5.32    0.91
 -10   9   2   34.55    1.92
  -9   9   2  104.41    2.92
  -8   9   2  109.91    2.96
  -7   9   2   84.07    2.38
  -6   9   2   74.78    2.16
  -5   9   2   90.40    2.37
  -4   9   2   54.55    1.73
  -3   9   2  202.41    5.23
  -2   9   2   10.16    1.08
  -1   9   2    8.06    0.94
   0   9   2  101.34    3.37
   1   9   2   20.49    1.36
   2   9   2   60.73    2.56
   3   9   2   37.79    2.00
   4   9   2   57.77    2.65
   5   9   2   67.68    4.51
 -14  10   2   10.40    1.45
 -13  10   2    1.91    0.65
 -12  10   2  154.96    5.07
 -11  10   2   11.51    1.38
 -10  10   2  135.53    4.37
  -9  10   2   21.73    1.21
  -8  10   2  117.49    3.14
  -7  10   2   15.45    0.99
  -6  10   2    7.51    0.78
  -5  10   2   52.65    2.00
  -4  10   2  112.29    3.61
  -3  10   2  123.12    3.87
  -2  10   2   45.97    2.13
  -1  10   2   37.49    1.91
   0  10   2  121.88    4.10
   1  10   2   11.26    1.27
   2  10   2   21.17    1.52
   3  10   2    5.34    0.94
   4  10   2   16.11    2.01
 -14  11   2   53.16    4.43
 -13  11   2    7.20    1.20
 -12  11   2    1.84    0.62
 -11  11   2   26.28    1.77
 -10  11   2   10.02    1.03
  -9  11   2   57.08    2.12
  -8  11   2   10.36    0.96
  -7  11   2  422.97    8.09
  -6  11   2    0.98    0.39
  -5  11   2   71.36    2.91
  -4  11   2   86.29    3.17
  -3  11   2   48.43    2.29
  -2  11   2    6.33    0.97
  -1  11   2   10.70    1.25
   0  11   2   28.17    1.76
   1  11   2  112.82    4.08
   2  11   2   73.19    3.18
   3  11   2   52.52    2.88
 -13  12   2   12.38    1.57
 -12  12   2   27.37    1.91
 -11  12   2  118.48    4.24
 -10  12   2   21.09    1.43
  -9  12   2   38.80    1.73
  -8  12   2    4.43    0.69
  -7  12   2    6.13    0.99
  -6  12   2   47.78    2.41
  -5  12   2    5.66    0.94
  -4  12   2   42.25    2.25
  -3  12   2   10.43    1.28
  -2  12   2  155.68    4.95
  -1  12   2    1.33    0.52
   0  12   2   28.14    1.87
   1  12   2    2.40    0.72
 -13  13   2    3.04    1.33
 -12  13   2    2.57    0.73
 -11  13   2   74.93    2.71
 -10  13   2    6.70    0.88
  -9  13   2   52.92    2.77
  -8  13   2   42.87    2.40
  -7  13   2   72.16    4.45
  -6  13   2   47.30    2.48
  -5  13   2   93.19    3.65
  -4  13   2   29.90    1.98
  -3  13   2    2.15    0.64
  -2  13   2    7.93    1.20
  -1  13   2   18.39    1.85
   0  13   2    3.87    1.23
 -11  14   2   63.93    5.73
 -10  14   2   17.03    1.85
  -9  14   2   69.05    3.28
  -8  14   2   10.40    1.42
  -7  14   2    7.10    1.14
  -6  14   2   73.83    3.34
  -5  14   2    2.98    0.77
  -4  14   2    9.63    1.38
  -3  14   2   57.18    3.09
   5 -14   3   17.04    3.54
   6 -14   3   14.90    2.69
   7 -14   3   30.09    3.23
   8 -14   3    0.58    0.78
   9 -14   3    0.07    0.59
  10 -14   3   18.12    2.90
   1 -13   3   17.13    2.77
   2 -13   3   13.60    2.42
   3 -13   3   45.40    3.85
   4 -13   3   37.32    3.45
   5 -13   3    0.63    0.73
   6 -13   3    2.73    1.16
   7 -13   3   98.81    5.90
   8 -13   3   26.66    2.93
   9 -13   3   84.50    5.32
  10 -13   3    6.47    1.66
  11 -13   3    2.35    1.18
   0 -12   3   94.76    5.62
   1 -12   3   40.00    3.44
   2 -12   3   18.27    2.70
   3 -12   3    7.45    1.75
   4 -12   3  152.04    7.41
   5 -12   3    0.49    0.59
   6 -12   3   21.59    3.05
   7 -12   3   27.66    2.85
   8 -12   3   17.22    2.60
   9 -12   3   30.40    2.93
  10 -12   3    6.24    1.66
  11 -12   3   16.88    2.60
  -1 -11   3   16.51    2.43
   0 -11   3   47.63    3.63
   1 -11   3    9.50    1.85
   2 -11   3   47.09    3.65
   3 -11   3   42.80    3.48
   4 -11   3   43.94    3.45
   5 -11   3  114.51    6.09
   6 -11   3   24.58    2.58
   7 -11   3    5.04    1.36
   8 -11   3   21.74    2.36
   9 -11   3  136.60    6.63
  10 -11   3   23.45    2.48
  11 -11   3   49.82    2.84
  12 -11   3   42.42    3.36
  13 -11   3   19.35    2.79
  -1 -10   3   28.03    2.58
   0 -10   3  175.17    7.55
   1 -10   3   46.68    3.44
   2 -10   3  176.18    7.84
   3 -10   3    8.43    1.74
   4 -10   3    2.32    0.92
   5 -10   3   31.47    2.78
   6 -10   3   31.35    2.77
   7 -10   3   19.93    2.17
   8 -10   3   35.92    2.09
   9 -10   3    0.84    0.41
  10 -10   3  164.50    5.17
  11 -10   3   13.59    2.16
  12 -10   3   17.37    2.53
  13 -10   3   50.37    3.79
  14 -10   3   64.89    4.67
  -2  -9   3  138.65    6.17
  -1  -9   3    1.23    0.63
   0  -9   3    3.29    1.00
   1  -9   3   55.31    3.58
   2  -9   3   29.45    2.54
   3  -9   3    1.65    0.74
   4  -9   3    6.42    1.37
   5  -9   3  287.83   10.21
   6  -9   3   53.43    2.34
   7  -9   3  165.34    4.76
   8  -9   3    2.53    0.62
   9  -9   3    4.53    0.76
  10  -9   3   44.32    2.25
  11  -9   3   48.33    3.45
  12  -9   3    9.41    1.76
  13  -9   3   40.12    3.38
  14  -9   3   24.37    2.68
  -6  -8   3    1.48    0.94
  -5  -8   3   34.54    2.99
  -4  -8   3   17.77    2.47
  -3  -8   3   24.95    2.27
  -2  -8   3   34.85    1.81
  -1  -8   3    1.54    0.44
   0  -8   3    6.00    1.26
   1  -8   3  252.43    9.19
   2  -8   3   83.23    4.41
   3  -8   3  274.53   10.10
   4  -8   3   77.86    4.19
   5  -8   3   18.78    1.20
   6  -8   3    4.39    0.73
   7  -8   3   41.13    1.92
   8  -8   3    6.51    0.92
   9  -8   3   61.00    2.49
  10  -8   3  190.62    5.31
  11  -8   3   45.15    3.25
  12  -8   3  149.66    7.01
  13  -8   3    0.76    0.66
  14  -8   3   21.21    3.09
  -7  -7   3   27.46    2.89
  -6  -7   3   99.04    5.58
  -5  -7   3   24.17    2.47
  -4  -7   3    4.99    1.26
  -3  -7   3   19.48    1.29
  -2  -7   3  160.39    4.55
  -1  -7   3   36.00    1.73
   0  -7   3  122.69    3.64
   1  -7   3  103.74    3.12
   2  -7   3   24.79    1.24
   3  -7   3  125.85    3.54
   4  -7   3   27.04    1.34
   5  -7   3   13.41    1.02
   6  -7   3  314.10    7.49
   7  -7   3  127.86    3.80
   8  -7   3  249.14    6.25
   9  -7   3   28.71    1.62
  10  -7   3    5.86    1.28
  11  -7   3   40.17    3.08
  12  -7   3    0.46    0.53
  13  -7   3    5.10    1.43
  14  -7   3   32.12    3.09
  -8  -6   3   15.30    2.57
  -7  -6   3    1.97    1.03
  -6  -6   3   29.66    2.78
  -5  -6   3   25.72    2.50
  -4  -6   3   31.17    2.55
  -3  -6   3   53.95    2.15
  -2  -6   3    4.67    0.70
  -1  -6   3  313.56    7.40
   0  -6   3   57.48    2.07
   1  -6   3   31.62    1.41
   2  -6   3   79.21    2.47
   3  -6   3  301.95    5.40
   4  -6   3   80.53    2.49
   5  -6   3   70.20    2.35
   6  -6   3   54.73    2.06
   7  -6   3  101.73    3.21
   8  -6   3   82.95    2.89
   9  -6   3    1.42    0.44
  10  -6   3    4.13    1.09
  11  -6   3  115.97    5.71
  12  -6   3   26.03    2.53
  13  -6   3   97.89    5.52
  14  -6   3    1.52    0.88
  -9  -5   3   21.77    3.18
  -8  -5   3    1.23    0.81
  -7  -5   3    0.43    0.65
  -6  -5   3  122.85    6.06
  -5  -5   3   32.03    2.67
  -4  -5   3  288.97    9.89
  -3  -5   3   17.71    1.12
  -2  -5   3   12.21    0.98
  -1  -5   3   68.66    2.33
   0  -5   3  171.75    4.34
   1  -5   3   25.32    1.21
   2  -5   3  110.16    2.28
   3  -5   3   59.93    1.52
   4  -5   3  333.29    7.25
   5  -5   3  165.68    4.28
   6  -5   3   32.97    1.45
   7  -5   3   24.98    1.33
   8  -5   3  276.80    6.77
   9  -5   3    7.07    0.92
  10  -5   3   27.86    2.39
  11  -5   3   26.58    2.43
  12  -5   3   27.22    2.62
  13  -5   3   33.39    3.01
  14  -5   3    0.16    0.56
  -9  -4   3   32.65    3.17
  -8  -4   3  151.74    7.23
  -7  -4   3   39.67    3.21
  -6  -4   3    6.28    1.43
  -5  -4   3    6.07    1.32
  -4  -4   3   76.68    2.56
  -3  -4   3   27.83    1.34
  -2  -4   3   80.18    2.53
  -1  -4   3  319.41    7.28
   0  -4   3  175.49    4.35
   1  -4   3  437.43    7.25
   2  -4   3   11.88    0.51
   3  -4   3   36.51    1.29
   4  -4   3  178.56    4.26
   5  -4   3   27.60    1.24
   6  -4   3   78.89    2.56
   7  -4   3  124.83    2.84
   8  -4   3   81.69    2.13
   9  -4   3  259.35    9.45
  10  -4   3   32.25    2.55
  11  -4   3    4.32    1.17
  12  -4   3   14.42    2.27
  13  -4   3   85.11    5.17
 -10  -3   3   42.36    3.69
  -9  -3   3    6.21    1.55
  -8  -3   3   45.27    3.49
  -7  -3   3    7.34    1.54
  -6  -3   3    2.32    0.86
  -5  -3   3  277.84   10.02
  -4  -3   3  127.98    3.49
  -3  -3   3  303.71    6.81
  -2  -3   3   58.55    2.01
  -1  -3   3   33.63    1.41
   0  -3   3   99.12    2.85
   1  -3   3   33.84    1.38
   2  -3   3   95.47    1.99
   3  -3   3  101.76    2.69
   4  -3   3  430.74    9.07
   5  -3   3  111.16    2.99
   6  -3   3  300.69    5.44
   7  -3   3   26.46    1.03
   8  -3   3   18.71    1.16
   9  -3   3   52.00    3.18
  10  -3   3   20.45    2.03
  11  -3   3   20.47    2.18
  12  -3   3   28.12    2.72
  13  -3   3    5.94    1.53
 -11  -2   3   14.97    2.56
 -10  -2   3   21.69    3.00
  -9  -2   3   45.61    3.56
  -8  -2   3  182.43    7.89
  -7  -2   3   30.90    2.60
  -6  -2   3   82.33    4.42
  -5  -2   3   21.96    1.96
  -4  -2   3   76.21    2.43
  -3  -2   3  104.58    2.93
  -2  -2   3   11.98    0.77
  -1  -2   3   99.22    2.73
   0  -2   3  386.27    8.17
   1  -2   3   94.13    2.60
   2  -2   3  390.20    7.88
   3  -2   3   35.60    1.28
   4  -2   3   11.41    0.50
   5  -2   3   59.26    1.49
   6  -2   3   82.18    1.94
   7  -2   3   13.30    0.83
   8  -2   3    4.75    0.71
   9  -2   3  151.11    6.58
  10  -2   3   36.94    2.82
  11  -2   3  134.77    6.47
  12  -2   3    3.65    1.22
  13  -2   3    2.23    1.01
 -11  -1   3   31.07    3.11
 -10  -1   3   10.52    2.00
  -9  -1   3   42.85    3.35
  -8  -1   3   55.44    3.65
  -7  -1   3  254.59    9.36
  -6  -1   3  108.08    4.94
  -5  -1   3   32.25    1.29
  -4  -1   3   28.80    1.21
  -3  -1   3  431.08    9.12
  -2  -1   3   34.67    1.39
  -1  -1   3   95.27    2.62
   0  -1   3   70.57    2.11
   1  -1   3   72.50    1.53
   2  -1   3   93.18    2.39
   3  -1   3   95.35    2.58
   4  -1   3   36.68    0.96
   5  -1   3  330.21    5.74
   6  -1   3   68.82    1.76
   7  -1   3  323.75    7.42
   8  -1   3   37.40    2.62
   9  -1   3    1.23    0.62
  10  -1   3    2.27    0.90
  11  -1   3   23.24    2.42
  12  -1   3   15.42    2.50
 -12   0   3   94.68    5.62
 -11   0   3   52.53    3.86
 -10   0   3  166.14    7.59
  -9   0   3    4.40    1.22
  -8   0   3    6.83    1.41
  -7   0   3  128.99    5.66
  -6   0   3   54.88    3.13
  -5   0   3  175.31    4.16
  -4   0   3  179.89    4.26
  -3   0   3  103.94    2.83
  -2   0   3  384.43    8.14
  -1   0   3   74.62    1.55
   0   0   3    0.37    0.11
   1   0   3   72.94    1.91
   2   0   3  389.14    8.01
   3   0   3  100.91    2.77
   4   0   3  177.31    3.29
   5   0   3  173.54    3.35
   6   0   3   54.35    2.02
   7   0   3  122.30    3.62
   8   0   3    5.58    1.20
   9   0   3    4.27    1.12
  10   0   3  161.10    7.32
  11   0   3   52.68    3.80
  12   0   3   96.98    5.72
 -12   1   3   16.88    2.60
 -11   1   3   25.54    2.53
 -10   1   3    2.10    0.84
  -9   1   3    1.58    0.69
  -8   1   3   38.28    1.88
  -7   1   3  312.65    7.57
  -6   1   3   69.05    2.43
  -5   1   3  333.98    5.88
  -4   1   3   35.58    1.36
  -3   1   3   95.59    2.66
  -2   1   3   94.63    2.00
  -1   1   3   73.14    1.61
   0   1   3   71.74    1.93
   1   1   3   93.83    2.47
   2   1   3   33.47    1.33
   3   1   3  437.93    7.22
   4   1   3   26.67    0.85
   5   1   3   31.25    1.02
   6   1   3  103.50    3.17
   7   1   3  245.19    8.84
   8   1   3   55.31    3.44
   9   1   3   47.64    3.33
  10   1   3    9.39    1.88
  11   1   3   36.54    3.27
 -13   2   3    2.43    0.99
 -12   2   3    3.82    1.20
 -11   2   3  128.86    4.37
 -10   2   3   36.08    1.96
  -9   2   3  152.91    4.66
  -8   2   3    3.61    0.66
  -7   2   3    9.84    1.01
  -6   2   3   81.99    1.96
  -5   2   3   61.73    1.61
  -4   2   3   11.74    0.59
  -3   2   3   34.38    0.83
  -2   2   3  392.37    5.65
  -1   2   3   94.91    1.71
   0   2   3  395.63    6.44
   1   2   3  100.36    2.00
   2   2   3   12.01    0.49
   3   2   3  110.42    2.26
   4   2   3   78.70    1.92
   5   2   3   22.36    1.27
   6   2   3   80.70    2.83
   7   2   3   30.35    2.41
   8   2   3  178.85    7.58
   9   2   3   43.51    3.35
  10   2   3   18.51    2.73
  11   2   3   17.67    2.75
 -13   3   3    6.62    1.10
 -12   3   3   29.32    1.89
 -11   3   3   19.44    1.46
 -10   3   3   17.15    1.41
  -9   3   3   48.28    2.16
  -8   3   3   18.46    1.21
  -7   3   3   26.62    1.39
  -6   3   3  302.28    5.48
  -5   3   3  111.54    2.10
  -4   3   3  437.13    5.75
  -3   3   3  102.03    1.74
  -2   3   3   98.91    1.63
  -1   3   3   33.74    1.03
   0   3   3  102.73    2.20
   1   3   3   37.39    1.06
   2   3   3   60.06    1.53
   3   3   3  302.16    5.43
   4   3   3  124.76    2.78
   5   3   3  274.45    6.74
   6   3   3    1.40    0.41
   7   3   3    6.71    1.38
   8   3   3   41.95    3.20
   9   3   3    8.29    1.71
  10   3   3   46.83    3.74
 -14   4   3   17.53    2.59
 -13   4   3   88.58    3.53
 -12   4   3   15.82    1.62
 -11   4   3    4.82    0.81
 -10   4   3   31.30    1.73
  -9   4   3  282.86    6.75
  -8   4   3   76.49    2.68
  -7   4   3  122.43    2.50
  -6   4   3   78.09    1.76
  -5   4   3   26.64    0.77
  -4   4   3  177.69    2.70
  -3   4   3   36.45    0.86
  -2   4   3   11.27    0.47
  -1   4   3  440.88    7.42
   0   4   3  179.14    3.46
   1   4   3  325.09    5.84
   2   4   3   78.32    1.95
   3   4   3   25.53    1.00
   4   4   3   79.34    2.08
   5   4   3    5.81    0.84
   6   4   3    4.05    1.06
   7   4   3   35.30    2.87
   8   4   3  149.68    6.96
   9   4   3   31.21    2.99
 -14   5   3   -0.18    0.49
 -13   5   3   28.79    2.71
 -12   5   3   28.39    1.78
 -11   5   3   27.70    1.66
 -10   5   3   29.38    1.66
  -9   5   3    6.22    0.84
  -8   5   3  280.82    5.55
  -7   5   3   25.43    1.09
  -6   5   3   30.72    0.88
  -5   5   3  172.43    2.72
  -4   5   3  329.32    4.57
  -3   5   3   61.61    1.39
  -2   5   3  111.51    2.02
  -1   5   3   26.80    1.00
   0   5   3  171.23    3.50
   1   5   3   69.91    1.86
   2   5   3   12.81    0.72
   3   5   3   18.16    0.90
   4   5   3  276.49    6.76
   5   5   3   30.31    1.72
   6   5   3  114.87    5.68
   7   5   3    0.44    0.53
   8   5   3    0.15    0.52
 -14   6   3    0.55    0.61
 -13   6   3   99.29    5.36
 -12   6   3   22.38    2.30
 -11   6   3  121.39    5.68
 -10   6   3    4.70    0.75
  -9   6   3    2.00    0.41
  -8   6   3   80.89    2.32
  -7   6   3  104.24    2.26
  -6   6   3   56.66    1.44
  -5   6   3   69.52    1.46
  -4   6   3   80.87    1.77
  -3   6   3  310.28    4.79
  -2   6   3   77.98    2.09
  -1   6   3   30.97    1.16
   0   6   3   57.60    1.67
   1   6   3  312.15    6.02
   2   6   3    4.57    0.54
   3   6   3   50.38    1.69
   4   6   3   28.08    2.38
   5   6   3   28.87    2.48
   6   6   3   20.82    2.26
   7   6   3    3.04    1.13
   8   6   3   16.26    2.57
 -14   7   3   32.28    2.94
 -13   7   3    2.36    0.97
 -12   7   3    0.21    0.49
 -11   7   3   38.90    2.13
 -10   7   3    6.06    0.94
  -9   7   3   29.41    1.68
  -8   7   3  254.10    5.19
  -7   7   3  127.18    2.60
  -6   7   3  323.47    5.20
  -5   7   3   14.14    0.78
  -4   7   3   26.29    0.93
  -3   7   3  122.81    2.97
  -2   7   3   24.73    1.10
  -1   7   3  103.81    2.64
   0   7   3  130.99    3.07
   1   7   3   39.03    1.71
   2   7   3  157.92    4.42
   3   7   3   18.85    1.91
   4   7   3    3.50    1.02
   5   7   3   25.47    2.48
   6   7   3  106.48    5.67
   7   7   3   27.33    2.86
 -14   8   3   17.62    2.50
 -13   8   3    0.49    0.53
 -12   8   3  152.03    4.92
 -11   8   3   42.36    2.28
 -10   8   3  182.41    5.36
  -9   8   3   55.35    2.42
  -8   8   3    5.31    0.65
  -7   8   3   37.46    1.48
  -6   8   3    4.27    0.56
  -5   8   3   16.68    0.89
  -4   8   3   84.96    2.78
  -3   8   3  278.89    6.74
  -2   8   3   82.35    2.83
  -1   8   3  252.29    6.13
   0   8   3    6.05    0.81
   1   8   3    2.73    0.57
   2   8   3   35.65    1.79
   3   8   3   20.52    2.13
   4   8   3   13.19    2.12
   5   8   3   27.46    2.71
   6   8   3    0.44    0.59
 -14   9   3   21.60    3.23
 -13   9   3   31.53    2.86
 -12   9   3    7.01    1.08
 -11   9   3   49.34    2.46
 -10   9   3   42.49    2.22
  -9   9   3    5.10    0.72
  -8   9   3    3.14    0.53
  -7   9   3  158.60    3.77
  -6   9   3   50.94    1.74
  -5   9   3  276.74    6.75
  -4   9   3    5.98    0.86
  -3   9   3    1.61    0.46
  -2   9   3   30.48    1.62
  -1   9   3   54.85    2.28
   0   9   3    4.37    0.72
   1   9   3    1.65    0.48
   2   9   3  135.94    6.27
   3   9   3   25.75    2.53
   4   9   3   81.20    4.92
   5   9   3    0.21    0.90
 -13  10   3   48.31    2.63
 -12  10   3   21.68    1.79
 -11  10   3   11.22    1.40
 -10  10   3  169.07    4.27
  -9  10   3    1.71    0.42
  -8  10   3   34.84    1.54
  -7  10   3   21.81    1.15
  -6  10   3   28.91    1.71
  -5  10   3   29.05    1.69
  -4  10   3    4.23    0.78
  -3  10   3    6.10    0.90
  -2  10   3  177.63    5.14
  -1  10   3   43.36    2.13
   0  10   3  168.30    5.00
   1  10   3   21.64    2.31
   2  10   3    6.61    1.57
   3  10   3    6.29    1.50
 -13  11   3   15.03    1.69
 -12  11   3   35.58    2.22
 -11  11   3   52.02    2.58
 -10  11   3   24.11    1.39
  -9  11   3  133.57    3.61
  -8  11   3   22.89    1.61
  -7  11   3    5.88    0.97
  -6  11   3   25.32    1.66
  -5  11   3  115.71    4.00
  -4  11   3   41.65    2.15
  -3  11   3   46.09    2.29
  -2  11   3   48.24    2.34
  -1  11   3    8.77    1.18
   0  11   3   54.22    3.78
   1  11   3   11.83    2.10
 -13  12   3   19.04    2.63
 -12  12   3   99.58    3.93
 -11  12   3   17.93    1.80
 -10  12   3    5.30    0.81
  -9  12   3   32.43    2.06
  -8  12   3   14.53    1.58
  -7  12   3   28.92    1.87
  -6  12   3   27.85    1.81
  -5  12   3    0.73    0.42
  -4  12   3  149.70    4.81
  -3  12   3    6.95    1.09
  -2  12   3   19.80    1.55
  -1  12   3   36.66    2.26
   0  12   3   94.18    5.53
 -12  13   3   10.39    1.89
 -11  13   3    1.94    0.70
 -10  13   3    6.45    1.14
  -9  13   3   86.96    3.66
  -8  13   3   30.58    2.06
  -7  13   3  100.45    3.91
  -6  13   3    3.32    0.80
  -5  13   3    0.09    0.36
  -4  13   3   34.95    2.17
  -3  13   3   45.12    2.50
  -2  13   3   16.31    1.72
  -9  14   3    0.18    0.61
  -8  14   3    1.01    0.53
  -7  14   3   31.05    2.11
  -6  14   3   18.66    1.92
  -5  14   3   22.04    2.39
  -4  14   3   63.38    4.35
   4 -13   4    4.78    1.57
   5 -13   4   67.99    5.12
   6 -13   4  104.16    6.31
   7 -13   4   19.84    3.10
   8 -13   4   28.69    3.15
   9 -13   4   28.40    3.08
   1 -12   4    5.07    1.42
   2 -12   4  162.99    8.02
   3 -12   4    1.70    1.07
   4 -12   4   31.37    3.22
   5 -12   4    2.44    1.02
   6 -12   4   29.64    3.05
   7 -12   4    1.58    0.90
   8 -12   4   22.97    3.18
   9 -12   4   38.29    3.45
  10 -12   4  124.72    6.76
  11 -12   4   96.94    5.72
   0 -11   4    9.62    1.95
   1 -11   4    4.32    1.30
   2 -11   4   11.21    2.07
   3 -11   4   33.36    3.17
   4 -11   4    0.99    0.70
   5 -11   4   46.97    3.76
   6 -11   4   27.25    2.83
   7 -11   4  267.01   10.96
   8 -11   4   10.41    2.02
   9 -11   4   38.83    3.41
  10 -11   4    7.01    1.76
  11 -11   4    9.89    1.96
  -1 -10   4    5.96    1.43
   0 -10   4   21.65    2.35
   1 -10   4   24.40    2.52
   2 -10   4   40.35    3.25
   3 -10   4   92.10    5.31
   4 -10   4   89.14    5.19
   5 -10   4   39.54    3.27
   6 -10   4   35.05    3.11
   7 -10   4   25.49    2.63
   8 -10   4   11.21    2.05
   9 -10   4    6.77    1.64
  10 -10   4   20.25    2.74
  -1  -9   4    7.36    1.51
   0  -9   4   97.03    5.18
   1  -9   4    9.88    1.80
   2  -9   4   40.09    3.09
   3  -9   4  118.82    5.97
   4  -9   4    3.49    1.10
   5  -9   4   71.10    4.37
   6  -9   4   30.69    2.75
   7  -9   4   53.24    3.77
   8  -9   4   80.69    4.62
   9  -9   4   94.61    5.20
  10  -9   4   25.62    2.50
  -5  -8   4   28.46    2.83
  -4  -8   4   22.93    2.40
  -3  -8   4   12.77    2.03
  -2  -8   4   10.84    1.25
  -1  -8   4   73.61    4.15
   0  -8   4  185.89    7.74
   1  -8   4   41.72    3.00
   2  -8   4   29.62    2.53
   3  -8   4   46.84    3.33
   4  -8   4   30.60    2.61
   5  -8   4  178.56    7.63
   6  -8   4    2.52    0.96
   7  -8   4    2.54    0.91
   8  -8   4  188.73    7.88
   9  -8   4   11.24    1.92
  10  -8   4   36.75    2.87
  -6  -7   4   21.18    2.96
  -5  -7   4    1.30    0.77
  -4  -7   4  258.98   10.15
  -3  -7   4   26.43    2.38
  -2  -7   4   55.06    2.37
  -1  -7   4    1.49    0.46
   0  -7   4   27.31    1.53
   1  -7   4   24.41    1.38
   2  -7   4    1.98    0.49
   3  -7   4   36.77    2.77
   4  -7   4  185.72    7.73
   5  -7   4  126.59    5.81
   6  -7   4   77.36    4.38
   7  -7   4   29.14    2.44
   8  -7   4   38.03    2.83
   9  -7   4   38.66    2.83
  10  -7   4   96.92    3.43
  11  -7   4   -0.11    0.39
  12  -7   4    2.21    0.97
  13  -7   4  104.02    5.68
  -7  -6   4   97.41    5.81
  -6  -6   4   29.42    2.83
  -5  -6   4   27.98    2.61
  -4  -6   4   35.85    2.84
  -3  -6   4   35.70    1.79
  -2  -6   4    2.03    0.51
  -1  -6   4   79.71    4.08
   0  -6   4    9.17    0.98
   1  -6   4  378.60    8.72
   2  -6   4    2.25    0.50
   3  -6   4   17.90    1.07
   4  -6   4    7.25    1.32
   5  -6   4   16.71    1.72
   6  -6   4    8.81    1.50
   7  -6   4   26.54    2.24
   8  -6   4   29.09    1.58
   9  -6   4  117.43    3.80
  10  -6   4   93.48    4.63
  11  -6   4   47.06    3.33
  12  -6   4   24.19    2.45
  13  -6   4   21.49    2.87
  -8  -5   4   79.56    5.19
  -7  -5   4    1.35    0.83
  -6  -5   4   47.97    3.60
  -5  -5   4   38.20    2.99
  -4  -5   4   71.11    4.05
  -3  -5   4  185.00    4.97
  -2  -5   4  123.29    3.75
  -1  -5   4   14.90    1.04
   0  -5   4    3.30    0.51
   1  -5   4   10.00    0.87
   2  -5   4   46.67    1.88
   3  -5   4   17.79    1.06
   4  -5   4   68.83    3.64
   5  -5   4    2.03    0.73
   6  -5   4  386.82    8.64
   7  -5   4    2.46    0.53
   8  -5   4   48.04    2.08
   9  -5   4    4.15    0.75
  10  -5   4   34.55    2.65
  11  -5   4   29.71    2.61
  12  -5   4    1.27    0.78
  13  -5   4   29.42    2.86
  -9  -4   4    4.93    1.46
  -8  -4   4   40.99    3.44
  -7  -4   4    0.65    0.58
  -6  -4   4   87.52    4.97
  -5  -4   4    4.34    1.16
  -4  -4   4   31.53    2.47
  -3  -4   4  197.70    5.13
  -2  -4   4    7.89    0.89
  -1  -4   4   67.25    2.36
   0  -4   4   49.57    1.95
   1  -4   4   68.93    2.42
   2  -4   4  209.10    5.33
   3  -4   4  393.18   12.89
   4  -4   4   46.84    2.90
   5  -4   4   11.29    0.84
   6  -4   4    1.92    0.43
   7  -4   4   39.98    1.79
   8  -4   4   32.04    1.62
   9  -4   4   66.78    2.61
  10  -4   4   32.08    2.58
  11  -4   4  265.97   10.15
  12  -4   4   23.97    2.44
  13  -4   4   22.03    3.08
  -9  -3   4    1.02    0.82
  -8  -3   4   33.52    3.08
  -7  -3   4   90.94    5.17
  -6  -3   4  104.21    5.58
  -5  -3   4   46.39    3.20
  -4  -3   4   40.25    1.78
  -3  -3   4   19.51    1.14
  -2  -3   4   18.24    1.11
  -1  -3   4  412.83    8.96
   0  -3   4   40.41    1.68
   1  -3   4    2.62    0.66
   2  -3   4  192.85    4.90
   3  -3   4   42.48    2.62
   4  -3   4   73.09    2.23
   5  -3   4   46.44    1.76
   6  -3   4   19.69    1.11
   7  -3   4  205.46    5.15
   8  -3   4  187.48    5.00
   9  -3   4   32.31    2.46
  10  -3   4   25.70    2.34
  11  -3   4   12.14    2.02
  12  -3   4   34.33    3.10
  13  -3   4    5.25    1.53
 -10  -2   4  157.30    7.83
  -9  -2   4   12.18    2.22
  -8  -2   4   35.26    3.03
  -7  -2   4   38.76    3.04
  -6  -2   4   27.48    2.42
  -5  -2   4    1.64    0.72
  -4  -2   4    1.30    0.36
  -3  -2   4   49.05    1.92
  -2  -2   4  220.04    5.40
  -1  -2   4  204.55    4.98
   0  -2   4   56.50    1.99
   1  -2   4   94.23    2.83
   2  -2   4   46.33    2.71
   3  -2   4    3.33    0.43
   4  -2   4  214.85    5.17
   5  -2   4   18.17    1.04
   6  -2   4   10.04    0.88
   7  -2   4  125.61    3.74
   8  -2   4    3.02    0.61
   9  -2   4   50.84    3.36
  10  -2   4   12.31    1.96
  11  -2   4   38.79    3.17
  12  -2   4  120.47    6.34
 -11  -1   4    5.96    1.58
 -10  -1   4    3.96    1.26
  -9  -1   4   22.29    2.95
  -8  -1   4    9.93    1.81
  -7  -1   4   37.88    2.91
  -6  -1   4   25.66    2.24
  -5  -1   4  391.49   12.84
  -4  -1   4   11.14    0.89
  -3  -1   4   76.16    2.47
  -2  -1   4    3.03    0.51
  -1  -1   4   97.17    2.85
   0  -1   4   27.49    1.32
   1  -1   4   29.47    0.85
   2  -1   4   99.57    2.52
   3  -1   4  202.63    4.69
   4  -1   4  404.09    8.75
   5  -1   4   69.30    2.30
   6  -1   4   14.01    0.99
   7  -1   4   79.34    2.82
   8  -1   4    1.37    0.61
   9  -1   4   73.22    4.07
  10  -1   4    8.46    1.65
  11  -1   4    6.55    1.51
  12  -1   4   89.46    5.40
 -11   0   4    7.83    1.81
 -10   0   4   19.98    2.73
  -9   0   4   99.24    5.38
  -8   0   4  191.22    7.95
  -7   0   4   32.05    2.55
  -6   0   4    9.75    1.57
  -5   0   4    2.47    0.45
  -4   0   4   49.18    1.89
  -3   0   4   41.66    1.67
  -2   0   4   51.41    1.91
  -1   0   4   27.76    0.84
   0   0   4  939.41   15.08
   1   0   4   27.99    1.28
   2   0   4   50.86    1.70
   3   0   4   44.22    1.59
   4   0   4   49.60    1.88
   5   0   4    1.69    0.41
   6   0   4    8.09    0.93
   7   0   4   26.71    1.51
   8   0   4  185.38    7.43
   9   0   4   89.83    4.89
  10   0   4   19.45    2.17
  11   0   4   10.92    2.10
 -12   1   4   87.78    5.41
 -11   1   4    5.54    1.44
 -10   1   4    5.06    1.35
  -9   1   4   74.47    4.39
  -8   1   4    1.89    0.78
  -7   1   4   79.82    4.31
  -6   1   4   15.89    1.64
  -5   1   4   69.77    2.98
  -4   1   4  404.52    8.84
  -3   1   4  204.93    4.94
  -2   1   4   97.62    2.14
  -1   1   4   28.80    0.95
   0   1   4   26.32    1.09
   1   1   4   94.39    2.60
   2   1   4    3.66    0.52
   3   1   4   75.80    2.41
   4   1   4   11.07    0.89
   5   1   4  378.60    8.71
   6   1   4   23.48    1.38
   7   1   4   40.22    1.92
   8   1   4   11.95    1.90
   9   1   4   27.10    2.50
  10   1   4    2.84    1.11
  11   1   4    4.09    1.27
 -12   2   4  123.86    6.45
 -11   2   4   40.86    3.28
 -10   2   4    9.34    1.72
  -9   2   4   56.87    3.67
  -8   2   4    2.78    0.87
  -7   2   4  123.37    5.56
  -6   2   4    8.67    0.78
  -5   2   4   18.38    1.04
  -4   2   4  211.85    5.31
  -3   2   4    3.72    0.43
  -2   2   4   51.11    1.44
  -1   2   4   93.92    2.17
   0   2   4   48.69    1.71
   1   2   4  202.23    4.80
   2   2   4  215.89    5.31
   3   2   4   46.00    1.85
   4   2   4    1.22    0.36
   5   2   4    2.00    0.48
   6   2   4   26.26    1.53
   7   2   4   35.85    2.65
   8   2   4   36.08    2.83
   9   2   4   14.32    2.25
  10   2   4  156.51    7.59
 -13   3   4    3.10    1.14
 -12   3   4   34.82    3.07
 -11   3   4   11.90    2.06
 -10   3   4   27.57    1.73
  -9   3   4   32.45    1.81
  -8   3   4  186.67    5.14
  -7   3   4  198.25    5.25
  -6   3   4   21.02    1.22
  -5   3   4   46.61    1.49
  -4   3   4   75.02    1.95
  -3   3   4   42.16    1.11
  -2   3   4  206.43    3.35
  -1   3   4    4.08    0.40
   0   3   4   40.90    1.60
   1   3   4  405.34    8.86
   2   3   4   19.03    1.12
   3   3   4   18.77    1.15
   4   3   4   37.23    1.80
   5   3   4   46.70    2.12
   6   3   4  113.72    3.78
   7   3   4   97.73    4.97
   8   3   4   36.91    3.03
   9   3   4    2.08    0.96
 -13   4   4   18.89    2.59
 -12   4   4   20.07    1.87
 -11   4   4  257.70    7.12
 -10   4   4   37.43    1.99
  -9   4   4   65.52    2.69
  -8   4   4   28.81    1.59
  -7   4   4   39.46    1.82
  -6   4   4    1.81    0.34
  -5   4   4   10.74    0.55
  -4   4   4   52.05    1.18
  -3   4   4  409.24    6.19
  -2   4   4  221.37    4.24
  -1   4   4   74.63    1.86
   0   4   4   48.68    1.92
   1   4   4   69.56    2.39
   2   4   4    9.75    1.02
   3   4   4  195.04    5.24
   4   4   4   27.36    1.56
   5   4   4    4.19    0.77
   6   4   4   87.17    3.31
   7   4   4    0.39    0.50
   8   4   4   34.35    3.03
   9   4   4    5.34    1.56
 -13   5   4   29.52    2.83
 -12   5   4    1.04    0.47
 -11   5   4   27.49    1.75
 -10   5   4   38.85    1.97
  -9   5   4    5.56    0.84
  -8   5   4   48.75    2.11
  -7   5   4    3.57    0.39
  -6   5   4  400.82    5.50
  -5   5   4    1.94    0.27
  -4   5   4   68.80    1.42
  -3   5   4   18.88    0.71
  -2   5   4   47.73    1.47
  -1   5   4    9.55    0.65
   0   5   4    2.87    0.54
   1   5   4   14.57    1.05
   2   5   4  123.22    3.86
   3   5   4  188.96    5.18
   4   5   4   61.51    2.66
   5   5   4   34.61    1.94
   6   5   4   49.75    3.46
   7   5   4    3.37    1.16
   8   5   4   74.21    4.87
 -13   6   4   22.01    2.91
 -12   6   4   31.03    2.70
 -11   6   4   39.90    3.10
 -10   6   4   91.51    3.25
  -9   6   4  119.83    3.77
  -8   6   4   28.13    1.26
  -7   6   4   25.11    0.88
  -6   6   4    7.90    0.57
  -5   6   4   16.09    0.65
  -4   6   4    8.66    0.58
  -3   6   4   18.36    0.90
  -2   6   4    3.41    0.39
  -1   6   4  400.81    8.94
   0   6   4    7.68    0.93
   1   6   4   77.27    2.93
   2   6   4    2.67    0.60
   3   6   4   33.28    1.86
   4   6   4   33.99    1.95
   5   6   4   26.17    1.77
   6   6   4   27.24    2.64
   7   6   4  105.93    5.85
 -13   7   4   99.73    5.55
 -12   7   4    2.34    0.95
 -11   7   4    0.62    0.50
 -10   7   4   96.44    3.52
  -9   7   4   34.18    1.86
  -8   7   4   38.64    1.43
  -7   7   4   27.60    1.06
  -6   7   4   83.64    2.02
  -5   7   4  129.90    2.64
  -4   7   4  202.53    4.26
  -3   7   4   41.16    1.50
  -2   7   4    2.24    0.41
  -1   7   4   24.39    1.48
   0   7   4   29.03    1.66
   1   7   4    1.64    0.51
   2   7   4   54.32    2.53
   3   7   4   27.65    1.78
   4   7   4  246.11   10.03
   5   7   4    0.66    0.58
   6   7   4   15.19    2.41
 -13   8   4   75.87    4.77
 -12   8   4   35.36    2.97
 -11   8   4   32.87    2.02
 -10   8   4   34.15    1.94
  -9   8   4    9.66    1.14
  -8   8   4  196.96    4.39
  -7   8   4    1.63    0.38
  -6   8   4    3.06    0.52
  -5   8   4  185.72    5.02
  -4   8   4   31.60    1.36
  -3   8   4   47.48    1.74
  -2   8   4   25.01    1.29
  -1   8   4   39.07    2.04
   0   8   4  188.70    5.55
   1   8   4   71.39    4.07
   2   8   4   10.29    1.77
   3   8   4    9.80    1.76
   4   8   4   19.63    2.66
   5   8   4   29.71    2.90
 -13   9   4    4.44    1.22
 -12   9   4    1.48    0.61
 -11   9   4   15.74    1.63
 -10   9   4   24.66    1.67
  -9   9   4   99.79    2.93
  -8   9   4   75.82    2.37
  -7   9   4   58.40    2.55
  -6   9   4   35.22    1.84
  -5   9   4   68.23    2.71
  -4   9   4    2.95    0.61
  -3   9   4  117.96    3.76
  -2   9   4   35.68    2.70
  -1   9   4    9.59    1.71
   0   9   4   90.98    4.98
   1   9   4    5.24    1.28
   2   9   4   43.28    3.28
   3   9   4   38.14    3.16
   4   9   4   22.44    2.97
 -13  10   4    1.27    0.73
 -12  10   4  169.27    5.40
 -11  10   4    4.38    0.90
 -10  10   4   22.55    1.62
  -9  10   4    6.16    0.78
  -8  10   4   14.64    1.54
  -7  10   4   26.23    1.69
  -6  10   4   37.00    1.98
  -5  10   4   35.84    1.93
  -4  10   4   92.45    3.31
  -3  10   4   93.68    4.98
  -2  10   4   36.90    2.88
  -1  10   4   22.30    2.30
   0  10   4   23.08    2.38
   1  10   4    5.13    1.39
   2  10   4  118.85    6.32
 -12  11   4    6.83    1.16
 -11  11   4    9.38    1.24
 -10  11   4    5.97    1.04
  -9  11   4   38.17    2.25
  -8  11   4   11.29    1.39
  -7  11   4  258.82    7.17
  -6  11   4   28.14    1.80
  -5  11   4   47.29    2.36
  -4  11   4    0.42    0.40
  -3  11   4   30.76    2.84
  -2  11   4   13.89    2.23
  -1  11   4    3.65    1.23
   0  11   4    9.96    1.97
   1  11   4   92.75    5.47
 -11  12   4   94.57    5.56
 -10  12   4  125.30    4.60
  -9  12   4   40.10    2.36
  -8  12   4   20.51    1.95
  -7  12   4    1.34    0.54
  -6  12   4   25.90    1.80
  -5  12   4    2.61    0.70
  -4  12   4   34.64    3.11
  -3  12   4    2.12    1.00
  -2  12   4  157.76    7.63
  -1  12   4    4.67    1.41
 -10  13   4    3.54    1.22
  -9  13   4   23.36    1.97
  -8  13   4   31.46    2.11
  -7  13   4   18.14    2.56
  -6  13   4   98.31    4.26
  -5  13   4   74.66    4.99
  -4  13   4    4.40    1.37
   3 -12   5    7.72    2.49
   4 -12   5  151.84    7.89
   5 -12   5    5.06    1.70
   6 -12   5   27.56    3.68
   7 -12   5   49.83    4.21
   8 -12   5   31.57    3.35
   9 -12   5   20.78    3.57
   0 -11   5    1.70    0.98
   1 -11   5   25.94    2.86
   2 -11   5    5.23    1.58
   3 -11   5   13.05    2.38
   4 -11   5   22.07    3.11
   5 -11   5   65.13    4.67
   6 -11   5   47.48    3.97
   7 -11   5    3.10    1.24
   8 -11   5   44.87    3.78
   9 -11   5   40.98    3.62
  10 -11   5   11.81    2.34
  11 -11   5    4.71    1.61
   0 -10   5  187.89    8.34
   1 -10   5   69.16    4.58
   2 -10   5  125.99    6.59
   3 -10   5   10.31    2.03
   4 -10   5    6.73    1.69
   5 -10   5   33.98    3.15
   6 -10   5   50.30    4.00
   7 -10   5   38.52    3.39
   8 -10   5   23.43    2.62
   9 -10   5   11.17    2.14
  10 -10   5  186.41    8.60
  11 -10   5   30.06    3.31
  -1  -9   5   12.13    2.10
   0  -9   5    2.77    0.94
   1  -9   5   -0.20    0.40
   2  -9   5    1.19    0.76
   3  -9   5    1.80    0.87
   4  -9   5   23.89    2.54
   5  -9   5   40.70    3.43
   6  -9   5   13.35    2.23
   7  -9   5   95.59    5.42
   8  -9   5   17.06    2.58
   9  -9   5    3.32    1.16
  10  -9   5   69.46    4.58
  -1  -8   5   12.82    2.06
   0  -8   5    8.41    1.62
   1  -8   5  101.52    5.61
   2  -8   5  133.65    6.33
   3  -8   5  294.04   11.01
   4  -8   5   29.48    2.72
   5  -8   5   13.59    2.26
   6  -8   5   20.57    2.31
   7  -8   5   17.67    2.47
   8  -8   5   10.64    1.99
   9  -8   5    0.13    0.50
  10  -8   5  128.76    6.42
  -5  -7   5   50.04    3.82
  -4  -7   5    3.49    1.22
  -3  -7   5   35.85    2.95
  -2  -7   5   90.24    3.36
  -1  -7   5   18.07    1.33
   0  -7   5   12.52    1.30
   1  -7   5    8.40    1.05
   2  -7   5   30.94    1.94
   3  -7   5   36.00    2.86
   4  -7   5   16.20    2.34
   5  -7   5    4.87    1.28
   6  -7   5  325.70   12.16
   7  -7   5   11.87    1.99
   8  -7   5  106.61    5.74
   9  -7   5    0.84    0.66
  10  -7   5    9.53    1.90
  -6  -6   5   24.86    3.24
  -5  -6   5   51.67    3.80
  -4  -6   5   54.63    3.81
  -3  -6   5   17.90    2.39
  -2  -6   5   24.89    1.54
  -1  -6   5  345.94    8.25
   0  -6   5   16.92    1.23
   1  -6   5   44.54    2.04
   2  -6   5   32.71    1.71
   3  -6   5  184.14    7.75
   4  -6   5    0.35    0.44
   5  -6   5  103.54    5.23
   6  -6   5   14.39    2.13
   7  -6   5    7.76    1.60
   8  -6   5  127.59    6.04
   9  -6   5    0.16    0.39
  -7  -5   5    4.51    1.41
  -6  -5   5   63.25    4.36
  -5  -5   5   28.87    2.76
  -4  -5   5   38.74    3.13
  -3  -5   5   15.31    1.28
  -2  -5   5    4.81    0.77
  -1  -5   5  101.02    3.38
   0  -5   5    8.55    1.00
   1  -5   5   16.90    1.19
   2  -5   5  117.76    3.68
   3  -5   5    3.08    0.96
   4  -5   5  239.15    9.03
   5  -5   5   10.46    1.75
   6  -5   5   39.03    2.99
   7  -5   5   24.87    2.32
   8  -5   5  285.14   10.56
   9  -5   5   21.14    2.19
  -8  -4   5  137.63    7.33
  -7  -4   5   25.40    2.72
  -6  -4   5    6.15    1.54
  -5  -4   5   23.45    2.36
  -3  -4   5   18.75    1.38
  -2  -4   5    0.83    0.35
  -1  -4   5  238.45    6.07
   0  -4   5    7.75    0.93
   1  -4   5  390.98    8.97
   2  -4   5    3.93    0.67
   3  -4   5   19.88    1.93
   4  -4   5    7.08    1.38
   5  -4   5   18.35    1.89
   6  -4   5   33.89    2.68
   7  -4   5   37.18    2.79
   8  -4   5   32.97    2.67
   9  -4   5   39.11    3.03
  -8  -3   5   15.84    2.63
  -7  -3   5    9.50    1.99
  -6  -3   5    2.10    0.94
  -5  -3   5  272.79   10.62
  -4  -3   5   32.00    2.63
  -3  -3   5  191.59    5.20
  -2  -3   5    5.26    0.79
  -1  -3   5   18.83    1.22
   0  -3   5   77.91    2.74
   1  -3   5   50.59    2.06
   2  -3   5   43.50    2.82
   3  -3   5   73.51    4.02
   4  -3   5  379.17   12.97
   5  -3   5  114.46    5.43
   6  -3   5  184.82    7.64
   7  -3   5   17.99    1.92
   8  -3   5   13.93    2.08
  10  -3   5   36.84    3.01
  11  -3   5   40.82    3.16
  12  -3   5   17.51    2.59
  -9  -2   5    6.69    1.78
  -8  -2   5  120.86    6.44
  -7  -2   5    1.86    0.92
  -6  -2   5  124.71    6.09
  -5  -2   5   18.75    2.04
  -4  -2   5   34.24    1.72
  -3  -2   5  114.51    3.63
  -2  -2   5    4.17    0.70
  -1  -2   5   44.05    1.92
   0  -2   5  116.31    3.48
   1  -2   5   67.92    2.49
   2  -2   5  108.64    4.99
   3  -2   5   45.76    2.96
   4  -2   5    5.51    1.18
   5  -2   5    5.06    1.24
   6  -2   5    0.24    0.45
   7  -2   5    6.05    0.91
   8  -2   5   23.81    1.48
   9  -2   5   97.96    4.75
  10  -2   5   28.46    2.52
  11  -2   5   35.25    3.05
 -10  -1   5   28.49    2.98
  -9  -1   5   70.89    4.69
  -8  -1   5    0.05    0.51
  -7  -1   5  109.61    5.82
  -6  -1   5    8.85    1.67
  -5  -1   5   43.80    3.09
  -4  -1   5   18.24    1.19
  -3  -1   5  394.41    8.93
  -2  -1   5   49.27    2.03
  -1  -1   5   66.90    2.47
   0  -1   5   97.87    3.19
   1  -1   5  106.13    4.76
   2  -1   5   70.38    3.74
   3  -1   5   44.65    2.89
   4  -1   5   17.26    1.79
   5  -1   5  233.36    6.06
   6  -1   5  104.54    3.30
   7  -1   5  349.17    8.20
   8  -1   5   18.72    1.34
   9  -1   5   13.62    2.01
  10  -1   5    9.02    1.73
  11  -1   5   11.01    2.00
 -10   0   5  170.83    8.33
  -9   0   5    3.47    1.22
  -8   0   5    6.84    1.50
  -7   0   5   14.45    2.17
  -6   0   5   15.73    2.13
  -5   0   5    9.01    1.00
  -4   0   5    7.75    0.89
  -3   0   5   81.10    2.76
  -2   0   5  111.17    3.41
  -1   0   5  100.70    3.22
   0   0   5    0.18    0.22
   1   0   5   99.33    4.67
   2   0   5  113.60    5.07
   3   0   5   84.87    4.25
   4   0   5    9.40    0.83
   5   0   5    9.88    0.91
   6   0   5   15.37    1.21
   7   0   5   14.96    1.25
   8   0   5    5.80    1.25
   9   0   5    2.44    0.90
  10   0   5  181.72    8.02
  11   0   5    1.63    0.86
 -11   1   5   10.20    2.12
 -10   1   5   11.99    2.19
  -9   1   5   12.69    2.11
  -8   1   5   16.09    2.39
  -7   1   5  339.44   12.06
  -6   1   5   95.28    4.95
  -5   1   5  239.72    5.95
  -4   1   5   17.77    1.17
  -3   1   5   43.47    1.88
  -2   1   5   68.34    2.49
  -1   1   5   99.22    3.20
   0   1   5   99.88    4.65
   1   1   5   71.41    3.74
   2   1   5   48.26    1.81
   3   1   5  389.48    8.73
   4   1   5   18.73    1.17
   5   1   5   43.96    1.98
   6   1   5    7.68    1.00
   7   1   5  115.93    3.87
   8   1   5    0.16    0.47
   9   1   5   74.61    4.38
  10   1   5   28.51    2.78
 -11   2   5   40.81    3.45
 -10   2   5   23.24    2.54
  -9   2   5  102.11    5.33
  -8   2   5   22.87    2.28
  -7   2   5    5.19    1.22
  -6   2   5    0.43    0.41
  -5   2   5    4.91    0.71
  -4   2   5    4.33    0.68
  -3   2   5   49.98    2.02
  -2   2   5  114.89    3.46
  -1   2   5   72.80    3.67
   0   2   5  112.02    3.13
   1   2   5   44.90    1.73
   2   2   5    5.06    0.71
   3   2   5  113.34    3.53
   4   2   5   33.84    1.71
   5   2   5   26.99    1.56
   6   2   5  127.46    4.04
   7   2   5    0.41    0.29
   8   2   5  120.05    5.91
   9   2   5    5.95    1.45
 -11   3   5   41.77    3.40
 -10   3   5   36.29    3.07
  -9   3   5   20.91    2.68
  -8   3   5   15.06    2.13
  -7   3   5   16.06    2.16
  -6   3   5  194.66    5.12
  -5   3   5  115.40    3.60
  -4   3   5  381.56    8.87
  -3   3   5   76.73    2.72
  -2   3   5   44.31    1.73
  -1   3   5   45.84    1.78
   0   3   5   80.79    2.61
   1   3   5   16.36    1.07
   2   3   5    5.88    0.78
   3   3   5  191.70    5.21
   4   3   5   34.53    1.80
   5   3   5  284.10    7.26
   6   3   5    1.98    0.56
   7   3   5    9.66    1.73
   8   3   5   16.34    2.41
   9   3   5    4.97    1.41
 -12   4   5   32.72    3.02
 -11   4   5    2.88    1.11
 -10   4   5   56.45    3.77
  -9   4   5   41.65    3.13
  -8   4   5   32.16    2.60
  -7   4   5   35.04    2.61
  -6   4   5   36.70    1.76
  -5   4   5   17.51    1.18
  -4   4   5   10.76    0.79
  -3   4   5   18.04    1.10
  -2   4   5    3.99    0.61
  -1   4   5  398.28    8.83
   0   4   5    9.31    0.87
   1   4   5  232.26    5.96
   2   4   5    1.03    0.39
   3   4   5   17.33    1.33
   4   4   5   30.80    1.78
   5   4   5   24.40    1.60
   6   4   5    4.88    0.89
   7   4   5   26.89    2.55
   8   4   5  134.51    6.85
 -12   5   5   49.32    3.66
 -11   5   5   49.01    3.54
 -10   5   5   30.44    1.86
  -9   5   5   24.12    1.56
  -8   5   5  287.08    7.20
  -7   5   5   24.75    1.48
  -6   5   5   45.99    1.63
  -5   5   5    9.75    0.72
  -4   5   5  240.12    5.92
  -3   5   5    5.06    0.75
  -2   5   5  115.36    3.60
  -1   5   5   17.99    1.20
   0   5   5    9.71    1.10
   1   5   5  104.21    3.42
   2   5   5    5.23    0.85
   3   5   5   13.45    1.39
   4   5   5   38.67    2.12
   5   5   5   31.34    1.93
   6   5   5   55.76    3.84
   7   5   5    6.71    1.62
 -12   6   5   20.23    2.71
 -11   6   5   62.40    4.04
 -10   6   5    5.62    0.95
  -9   6   5    1.53    0.53
  -8   6   5  127.62    3.95
  -7   6   5    9.20    0.67
  -6   6   5   15.34    0.71
  -5   6   5  103.23    3.32
  -4   6   5    1.37    0.43
  -3   6   5  196.66    5.24
  -2   6   5   35.90    1.80
  -1   6   5   43.49    2.06
   0   6   5   16.32    1.33
   1   6   5  329.60    8.32
   2   6   5   24.98    1.60
   3   6   5   18.34    1.54
   4   6   5   50.67    2.54
   5   6   5   46.71    2.51
   6   6   5   25.68    2.63
 -12   7   5    4.45    1.31
 -11   7   5   23.52    2.41
 -10   7   5    6.69    1.44
  -9   7   5    1.28    0.66
  -8   7   5  116.75    3.19
  -7   7   5   14.88    0.84
  -6   7   5  346.41    6.67
  -5   7   5    4.43    0.77
  -4   7   5   17.68    1.28
  -3   7   5   35.56    1.87
  -2   7   5   29.82    1.66
  -1   7   5    8.54    1.09
   0   7   5   11.93    1.36
   1   7   5   17.02    1.47
   2   7   5   94.69    3.58
   3   7   5   37.56    2.20
   4   7   5    2.78    0.73
   5   7   5   50.92    3.72
 -12   8   5  134.47    6.74
 -11   8   5   14.93    2.26
 -10   8   5  117.82    5.77
  -9   8   5    0.01    0.31
  -8   8   5    9.11    0.97
  -7   8   5   20.17    1.42
  -6   8   5   24.52    1.57
  -5   8   5   14.63    1.29
  -4   8   5   33.32    1.88
  -3   8   5  285.48    7.40
  -2   8   5  130.08    4.22
  -1   8   5  109.36    3.99
   0   8   5    8.04    1.16
   1   8   5   14.71    1.61
   2   8   5   21.87    1.83
   3   8   5   41.70    3.26
   4   8   5   29.55    2.84
 -12   9   5    6.28    1.54
 -11   9   5    8.44    1.72
 -10   9   5   74.63    3.09
  -9   9   5    3.04    0.75
  -8   9   5   15.40    1.60
  -7   9   5   99.46    5.01
  -6   9   5   18.96    2.02
  -5   9   5   43.78    3.11
  -4   9   5   23.32    1.63
  -3   9   5    1.93    0.61
  -2   9   5    0.47    0.36
  -1   9   5    0.11    0.34
   0   9   5    3.87    1.16
   1   9   5   11.79    2.02
   2   9   5   41.59    3.34
   3   9   5   16.60    2.91
 -11  10   5   26.57    2.72
 -10  10   5  182.84    8.12
  -9  10   5   12.38    1.46
  -8  10   5   27.52    2.23
  -7  10   5   40.63    3.16
  -6  10   5   53.43    3.62
  -5  10   5   33.32    2.80
  -4  10   5    5.29    1.31
  -3  10   5    6.89    1.51
  -2  10   5  118.88    6.05
  -1  10   5   72.53    4.44
   0  10   5  169.52    7.93
   1  10   5    9.74    1.92
 -11  11   5    2.35    1.08
 -10  11   5   12.38    1.56
  -9  11   5   40.90    3.40
  -8  11   5   45.13    3.51
  -7  11   5    3.98    1.26
  -6  11   5   47.59    3.58
  -5  11   5   62.81    4.16
  -4  11   5   20.92    2.35
  -3  11   5   16.72    2.54
  -2  11   5    7.95    1.78
  -1  11   5   28.09    2.78
  -9  12   5   15.00    2.54
  -8  12   5   35.55    3.16
  -7  12   5   50.60    3.80
  -6  12   5   25.61    2.71
  -5  12   5    4.76    1.38
  -4  12   5  131.73    6.93
  -3  12   5    6.61    1.87
   1 -10   6   11.30    2.18
   2 -10   6   43.64    3.79
   3 -10   6   76.94    5.22
   4 -10   6   77.81    5.23
   5 -10   6   42.98    3.80
   6 -10   6    9.24    2.07
   7 -10   6   12.98    2.46
   8 -10   6   74.26    5.17
   9 -10   6    2.10    1.15
   0  -9   6   26.91    2.73
   1  -9   6    4.05    1.31
   2  -9   6    0.61    0.66
   3  -9   6   42.94    3.66
   4  -9   6    9.91    2.03
   5  -9   6   20.37    2.95
   6  -9   6   51.58    4.13
   7  -9   6   23.68    3.28
   8  -9   6   70.32    4.95
   9  -9   6   23.09    3.15
  10  -9   6   10.48    2.19
  -1  -8   6   70.56    4.47
   0  -8   6   77.69    4.88
   1  -8   6   35.71    3.11
   2  -8   6    7.17    1.63
   3  -8   6   35.06    3.19
   4  -8   6   25.41    2.70
   5  -8   6   54.30    3.98
   6  -8   6    2.60    1.06
   7  -8   6   47.74    3.81
   8  -8   6   90.20    5.47
   9  -8   6    4.08    1.33
  10  -8   6   54.03    4.11
  -4  -7   6  143.92    7.19
  -3  -7   6    7.78    1.67
  -2  -7   6   20.87    2.27
  -1  -7   6   43.38    2.27
   0  -7   6   20.95    1.52
   1  -7   6    0.48    0.57
   2  -7   6   12.98    2.13
   3  -7   6   33.95    2.91
   4  -7   6  100.43    5.67
   5  -7   6   49.93    3.86
   6  -7   6   28.93    2.84
   7  -7   6   22.18    2.99
   8  -7   6   31.42    3.00
   9  -7   6   -0.01    0.50
  10  -7   6   73.93    4.85
  -5  -6   6    0.73    0.72
  -4  -6   6    6.57    1.55
  -3  -6   6   53.75    3.82
  -2  -6   6    2.33    0.66
  -1  -6   6   28.55    1.77
   0  -6   6    6.15    0.96
   1  -6   6  235.27    6.43
   2  -6   6    9.10    1.15
   3  -6   6  112.34    5.93
   4  -6   6    7.93    1.68
   5  -6   6   53.44    3.82
   6  -6   6    5.82    1.46
   7  -6   6    0.86    0.70
   8  -6   6   10.04    1.96
   9  -6   6   44.44    3.57
  -6  -5   6   19.83    2.95
  -5  -5   6   44.20    3.61
  -4  -5   6   18.77    2.61
  -3  -5   6   53.05    3.64
  -2  -5   6   58.28    2.59
  -1  -5   6   54.93    2.49
   0  -5   6    4.25    0.77
   1  -5   6   34.18    1.88
   2  -5   6   15.75    1.34
   3  -5   6    4.81    1.29
   4  -5   6   66.10    4.11
   5  -5   6    9.40    1.84
   6  -5   6  225.57    9.46
   7  -5   6   17.70    2.51
   8  -5   6   40.45    3.28
   9  -5   6    9.70    1.95
  -6  -4   6   73.83    4.92
  -5  -4   6   10.81    2.12
  -4  -4   6   22.87    2.44
  -3  -4   6  110.12    3.77
  -2  -4   6    8.51    1.09
  -1  -4   6   62.96    2.68
   0  -4   6   25.88    1.60
   1  -4   6   60.47    2.60
   2  -4   6   55.18    3.63
   3  -4   6  101.53    5.25
   4  -4   6   26.52    2.50
   5  -4   6   36.82    2.97
   6  -4   6    8.90    1.78
   7  -4   6   24.24    2.49
   8  -4   6   24.64    2.52
   9  -4   6   21.22    2.37
  -7  -3   6   72.12    4.99
  -6  -3   6   47.97    3.76
  -5  -3   6   34.22    3.04
  -4  -3   6   24.32    2.42
  -3  -3   6  115.86    3.91
  -2  -3   6    7.40    0.99
  -1  -3   6  101.65    3.48
   0  -3   6   24.88    1.58
   1  -3   6    7.24    0.97
   2  -3   6  141.59    6.59
   3  -3   6   25.38    2.39
   4  -3   6   63.08    3.96
   5  -3   6   13.47    2.12
   6  -3   6  128.38    6.13
   7  -3   6  102.08    5.54
   8  -3   6   50.87    3.67
   9  -3   6   55.61    5.16
  -8  -2   6   48.85    4.00
  -7  -2   6    0.59    0.69
  -6  -2   6   10.17    1.93
  -5  -2   6   14.58    2.36
  -4  -2   6    8.36    1.65
  -3  -2   6   20.07    1.48
  -2  -2   6   54.36    2.41
  -1  -2   6  156.92    4.65
   0  -2   6   93.36    3.33
   1  -2   6  104.47    5.29
   2  -2   6   89.53    4.80
   3  -2   6    7.13    1.45
   4  -2   6   62.27    3.85
   5  -2   6    7.69    1.66
   6  -2   6   11.35    1.95
   7  -2   6   56.48    3.88
   8  -2   6    3.37    1.08
  -8  -1   6    2.89    1.17
  -7  -1   6   38.88    3.31
  -6  -1   6    0.12    0.37
  -5  -1   6  247.61    9.58
  -4  -1   6   35.27    1.88
  -3  -1   6   65.20    2.65
  -2  -1   6    6.05    0.91
  -1  -1   6  110.98    3.72
   0  -1   6   23.95    1.52
   1  -1   6   21.65    2.15
   2  -1   6  105.52    5.39
   3  -1   6  141.89    6.65
   4  -1   6   95.89    5.14
   5  -1   6   68.69    4.18
   6  -1   6   57.54    3.86
   7  -1   6   29.39    2.70
   8  -1   6   45.63    3.47
  -9   0   6   21.98    3.06
  -8   0   6   89.96    5.40
  -7   0   6   23.36    2.53
  -6   0   6    7.96    1.67
  -5   0   6    2.93    0.96
  -4   0   6   25.92    1.57
  -3   0   6   25.16    1.56
  -2   0   6   87.46    3.24
  -1   0   6   24.06    1.52
   0   0   6  205.97    8.00
   1   0   6   25.14    2.28
   2   0   6   91.56    4.88
   3   0   6   24.31    2.35
   4   0   6   24.95    2.43
   5   0   6    4.05    1.16
   6   0   6    6.82    1.56
   7   0   6   21.56    2.33
  -9   1   6   68.13    4.73
  -8   1   6   42.08    3.50
  -7   1   6   24.21    2.49
  -5   1   6   63.05    2.58
  -4   1   6   98.83    3.41
  -3   1   6  153.22    4.60
  -2   1   6  111.60    3.74
  -1   1   6   19.79    2.02
   0   1   6   22.85    2.19
   1   1   6  110.50    5.46
   2   1   6    6.94    1.50
   3   1   6   59.53    3.86
   4   1   6   33.27    2.85
   5   1   6  237.75    9.51
   6   1   6    0.69    0.58
   7   1   6   34.92    3.07
 -10   2   6   78.45    5.06
  -9   2   6   19.44    2.74
  -8   2   6    4.74    1.32
  -7   2   6   58.05    3.89
  -6   2   6    7.48    1.52
  -5   2   6    5.08    0.82
  -4   2   6   52.77    2.35
  -3   2   6    6.99    0.98
  -2   2   6   95.19    3.34
  -1   2   6  108.51    5.30
   0   2   6   85.83    4.71
   1   2   6  153.28    6.84
   2   2   6   54.50    3.63
   3   2   6   16.05    2.30
   4   2   6    7.21    1.62
   5   2   6   17.08    2.56
   6   2   6    6.99    1.63
   7   2   6    1.03    0.72
 -10   3   6    7.00    1.74
  -9   3   6   59.05    4.08
  -8   3   6   49.32    3.58
  -7   3   6  108.21    5.52
  -6   3   6  111.05    5.65
  -5   3   6   17.18    1.34
  -4   3   6   64.96    2.62
  -3   3   6   23.98    1.55
  -2   3   6  150.44    6.53
  -1   3   6    6.09    1.30
   0   3   6   32.83    2.64
   1   3   6  100.51    5.22
   2   3   6    7.17    1.54
   3   3   6  110.63    5.91
   4   3   6   24.86    2.55
   5   3   6   42.33    3.35
   6   3   6   47.83    2.83
   7   3   6   80.42    4.81
   8   3   6    9.94    1.97
 -11   4   6  144.10    7.17
 -10   4   6    4.18    1.21
  -9   4   6   21.48    2.34
  -8   4   6   20.26    2.68
  -7   4   6   29.10    2.53
  -6   4   6    8.75    1.09
  -5   4   6   34.89    1.87
  -4   4   6   25.37    1.58
  -3   4   6   99.35    4.96
  -2   4   6   56.72    3.59
  -1   4   6   61.82    3.88
   0   4   6   24.42    2.39
   1   4   6   65.98    4.14
   2   4   6   10.90    2.01
   3   4   6   96.88    5.57
   4   4   6   23.22    1.62
   5   4   6    9.89    1.32
   6   4   6   72.32    3.21
   7   4   6   51.37    3.72
 -11   5   6    0.28    0.55
 -10   5   6   45.39    3.44
  -9   5   6   11.16    1.97
  -8   5   6   37.29    2.94
  -7   5   6   13.67    2.05
  -6   5   6  240.88    6.35
  -5   5   6    4.78    0.83
  -4   5   6   62.17    3.80
  -3   5   6    6.09    1.33
  -2   5   6   18.10    2.00
  -1   5   6   30.38    2.74
   0   5   6    5.02    1.36
   1   5   6   52.31    3.78
   2   5   6   54.69    2.53
   3   5   6   48.44    2.40
   4   5   6   23.52    1.66
   5   5   6   39.80    2.31
   6   5   6   23.04    2.47
 -10   6   6   70.78    4.42
  -9   6   6   49.14    3.50
  -8   6   6   12.18    1.95
  -7   6   6    0.86    0.57
  -6   6   6    6.25    1.40
  -5   6   6   51.11    3.43
  -4   6   6    7.52    1.52
  -3   6   6  113.13    5.70
  -2   6   6    8.27    1.65
  -1   6   6  230.83    9.46
   0   6   6    7.09    1.01
   1   6   6   28.81    1.81
   2   6   6    3.21    0.77
   3   6   6   57.64    2.75
   4   6   6    3.95    0.87
   5   6   6    0.86    0.49
  -7   7   6   21.55    2.14
  -6   7   6   27.08    2.46
  -5   7   6   59.38    3.82
  -4   7   6  101.84    5.45
  -3   7   6   26.38    2.54
  -2   7   6   14.04    1.46
  -1   7   6    0.60    0.37
   0   7   6   23.49    1.67
   1   7   6   44.21    2.38
   2   7   6   20.42    1.73
   3   7   6   10.92    1.41
   4   7   6  130.93    4.91
  -7   8   6   44.52    3.30
  -6   8   6    3.20    1.08
  -5   8   6   45.80    3.45
  -4   8   6   23.73    2.09
  -3   8   6   34.88    2.05
  -2   8   6   10.17    1.29
  -1   8   6   34.89    2.09
   0   8   6   93.47    3.70
   1   8   6   73.60    3.33
   2   8   6   72.93    3.44
   3   8   6    6.91    1.61
  -6   9   6   58.25    4.05
  -5   9   6   20.75    1.73
  -4   9   6   10.91    1.41
  -3   9   6   46.95    2.51
  -2   9   6    1.03    0.50
  -1   9   6    3.38    0.80
   0   9   6   24.45    2.01
   1   9   6    2.43    1.02
  -6  10   6    6.42    1.50
  -5  10   6   40.97    3.26
  -4  10   6   74.70    4.60
  -3  10   6   75.39    4.64
  -2  10   6   43.26    3.45
  -1  10   6    8.97    1.85
  -7  11   6  150.04    7.18
  -6  11   6    0.39    0.62
  -5  11   6   22.54    2.94
  -4  11   6   50.51    3.88
  -3  11   6   13.49    2.23
   0  -8   7    2.70    1.10
   1  -8   7  108.55    6.10
   2  -8   7   21.17    2.99
   3  -8   7   99.16    6.03
   4  -8   7   25.60    2.87
   5  -8   7    2.07    1.11
   6  -8   7   15.26    2.69
   7  -8   7    9.92    2.17
  -1  -7   7    9.94    1.90
   0  -7   7   21.77    2.46
   1  -7   7   14.54    2.42
   2  -7   7    7.27    1.70
   3  -7   7   22.99    3.16
   4  -7   7    1.50    0.87
   5  -7   7    3.26    1.23
   6  -7   7  114.77    6.52
   7  -7   7   26.92    2.94
   8  -7   7  104.31    6.21
   9  -7   7    4.10    2.17
  -3  -6   7   24.59    3.22
  -2  -6   7   20.91    2.87
  -1  -6   7  113.29    4.19
   0  -6   7   26.32    1.81
   1  -6   7    7.10    1.11
   2  -6   7   14.52    2.32
   3  -6   7  107.38    6.03
   4  -6   7    5.23    1.47
   5  -6   7   38.96    3.43
   6  -6   7   32.30    3.10
   7  -6   7   20.19    2.97
   8  -6   7   16.75    2.67
   9  -6   7   -0.04    0.56
  -4  -5   7   86.68    5.28
  -3  -5   7    1.42    0.93
  -2  -5   7    4.31    0.84
  -1  -5   7   34.63    2.09
   0  -5   7   29.13    1.87
   1  -5   7   11.24    1.37
   2  -5   7   75.25    4.78
   3  -5   7    6.07    1.54
   4  -5   7  110.39    6.01
   5  -5   7   26.77    2.79
   6  -5   7    6.90    1.69
   7  -5   7    9.60    1.99
   8  -5   7  106.34    6.14
   9  -5   7   14.71    2.53
  -5  -4   7   13.12    2.37
  -4  -4   7   24.58    2.67
  -3  -4   7    0.71    0.65
  -2  -4   7    5.85    1.00
  -1  -4   7  100.30    3.85
   0  -4   7   27.28    1.80
   1  -4   7  182.52    8.06
   2  -4   7    2.28    0.91
   3  -4   7    1.82    0.82
   4  -4   7   29.30    2.85
   5  -4   7   11.60    2.10
   6  -4   7   17.35    2.66
   7  -4   7   26.22    2.82
   8  -4   7   25.69    2.77
   9  -4   7   83.73    5.30
  -5  -3   7  105.87    6.05
  -4  -3   7   22.81    3.02
  -3  -3   7  111.87    4.04
  -2  -3   7    7.67    1.11
  -1  -3   7    1.75    0.58
   0  -3   7   15.81    1.61
   1  -3   7    9.65    1.88
   2  -3   7    0.48    0.50
   3  -3   7   14.04    2.27
   4  -3   7  179.21    8.20
   5  -3   7   78.53    4.97
   6  -3   7  109.58    6.06
   7  -3   7    1.28    0.89
   8  -3   7    1.63    0.95
   9  -3   7   29.50    5.29
  -6  -2   7   15.65    2.57
  -5  -2   7    6.96    1.63
  -4  -2   7   13.93    2.31
  -3  -2   7   81.00    3.26
  -2  -2   7    3.04    0.76
  -1  -2   7    0.15    0.30
   0  -2   7   94.88    5.11
   1  -2   7   26.15    2.57
   2  -2   7   85.97    5.04
   3  -2   7    9.54    1.93
   4  -2   7    3.57    1.23
   5  -2   7    7.07    1.74
   6  -2   7    5.46    1.48
   7  -2   7    3.71    1.28
   8  -2   7   14.64    2.43
  -7  -1   7  120.90    6.64
  -6  -1   7   14.06    2.44
  -5  -1   7    6.91    1.69
  -4  -1   7   10.72    1.92
  -3  -1   7  184.64    5.58
  -2  -1   7    9.67    1.25
  -1  -1   7   26.43    1.75
   0  -1   7   49.89    3.57
   1  -1   7   57.95    3.86
   2  -1   7   26.62    2.62
   3  -1   7    0.04    0.42
   4  -1   7    1.73    0.91
   5  -1   7  109.01    6.04
   6  -1   7   33.24    3.13
   7  -1   7  109.71    6.16
   8  -1   7   10.52    2.10
  -7   0   7   27.51    2.86
  -6   0   7   28.85    2.89
  -5   0   7   31.09    2.90
  -4   0   7   23.01    1.65
  -3   0   7   18.77    1.78
  -2   0   7   88.03    3.43
  -1   0   7   58.19    3.75
   0   0   7    0.16    0.37
   1   0   7   53.21    3.74
   2   0   7   85.83    5.09
   3   0   7   14.49    2.30
   4   0   7   30.87    2.88
   5   0   7   28.62    2.83
   6   0   7   26.70    2.79
   7   0   7   27.05    2.81
  -8   1   7    7.10    1.66
  -7   1   7  109.19    6.22
  -6   1   7   34.28    3.13
  -5   1   7  102.64    5.70
  -4   1   7    0.82    0.37
  -3   1   7    0.14    0.26
  -2   1   7   23.89    2.34
  -1   1   7   50.48    3.54
   0   1   7   51.87    3.64
   1   1   7   21.39    2.35
   2   1   7   11.71    2.07
   3   1   7  194.08    8.51
   4   1   7   13.69    2.28
   5   1   7    7.46    1.74
   6   1   7   14.94    2.50
   7   1   7  109.54    6.23
  -8   2   7   17.74    2.74
  -7   2   7    3.54    1.19
  -6   2   7    3.85    1.23
  -5   2   7    5.23    1.41
  -4   2   7    2.85    0.70
  -3   2   7    8.89    1.18
  -2   2   7   91.76    4.93
  -1   2   7   25.79    2.51
   0   2   7   88.79    5.03
   1   2   7    0.18    0.46
   2   2   7    2.15    0.99
   3   2   7   85.19    5.10
   4   2   7   21.53    2.96
   5   2   7    9.17    2.00
   6   2   7   19.04    2.90
   7   2   7    4.98    1.52
  -9   3   7   26.28    3.81
  -8   3   7    2.69    1.11
  -7   3   7    0.45    0.68
  -6   3   7  118.26    6.05
  -5   3   7   80.32    3.26
  -4   3   7  193.21    5.66
  -3   3   7   18.10    2.41
  -2   3   7    1.71    0.83
  -1   3   7    8.67    1.77
   0   3   7   13.16    2.21
   1   3   7    1.31    0.79
   2   3   7    8.91    1.93
   3   3   7  112.58    6.19
   4   3   7   23.37    3.20
   5   3   7  101.50    6.06
   6   3   7    0.86    0.86
  -9   4   7   86.09    5.19
  -8   4   7   27.84    2.83
  -7   4   7   23.40    3.05
  -6   4   7   15.87    2.35
  -5   4   7    9.60    1.22
  -4   4   7   29.96    2.63
  -3   4   7    1.20    0.73
  -2   4   7    2.97    1.05
  -1   4   7  179.24    8.12
   0   4   7   25.65    2.65
   1   4   7  100.61    5.84
   2   4   7    7.11    1.75
   3   4   7    1.18    0.79
   4   4   7   29.61    3.08
   5   4   7   12.95    2.47
  -9   5   7   13.69    2.29
  -8   5   7  112.56    5.96
  -7   5   7    9.56    1.92
  -6   5   7    5.43    1.39
  -5   5   7   28.60    2.60
  -4   5   7   98.89    5.48
  -3   5   7    4.89    1.27
  -2   5   7   80.67    4.88
  -1   5   7   12.40    2.19
   0   5   7   27.61    2.85
   1   5   7   33.94    3.23
   2   5   7    3.92    1.31
   3   5   7    1.48    0.91
   4   5   7   86.73    5.58
  -9   6   7    1.07    0.74
  -8   6   7   21.81    2.37
  -6   6   7   27.03    2.55
  -5   6   7   37.25    3.05
  -4   6   7    6.09    1.55
  -3   6   7  112.15    5.90
  -2   6   7   16.21    2.49
  -1   6   7    8.10    1.76
   0   6   7   20.19    2.90
   1   6   7  110.09    6.38
   2   6   7   17.84    2.88
   3   6   7   27.22    4.46
  -6   7   7  110.33    5.88
  -5   7   7    2.95    1.10
  -4   7   7    1.60    0.85
  -3   7   7   21.53    2.93
  -2   7   7    8.93    1.92
  -1   7   7   16.76    2.69
   0   7   7   20.12    2.95
   1   7   7    7.85    1.92
  -6   8   7   17.61    2.50
  -5   8   7    2.39    1.05
  -4   8   7   28.31    2.88
  -3   8   7  111.66    6.26
  -2   8   7   19.98    2.93
  -1   8   7  112.19    6.62
  -6   9   7   22.40    3.16
  -5   9   7   80.20    5.20
  -4   9   7    7.89    2.10
  -1  -5   8    3.22    0.84
   0  -5   8    3.39    0.78
   1  -5   8   14.42    2.38
   2  -5   8   12.90    2.35
   3  -5   8    0.28    0.65
   4  -5   8   56.40    4.36
  -2  -4   8    0.77    0.49
  -1  -4   8   52.78    2.77
   0  -4   8    9.72    1.98
   1  -4   8   16.24    2.62
   2  -4   8   52.82    4.09
   3  -4   8  109.16    6.37
   4  -4   8   12.49    2.34
   5  -4   8    9.30    2.05
  -3  -3   8   54.04    4.72
  -2  -3   8    0.94    0.51
  -1  -3   8  111.33    4.32
   0  -3   8   17.00    2.62
   1  -3   8    1.97    1.03
   2  -3   8   80.10    5.07
   3  -3   8   12.04    2.24
   4  -3   8   18.33    2.78
   5  -3   8   13.15    2.47
   6  -3   8   50.17    6.74
  -3  -2   8    9.69    2.00
  -2  -2   8   51.34    2.73
  -1  -2   8   74.35    4.70
   0  -2   8    9.60    1.90
   1  -2   8   44.85    3.71
   2  -2   8   10.93    2.15
   3  -2   8    2.40    1.12
   4  -2   8   52.49    4.18
   5  -2   8    0.35    0.58
   6  -2   8    0.96    1.05
  -4  -1   8   10.13    2.15
  -3  -1   8   17.39    1.82
  -2  -1   8    1.68    0.63
  -1  -1   8   45.18    3.58
   0  -1   8    5.83    1.46
   1  -1   8    6.63    1.64
   2  -1   8   45.68    3.84
   3  -1   8   72.07    4.95
   4  -1   8  116.55    6.61
   5  -1   8   53.44    4.23
  -4   0   8   12.22    2.21
  -3   0   8   14.68    1.67
  -2   0   8    7.62    1.62
  -1   0   8    4.79    1.35
   0   0   8  255.53   10.66
   1   0   8    3.21    1.20
   2   0   8   12.94    2.30
   3   0   8   15.86    2.62
   4   0   8    9.66    2.12
   5   0   8    4.30    1.49
  -5   1   8   49.79    3.96
  -4   1   8  115.84    4.47
  -3   1   8   79.09    4.73
  -2   1   8   55.01    3.94
  -1   1   8    5.70    1.54
   0   1   8    4.77    1.44
   1   1   8   45.30    3.83
   2   1   8    1.10    0.84
   3   1   8   16.30    2.72
   4   1   8    9.94    2.07
  -5   2   8    0.50    0.61
  -4   2   8   53.08    3.79
  -3   2   8    1.89    0.90
  -2   2   8   11.62    2.09
  -1   2   8   47.32    3.75
   0   2   8   10.02    2.03
   1   2   8   71.32    4.86
   2   2   8   47.76    4.00
   3   2   8   11.96    2.38
  -6   3   8   47.47    6.38
  -4   3   8   19.31    2.70
  -3   3   8   18.31    2.76
  -2   3   8   76.14    4.87
  -1   3   8    0.86    0.70
   0   3   8   17.66    2.76
   1   3   8  112.66    6.54
   2   3   8    0.22    0.63
  -5   4   8   13.34    2.19
  -4   4   8   11.85    2.14
  -3   4   8  118.69    6.34
  -2   4   8   50.37    3.99
  -1   4   8   20.55    2.94
   0   4   8   11.77    2.30
   1   4   8   55.96    4.36
  -5   5   8    5.90    1.50
  -4   5   8   51.28    3.92
  -3   5   8    0.59    0.71
  -2   5   8   12.32    2.30
  -1   5   8   11.31    2.31
  -5   6   8    2.81    1.13
  -4   6   8    0.15    0.64
  -3   6   8   47.53    3.93
   0   0   0    0.00    0.00
;
_shelx_hkl_checksum              72970
loop_
_space_group_symop_operation_xyz
'x, y, z'
'-y, x-y, z'
'-x+y, -x, z'
'-x, -y, z+1/2'
'y, -x+y, z+1/2'
'x-y, x, z+1/2'
loop_
_atom_site_label
_atom_site_type_symbol
_atom_site_fract_x
_atom_site_fract_y
_atom_site_fract_z
_atom_site_U_iso_or_equiv
_atom_site_adp_type
_atom_site_occupancy
_atom_site_site_symmetry_order
_atom_site_calc_flag
_atom_site_refinement_flags_posn
_atom_site_refinement_flags_adp
_atom_site_refinement_flags_occupancy
_atom_site_disorder_assembly
_atom_site_disorder_group
Nd Nd 0.12870(2) 0.35583(2) 0.01764(8) 0.00860(6) Uani 1 1 d . . . . .
NiA Ni 0.0000 0.0000 0.2490(5) 0.0094(4) Uani 0.474(2) 3 d S T P . .
NiB Ni 0.0000 0.0000 -0.002(8) 0.0094(4) Uani 0.026(2) 3 d S T P . .
Ge Ge 0.3333 0.6667 0.59932(13) 0.00835(14) Uani 1 3 d S T P . .
S1 S 0.24320(10) 0.15487(10) 0.0000(3) 0.01269(18) Uani 1 1 d . . . . .
S2 S 0.51982(11) 0.10186(11) 0.25117(18) 0.00949(17) Uani 1 1 d . . . . .
S3 S 0.3333 0.6667 0.2227(3) 0.0096(3) Uani 1 3 d S T P . .
loop_
_atom_site_aniso_label
_atom_site_aniso_U_11
_atom_site_aniso_U_22
_atom_site_aniso_U_33
_atom_site_aniso_U_23
_atom_site_aniso_U_13
_atom_site_aniso_U_12
Nd 0.00906(9) 0.00734(8) 0.00932(9) 0.00064(11) 0.00076(11) 0.00405(6)
NiA 0.0078(4) 0.0078(4) 0.0126(9) 0.000 0.000 0.0039(2)
NiB 0.0078(4) 0.0078(4) 0.0126(9) 0.000 0.000 0.0039(2)
Ge 0.00930(19) 0.00930(19) 0.0065(3) 0.000 0.000 0.00465(9)
S1 0.0113(4) 0.0095(3) 0.0188(5) 0.0027(5) 0.0009(5) 0.0064(3)
S2 0.0089(4) 0.0093(4) 0.0096(4) 0.0000(3) -0.0010(3) 0.0040(3)
S3 0.0112(4) 0.0112(4) 0.0064(7) 0.000 0.000 0.0056(2)
loop_
_atom_type_symbol
_atom_type_description
_atom_type_scat_dispersion_real
_atom_type_scat_dispersion_imag
_atom_type_scat_source
S S 0.1246 0.1234 'International Tables Vol C Tables 4.2.6.8 and 6.1.1.4'
Ni Ni 0.3393 1.1124 'International Tables Vol C Tables 4.2.6.8 and 6.1.1.4'
Ge Ge 0.1547 1.8001 'International Tables Vol C Tables 4.2.6.8 and 6.1.1.4'
Nd Nd -0.1943 3.0179 'International Tables Vol C Tables 4.2.6.8 and 6.1.1.4'
loop_
_geom_angle_atom_site_label_1
_geom_angle_atom_site_label_2
_geom_angle_atom_site_label_3
_geom_angle
_geom_angle_site_symmetry_1
_geom_angle_site_symmetry_3
S1 Nd S1 83.83(4) 2 .
S1 Nd S2 106.91(3) 2 5_564
S1 Nd S2 142.60(4) . 5_564
S1 Nd S1 77.56(3) 2 6
S1 Nd S1 77.45(3) . 6
S2 Nd S1 139.38(3) 5_564 6
S1 Nd S2 140.30(4) 2 6_554
S1 Nd S2 74.76(3) . 6_554
S2 Nd S2 74.75(4) 5_564 6_554
S1 Nd S2 127.63(3) 6 6_554
S1 Nd S3 149.64(3) 2 .
S1 Nd S3 117.03(2) . .
S2 Nd S3 70.73(3) 5_564 .
S1 Nd S3 85.49(4) 6 .
S2 Nd S3 69.54(3) 6_554 .
S1 Nd S2 72.07(3) 2 2
S1 Nd S2 144.11(4) . 2
S2 Nd S2 71.628(17) 5_564 2
S1 Nd S2 71.75(3) 6 2
S2 Nd S2 139.71(3) 6_554 2
S3 Nd S2 78.80(2) . 2
S1 Nd S1 74.38(3) 2 6_554
S1 Nd S1 74.29(3) . 6_554
S2 Nd S1 74.51(3) 5_564 6_554
S1 Nd S1 141.81(3) 6 6_554
S2 Nd S1 67.87(3) 6_554 6_554
S3 Nd S1 130.37(4) . 6_554
S2 Nd S1 121.68(3) 2 6_554
S1 Nd NiB 41.94(2) 2 .
S1 Nd NiB 41.91(2) . .
S2 Nd NiB 137.5(7) 5_564 .
S1 Nd NiB 72.3(9) 6 .
S2 Nd NiB 110.3(5) 6_554 .
S3 Nd NiB 151.7(7) . .
S2 Nd NiB 109.4(4) 2 .
S1 Nd NiB 69.5(9) 6_554 .
S1 Nd NiA 47.94(3) 2 .
S1 Nd NiA 47.91(3) . .
S2 Nd NiA 154.84(3) 5_564 .
S1 Nd NiA 47.32(5) 6 .
S2 Nd NiA 122.64(3) 6_554 .
S3 Nd NiA 130.13(5) . .
S2 Nd NiA 96.70(3) 2 .
S1 Nd NiA 94.50(5) 6_554 .
NiB Nd NiA 25.0(9) . .
S1 Nd NiA 46.94(3) 2 4_554
S1 Nd NiA 46.91(3) . 4_554
S2 Nd NiA 116.27(5) 5_564 4_554
S1 Nd NiA 96.49(5) 6 4_554
S2 Nd NiA 95.71(3) 6_554 4_554
S3 Nd NiA 162.104(11) . 4_554
S2 Nd NiA 118.76(2) 2 4_554
S1 Nd NiA 45.32(5) 6_554 4_554
NiB Nd NiA 24.2(9) . 4_554
NiA Nd NiA 49.174(4) . 4_554
NiB NiA NiB 180.000(12) 4 .
NiB NiA S1 123.72(6) 4 3
NiB NiA S1 56.28(6) . 3
NiB NiA S1 123.72(6) 4 2
NiB NiA S1 56.28(6) . 2
S1 NiA S1 92.16(9) 3 2
NiB NiA S1 123.72(6) 4 .
NiB NiA S1 56.28(6) . .
S1 NiA S1 92.16(9) 3 .
S1 NiA S1 92.16(9) 2 .
NiB NiA S1 56.06(6) 4 6
NiB NiA S1 123.94(6) . 6
S1 NiA S1 179.78(12) 3 6
S1 NiA S1 87.994(15) 2 6
S1 NiA S1 87.994(15) . 6
NiB NiA S1 56.06(6) 4 5
NiB NiA S1 123.94(6) . 5
S1 NiA S1 87.994(15) 3 5
S1 NiA S1 179.78(12) 2 5
S1 NiA S1 87.995(15) . 5
S1 NiA S1 91.85(9) 6 5
NiB NiA S1 56.06(6) 4 4
NiB NiA S1 123.94(6) . 4
S1 NiA S1 87.994(15) 3 4
S1 NiA S1 87.994(15) 2 4
S1 NiA S1 179.78(12) . 4
S1 NiA S1 91.85(9) 6 4
S1 NiA S1 91.85(9) 5 4
NiB NiA NiA 180.0 4 4_554
NiB NiA NiA 0.0 . 4_554
S1 NiA NiA 56.28(6) 3 4_554
S1 NiA NiA 56.28(6) 2 4_554
S1 NiA NiA 56.28(6) . 4_554
S1 NiA NiA 123.94(6) 6 4_554
S1 NiA NiA 123.94(6) 5 4_554
S1 NiA NiA 123.94(6) 4 4_554
NiB NiA NiA 0.000(7) 4 4
NiB NiA NiA 180.0 . 4
S1 NiA NiA 123.72(6) 3 4
S1 NiA NiA 123.72(6) 2 4
S1 NiA NiA 123.72(6) . 4
S1 NiA NiA 56.06(6) 6 4
S1 NiA NiA 56.06(6) 5 4
S1 NiA NiA 56.06(6) 4 4
NiA NiA NiA 180.0 4_554 4
NiB NiA Nd 112.97(5) 4 .
NiB NiA Nd 67.03(5) . .
S1 NiA Nd 123.31(11) 3 .
S1 NiA Nd 53.08(3) 2 .
S1 NiA Nd 53.25(3) . .
S1 NiA Nd 56.91(3) 6 .
S1 NiA Nd 126.94(2) 5 .
S1 NiA Nd 126.77(3) 4 .
NiA NiA Nd 67.03(5) 4_554 .
NiA NiA Nd 112.97(5) 4 .
NiB NiA Nd 112.97(5) 4 2
NiB NiA Nd 67.03(5) . 2
S1 NiA Nd 53.08(3) 3 2
S1 NiA Nd 53.25(3) 2 2
S1 NiA Nd 123.31(11) . 2
S1 NiA Nd 126.94(2) 6 2
S1 NiA Nd 126.77(3) 5 2
S1 NiA Nd 56.91(3) 4 2
NiA NiA Nd 67.03(5) 4_554 2
NiA NiA Nd 112.97(5) 4 2
Nd NiA Nd 105.76(5) . 2
NiA NiB NiA 180.0 4_554 .
NiA NiB S1 90.3(13) 4_554 3
NiA NiB S1 89.7(13) . 3
NiA NiB S1 90.3(13) 4_554 2
NiA NiB S1 89.7(13) . 2
S1 NiB S1 120.00(2) 3 2
NiA NiB S1 90.3(13) 4_554 .
NiA NiB S1 89.7(13) . .
S1 NiB S1 120.00(2) 3 .
S1 NiB S1 120.00(2) 2 .
NiA NiB NiB 0.0 4_554 4_554
NiA NiB NiB 180.0 . 4_554
S1 NiB NiB 90.3(13) 3 4_554
S1 NiB NiB 90.3(13) 2 4_554
S1 NiB NiB 90.3(13) . 4_554
NiA NiB NiB 180.0 4_554 4
NiA NiB NiB 0.0 . 4
S1 NiB NiB 89.7(13) 3 4
S1 NiB NiB 89.7(13) 2 4
S1 NiB NiB 89.7(13) . 4
NiB NiB NiB 180.0 4_554 4
NiA NiB Nd 92.0(9) 4_554 .
NiA NiB Nd 88.0(9) . .
S1 NiB Nd 178(2) 3 .
S1 NiB Nd 59.91(4) 2 .
S1 NiB Nd 60.11(4) . .
NiB NiB Nd 92.0(9) 4_554 .
NiB NiB Nd 88.0(9) 4 .
NiA NiB Nd 92.0(9) 4_554 2
NiA NiB Nd 88.0(9) . 2
S1 NiB Nd 59.91(4) 3 2
S1 NiB Nd 60.11(4) 2 2
S1 NiB Nd 178(2) . 2
NiB NiB Nd 92.0(9) 4_554 2
NiB NiB Nd 88.0(9) 4 2
Nd NiB Nd 119.88(11) . 2
NiA NiB Nd 92.0(9) 4_554 3
NiA NiB Nd 88.0(9) . 3
S1 NiB Nd 60.11(4) 3 3
S1 NiB Nd 178(2) 2 3
S1 NiB Nd 59.91(4) . 3
NiB NiB Nd 92.0(9) 4_554 3
NiB NiB Nd 88.0(9) 4 3
Nd NiB Nd 119.88(11) . 3
Nd NiB Nd 119.88(11) 2 3
S3 Ge S2 113.17(3) . 4_665
S3 Ge S2 113.17(3) . 5_565
S2 Ge S2 105.53(4) 4_665 5_565
S3 Ge S2 113.17(3) . 6
S2 Ge S2 105.53(4) 4_665 6
S2 Ge S2 105.53(4) 5_565 6
NiB S1 NiA 34.0(13) . .
NiB S1 NiA 33.7(13) . 4_554
NiA S1 NiA 67.67(2) . 4_554
NiB S1 Nd 78.15(6) . 3
NiA S1 Nd 78.98(3) . 3
NiA S1 Nd 81.37(3) 4_554 3
NiB S1 Nd 77.99(6) . .
NiA S1 Nd 78.84(3) . .
NiA S1 Nd 81.23(3) 4_554 .
Nd S1 Nd 155.74(4) 3 .
NiB S1 Nd 109.5(13) . 5_554
NiA S1 Nd 143.44(7) . 5_554
NiA S1 Nd 75.77(7) 4_554 5_554
Nd S1 Nd 96.06(4) 3 5_554
Nd S1 Nd 95.90(4) . 5_554
NiB S1 Nd 108.7(13) . 5
NiA S1 Nd 74.75(7) . 5
NiA S1 Nd 142.41(7) 4_554 5
Nd S1 Nd 91.84(4) 3 5
Nd S1 Nd 91.71(4) . 5
Nd S1 Nd 141.81(3) 5_554 5
Ge S2 Nd 91.01(3) 4_664 6_655
Ge S2 Nd 88.70(3) 4_664 5
Nd S2 Nd 109.96(4) 6_655 5
Ge S2 Nd 121.02(4) 4_664 3
Nd S2 Nd 142.50(4) 6_655 3
Nd S2 Nd 91.17(3) 5 3
Ge S3 Nd 113.19(3) . 3_565
Ge S3 Nd 113.19(3) . 2_665
Nd S3 Nd 105.51(4) 3_565 2_665
Ge S3 Nd 113.19(3) . .
Nd S3 Nd 105.51(4) 3_565 .
Nd S3 Nd 105.51(4) 2_665 .
loop_
_geom_bond_atom_site_label_1
_geom_bond_atom_site_label_2
_geom_bond_distance
_geom_bond_site_symmetry_2
Nd S1 2.7817(9) 2
Nd S1 2.7889(9) .
Nd S2 2.8707(10) 5_564
Nd S1 2.9517(15) 6
Nd S2 2.9607(11) 6_554
Nd S3 2.9997(7) .
Nd S2 3.0087(10) 2
Nd S1 3.1438(15) 6_554
Nd NiB 3.1463(17) .
Nd NiA 3.4150(12) .
Nd NiA 3.5047(14) 4_554
NiA NiB 1.44(5) 4
NiA NiB 1.44(5) .
NiA S1 2.583(2) 3
NiA S1 2.583(2) 2
NiA S1 2.583(2) .
NiA S1 2.590(2) 6
NiA S1 2.590(2) 5
NiA S1 2.590(2) 4
NiA NiA 2.88023(10) 4_554
NiA NiA 2.88027(10) 4
NiA Nd 3.4151(12) 2
NiB NiA 1.44(5) 4_554
NiB S1 2.1485(9) 3
NiB S1 2.1485(9) 2
NiB S1 2.1485(9) .
NiB NiB 2.88024(10) 4_554
NiB NiB 2.88026(10) 4
NiB Nd 3.1464(17) 2
NiB Nd 3.1464(17) 3
Ge S3 2.1695(18) .
Ge S2 2.2234(10) 4_665
Ge S2 2.2234(10) 5_565
Ge S2 2.2234(10) 6
S1 NiA 2.590(2) 4_554
S1 Nd 2.7817(9) 3
S1 Nd 2.9517(15) 5_554
S1 Nd 3.1438(15) 5
S2 Ge 2.2234(10) 4_664
S2 Nd 2.8707(10) 6_655
S2 Nd 2.9606(11) 5
S2 Nd 3.0087(10) 3
S3 Nd 2.9997(7) 3_565
S3 Nd 2.9997(7) 2_665
