#------------------------------------------------------------------------------
#$Date: 2021-02-18 11:59:58 +0200 (Thu, 18 Feb 2021) $
#$Revision: 262060 $
#$URL: file:///home/coder/svn-repositories/cod/cif/1/56/04/1560465.cif $
#------------------------------------------------------------------------------
#
# This file is available in the Crystallography Open Database (COD),
# http://www.crystallography.net/
#
# All data on this site have been placed in the public domain by the
# contributors.
#
data_1560465
loop_
_publ_author_name
'Iyer, Abishek K.'
'Yin, Wenlong'
'Lee, Emma J.'
'Lin, Xinsong'
'Mar, Arthur'
_publ_section_title
;
 Quaternary rare-earth sulfides RE 3 M 0.5 GeS 7 (RE=La--Nd, Sm; M=Co, Ni)
 and Y 3 Pd 0.5 SiS 7
;
_journal_name_full               'Journal of Solid State Chemistry'
_journal_page_first              14
_journal_page_last               23
_journal_paper_doi               10.1016/j.jssc.2017.03.009
_journal_volume                  250
_journal_year                    2017
_chemical_absolute_configuration ad
_chemical_formula_structural     'Nd3 Co0.50 Ge S7'
_chemical_formula_sum            'Co0.5 Ge Nd3 S7'
_chemical_formula_weight         759.20
_chemical_name_common
'neodymium cobalt germanium sulfide (3/0.5/1/7)'
_chemical_name_systematic
'neodymium cobalt germanium sulfide (3/0.5/1/7)'
_space_group_crystal_system      hexagonal
_space_group_IT_number           173
_space_group_name_Hall           'P 6c'
_space_group_name_H-M_alt        'P 63'
_atom_sites_solution_hydrogens   .
_cell_angle_alpha                90
_cell_angle_beta                 90
_cell_angle_gamma                120
_cell_formula_units_Z            2
_cell_length_a                   10.0775(6)
_cell_length_b                   10.0775(6)
_cell_length_c                   5.7704(3)
_cell_measurement_reflns_used    5093
_cell_measurement_temperature    296(2)
_cell_measurement_theta_max      32.84
_cell_measurement_theta_min      2.33
_cell_volume                     507.51(5)
_computing_cell_refinement       'Bruker SAINT 8.34A (Bruker, 2013)'
_computing_data_collection       'Bruker APEX 2 (Bruker, 2008)'
_computing_data_reduction        'Bruker SAINT 8.34A'
_computing_molecular_graphics    'ATOMS 5.1 (Dowty, 1999)'
_computing_publication_material  'SHELXL-2014/7 (Sheldrick, 2014)'
_computing_structure_refinement  'SHELXL-2014/7 (Sheldrick, 2014)'
_computing_structure_solution    'SHELXS-97 (Sheldrick, 2008)'
_diffrn_ambient_temperature      296(2)
_diffrn_measured_fraction_theta_full 1.000
_diffrn_measured_fraction_theta_max 1.000
_diffrn_measurement_device_type  'Bruker PLATFORM/SMART APEX II CCD'
_diffrn_measurement_method       '\w and \f scans'
_diffrn_radiation_type           MoK\a
_diffrn_radiation_wavelength     0.71073
_diffrn_reflns_av_R_equivalents  0.0340
_diffrn_reflns_av_unetI/netI     0.0222
_diffrn_reflns_Laue_measured_fraction_full 1.000
_diffrn_reflns_Laue_measured_fraction_max 1.000
_diffrn_reflns_limit_h_max       15
_diffrn_reflns_limit_h_min       -15
_diffrn_reflns_limit_k_max       15
_diffrn_reflns_limit_k_min       -15
_diffrn_reflns_limit_l_max       8
_diffrn_reflns_limit_l_min       -8
_diffrn_reflns_number            7304
_diffrn_reflns_point_group_measured_fraction_full 1.000
_diffrn_reflns_point_group_measured_fraction_max 1.000
_diffrn_reflns_theta_full        25.242
_diffrn_reflns_theta_max         33.175
_diffrn_reflns_theta_min         2.334
_diffrn_source                   'fine-focus sealed tube'
_exptl_absorpt_coefficient_mu    20.181
_exptl_absorpt_correction_T_max  0.578
_exptl_absorpt_correction_T_min  0.395
_exptl_absorpt_correction_type   numerical
_exptl_absorpt_process_details   'SHELXL-2014/7 (Sheldrick, 2014)'
_exptl_crystal_colour            grey
_exptl_crystal_density_diffrn    4.968
_exptl_crystal_description       irregular
_exptl_crystal_F_000             675
_exptl_crystal_size_max          0.061
_exptl_crystal_size_mid          0.050
_exptl_crystal_size_min          0.042
_refine_diff_density_max         2.132
_refine_diff_density_min         -1.339
_refine_diff_density_rms         0.220
_refine_ls_abs_structure_details
;
 Refined as an inversion twin.
;
_refine_ls_abs_structure_Flack   0.00(3)
_refine_ls_extinction_coef       .
_refine_ls_extinction_method     none
_refine_ls_goodness_of_fit_ref   1.107
_refine_ls_hydrogen_treatment    undef
_refine_ls_matrix_type           full
_refine_ls_number_parameters     38
_refine_ls_number_reflns         1295
_refine_ls_number_restraints     1
_refine_ls_restrained_S_all      1.106
_refine_ls_R_factor_all          0.0224
_refine_ls_R_factor_gt           0.0206
_refine_ls_shift/su_max          0.000
_refine_ls_shift/su_mean         0.000
_refine_ls_structure_factor_coef Fsqd
_refine_ls_weighting_details
'w=1/[\s^2^(Fo^2^)+(0.0169P)^2^+1.3308P] where P=(Fo^2^+2Fc^2^)/3'
_refine_ls_weighting_scheme      calc
_refine_ls_wR_factor_gt          0.0429
_refine_ls_wR_factor_ref         0.0435
_reflns_Friedel_coverage         0.846
_reflns_Friedel_fraction_full    1.000
_reflns_Friedel_fraction_max     1.000
_reflns_number_gt                1235
_reflns_number_total             1295
_reflns_threshold_expression     'I > 2\s(I)'
_cod_data_source_file            mmc15.cif
_cod_data_source_block           4
_cod_original_cell_volume        507.51(7)
_cod_original_formula_sum        'Co0.50 Ge Nd3 S7'
_cod_database_code               1560465
_shelx_space_group_comment
;
The symmetry employed for this shelxl refinement is uniquely defined
by the following loop, which should always be used as a source of
symmetry information in preference to the above space-group names.
They are only intended as comments.
;
_shelx_estimated_absorpt_t_min   0.372
_shelx_estimated_absorpt_t_max   0.484
_shelx_res_file
;

    p63.res created by SHELXL-2014/7

TITL Nd3Co0.5GeS7 P6(3) lsf final refinement
CELL 0.71073  10.07750  10.07750   5.77040  90.0000  90.0000 120.0000
ZERR    2.00   0.00060   0.00060   0.00030   0.0000   0.0000   0.0000
LATT -1
SYMM -Y, X-Y, Z
SYMM -X+Y, -X, Z
SYMM -X, -Y, 0.5+Z
SYMM Y, -X+Y, 0.5+Z
SYMM X-Y, X, 0.5+Z
SFAC S CO GE ND
UNIT 14 1 2 6
TEMP 23
SIZE 0.042 0.05 0.061

L.S. 4
ACTA

TWIN

WGHT    0.016900    1.330800
BASF   0.00213
FVAR       0.10686
ND    4    0.129891    0.357395    0.480022    11.00000    0.01017    0.00899 =
         0.01134   -0.00054   -0.00068    0.00499
CO    2    0.000000    0.000000    0.249269    10.16667    0.00640    0.00640 =
         0.01524    0.00000    0.00000    0.00320
GE    3    0.333333    0.666667    0.898308    10.33333    0.01060    0.01060 =
         0.00793    0.00000    0.00000    0.00530
S1    1    0.244482    0.155198    0.500000    11.00000    0.01256    0.01031 =
         0.01953   -0.00241   -0.00119    0.00696
S2    1    0.519857    0.101577    0.246341    11.00000    0.00956    0.01017 =
         0.01068   -0.00026    0.00108    0.00425
S3    1    0.333333    0.666667    0.274836    10.33333    0.01188    0.01188 =
         0.00882    0.00000    0.00000    0.00594
HKLF 4

REM  Nd3Co0.5GeS7 P6(3) lsf final refinement
REM R1 =  0.0206 for    1235 Fo > 4sig(Fo)  and  0.0224 for all    1295 data
REM     38 parameters refined using      1 restraints

END

WGHT      0.0169      1.3309

REM Highest difference peak  2.132,  deepest hole -1.339,  1-sigma level  0.220
Q1    1   0.2846  0.5436  0.9809  11.00000  0.05    2.13
Q2    1   0.0000  0.0000  0.4789  10.33333  0.05    2.01
Q3    1   0.3333  0.6667  1.0662  10.33333  0.05    1.53
Q4    1   0.3154  0.3838  0.4820  11.00000  0.05    1.10
Q5    1   0.4835 -0.0994  0.2029  11.00000  0.05    0.84
Q6    1   0.4638  0.0205  0.3941  11.00000  0.05    0.83
Q7    1   0.1354  0.4574  0.4774  11.00000  0.05    0.75
Q8    1   0.3647  0.6233  0.7676  11.00000  0.05    0.68
Q9    1   0.5824  0.0979  0.4816  11.00000  0.05    0.64
Q10   1   0.0822  0.2358  0.3877  11.00000  0.05    0.62
Q11   1   0.4610  0.0053 -0.0196  11.00000  0.05    0.62
Q12   1   0.4277  0.1911  0.5003  11.00000  0.05    0.61
Q13   1   0.3795  0.7647  0.4772  11.00000  0.05    0.61
Q14   1   0.5820  0.1125 -0.0182  11.00000  0.05    0.60
Q15   1   0.1642  0.0024  0.5532  11.00000  0.05    0.59
Q16   1   0.0258  0.2627  0.5051  11.00000  0.05    0.59
Q17   1   0.1821  0.0844  0.5221  11.00000  0.05    0.59
Q18   1   0.3118  0.3222  0.6229  11.00000  0.05    0.58
Q19   1   0.1707  0.4200  0.5791  11.00000  0.05    0.56
Q20   1   0.2874  0.2565  0.4867  11.00000  0.05    0.56
;
_shelx_res_checksum              94978
_shelx_hkl_file
;
   2  -6  -8    2.43    1.51
   3  -6  -8   33.94    4.61
   4  -6  -8    1.63    1.21
   1  -5  -8   10.26    2.53
   2  -5  -8    9.12    2.37
   3  -5  -8    0.19    0.91
   4  -5  -8   37.47    5.05
   5  -5  -8    4.12    1.74
   0  -4  -8    7.10    2.10
   1  -4  -8   13.48    2.73
   2  -4  -8   38.28    4.86
   3  -4  -8   71.39    5.75
   4  -4  -8    9.80    2.58
   5  -4  -8    4.37    1.78
  -3  -3  -8   41.19    6.91
  -1  -3  -8   79.00    5.82
   0  -3  -8   13.49    2.92
   1  -3  -8    2.74    1.41
   2  -3  -8   56.98    4.99
   3  -3  -8   11.35    2.73
   4  -3  -8    9.12    2.36
   5  -3  -8    6.94    2.21
  -4  -2  -8    2.94    1.47
  -2  -2  -8   27.41    3.94
  -1  -2  -8   59.99    4.99
   0  -2  -8    5.26    1.86
   2  -2  -8    7.45    2.19
   3  -2  -8    0.97    1.04
   4  -2  -8   27.89    3.99
   5  -2  -8   -0.47    0.65
  -5  -1  -8  109.92    7.38
  -4  -1  -8    8.62    2.48
  -3  -1  -8    9.07    2.31
  -2  -1  -8    1.90    1.19
  -1  -1  -8   37.28    4.62
   0  -1  -8    2.94    1.49
   1  -1  -8    1.37    1.21
   2  -1  -8   33.65    4.43
   3  -1  -8   54.88    4.93
   4  -1  -8   74.66    5.82
   5  -1  -8   32.88    4.50
  -5   0  -8    2.74    1.44
  -4   0  -8    7.96    1.60
  -3   0  -8   13.96    2.89
  -2   0  -8    6.66    2.01
  -1   0  -8    2.18    1.34
   0   0  -8  192.39    9.53
   1   0  -8    5.18    1.78
   2   0  -8    5.71    1.95
   3   0  -8   11.52    2.66
   4   0  -8    9.63    2.49
   5   0  -8    2.92    1.34
  -6   1  -8    1.49    1.44
  -5   1  -8   42.84    3.31
  -4   1  -8   69.54    3.93
  -3   1  -8   54.23    4.84
  -2   1  -8   33.22    4.27
  -1   1  -8    1.32    1.09
   0   1  -8    2.04    1.21
   1   1  -8   33.03    4.40
   2   1  -8   -0.20    0.88
   3   1  -8   11.49    2.62
   4   1  -8    3.55    1.58
  -6   2  -8    0.40    0.75
  -5   2  -8    0.12    0.73
  -4   2  -8   33.01    3.08
  -3   2  -8    1.03    1.05
  -2   2  -8    8.68    2.33
  -1   2  -8   36.44    4.52
   0   2  -8    5.95    1.92
   1   2  -8   52.48    4.68
   2   2  -8   34.16    4.47
   3   2  -8    8.54    2.34
   4   2  -8    2.14    1.31
  -6   3  -8   31.38    3.08
  -5   3  -8    8.69    1.63
  -4   3  -8   13.39    2.01
  -3   3  -8   12.14    2.68
  -2   3  -8   65.36    5.28
  -1   3  -8    0.86    0.95
   0   3  -8    7.69    2.12
   1   3  -8   78.94    5.86
   2   3  -8   -0.73    0.76
   3   3  -8   31.38    4.27
  -6   4  -8    1.76    0.97
  -5   4  -8    6.21    1.48
  -4   4  -8    6.60    1.44
  -3   4  -8   67.59    5.54
  -2   4  -8   30.93    4.22
  -1   4  -8   10.37    2.48
   0   4  -8   11.29    2.59
   1   4  -8   32.67    4.35
   2   4  -8    0.14    0.91
  -6   5  -8   98.68    6.99
  -5   5  -8    2.97    1.06
  -4   5  -8   36.63    4.67
  -3   5  -8    0.32    0.93
  -2   5  -8    7.56    2.26
  -1   5  -8    7.63    2.22
   0   5  -8    3.27    1.62
  -5   6  -8    3.64    1.73
   5  -9  -7   61.67    5.45
   6  -9  -7   22.09    3.85
   4  -8  -7   14.18    2.95
   5  -8  -7    0.06    0.85
   6  -8  -7   17.24    3.26
   7  -8  -7    3.26    1.54
  -2  -7  -7   33.92    4.82
  -1  -7  -7    4.40    1.71
   3  -7  -7   18.40    3.21
   4  -7  -7    1.18    1.17
   5  -7  -7    3.11    1.65
   6  -7  -7   78.95    6.03
   7  -7  -7   11.58    2.80
   8  -7  -7   72.71    5.87
  -3  -6  -7   20.46    3.79
  -2  -6  -7   13.53    2.97
  -1  -6  -7   86.71    5.93
   1  -6  -7    2.78    1.35
   2  -6  -7    8.58    2.16
   3  -6  -7   75.45    5.50
   4  -6  -7    3.54    1.54
   5  -6  -7   26.93    3.96
   6  -6  -7   23.90    3.86
   7  -6  -7   10.07    2.51
   8  -6  -7    9.89    2.66
  -4  -5  -7   59.87    5.41
  -3  -5  -7    1.74    1.17
  -2  -5  -7    1.71    1.30
  -1  -5  -7   22.58    3.47
   0  -5  -7   21.83    3.24
   1  -5  -7    9.01    2.15
   2  -5  -7   53.19    4.51
   3  -5  -7    1.97    1.23
   4  -5  -7   66.26    5.27
   5  -5  -7   23.71    3.61
   6  -5  -7    4.54    1.63
   7  -5  -7    5.12    1.79
   8  -5  -7   76.44    5.95
  -5  -4  -7    4.80    1.87
  -4  -4  -7   12.08    2.82
  -3  -4  -7    1.37    1.21
  -2  -4  -7    3.15    1.39
  -1  -4  -7   76.73    3.76
   0  -4  -7   13.12    2.59
   1  -4  -7  136.32    7.31
   2  -4  -7    2.01    1.07
   3  -4  -7    1.04    0.89
   4  -4  -7   17.41    3.05
   5  -4  -7    7.24    2.17
   6  -4  -7   17.50    3.20
   7  -4  -7   16.56    3.11
   8  -4  -7   14.84    3.05
  -5  -3  -7   76.40    6.03
  -4  -3  -7   19.00    3.52
  -3  -3  -7   82.53    5.77
  -2  -3  -7    2.54    0.87
  -1  -3  -7    1.06    0.67
   0  -3  -7   12.35    2.51
   1  -3  -7    5.54    1.62
   2  -3  -7   -0.19    0.61
   3  -3  -7   10.96    2.44
   4  -3  -7  140.52    7.53
   5  -3  -7   56.65    4.77
   6  -3  -7   85.09    5.94
   7  -3  -7   -0.16    0.73
   8  -3  -7    1.07    1.12
   9  -3  -7   14.02    2.98
  -6  -2  -7   11.45    2.72
  -5  -2  -7    6.44    2.08
  -4  -2  -7   11.89    2.63
  -3  -2  -7   60.73    3.30
  -2  -2  -7    1.44    0.75
  -1  -2  -7    0.05    0.54
   0  -2  -7   58.15    4.60
   1  -2  -7   19.99    3.19
   2  -2  -7   60.48    4.69
   3  -2  -7    9.84    2.41
   4  -2  -7    0.83    0.96
   5  -2  -7    4.69    1.69
   6  -2  -7    4.27    1.63
   7  -2  -7    2.98    1.48
   8  -2  -7   16.25    3.15
   9  -2  -7   25.19    4.52
  -7  -1  -7   70.80    6.02
  -6  -1  -7    8.33    2.40
  -5  -1  -7    2.66    1.45
  -4  -1  -7    8.69    1.55
  -3  -1  -7  132.62    5.08
  -2  -1  -7    8.33    1.38
  -1  -1  -7   20.40    3.28
   0  -1  -7   36.21    3.52
   1  -1  -7   38.12    3.66
   2  -1  -7   16.49    2.87
   3  -1  -7    0.66    0.81
   4  -1  -7    0.45    0.86
   5  -1  -7   75.10    5.33
   6  -1  -7   21.00    3.45
   7  -1  -7   73.79    5.59
   8  -1  -7    5.54    1.79
  -7   0  -7   12.62    2.93
  -6   0  -7   22.95    3.75
  -5   0  -7   19.86    2.31
  -4   0  -7   17.08    2.07
  -3   0  -7   12.62    1.79
  -2   0  -7   59.88    3.21
  -1   0  -7   36.88    3.56
   0   0  -7    0.44    0.65
   1   0  -7   41.59    3.75
   2   0  -7   58.38    4.60
   3   0  -7   11.22    2.40
   4   0  -7   20.52    3.27
   5   0  -7   10.22    2.33
   6   0  -7   21.73    3.37
   7   0  -7   14.26    2.84
   8   0  -7    2.80    1.35
  -8   1  -7    3.34    1.61
  -7   1  -7   75.55    6.06
  -6   1  -7   18.59    2.25
  -5   1  -7   74.33    3.80
  -4   1  -7    1.07    0.67
  -3   1  -7    0.51    0.52
  -2   1  -7   16.71    1.95
  -1   1  -7   43.11    3.89
   0   1  -7   37.34    3.60
   1   1  -7   16.90    2.89
   2   1  -7    6.87    1.80
   3   1  -7  135.90    7.26
   4   1  -7    7.04    1.88
   5   1  -7    4.10    1.50
   6   1  -7   10.05    2.31
   7   1  -7   71.24    3.85
  -8   2  -7   16.48    3.40
  -7   2  -7    2.16    0.91
  -6   2  -7    3.76    1.09
  -5   2  -7    4.32    1.14
  -4   2  -7    2.25    0.87
  -3   2  -7    8.36    1.40
  -2   2  -7   65.60    3.32
  -1   2  -7   16.22    2.89
   0   2  -7   68.03    4.92
   1   2  -7    0.51    0.71
   2   2  -7    1.41    0.99
   3   2  -7   62.64    4.77
   4   2  -7   11.84    2.43
   5   2  -7    6.60    1.88
   6   2  -7   17.64    3.17
  -8   3  -7    0.65    0.76
  -7   3  -7   -0.06    0.57
  -6   3  -7   69.16    3.77
  -5   3  -7   60.57    3.40
  -4   3  -7  133.83    5.12
  -3   3  -7   11.73    1.74
  -2   3  -7    0.09    0.44
  -1   3  -7    5.11    1.56
   0   3  -7   13.13    2.56
   1   3  -7    1.47    0.99
   2   3  -7    4.95    1.67
   3   3  -7   74.19    5.29
   4   3  -7   17.16    2.95
   5   3  -7   63.76    5.04
  -8   4  -7   15.74    3.35
  -7   4  -7   13.89    2.93
  -6   4  -7   12.36    2.69
  -5   4  -7    6.73    1.30
  -4   4  -7   18.52    2.13
  -3   4  -7    0.37    0.53
  -2   4  -7    1.97    0.77
  -1   4  -7  129.53    7.18
   0   4  -7   16.80    2.84
   1   4  -7   79.76    5.43
   2   4  -7    5.15    1.76
   3   4  -7    0.27    0.86
   4   4  -7   17.76    3.04
   5   4  -7    9.47    2.33
  -8   5  -7   78.29    6.16
  -7   5  -7    5.35    1.91
  -6   5  -7    3.64    1.53
  -5   5  -7   19.31    3.21
  -4   5  -7   72.32    3.74
  -3   5  -7    3.03    0.93
  -2   5  -7   66.12    4.96
  -1   5  -7    6.65    1.89
   0   5  -7   20.21    3.25
   1   5  -7   23.87    3.50
   2   5  -7    3.72    1.49
   3   5  -7    1.81    1.21
   4   5  -7   70.98    5.28
  -8   6  -7   12.73    2.87
  -7   6  -7   10.17    2.56
  -6   6  -7   19.81    3.42
  -5   6  -7   19.18    3.31
  -4   6  -7    4.46    1.60
  -3   6  -7   73.70    3.72
  -2   6  -7   13.96    2.69
  -1   6  -7    4.37    1.51
   0   6  -7   20.28    3.32
   1   6  -7   76.72    5.52
   2   6  -7   16.92    3.01
   3   6  -7   21.09    3.49
  -8   7  -7   80.48    6.18
  -7   7  -7   16.04    3.21
  -6   7  -7   78.52    5.92
  -5   7  -7    3.93    1.69
  -4   7  -7    0.93    0.91
  -3   7  -7   14.55    1.99
  -2   7  -7    6.19    1.87
  -1   7  -7   12.79    2.69
   0   7  -7   10.52    2.48
   1   7  -7    5.52    1.76
  -7   8  -7    5.80    1.96
  -6   8  -7   11.25    2.73
  -5   8  -7    1.49    1.17
  -4   8  -7   16.08    3.10
  -3   8  -7   68.21    5.41
  -2   8  -7    9.36    2.34
  -1   8  -7   85.91    5.87
   0   8  -7    1.04    1.14
  -6   9  -7   18.45    3.43
  -5   9  -7   64.32    5.41
  -4   9  -7   11.85    2.80
  -3   9  -7    1.90    1.22
  -2   9  -7    1.55    1.25
   7 -11  -6   98.76    6.92
   8 -11  -6    5.46    3.00
   5 -10  -6   34.65    5.68
   6 -10  -6    6.22    2.05
   7 -10  -6    7.29    2.18
   8 -10  -6   54.52    5.11
   9 -10  -6    1.54    1.34
  -1  -9  -6    1.52    1.24
   0  -9  -6   15.95    3.06
   1  -9  -6    2.90    1.45
   4  -9  -6   10.39    2.49
   5  -9  -6   15.72    2.90
   6  -9  -6   43.71    5.19
   7  -9  -6   13.33    2.85
   8  -9  -6   46.17    4.68
   9  -9  -6   13.22    2.97
  -2  -8  -6   54.36    5.06
  -1  -8  -6   54.58    4.82
   0  -8  -6   64.67    4.99
   1  -8  -6   21.29    3.26
   3  -8  -6   28.02    3.66
   4  -8  -6   16.79    2.94
   5  -8  -6   34.39    4.23
   6  -8  -6    2.49    1.29
   7  -8  -6   21.50    3.53
   8  -8  -6   66.62    5.44
   9  -8  -6    3.00    1.51
  10  -8  -6   32.45    4.67
  -3  -7  -6    9.24    2.66
  -2  -7  -6   10.59    2.58
  -1  -7  -6   26.20    3.86
   0  -7  -6   11.62    2.42
   1  -7  -6   -0.13    0.65
   2  -7  -6   17.10    2.91
   3  -7  -6   12.24    2.45
   4  -7  -6   82.00    5.54
   5  -7  -6   33.39    4.12
   6  -7  -6   20.88    3.49
   7  -7  -6   10.55    2.43
   8  -7  -6   23.66    3.59
   9  -7  -6    0.26    0.88
  10  -7  -6   53.95    4.95
  -4  -6  -6    5.63    1.88
  -3  -6  -6   37.57    4.73
  -2  -6  -6    2.25    1.43
  -1  -6  -6   21.13    3.35
   0  -6  -6    5.57    1.63
   1  -6  -6  190.86    5.79
   2  -6  -6    5.51    1.60
   3  -6  -6   89.58    5.51
   4  -6  -6    7.86    2.02
   5  -6  -6   39.06    3.74
   6  -6  -6    7.90    2.03
   7  -6  -6    0.34    0.68
   8  -6  -6    3.45    1.47
   9  -6  -6   33.94    4.33
  10  -6  -6   45.58    4.50
  11  -6  -6   16.16    2.24
  -5  -5  -6   29.57    4.33
  -4  -5  -6   13.71    2.93
  -3  -5  -6   37.26    4.67
  -2  -5  -6   46.23    4.09
  -1  -5  -6   36.02    3.41
   0  -5  -6    4.93    1.02
   1  -5  -6   20.60    3.01
   2  -5  -6    8.99    2.01
   3  -5  -6    4.80    1.56
   4  -5  -6   51.51    4.19
   5  -5  -6    2.56    1.20
   6  -5  -6  185.93    8.65
   7  -5  -6   11.17    2.45
   8  -5  -6   26.83    3.83
   9  -5  -6    6.34    1.94
  10  -5  -6   28.57    2.75
  11  -5  -6    0.36    0.63
  -6  -4  -6   49.19    4.85
  -5  -4  -6   10.69    2.73
  -4  -4  -6   18.91    3.46
  -3  -4  -6   83.90    5.72
  -2  -4  -6    8.41    2.03
  -1  -4  -6   51.08    2.76
   0  -4  -6   16.33    1.84
   1  -4  -6   37.20    3.41
   2  -4  -6   39.64    3.46
   3  -4  -6   68.82    4.70
   4  -4  -6   17.34    2.86
   5  -4  -6   27.26    3.73
   6  -4  -6    3.76    1.47
   7  -4  -6   18.13    3.10
   8  -4  -6   16.45    2.98
   9  -4  -6   17.58    3.09
  10  -4  -6    5.61    1.20
  11  -4  -6   96.72    4.55
  -7  -3  -6   35.06    4.82
  -6  -3  -6   31.12    4.42
  -5  -3  -6   27.15    4.04
  -4  -3  -6   14.95    2.87
  -3  -3  -6   76.58    5.34
  -2  -3  -6    4.83    1.03
  -1  -3  -6   72.62    3.26
   0  -3  -6   20.35    2.01
   1  -3  -6    4.17    1.39
   2  -3  -6  118.01    6.28
   3  -3  -6   22.23    3.21
   4  -3  -6   43.00    3.66
   5  -3  -6   14.72    2.59
   6  -3  -6   87.32    5.59
   7  -3  -6   89.82    5.67
   8  -3  -6   35.48    4.27
   9  -3  -6   31.62    4.03
  10  -3  -6    8.61    1.53
  11  -3  -6    4.25    1.69
  -8  -2  -6   31.37    4.64
  -7  -2  -6   -0.06    0.89
  -6  -2  -6   11.27    2.61
  -5  -2  -6   16.75    3.17
  -4  -2  -6    4.50    1.70
  -3  -2  -6   10.57    1.55
  -2  -2  -6   42.54    2.50
  -1  -2  -6  115.85    4.25
   0  -2  -6   71.85    3.13
   1  -2  -6   83.20    5.06
   2  -2  -6   66.91    4.55
   3  -2  -6    2.69    1.13
   4  -2  -6   38.84    3.55
   5  -2  -6    2.71    1.14
   6  -2  -6    7.12    1.92
   7  -2  -6   39.10    3.70
   8  -2  -6    2.90    1.34
   9  -2  -6   13.65    1.91
  10  -2  -6   55.31    3.33
  -8  -1  -6    2.48    1.49
  -7  -1  -6   24.17    3.97
  -6  -1  -6    1.03    0.97
  -5  -1  -6  183.78    8.85
  -4  -1  -6   28.61    2.27
  -3  -1  -6   45.00    2.60
  -2  -1  -6    4.56    1.01
  -1  -1  -6   79.55    3.39
   0  -1  -6   16.20    1.72
   1  -1  -6   13.57    2.33
   2  -1  -6   69.61    4.70
   3  -1  -6  125.42    6.45
   4  -1  -6   74.09    4.85
   5  -1  -6   45.59    3.85
   6  -1  -6   36.06    3.45
   7  -1  -6   23.38    3.41
   8  -1  -6   23.92    2.41
   9  -1  -6   51.62    3.16
  -9   0  -6   14.40    3.26
  -8   0  -6   69.25    5.68
  -7   0  -6   15.39    3.03
  -6   0  -6    3.42    1.43
  -5   0  -6    3.66    0.96
  -4   0  -6   17.68    2.02
  -3   0  -6   18.18    1.98
  -2   0  -6   72.47    3.22
  -1   0  -6   16.36    1.74
   0   0  -6  153.24    4.70
   1   0  -6   18.35    2.80
   2   0  -6   68.05    4.48
   3   0  -6   18.80    2.87
   4   0  -6   22.15    3.16
   5   0  -6    4.25    1.41
   6   0  -6    4.52    1.50
   7   0  -6   12.74    2.37
   8   0  -6   62.61    3.36
   9   0  -6   13.71    2.74
  -9   1  -6   53.90    4.99
  -8   1  -6   25.54    4.00
  -7   1  -6   26.09    3.92
  -6   1  -6   44.16    2.72
  -5   1  -6   49.30    2.80
  -4   1  -6   69.96    3.30
  -3   1  -6  120.64    4.40
  -2   1  -6   79.33    3.42
  -1   1  -6   15.92    1.76
   0   1  -6   16.73    1.75
   1   1  -6   85.12    5.07
   2   1  -6    4.18    1.40
   3   1  -6   38.64    3.44
   4   1  -6   26.09    3.42
   5   1  -6  194.47    8.37
   6   1  -6    1.48    0.90
   7   1  -6   26.51    2.56
   8   1  -6    2.04    1.24
 -10   2  -6   60.42    5.38
  -9   2  -6   12.17    2.76
  -8   2  -6    1.98    1.35
  -7   2  -6   41.71    4.96
  -6   2  -6    8.39    2.13
  -5   2  -6    5.34    1.71
  -4   2  -6   37.26    2.40
  -3   2  -6    4.24    0.97
  -2   2  -6   66.40    3.09
  -1   2  -6   83.62    3.38
   0   2  -6   75.25    3.71
   1   2  -6  120.14    6.26
   2   2  -6   36.49    3.29
   3   2  -6   13.21    2.39
   4   2  -6    5.88    1.62
   5   2  -6   15.02    2.59
   6   2  -6    5.05    1.12
   7   2  -6    1.07    0.98
   8   2  -6   33.17    4.42
 -10   3  -6    5.96    2.04
  -9   3  -6   38.58    4.83
  -8   3  -6   30.93    4.28
  -7   3  -6   74.63    5.58
  -6   3  -6   74.09    5.35
  -5   3  -6    9.09    2.18
  -4   3  -6   46.42    3.76
  -3   3  -6   18.70    1.95
  -2   3  -6  126.99    4.43
  -1   3  -6    3.42    0.89
   0   3  -6   16.02    2.56
   1   3  -6   69.67    4.59
   2   3  -6    5.30    1.49
   3   3  -6   85.69    5.15
   4   3  -6   19.99    2.96
   5   3  -6   26.56    3.44
   6   3  -6   40.18    3.87
   7   3  -6   48.15    4.43
 -10   4  -6    2.81    1.43
  -9   4  -6   20.93    3.60
  -8   4  -6   11.61    2.65
  -7   4  -6   14.29    2.80
  -6   4  -6    5.03    1.66
  -5   4  -6   22.69    3.33
  -4   4  -6   14.67    2.66
  -3   4  -6   65.47    4.43
  -2   4  -6   38.29    2.35
  -1   4  -6   44.45    2.46
   0   4  -6   19.05    2.88
   1   4  -6   46.06    3.72
   2   4  -6   11.01    2.18
   3   4  -6   83.65    5.15
   4   4  -6   13.92    2.49
   5   4  -6    5.55    1.81
   6   4  -6   43.68    4.12
   7   4  -6   36.65    6.87
 -10   5  -6   26.27    4.15
  -9   5  -6    6.95    2.15
  -8   5  -6   16.38    3.00
  -7   5  -6   11.80    2.54
  -6   5  -6  183.97    8.70
  -5   5  -6    5.48    1.65
  -4   5  -6   48.19    3.95
  -3   5  -6    4.81    1.50
  -2   5  -6   12.45    2.25
  -1   5  -6   25.73    2.32
   0   5  -6    5.03    1.53
   1   5  -6   36.89    3.35
   2   5  -6   40.32    3.52
   3   5  -6   35.10    3.30
   4   5  -6   17.37    2.99
   5   5  -6   29.36    4.10
   6   5  -6   13.51    2.77
 -10   6  -6   54.75    5.11
  -9   6  -6   32.27    4.46
  -8   6  -6    4.92    1.78
  -7   6  -6    0.41    0.81
  -6   6  -6    5.12    1.63
  -5   6  -6   32.62    4.08
  -4   6  -6    7.45    1.89
  -3   6  -6   86.50    5.34
  -2   6  -6    7.02    1.86
  -1   6  -6  177.40    5.61
   0   6  -6    3.81    1.32
   1   6  -6   21.42    3.12
   2   6  -6    4.75    1.45
   3   6  -6   31.42    3.92
   4   6  -6    4.17    1.11
   5   6  -6    0.20    0.65
 -10   7  -6   42.66    5.24
  -9   7  -6    1.20    0.91
  -8   7  -6   29.41    4.19
  -7   7  -6    9.52    2.32
  -6   7  -6   23.96    3.54
  -5   7  -6   38.56    3.79
  -4   7  -6   83.47    5.51
  -3   7  -6   19.53    3.09
  -2   7  -6   12.52    2.47
  -1   7  -6    0.11    0.52
   0   7  -6   14.99    2.64
   1   7  -6   30.59    3.68
   3   7  -6    6.46    2.48
   4   7  -6   96.54    6.40
 -10   8  -6   29.29    4.42
  -9   8  -6    1.49    1.09
  -8   8  -6   59.83    5.14
  -7   8  -6   32.90    4.39
  -6   8  -6    1.88    1.26
  -5   8  -6   33.18    4.37
  -4   8  -6   15.00    2.87
  -3   8  -6   20.01    3.16
  -2   8  -6    7.20    1.98
  -1   8  -6   26.14    3.47
   0   8  -6   72.46    4.92
  -9   9  -6   14.94    3.24
  -8   9  -6   65.22    5.37
  -7   9  -6   14.44    2.88
  -6   9  -6   40.49    5.05
  -5   9  -6   17.65    3.30
  -4   9  -6    8.31    2.16
  -3   9  -6   39.49    3.91
  -2   9  -6    0.63    0.87
  -1   9  -6    1.19    0.97
  -8  10  -6   53.98    5.12
  -7  10  -6    5.29    1.96
  -6  10  -6    4.58    1.87
  -5  10  -6   31.66    4.38
  -4  10  -6   50.54    4.62
  -3  10  -6   50.07    4.55
  -2  10  -6   35.45    3.87
  -6  11  -6    0.88    1.29
  -5  11  -6   12.95    3.00
  -4  11  -6   34.38    4.80
  -3  11  -6    9.46    2.62
   7 -12  -5   38.28    4.65
   8 -12  -5   30.44    4.34
   9 -12  -5    9.98    2.55
   0 -11  -5   -0.45    0.95
   1 -11  -5   18.98    3.35
   2 -11  -5    2.62    1.40
   6 -11  -5   33.77    4.27
   7 -11  -5    4.11    1.57
   8 -11  -5   34.18    4.43
   9 -11  -5   28.59    4.26
  10 -11  -5    8.43    2.45
  -1 -10  -5    9.71    2.54
   0 -10  -5  130.73    7.67
   1 -10  -5   48.07    4.30
   2 -10  -5   84.07    5.56
   5 -10  -5   16.97    2.84
   6 -10  -5   36.19    4.43
   7 -10  -5   21.04    3.34
   8 -10  -5   20.43    3.40
   9 -10  -5    4.31    1.85
  10 -10  -5  127.18    7.85
  11 -10  -5   18.75    3.45
  -2  -9  -5   19.44    3.50
  -1  -9  -5    4.59    1.68
   0  -9  -5    3.59    1.39
   1  -9  -5    0.31    0.74
   2  -9  -5    1.02    0.83
   4  -9  -5   19.84    3.09
   5  -9  -5   35.66    3.54
   6  -9  -5   13.46    2.62
   7  -9  -5   77.67    5.43
   8  -9  -5    8.52    2.24
   9  -9  -5    2.81    1.39
  10  -9  -5   56.55    4.99
  11  -9  -5    4.38    1.79
  -4  -8  -5   26.66    4.26
  -3  -8  -5   28.14    4.23
  -2  -8  -5   26.53    3.91
  -1  -8  -5   10.35    2.38
   0  -8  -5    6.50    1.82
   1  -8  -5   81.58    5.15
   2  -8  -5   88.54    5.06
   3  -8  -5  225.27    8.86
   4  -8  -5   21.31    3.07
   5  -8  -5   10.47    2.21
   6  -8  -5   16.98    2.95
   7  -8  -5   11.41    2.38
   8  -8  -5    3.38    1.37
   9  -8  -5    0.94    0.93
  10  -8  -5   79.26    5.93
  11  -8  -5   11.48    2.65
  12  -8  -5   91.74    6.59
  -5  -7  -5   39.63    5.28
  -4  -7  -5    5.38    1.93
  -3  -7  -5   23.88    3.74
  -2  -7  -5   69.17    5.14
  -1  -7  -5   15.20    2.72
   0  -7  -5    5.83    1.59
   1  -7  -5    5.90    1.57
   2  -7  -5   22.67    2.09
   3  -7  -5   29.05    2.94
   4  -7  -5   14.33    2.48
   5  -7  -5    5.80    1.71
   6  -7  -5  260.05   10.47
   7  -7  -5    6.89    1.86
   8  -7  -5   77.88    5.50
   9  -7  -5    1.16    0.96
  10  -7  -5    3.34    1.46
  11  -7  -5   17.98    3.29
  12  -7  -5    4.71    1.87
  -6  -6  -5    8.66    2.42
  -5  -6  -5   34.93    4.72
  -4  -6  -5   33.89    4.50
  -3  -6  -5   20.11    3.41
  -2  -6  -5   17.76    2.97
  -1  -6  -5  269.40   10.43
   0  -6  -5   13.44    2.37
   1  -6  -5   32.88    2.04
   2  -6  -5   26.25    1.77
   3  -6  -5  126.78    6.28
   4  -6  -5   -0.08    0.48
   5  -6  -5   66.14    4.56
   6  -6  -5   12.06    2.30
   7  -6  -5   10.42    2.33
   8  -6  -5   88.55    5.62
   9  -6  -5    1.40    1.01
  10  -6  -5    5.34    1.15
  11  -6  -5   48.10    2.95
  12  -6  -5   12.86    2.74
  -7  -5  -5    3.81    1.78
  -6  -5  -5   48.06    4.63
  -5  -5  -5   21.03    3.47
  -4  -5  -5   29.18    4.01
  -3  -5  -5   10.83    2.41
  -2  -5  -5    4.85    1.62
  -1  -5  -5   68.96    3.24
   0  -5  -5    7.04    1.14
   1  -5  -5    9.80    1.30
   2  -5  -5   96.85    3.45
   3  -5  -5    2.76    1.14
   4  -5  -5  179.48    7.80
   5  -5  -5    8.95    1.97
   6  -5  -5   33.47    3.21
   7  -5  -5   20.72    2.96
   8  -5  -5  214.57    9.30
   9  -5  -5   24.73    3.53
  10  -5  -5   17.41    2.03
  11  -5  -5   35.15    2.95
  12  -5  -5   41.65    2.80
  -8  -4  -5   94.12    6.89
  -7  -4  -5   12.40    2.83
  -6  -4  -5    4.64    1.65
  -5  -4  -5   23.78    3.85
  -4  -4  -5   16.35    3.03
  -3  -4  -5   11.67    2.41
  -2  -4  -5    0.73    0.47
  -1  -4  -5  192.52    5.37
   0  -4  -5    5.08    0.96
   1  -4  -5  306.40    7.23
   2  -4  -5    5.53    0.91
   3  -4  -5   10.85    1.97
   4  -4  -5    8.36    1.85
   5  -4  -5   10.76    2.13
   6  -4  -5   19.68    2.81
   7  -4  -5   29.00    3.60
   8  -4  -5   20.06    3.08
   9  -4  -5   33.61    3.39
  10  -4  -5   35.50    2.47
  11  -4  -5    2.16    0.85
  12  -4  -5   24.31    2.58
  -8  -3  -5   13.63    3.07
  -7  -3  -5    3.88    1.56
  -6  -3  -5    1.21    1.02
  -5  -3  -5  220.16    9.67
  -4  -3  -5   32.89    4.06
  -3  -3  -5  135.84    4.45
  -2  -3  -5    3.50    0.82
  -1  -3  -5   13.01    1.51
   0  -3  -5   62.47    2.71
   1  -3  -5   35.20    1.92
   2  -3  -5   32.48    1.78
   3  -3  -5   65.24    4.19
   4  -3  -5  311.78   10.71
   5  -3  -5   90.80    5.25
   6  -3  -5  134.82    6.66
   7  -3  -5   14.68    2.49
   8  -3  -5    9.38    2.00
   9  -3  -5   20.61    2.21
  10  -3  -5   22.62    2.37
  11  -3  -5   30.97    2.84
  12  -3  -5   10.54    2.54
  -9  -2  -5    1.78    1.37
  -8  -2  -5   84.40    6.12
  -7  -2  -5    0.70    0.97
  -6  -2  -5   96.51    6.08
  -5  -2  -5   22.89    3.45
  -4  -2  -5   24.69    1.94
  -3  -2  -5  101.74    3.73
  -2  -2  -5    3.27    0.79
  -1  -2  -5   34.90    2.00
   0  -2  -5   86.71    3.16
   1  -2  -5   52.16    2.31
   2  -2  -5   88.35    4.72
   3  -2  -5   35.25    2.97
   4  -2  -5    3.08    1.16
   5  -2  -5    3.02    1.12
   6  -2  -5   -0.07    0.45
   7  -2  -5    2.94    1.09
   8  -2  -5   20.00    3.01
   9  -2  -5   63.52    3.27
  10  -2  -5   21.62    2.28
  11  -2  -5   19.87    3.26
 -10  -1  -5   12.44    2.91
  -9  -1  -5   61.99    5.26
  -8  -1  -5    1.22    1.11
  -7  -1  -5   76.02    5.56
  -6  -1  -5    6.28    1.89
  -5  -1  -5   35.86    2.17
  -4  -1  -5   11.07    1.42
  -3  -1  -5  320.56    7.51
  -2  -1  -5   33.33    1.97
  -1  -1  -5   50.58    2.40
   0  -1  -5   82.24    3.04
   1  -1  -5   77.78    2.87
   2  -1  -5   49.05    3.44
   3  -1  -5   35.36    2.92
   4  -1  -5   17.43    2.56
   5  -1  -5  191.24    7.81
   6  -1  -5   71.94    4.51
   7  -1  -5  279.04   10.20
   8  -1  -5   12.94    1.67
   9  -1  -5    9.55    1.49
  10  -1  -5    6.41    1.89
  11  -1  -5    7.75    2.21
 -10   0  -5  124.21    7.78
  -9   0  -5    2.45    1.42
  -8   0  -5    4.85    1.80
  -7   0  -5    5.66    1.78
  -6   0  -5   13.28    1.64
  -5   0  -5    6.83    1.18
  -4   0  -5    5.57    1.01
  -3   0  -5   66.94    2.86
  -2   0  -5   79.65    3.14
  -1   0  -5   78.07    3.03
   0   0  -5    0.54    0.35
   1   0  -5   80.29    2.89
   2   0  -5   82.84    4.59
   3   0  -5   70.09    4.18
   4   0  -5    6.09    1.48
   5   0  -5    7.38    1.72
   6   0  -5   12.37    2.17
   7   0  -5    6.49    1.23
   8   0  -5    5.43    1.11
   9   0  -5    2.94    1.28
  10   0  -5  134.76    7.62
 -11   1  -5    8.09    2.34
 -10   1  -5    7.29    2.15
  -9   1  -5    7.01    2.04
  -8   1  -5   11.94    2.50
  -7   1  -5  266.59   10.89
  -6   1  -5   60.76    4.48
  -5   1  -5  172.92    7.95
  -4   1  -5   12.91    2.26
  -3   1  -5   33.94    2.90
  -2   1  -5   49.25    2.37
  -1   1  -5   75.64    2.94
   0   1  -5   77.86    3.90
   1   1  -5   48.84    2.20
   2   1  -5   37.76    2.96
   3   1  -5  315.70   10.43
   4   1  -5   12.09    2.09
   5   1  -5   39.52    3.18
   6   1  -5   11.55    2.09
   7   1  -5   74.66    3.42
   8   1  -5   -0.64    0.67
   9   1  -5   57.64    4.67
  10   1  -5   18.99    3.25
 -11   2  -5   26.47    4.13
 -10   2  -5   23.06    3.67
  -9   2  -5   64.78    5.10
  -8   2  -5   25.34    3.78
  -7   2  -5    4.13    1.47
  -6   2  -5    0.68    0.77
  -5   2  -5    2.34    1.07
  -4   2  -5    2.15    0.98
  -3   2  -5   34.00    2.87
  -2   2  -5   79.98    4.39
  -1   2  -5   49.56    2.33
   0   2  -5   81.00    3.00
   1   2  -5   35.90    1.87
   2   2  -5    2.28    0.94
   3   2  -5   94.09    5.02
   4   2  -5   24.48    2.48
   5   2  -5   21.36    2.74
   6   2  -5   98.31    3.75
   7   2  -5    2.09    1.12
   8   2  -5   81.10    5.61
   9   2  -5    1.78    1.20
 -12   3  -5   12.98    3.32
 -11   3  -5   25.14    3.92
 -10   3  -5   21.63    3.65
  -9   3  -5   19.53    3.37
  -8   3  -5    7.43    2.00
  -7   3  -5   15.73    2.76
  -6   3  -5  131.88    6.75
  -5   3  -5   95.45    5.42
  -4   3  -5  303.74   10.76
  -3   3  -5   63.85    3.97
  -2   3  -5   32.17    2.70
  -1   3  -5   37.83    2.02
   0   3  -5   61.61    2.61
   1   3  -5   11.99    1.36
   2   3  -5    3.07    1.05
   3   3  -5  143.10    6.34
   4   3  -5   31.38    2.79
   5   3  -5  208.58    6.04
   6   3  -5    0.33    0.66
   7   3  -5    8.58    2.16
   8   3  -5   13.65    2.84
 -12   4  -5   21.88    3.71
 -11   4  -5    3.41    1.58
 -10   4  -5   35.86    4.68
  -9   4  -5   34.06    4.38
  -8   4  -5   18.99    3.10
  -7   4  -5   30.10    3.69
  -6   4  -5   20.24    2.98
  -5   4  -5    9.78    2.03
  -4   4  -5    4.92    1.46
  -3   4  -5   10.44    2.00
  -2   4  -5    3.97    1.24
  -1   4  -5  316.41   10.26
   0   4  -5    5.97    1.00
   1   4  -5  192.36    5.11
   2   4  -5    1.05    0.74
   3   4  -5   12.05    2.04
   4   4  -5   17.99    1.85
   5   4  -5   20.05    3.06
   6   4  -5    2.94    1.24
   7   4  -5   16.77    3.05
   8   4  -5   85.44    4.34
 -12   5  -5   37.36    4.89
 -11   5  -5   34.39    4.69
 -10   5  -5   18.33    3.30
  -9   5  -5   22.98    3.57
  -8   5  -5  199.58    9.20
  -7   5  -5   22.04    3.31
  -6   5  -5   32.62    3.19
  -5   5  -5    4.24    1.38
  -4   5  -5  191.90    7.98
  -3   5  -5    3.48    1.24
  -2   5  -5   92.00    4.95
  -1   5  -5   12.28    2.06
   0   5  -5    9.73    1.22
   1   5  -5   58.40    3.87
   2   5  -5    4.48    1.28
   3   5  -5   10.14    1.41
   4   5  -5   28.01    3.55
   5   5  -5   15.76    2.76
   6   5  -5   49.89    3.12
   7   5  -5    2.39    0.97
 -12   6  -5   10.70    2.67
 -11   6  -5   49.14    4.63
 -10   6  -5    1.93    1.14
  -9   6  -5    1.09    0.85
  -8   6  -5   90.66    5.81
  -7   6  -5    6.16    1.81
  -6   6  -5   10.40    2.15
  -5   6  -5   64.82    4.50
  -4   6  -5    0.63    0.65
  -3   6  -5  139.04    6.58
  -2   6  -5   19.97    2.81
  -1   6  -5   32.27    2.92
   0   6  -5   14.76    1.64
   1   6  -5  284.14    9.76
   2   6  -5   19.56    1.98
   3   6  -5   15.78    2.73
   4   6  -5   36.51    2.71
   5   6  -5   28.89    2.80
   6   6  -5   13.93    1.97
 -12   7  -5    5.74    2.02
 -11   7  -5   17.02    3.22
 -10   7  -5    6.82    1.94
  -9   7  -5   -0.05    0.69
  -8   7  -5   73.06    5.34
  -7   7  -5    6.17    1.71
  -6   7  -5  266.31   10.65
  -5   7  -5    3.28    1.24
  -4   7  -5   18.17    2.94
  -3   7  -5   35.95    3.27
  -2   7  -5   19.66    2.83
  -1   7  -5    9.17    2.00
   0   7  -5    6.51    1.14
   1   7  -5   12.83    1.58
   2   7  -5   65.20    3.17
   3   7  -5   22.43    1.84
   4   7  -5    1.44    0.76
   5   7  -5   43.20    3.18
 -12   8  -5   77.77    6.10
 -11   8  -5    6.82    2.00
 -10   8  -5   80.69    5.94
  -9   8  -5    0.28    0.86
  -8   8  -5    4.19    1.57
  -7   8  -5   12.21    2.56
  -6   8  -5   23.60    3.50
  -5   8  -5    8.86    2.18
  -4   8  -5   23.33    3.39
  -3   8  -5  213.89    9.05
  -2   8  -5   93.27    5.47
  -1   8  -5   82.35    5.16
   0   8  -5    6.29    1.14
   3   8  -5   24.06    3.56
   4   8  -5   20.57    2.30
 -11   9  -5    0.99    1.09
 -10   9  -5   42.70    5.15
  -9   9  -5    1.27    1.09
  -8   9  -5   11.94    2.57
  -7   9  -5   67.05    5.15
  -6   9  -5   14.38    2.92
  -5   9  -5   22.21    3.36
  -4   9  -5   18.77    3.09
  -3   9  -5   -0.48    0.52
  -2   9  -5    1.06    0.91
  -1   9  -5    0.41    0.89
   0   9  -5    2.65    1.75
 -11  10  -5   20.20    3.62
 -10  10  -5  143.80    8.18
  -9  10  -5    6.37    2.08
  -8  10  -5   20.29    3.58
  -7  10  -5   30.41    4.22
  -6  10  -5   34.82    4.53
  -5  10  -5   17.33    3.07
  -4  10  -5    6.71    1.99
  -3  10  -5   10.83    2.41
  -2  10  -5   82.14    5.66
  -1  10  -5   44.94    4.11
 -10  11  -5    6.78    2.20
  -9  11  -5   31.18    4.73
  -8  11  -5   30.12    4.34
  -7  11  -5    3.42    1.50
  -6  11  -5   33.24    4.56
  -5  11  -5   58.07    4.89
  -4  11  -5    9.01    2.38
  -3  11  -5   12.70    2.80
  -2  11  -5    1.25    1.25
  -1  11  -5   13.91    2.80
  -8  12  -5   27.78    4.38
  -7  12  -5   37.56    4.96
  -6  12  -5   11.73    2.83
  -5  12  -5    3.47    1.65
  -4  12  -5   92.59    6.50
  -3  12  -5    2.36    1.46
   3 -13  -4    0.09    0.95
   4 -13  -4    2.19    1.36
   8 -13  -4   19.16    3.40
   9 -13  -4   16.03    3.28
  10 -13  -4    4.85    1.93
   1 -12  -4    1.50    1.14
   2 -12  -4  121.07    7.34
   3 -12  -4    1.27    1.06
   4 -12  -4   18.12    3.05
   7 -12  -4    1.39    1.08
   8 -12  -4   10.50    2.45
   9 -12  -4   29.46    4.22
  10 -12  -4   98.67    6.79
  11 -12  -4   60.52    5.37
  -1 -11  -4   63.75    5.47
   0 -11  -4    7.57    2.15
   1 -11  -4    3.30    1.45
   2 -11  -4   11.01    2.37
   3 -11  -4   20.86    3.27
   4 -11  -4   -0.23    0.60
   6 -11  -4   25.27    3.52
   7 -11  -4  194.71    8.99
   8 -11  -4    7.03    2.01
   9 -11  -4   17.28    3.11
  10 -11  -4    3.53    1.61
  11 -11  -4    6.33    2.00
  12 -11  -4    3.40    1.65
  -2 -10  -4   96.00    6.75
  -1 -10  -4    3.25    1.50
   0 -10  -4   16.05    3.08
   1 -10  -4   22.53    3.49
   2 -10  -4   26.32    3.53
   3 -10  -4   65.06    4.49
   4 -10  -4   64.75    3.44
   5 -10  -4   24.24    3.19
   6 -10  -4   35.10    3.37
   7 -10  -4   25.33    3.51
   8 -10  -4    9.20    2.15
   9 -10  -4    5.58    1.87
  10 -10  -4   13.93    2.89
  11 -10  -4    2.37    1.46
  12 -10  -4  109.59    7.33
  -4  -9  -4   12.35    2.95
  -3  -9  -4   24.74    3.83
  -2  -9  -4   19.83    3.35
  -1  -9  -4    6.09    1.77
   0  -9  -4   55.92    4.44
   1  -9  -4    5.82    1.72
   2  -9  -4   28.75    2.87
   3  -9  -4   98.95    3.66
   4  -9  -4    4.35    0.91
   5  -9  -4   56.67    4.12
   6  -9  -4   23.22    3.24
   7  -9  -4   35.54    3.45
   8  -9  -4   60.14    4.63
   9  -9  -4   58.22    4.77
  10  -9  -4   17.51    3.19
  11  -9  -4    9.93    2.40
  12  -9  -4    1.82    1.26
  13  -9  -4    1.84    1.20
  -5  -8  -4   19.90    3.70
  -4  -8  -4    8.96    2.37
  -3  -8  -4    3.15    1.57
  -2  -8  -4   14.04    2.81
  -1  -8  -4   62.08    4.55
   0  -8  -4  154.77    7.35
   1  -8  -4   28.22    2.79
   2  -8  -4   18.77    1.79
   3  -8  -4   27.62    1.83
   4  -8  -4   24.47    1.79
   5  -8  -4  131.02    6.42
   6  -8  -4    2.98    1.14
   7  -8  -4    0.36    0.61
   8  -8  -4  165.39    7.88
   9  -8  -4    5.92    1.78
  10  -8  -4   32.95    4.22
  11  -8  -4   23.71    3.52
  12  -8  -4   19.33    3.37
  13  -8  -4   60.23    5.31
  -6  -7  -4   14.96    3.08
  -5  -7  -4    0.43    0.81
  -4  -7  -4  185.31    9.24
  -3  -7  -4   19.64    3.19
  -2  -7  -4   37.33    3.61
  -1  -7  -4    0.04    0.49
   0  -7  -4   15.31    2.43
   1  -7  -4   15.02    1.51
   2  -7  -4    1.75    0.60
   3  -7  -4   30.75    1.82
   4  -7  -4  162.56    4.51
   5  -7  -4   90.44    5.05
   6  -7  -4   61.85    4.33
   7  -7  -4   15.27    2.66
   8  -7  -4   29.31    3.63
   9  -7  -4   28.25    3.72
  10  -7  -4   64.87    4.88
  11  -7  -4    0.82    0.99
  12  -7  -4    1.36    1.10
  13  -7  -4   76.42    5.72
  -7  -6  -4   69.33    5.67
  -6  -6  -4   17.52    3.36
  -5  -6  -4   17.89    3.05
  -4  -6  -4   24.24    3.53
  -3  -6  -4   18.49    2.97
  -2  -6  -4    1.82    0.99
  -1  -6  -4   59.84    4.18
   0  -6  -4    6.56    1.02
   1  -6  -4  321.72    7.16
   2  -6  -4    0.86    0.42
   3  -6  -4   13.02    1.35
   4  -6  -4    7.89    1.12
   5  -6  -4    7.39    1.63
   6  -6  -4    7.93    1.77
   7  -6  -4   14.68    2.47
   8  -6  -4   12.08    2.30
   9  -6  -4   97.80    5.80
  10  -6  -4   56.20    2.91
  11  -6  -4   42.11    2.58
  12  -6  -4   20.89    2.61
  13  -6  -4   10.01    2.35
  -8  -5  -4   49.99    4.85
  -7  -5  -4    0.42    0.88
  -6  -5  -4   36.24    4.57
  -5  -5  -4   23.79    3.47
  -4  -5  -4   50.90    4.17
  -3  -5  -4  129.13    6.59
  -2  -5  -4   87.41    5.11
  -1  -5  -4   10.67    1.22
   0  -5  -4    2.85    0.67
   1  -5  -4    9.41    1.15
   2  -5  -4   38.29    1.89
   3  -5  -4   13.51    1.29
   4  -5  -4   57.43    3.66
   5  -5  -4    0.61    0.64
   6  -5  -4  328.10   10.96
   7  -5  -4    1.93    0.93
   8  -5  -4   29.66    3.56
   9  -5  -4    2.85    0.81
  10  -5  -4   21.97    2.15
  11  -5  -4   22.59    2.29
  12  -5  -4    0.44    0.56
  13  -5  -4   17.20    2.10
  -9  -4  -4    5.79    2.11
  -8  -4  -4   21.34    3.64
  -7  -4  -4    0.46    0.86
  -6  -4  -4   53.34    4.44
  -5  -4  -4    1.64    1.03
  -4  -4  -4   25.34    3.40
  -3  -4  -4  161.25    7.30
  -2  -4  -4    8.49    1.11
  -1  -4  -4   56.16    2.39
   0  -4  -4   34.35    1.86
   1  -4  -4   57.83    2.36
   2  -4  -4  182.73    4.52
   3  -4  -4  342.87    6.84
   4  -4  -4   39.53    3.02
   5  -4  -4   10.00    1.89
   6  -4  -4   -0.11    0.46
   7  -4  -4   28.43    2.78
   8  -4  -4   26.57    3.35
   9  -4  -4   44.73    2.52
  10  -4  -4   31.76    2.38
  11  -4  -4  189.74    6.01
  12  -4  -4    8.99    1.51
  13  -4  -4   17.79    3.12
 -10  -3  -4   -0.37    1.11
  -9  -3  -4    2.06    1.34
  -8  -3  -4   19.00    3.30
  -7  -3  -4   60.07    4.80
  -6  -3  -4   88.62    5.66
  -5  -3  -4   26.73    3.52
  -4  -3  -4   29.15    2.91
  -3  -3  -4   15.13    1.48
  -2  -3  -4   12.92    1.33
  -1  -3  -4  327.08    7.14
   0  -3  -4   35.02    1.79
   1  -3  -4    2.11    0.55
   2  -3  -4  167.78    4.14
   3  -3  -4   36.94    1.56
   4  -3  -4   58.29    3.63
   5  -3  -4   30.55    2.67
   6  -3  -4   12.63    2.02
   7  -3  -4  148.80    6.78
   8  -3  -4  131.23    6.32
   9  -3  -4   22.96    2.13
  10  -3  -4   24.96    2.39
  11  -3  -4    6.19    1.24
  12  -3  -4   25.80    3.62
  13  -3  -4    3.50    1.61
 -10  -2  -4  117.71    7.32
  -9  -2  -4   13.08    2.80
  -8  -2  -4   24.29    3.56
  -7  -2  -4   29.13    3.79
  -6  -2  -4   15.69    2.61
  -5  -2  -4    1.14    0.94
  -4  -2  -4    0.79    0.43
  -3  -2  -4   34.86    1.86
  -2  -2  -4  169.36    4.62
  -1  -2  -4  167.99    4.37
   0  -2  -4   37.03    1.79
   1  -2  -4   72.40    2.50
   2  -2  -4   38.55    1.68
   3  -2  -4    1.63    0.40
   4  -2  -4  164.71    6.72
   5  -2  -4   16.54    2.28
   6  -2  -4    6.66    1.45
   7  -2  -4   85.37    4.77
   8  -2  -4    3.74    0.86
   9  -2  -4   39.32    2.35
  10  -2  -4   10.32    1.51
  11  -2  -4   24.38    3.42
  12  -2  -4   97.28    6.35
 -11  -1  -4    0.13    1.05
 -10  -1  -4    2.17    1.38
  -9  -1  -4   14.52    2.79
  -8  -1  -4    4.29    1.54
  -7  -1  -4   29.50    3.71
  -6  -1  -4   14.92    2.53
  -5  -1  -4  321.62    7.20
  -4  -1  -4    9.00    1.12
  -3  -1  -4   58.96    2.44
  -2  -1  -4    1.54    0.50
  -1  -1  -4   73.25    2.62
   0  -1  -4   19.98    1.28
   1  -1  -4   19.72    1.21
   2  -1  -4   75.35    2.36
   3  -1  -4  170.88    6.41
   4  -1  -4  322.61   10.30
   5  -1  -4   54.86    3.42
   6  -1  -4   11.49    1.94
   7  -1  -4   58.57    2.75
   8  -1  -4    0.19    0.34
   9  -1  -4   54.03    2.80
  10  -1  -4    5.42    1.70
  11  -1  -4    3.73    1.57
  12  -1  -4   62.63    5.13
 -11   0  -4    7.57    2.21
 -10   0  -4   16.79    3.13
  -9   0  -4   63.50    4.95
  -8   0  -4  141.68    7.38
  -7   0  -4   12.24    2.34
  -6   0  -4    7.11    1.81
  -5   0  -4    2.08    0.98
  -4   0  -4   36.63    2.95
  -3   0  -4   37.79    2.84
  -2   0  -4   36.15    1.83
  -1   0  -4   19.52    1.28
   0   0  -4  953.65   16.17
   1   0  -4   18.31    1.17
   2   0  -4   39.84    1.64
   3   0  -4   29.53    2.42
   4   0  -4   37.26    2.80
   5   0  -4    4.53    1.23
   6   0  -4    5.30    1.29
   7   0  -4   19.45    1.83
   8   0  -4  147.30    4.80
   9   0  -4   58.37    4.44
  10   0  -4   16.64    2.95
  11   0  -4    6.20    1.96
 -12   1  -4   66.31    5.45
 -11   1  -4    3.00    1.50
 -10   1  -4    4.93    1.69
  -9   1  -4   53.15    4.36
  -8   1  -4    0.08    0.57
  -7   1  -4   61.27    4.35
  -6   1  -4   13.79    2.46
  -5   1  -4   57.77    3.88
  -4   1  -4  342.14   10.83
  -3   1  -4  163.50    6.44
  -2   1  -4   64.08    3.58
  -1   1  -4   19.46    1.41
   0   1  -4   18.15    1.24
   1   1  -4   71.41    2.43
   2   1  -4    1.89    0.46
   3   1  -4   58.74    3.44
   4   1  -4   11.12    1.80
   5   1  -4  318.86   10.11
   6   1  -4   14.51    1.54
   7   1  -4   28.04    1.99
   8   1  -4    4.29    1.42
   9   1  -4   20.31    3.30
  10   1  -4    3.11    1.43
  11   1  -4    2.33    1.24
 -12   2  -4   99.33    6.63
 -11   2  -4   23.63    3.57
 -10   2  -4   11.24    2.50
  -9   2  -4   36.95    3.60
  -8   2  -4    3.91    1.39
  -7   2  -4   91.47    5.38
  -6   2  -4    6.56    1.59
  -5   2  -4   13.51    2.17
  -4   2  -4  170.91    6.92
  -3   2  -4    1.67    0.77
  -2   2  -4   35.14    2.57
  -1   2  -4   68.99    3.53
   0   2  -4   38.84    1.79
   1   2  -4  164.42    4.10
   2   2  -4  169.97    4.25
   3   2  -4   32.92    2.54
   4   2  -4    1.85    0.78
   5   2  -4    1.28    0.51
   6   2  -4   16.97    1.71
   7   2  -4   33.12    3.87
   8   2  -4   29.07    3.71
   9   2  -4   12.96    2.71
  10   2  -4  127.36    7.47
 -13   3  -4    2.51    1.47
 -12   3  -4   26.57    3.82
 -11   3  -4    5.82    1.78
 -10   3  -4   23.60    3.50
  -9   3  -4   23.25    3.38
  -8   3  -4  135.18    6.73
  -7   3  -4  158.62    7.21
  -6   3  -4   10.10    1.89
  -5   3  -4   36.19    2.96
  -4   3  -4   58.56    3.66
  -3   3  -4   33.24    2.61
  -2   3  -4  162.26    6.22
  -1   3  -4    1.90    0.35
   0   3  -4   34.41    2.36
   1   3  -4  336.03    6.92
   2   3  -4   13.37    1.27
   3   3  -4   15.61    2.11
   4   3  -4   28.35    1.78
   5   3  -4   32.18    1.94
   6   3  -4   91.53    5.41
   7   3  -4   61.52    4.58
   8   3  -4   19.45    3.14
   9   3  -4    0.74    0.65
 -13   4  -4   18.19    3.40
 -12   4  -4    9.80    2.38
 -11   4  -4  182.94    8.80
 -10   4  -4   32.98    4.02
  -9   4  -4   47.08    3.97
  -8   4  -4   21.41    3.02
  -7   4  -4   28.68    2.85
  -6   4  -4    0.98    0.66
  -5   4  -4    9.52    1.87
  -4   4  -4   39.24    3.00
  -3   4  -4  328.50   10.41
  -2   4  -4  170.82    6.62
  -1   4  -4   60.43    1.98
   0   4  -4   41.87    2.73
   1   4  -4   54.16    2.22
   2   4  -4    6.55    0.90
   3   4  -4  168.84    6.39
   4   4  -4   23.61    1.77
   5   4  -4    1.69    0.88
   6   4  -4   55.54    4.22
   7   4  -4    0.34    0.74
   8   4  -4   21.44    2.43
   9   4  -4    4.15    1.18
 -13   5  -4   20.78    3.47
 -12   5  -4    0.58    1.03
 -11   5  -4   25.66    3.77
 -10   5  -4   22.34    3.28
  -9   5  -4    3.16    1.24
  -8   5  -4   23.11    3.21
  -7   5  -4    1.43    0.84
  -6   5  -4  309.39   10.75
  -5   5  -4    3.00    1.08
  -4   5  -4   57.51    3.66
  -3   5  -4   14.48    2.20
  -2   5  -4   37.48    2.82
  -1   5  -4   10.07    1.03
   0   5  -4    2.92    0.59
   1   5  -4   13.53    1.37
   2   5  -4   92.83    2.64
   3   5  -4  135.14    4.16
   4   5  -4   50.80    3.80
   5   5  -4   22.67    2.20
   6   5  -4   37.19    2.83
   7   5  -4    0.35    0.59
   8   5  -4   60.98    3.63
 -13   6  -4   10.04    2.53
 -12   6  -4   18.22    3.14
 -11   6  -4   38.60    3.79
 -10   6  -4   59.64    4.53
  -9   6  -4   92.18    5.65
  -8   6  -4   18.17    2.87
  -7   6  -4   10.10    2.03
  -6   6  -4    4.31    1.28
  -5   6  -4   10.63    2.00
  -4   6  -4    4.84    1.34
  -3   6  -4   10.67    1.93
  -2   6  -4    1.03    0.47
  -1   6  -4  319.68    5.44
   0   6  -4    6.73    0.92
   1   6  -4   64.62    1.68
   2   6  -4    3.24    0.63
   3   6  -4   26.23    2.32
   4   6  -4   33.87    2.52
   5   6  -4   22.61    2.35
   6   6  -4   16.18    2.03
   7   6  -4   70.24    3.89
 -13   7  -4   69.77    5.51
 -12   7  -4    0.09    0.95
 -11   7  -4    0.58    0.78
 -10   7  -4   58.26    4.59
  -9   7  -4   30.26    3.91
  -8   7  -4   26.12    3.40
  -7   7  -4   16.65    2.69
  -6   7  -4   65.09    4.40
  -5   7  -4   88.83    5.19
  -4   7  -4  166.55    7.18
  -3   7  -4   29.50    2.82
  -2   7  -4    1.49    0.47
  -1   7  -4   12.82    1.31
   0   7  -4   19.53    1.21
   1   7  -4    0.38    0.24
   2   7  -4   43.98    1.95
   3   7  -4   21.63    2.17
   4   7  -4  189.78    6.15
   5   7  -4    1.08    0.68
   6   7  -4   12.74    1.93
 -13   8  -4   58.59    5.09
 -12   8  -4   22.61    3.58
 -11   8  -4   24.29    3.67
 -10   8  -4   28.22    3.80
  -9   8  -4    6.76    1.81
  -8   8  -4  144.75    7.46
  -7   8  -4    0.84    0.79
  -6   8  -4    2.17    1.14
  -5   8  -4  122.47    6.39
  -4   8  -4   19.42    2.95
  -3   8  -4   33.87    3.08
  -2   8  -4   17.42    1.60
  -1   8  -4   29.15    1.82
   0   8  -4  155.39    4.70
   1   8  -4   56.58    2.73
   2   8  -4    9.33    1.39
   3   8  -4    4.84    1.13
   4   8  -4   10.07    1.62
   5   8  -4   17.15    2.16
 -13   9  -4    2.49    1.33
 -12   9  -4    0.85    1.05
 -11   9  -4   16.12    3.09
 -10   9  -4   22.23    3.60
  -9   9  -4   59.69    4.76
  -8   9  -4   59.09    4.55
  -7   9  -4   27.58    3.66
  -6   9  -4   24.62    3.46
  -5   9  -4   46.40    3.91
  -4   9  -4    1.90    1.07
  -3   9  -4   92.19    5.45
  -2   9  -4   28.64    2.01
  -1   9  -4    5.14    0.97
   0   9  -4   59.58    3.91
   1   9  -4    5.57    1.57
   2   9  -4   20.79    2.17
   3   9  -4   30.34    2.79
   4   9  -4   14.68    1.99
 -13  10  -4    0.05    1.02
 -12  10  -4  126.05    7.45
 -11  10  -4    2.91    1.35
 -10  10  -4   13.39    2.78
  -9  10  -4    3.95    1.50
  -8  10  -4    9.82    2.36
  -7  10  -4   20.03    3.26
  -6  10  -4   29.04    3.76
  -5  10  -4   24.71    3.59
  -4  10  -4   57.67    4.46
  -3  10  -4   59.64    4.48
  -2  10  -4   20.41    3.18
  -1  10  -4   15.83    1.82
   0  10  -4   16.31    2.64
   1  10  -4    1.36    1.06
   2  10  -4  101.62    6.08
   3  10  -4    2.77    1.00
 -12  11  -4    1.46    1.28
 -11  11  -4    5.14    1.87
 -10  11  -4    3.95    1.60
  -9  11  -4   24.27    3.82
  -8  11  -4    4.70    1.86
  -7  11  -4  195.82    9.33
  -6  11  -4   18.26    3.14
  -5  11  -4   40.04    3.91
  -4  11  -4   -0.07    0.62
  -3  11  -4   25.68    3.63
  -2  11  -4    9.26    2.25
  -1  11  -4    2.55    0.81
   0  11  -4    3.53    1.40
   1  11  -4   53.29    4.46
 -11  12  -4   61.83    5.41
 -10  12  -4   98.51    6.72
  -9  12  -4   18.92    3.35
  -8  12  -4   11.40    2.65
  -7  12  -4    1.27    1.16
  -6  12  -4   17.95    3.33
  -5  12  -4    0.70    0.97
  -4  12  -4   20.63    3.53
  -3  12  -4    0.39    0.86
  -2  12  -4  119.79    7.20
  -1  12  -4    5.31    1.93
   0  12  -4    7.45    2.07
  -9  13  -4   10.86    2.66
  -8  13  -4   21.15    3.61
  -7  13  -4   11.09    2.76
  -6  13  -4   76.34    5.95
  -5  13  -4   61.80    5.29
  -4  13  -4    5.31    1.89
  -3  13  -4    0.11    0.94
   4 -14  -3   43.17    5.38
   5 -14  -3   11.19    2.58
   9 -14  -3   -0.40    0.96
  10 -14  -3   16.36    3.30
   2 -13  -3   14.70    3.04
   3 -13  -3   33.05    4.33
   4 -13  -3   27.77    3.92
   5 -13  -3    0.03    0.71
   6 -13  -3    2.57    1.41
   8 -13  -3   24.43    3.55
   9 -13  -3   59.67    4.93
  10 -13  -3    5.32    1.87
  11 -13  -3    1.39    1.24
   0 -12  -3   66.98    5.63
   1 -12  -3   24.77    3.91
   2 -12  -3   15.57    3.09
   3 -12  -3    4.48    1.54
   4 -12  -3  106.16    6.17
   5 -12  -3    0.27    0.67
   6 -12  -3   14.00    1.73
   7 -12  -3   20.72    3.09
   8 -12  -3   18.99    3.08
   9 -12  -3   25.27    3.82
  10 -12  -3    3.26    1.50
  11 -12  -3   19.09    3.45
  12 -12  -3   67.27    5.65
  -2 -11  -3    1.80    1.36
  -1 -11  -3   12.51    2.80
   0 -11  -3   22.47    3.57
   1 -11  -3    3.53    1.48
   2 -11  -3   34.06    4.32
   3 -11  -3   43.91    3.82
   4 -11  -3   28.38    3.50
   5 -11  -3   92.05    3.66
   6 -11  -3   19.52    1.97
   7 -11  -3    4.10    1.43
   8 -11  -3   16.33    2.83
   9 -11  -3   96.70    6.12
  10 -11  -3   22.49    3.56
  11 -11  -3   26.75    4.06
  12 -11  -3   20.46    3.71
  13 -11  -3   16.65    3.33
  -3 -10  -3    3.60    1.71
  -2 -10  -3    3.41    1.54
  -1 -10  -3   23.85    3.65
   0 -10  -3  119.75    6.88
   1 -10  -3   35.52    4.28
   2 -10  -3  141.25    6.95
   3 -10  -3    5.91    1.51
   4 -10  -3    1.38    0.55
   5 -10  -3   18.10    1.78
   6 -10  -3   23.33    2.07
   7 -10  -3   13.42    2.40
   8 -10  -3   30.54    3.93
   9 -10  -3   -0.34    0.62
  10 -10  -3  140.75    7.53
  11 -10  -3    2.12    1.30
  12 -10  -3   16.15    3.18
  13 -10  -3   35.49    4.70
  -5  -9  -3    0.27    1.15
  -4  -9  -3   52.53    4.87
  -3  -9  -3   22.96    3.59
  -2  -9  -3   87.69    5.94
  -1  -9  -3    0.77    0.80
   0  -9  -3    2.78    1.16
   1  -9  -3   46.96    3.74
   2  -9  -3   15.94    2.46
   3  -9  -3    1.40    0.53
   4  -9  -3    6.52    1.04
   5  -9  -3  230.45    5.71
   6  -9  -3   39.38    3.27
   7  -9  -3  113.63    6.06
   8  -9  -3    0.35    0.71
   9  -9  -3    2.04    1.02
  10  -9  -3   34.84    3.54
  11  -9  -3   32.89    4.18
  12  -9  -3    4.96    1.72
  13  -9  -3   28.93    4.03
  14  -9  -3   11.51    2.77
  -6  -8  -3    0.69    1.03
  -5  -8  -3   20.75    3.42
  -4  -8  -3   11.35    2.58
  -3  -8  -3   11.56    2.60
  -2  -8  -3   30.97    3.99
  -1  -8  -3    0.93    0.72
   0  -8  -3    2.60    1.09
   1  -8  -3  193.76    7.82
   2  -8  -3   65.21    2.64
   3  -8  -3  217.40    5.46
   4  -8  -3   51.62    2.31
   5  -8  -3   13.59    1.41
   6  -8  -3    5.12    1.45
   7  -8  -3   23.14    3.02
   8  -8  -3    2.62    1.17
   9  -8  -3   52.92    4.09
  10  -8  -3  146.44    7.33
  11  -8  -3   40.51    3.88
  12  -8  -3   97.27    6.25
  13  -8  -3   -0.10    0.70
  14  -8  -3   12.01    2.70
  -7  -7  -3   33.46    4.53
  -6  -7  -3   68.94    5.38
  -5  -7  -3   21.77    3.40
  -4  -7  -3    3.26    1.38
  -3  -7  -3   14.06    2.61
  -2  -7  -3  100.42    5.86
  -1  -7  -3   25.43    3.22
   0  -7  -3   82.82    4.68
   1  -7  -3   88.99    2.99
   2  -7  -3   21.51    1.54
   3  -7  -3  108.82    3.42
   4  -7  -3   22.30    1.41
   5  -7  -3   11.32    1.18
   6  -7  -3  268.23    9.56
   7  -7  -3   77.71    4.72
   8  -7  -3  203.09    8.26
   9  -7  -3   16.06    2.63
  10  -7  -3    3.61    1.28
  11  -7  -3   29.45    3.71
  12  -7  -3    0.37    0.80
  13  -7  -3    0.98    1.01
  14  -7  -3   26.86    3.82
  -8  -6  -3    9.59    2.36
  -7  -6  -3    0.63    0.89
  -6  -6  -3   14.42    2.83
  -5  -6  -3   20.84    3.24
  -4  -6  -3   16.71    2.77
  -3  -6  -3   39.36    3.45
  -2  -6  -3    4.09    1.31
  -1  -6  -3  268.82    9.52
   0  -6  -3   42.04    1.89
   1  -6  -3   26.11    1.49
   2  -6  -3   56.97    2.28
   3  -6  -3  230.58    5.36
   4  -6  -3   62.19    2.28
   5  -6  -3   43.05    1.79
   6  -6  -3   45.44    3.30
   7  -6  -3   88.14    4.89
   8  -6  -3   57.68    4.07
   9  -6  -3    1.85    0.60
  10  -6  -3    2.46    0.76
  11  -6  -3   92.50    3.75
  12  -6  -3   14.84    2.78
  13  -6  -3   78.53    5.37
  -9  -5  -3    9.50    2.44
  -8  -5  -3   -0.21    0.76
  -7  -5  -3    0.27    0.78
  -6  -5  -3   92.04    5.81
  -5  -5  -3   19.25    2.96
  -4  -5  -3  213.96    8.85
  -3  -5  -3   12.70    2.23
  -2  -5  -3    8.57    1.80
  -1  -5  -3   43.98    1.88
   0  -5  -3  132.65    3.63
   1  -5  -3   17.85    1.18
   2  -5  -3   94.77    2.88
   3  -5  -3   44.85    1.83
   4  -5  -3  282.27    5.82
   5  -5  -3  133.18    3.62
   6  -5  -3   25.62    2.37
   7  -5  -3   19.95    2.70
   8  -5  -3  209.69    8.33
   9  -5  -3    6.56    1.08
  10  -5  -3   18.44    1.84
  11  -5  -3   18.40    1.89
  12  -5  -3   22.56    2.26
  13  -5  -3   15.03    2.06
 -10  -4  -3   36.78    4.61
  -9  -4  -3   23.08    3.57
  -8  -4  -3   95.79    6.17
  -7  -4  -3   26.28    3.64
  -6  -4  -3    1.61    0.98
  -5  -4  -3    6.57    1.01
  -4  -4  -3   49.50    3.67
  -3  -4  -3   25.58    2.47
  -2  -4  -3   64.55    2.25
  -1  -4  -3  288.93    6.04
   0  -4  -3  136.33    3.59
   1  -4  -3  381.57    7.37
   2  -4  -3    6.89    0.83
   3  -4  -3   27.51    1.30
   4  -4  -3  137.59    3.19
   5  -4  -3   15.38    2.05
   6  -4  -3   57.53    3.60
   7  -4  -3  101.65    5.09
   8  -4  -3   50.19    2.38
   9  -4  -3  222.08    5.86
  10  -4  -3   19.67    1.91
  11  -4  -3    3.60    0.91
  12  -4  -3   11.60    1.62
  13  -4  -3   65.50    4.90
  14  -4  -3   13.44    2.77
 -10  -3  -3   32.46    4.32
  -9  -3  -3    3.88    1.57
  -8  -3  -3   41.56    3.82
  -7  -3  -3    4.43    1.44
  -6  -3  -3    0.69    0.71
  -5  -3  -3  219.18    5.34
  -4  -3  -3  104.45    3.17
  -3  -3  -3  239.04    5.26
  -2  -3  -3   47.55    1.91
  -1  -3  -3   29.77    1.47
   0  -3  -3   88.13    2.70
   1  -3  -3   22.31    1.23
   2  -3  -3   78.63    2.35
   3  -3  -3   91.19    2.44
   4  -3  -3  375.06    6.65
   5  -3  -3   98.50    4.47
   6  -3  -3  236.20    8.18
   7  -3  -3   20.59    2.56
   8  -3  -3   10.44    1.30
   9  -3  -3   40.97    2.25
  10  -3  -3   11.29    1.50
  11  -3  -3   17.35    1.89
  12  -3  -3   23.24    3.33
  13  -3  -3    4.63    1.59
 -11  -2  -3   18.76    3.29
 -10  -2  -3   12.16    2.67
  -9  -2  -3   30.73    3.98
  -8  -2  -3  138.66    7.00
  -7  -2  -3   14.84    2.59
  -6  -2  -3   58.26    4.12
  -5  -2  -3   20.77    1.36
  -4  -2  -3   57.85    1.65
  -3  -2  -3   96.84    2.89
  -2  -2  -3    8.20    0.92
  -1  -2  -3   75.18    2.45
   0  -2  -3  344.17    6.64
   1  -2  -3   74.67    2.28
   2  -2  -3  352.81    6.42
   3  -2  -3   26.32    1.06
   4  -2  -3    6.49    1.28
   5  -2  -3   46.86    2.96
   6  -2  -3   68.40    3.69
   7  -2  -3    8.91    1.14
   8  -2  -3    3.92    0.85
   9  -2  -3  119.32    4.08
  10  -2  -3   34.34    2.18
  11  -2  -3   96.61    5.80
  12  -2  -3    4.35    1.61
  13  -2  -3    1.46    1.18
 -12  -1  -3   11.21    2.50
 -11  -1  -3   27.50    3.86
 -10  -1  -3    7.09    1.93
  -9  -1  -3   34.40    3.38
  -8  -1  -3   45.84    3.76
  -7  -1  -3  190.94    8.07
  -6  -1  -3   76.02    4.61
  -5  -1  -3   25.03    1.28
  -4  -1  -3   15.67    0.94
  -3  -1  -3  376.22   11.02
  -2  -1  -3   24.10    1.32
  -1  -1  -3   73.12    2.33
   0  -1  -3   57.09    1.94
   1  -1  -3   56.52    1.86
   2  -1  -3   72.87    2.07
   3  -1  -3   79.49    1.97
   4  -1  -3   28.17    2.16
   5  -1  -3  282.90    8.85
   6  -1  -3   36.01    2.64
   7  -1  -3  271.77    6.45
   8  -1  -3   24.43    1.66
   9  -1  -3    1.39    0.56
  10  -1  -3    1.27    0.89
  11  -1  -3   25.29    3.64
  12  -1  -3   17.05    3.09
 -12   0  -3   64.79    5.15
 -11   0  -3   29.63    3.97
 -10   0  -3  128.41    6.91
  -9   0  -3    6.25    1.71
  -8   0  -3    4.53    1.47
  -7   0  -3   81.62    4.80
  -6   0  -3   42.31    3.21
  -5   0  -3  130.94    3.24
  -4   0  -3  140.91    3.07
  -3   0  -3   85.36    4.18
  -2   0  -3  344.15    9.75
  -1   0  -3   57.49    2.83
   0   0  -3    0.23    0.21
   1   0  -3   55.64    1.83
   2   0  -3  356.14    6.31
   3   0  -3   90.43    2.28
   4   0  -3  133.97    5.17
   5   0  -3  129.86    5.18
   6   0  -3   41.18    2.02
   7   0  -3   82.45    3.09
   8   0  -3    5.03    0.94
   9   0  -3    3.01    1.24
  10   0  -3  135.00    7.06
  11   0  -3   22.14    3.43
  12   0  -3   62.93    5.20
 -12   1  -3   11.17    2.53
 -11   1  -3   19.40    3.18
 -10   1  -3    1.15    0.90
  -9   1  -3    1.73    0.95
  -8   1  -3   21.27    2.89
  -7   1  -3  268.00    9.60
  -6   1  -3   42.47    3.20
  -5   1  -3  281.18    5.65
  -4   1  -3   28.94    0.93
  -2   1  -3   72.95    3.45
  -1   1  -3   55.79    2.77
   0   1  -3   55.99    1.90
   1   1  -3   75.19    2.90
   2   1  -3   26.38    1.20
   3   1  -3  391.29    6.87
   4   1  -3   16.11    1.58
   5   1  -3   25.65    1.52
   6   1  -3   82.83    3.03
   7   1  -3  198.59    5.21
   8   1  -3   47.72    3.78
   9   1  -3   35.43    3.41
  10   1  -3    5.99    1.85
  11   1  -3   25.22    2.59
 -13   2  -3    0.71    1.55
 -12   2  -3    6.73    1.92
 -11   2  -3   99.52    5.90
 -10   2  -3   28.09    3.59
  -9   2  -3  121.16    6.21
  -8   2  -3    2.96    1.13
  -7   2  -3   12.55    2.09
  -5   2  -3   47.03    3.09
  -4   2  -3    9.09    1.59
  -3   2  -3   21.03    1.87
  -2   2  -3  351.93    9.67
  -1   2  -3   74.71    1.79
   0   2  -3  339.44    9.14
   1   2  -3   71.88    2.27
   2   2  -3    6.79    0.74
   3   2  -3  100.28    4.09
   4   2  -3   52.69    2.22
   5   2  -3   22.54    1.56
   6   2  -3   58.32    2.53
   7   2  -3   15.08    2.54
   8   2  -3  141.09    7.07
   9   2  -3   40.15    3.73
  10   2  -3   12.85    1.91
  11   2  -3   15.89    2.19
 -13   3  -3    5.68    1.85
 -12   3  -3   22.76    3.28
 -11   3  -3   15.13    2.68
 -10   3  -3   11.62    2.26
  -9   3  -3   48.54    3.69
  -8   3  -3   14.19    2.35
  -7   3  -3   22.47    2.76
  -6   3  -3  235.26    8.32
  -5   3  -3   94.99    2.62
  -4   3  -3  394.02    6.74
  -3   3  -3   92.39    2.14
  -2   3  -3   77.15    1.93
  -1   3  -3   24.69    1.04
   0   3  -3   87.30    3.71
   1   3  -3   26.87    1.33
   2   3  -3   44.65    2.60
   3   3  -3  233.43    7.34
   4   3  -3  103.55    3.31
   5   3  -3  217.00    5.39
   6   3  -3    1.04    0.81
   7   3  -3    4.72    1.43
   8   3  -3   41.33    2.67
   9   3  -3    3.86    1.04
  10   3  -3   33.13    3.10
 -13   4  -3   59.71    4.75
 -12   4  -3   14.26    2.61
 -11   4  -3    4.60    1.46
 -10   4  -3   17.74    2.74
  -9   4  -3  239.34    8.94
  -8   4  -3   48.70    3.53
  -7   4  -3  103.21    5.18
  -6   4  -3   49.63    3.35
  -5   4  -3   16.62    0.97
  -4   4  -3  140.15    3.11
  -3   4  -3   29.98    1.15
  -2   4  -3    6.85    0.68
  -1   4  -3  376.67    6.92
   0   4  -3  133.08    5.00
   2   4  -3   65.00    3.18
   3   4  -3   20.15    1.44
   4   4  -3   45.63    2.12
   5   4  -3    5.60    1.53
   6   4  -3    1.32    0.58
   7   4  -3   33.50    2.87
   8   4  -3   96.35    4.32
   9   4  -3   26.38    2.77
 -13   5  -3   18.79    3.18
 -12   5  -3   18.70    3.02
 -11   5  -3   21.01    3.14
 -10   5  -3   21.16    3.00
  -9   5  -3    6.38    1.68
  -8   5  -3  211.74    8.23
  -7   5  -3   22.08    2.78
  -6   5  -3   26.61    2.44
  -5   5  -3  136.42    3.34
  -4   5  -3  294.22    5.71
  -3   5  -3   46.05    1.22
  -2   5  -3   97.63    2.08
  -1   5  -3   15.14    1.04
   0   5  -3  135.98    4.76
   1   5  -3   42.97    2.80
   2   5  -3    9.61    1.09
   3   5  -3   12.19    1.12
   4   5  -3  220.84    6.05
   5   5  -3   15.12    1.83
   6   5  -3   89.95    3.94
   7   5  -3   -0.06    0.51
   8   5  -3    0.09    0.58
   9   5  -3   10.66    2.05
 -13   6  -3   77.07    5.38
 -12   6  -3   12.88    2.54
 -11   6  -3   96.90    5.64
 -10   6  -3    1.90    0.94
  -9   6  -3    0.92    0.78
  -8   6  -3   59.84    4.05
  -7   6  -3   83.84    4.76
  -6   6  -3   45.12    2.01
  -5   6  -3   44.51    1.79
  -4   6  -3   62.30    2.15
  -3   6  -3  237.64    5.13
  -2   6  -3   56.62    1.65
  -1   6  -3   25.51    1.29
   0   6  -3   44.37    1.55
   1   6  -3  262.31    6.18
   2   6  -3    4.36    0.72
   3   6  -3   40.81    2.26
   4   6  -3   18.27    1.91
   5   6  -3   18.56    2.05
   6   6  -3   12.60    1.77
   7   6  -3    1.44    0.71
   8   6  -3   12.45    1.91
 -13   7  -3    0.93    1.06
 -12   7  -3    1.71    1.02
 -11   7  -3   33.98    3.30
 -10   7  -3    7.85    1.86
  -9   7  -3   14.72    2.43
  -8   7  -3  182.83    7.85
  -7   7  -3   76.96    4.66
  -6   7  -3  265.43    6.01
  -5   7  -3   10.08    1.06
  -4   7  -3   20.80    1.35
  -3   7  -3  107.28    3.21
  -2   7  -3   20.26    1.16
  -1   7  -3   86.78    2.27
   0   7  -3   85.77    2.39
   1   7  -3   24.63    1.31
   2   7  -3  118.00    3.26
   3   7  -3   12.68    1.60
   4   7  -3    2.03    0.74
   5   7  -3   21.00    2.32
   6   7  -3   72.15    3.73
   7   7  -3   25.92    2.79
 -13   8  -3   -0.01    0.83
 -12   8  -3   81.17    5.51
 -11   8  -3   44.39    3.81
 -10   8  -3  132.54    6.77
  -9   8  -3   43.25    3.66
  -8   8  -3    4.80    1.45
  -7   8  -3   22.80    3.01
  -6   8  -3    4.15    0.78
  -5   8  -3   11.98    1.25
  -4   8  -3   50.31    2.17
  -3   8  -3  209.57    5.29
  -2   8  -3   59.11    3.31
  -1   8  -3  198.34    4.87
   0   8  -3    4.04    0.76
   1   8  -3    2.01    0.64
   2   8  -3   33.40    1.75
   3   8  -3   13.24    1.36
   4   8  -3   11.20    1.32
   5   8  -3   19.63    1.82
   6   8  -3    0.49    0.60
 -14   9  -3   12.63    4.22
 -13   9  -3   26.84    3.79
 -12   9  -3    4.59    1.65
 -11   9  -3   25.54    3.52
 -10   9  -3   25.58    3.52
  -9   9  -3    4.20    1.42
  -8   9  -3    1.37    0.94
  -7   9  -3  116.88    6.20
  -6   9  -3   39.56    2.04
  -5   9  -3  220.44    5.53
  -4   9  -3    5.10    0.86
  -3   9  -3    0.84    0.53
  -2   9  -3   15.99    2.14
  -1   9  -3   48.98    2.33
   0   9  -3    2.17    0.66
   1   9  -3    1.38    0.57
   2   9  -3  101.63    4.02
   3   9  -3   24.43    2.46
   4   9  -3   63.98    3.49
   5   9  -3    0.25    0.66
 -14  10  -3   37.75    4.69
 -13  10  -3   39.80    4.83
 -12  10  -3    8.91    2.22
 -11  10  -3    3.38    1.32
 -10  10  -3  127.58    6.99
  -9  10  -3    0.48    0.66
  -8  10  -3   32.61    3.98
  -7  10  -3   13.07    2.46
  -6  10  -3   18.84    1.79
  -5  10  -3   16.35    1.67
  -4  10  -3    2.48    0.70
  -3  10  -3    7.46    1.49
  -2  10  -3  132.47    5.94
  -1  10  -3   36.45    3.03
   0  10  -3  132.01    4.52
   1  10  -3   20.43    2.10
   2  10  -3    5.02    1.14
   3  10  -3    5.77    1.24
   4  10  -3   13.04    2.81
 -13  11  -3   16.12    3.09
 -12  11  -3   21.96    3.50
 -11  11  -3   26.35    3.88
 -10  11  -3   16.45    2.97
  -9  11  -3   94.69    6.08
  -8  11  -3   19.74    3.27
  -7  11  -3    3.32    1.44
  -6  11  -3   22.68    2.08
  -5  11  -3   93.15    3.64
  -4  11  -3   28.92    2.13
  -3  11  -3   41.18    3.26
  -2  11  -3   30.69    3.55
  -1  11  -3    3.88    1.38
   0  11  -3   28.83    3.57
   1  11  -3    7.53    1.93
   2  11  -3    2.78    0.97
 -13  12  -3    5.77    1.99
 -12  12  -3   72.11    5.57
 -11  12  -3   16.07    3.04
 -10  12  -3    3.70    1.57
  -9  12  -3   23.01    3.51
  -8  12  -3   11.69    2.52
  -7  12  -3   18.22    3.09
  -6  12  -3   11.46    1.64
  -5  12  -3    0.59    0.46
  -4  12  -3  102.22    4.12
  -3  12  -3    4.14    1.48
  -2  12  -3   14.50    2.53
  -1  12  -3   28.54    3.67
   0  12  -3   69.10    5.07
   1  12  -3   11.69    3.93
 -12  13  -3   12.80    3.32
 -11  13  -3    2.32    1.47
 -10  13  -3    3.68    1.71
  -9  13  -3   56.83    4.95
  -8  13  -3   15.37    3.03
  -7  13  -3   71.83    5.51
  -6  13  -3    1.38    1.11
  -5  13  -3    0.23    0.54
  -4  13  -3   25.70    2.59
  -3  13  -3   41.87    3.70
  -2  13  -3   18.31    3.09
  -1  13  -3    8.63    2.32
  -9  14  -3   -0.15    1.15
  -8  14  -3    1.75    1.23
  -7  14  -3   22.12    3.72
  -6  14  -3    6.85    2.23
  -5  14  -3    9.82    2.15
  -4  14  -3   43.21    3.89
   6 -15  -2   18.01    3.52
   7 -15  -2   46.29    4.39
   3 -14  -2   34.24    4.66
   4 -14  -2    6.27    2.14
   5 -14  -2    1.41    1.15
   6 -14  -2   37.89    4.66
   7 -14  -2   10.23    2.41
   9 -14  -2   63.48    4.92
  10 -14  -2   13.86    2.84
  11 -14  -2   45.96    5.43
   1 -13  -2    8.78    2.43
   2 -13  -2    8.48    2.29
   3 -13  -2    0.41    1.00
   4 -13  -2   25.22    3.70
   5 -13  -2   76.29    5.41
   6 -13  -2   35.57    3.45
   7 -13  -2   56.53    3.00
   8 -13  -2   33.39    4.00
   9 -13  -2   40.65    3.93
  10 -13  -2    6.10    1.95
  11 -13  -2   45.97    4.56
  12 -13  -2    2.56    1.46
  -1 -12  -2    2.71    1.48
   0 -12  -2   20.03    3.43
   1 -12  -2    0.95    1.05
   2 -12  -2  110.16    6.70
   3 -12  -2    5.53    1.74
   4 -12  -2   31.76    3.98
   5 -12  -2    2.11    1.09
   6 -12  -2   36.81    2.27
   7 -12  -2    3.85    0.91
   8 -12  -2    7.99    1.94
   9 -12  -2   28.75    3.87
  10 -12  -2   19.52    3.25
  11 -12  -2   79.95    5.86
  12 -12  -2   25.04    3.88
  13 -12  -2    6.35    2.11
  -2 -11  -2   49.58    4.68
  -1 -11  -2   89.18    6.15
   0 -11  -2   20.25    3.45
   1 -11  -2   13.43    2.78
   2 -11  -2    2.27    1.14
   3 -11  -2   35.07    3.34
   4 -11  -2   63.88    4.39
   5 -11  -2   63.20    2.88
   6 -11  -2    1.45    0.59
   7 -11  -2  322.83    7.87
   8 -11  -2    6.45    1.71
   9 -11  -2   40.73    3.75
  10 -11  -2    5.45    1.65
  11 -11  -2   13.45    2.78
  12 -11  -2    0.86    0.92
  13 -11  -2    8.78    2.33
  14 -11  -2   37.22    5.57
  -4 -10  -2   18.73    3.56
  -3 -10  -2    5.49    1.89
  -2 -10  -2   17.26    3.15
  -1 -10  -2    9.13    2.30
   0 -10  -2  101.52    6.10
   1 -10  -2   32.25    3.19
   2 -10  -2   39.70    3.46
   3 -10  -2   82.36    4.89
   4 -10  -2   66.94    2.82
   5 -10  -2   38.90    2.13
   6 -10  -2    9.61    1.29
   7 -10  -2   10.67    1.34
   8 -10  -2  100.33    5.71
   9 -10  -2   18.45    2.88
  10 -10  -2  103.59    6.22
  11 -10  -2    8.69    2.16
  12 -10  -2  112.72    6.87
  13 -10  -2    0.93    0.83
  14 -10  -2    9.52    2.58
  -5  -9  -2   62.41    5.19
  -4  -9  -2   36.79    4.63
  -3  -9  -2   27.71    3.94
  -2  -9  -2   33.52    4.10
  -1  -9  -2   19.20    3.06
   0  -9  -2   57.26    4.20
   1  -9  -2    7.51    1.78
   2  -9  -2    6.69    1.53
   3  -9  -2  162.30    4.54
   4  -9  -2   42.71    2.10
   5  -9  -2   66.81    2.69
   6  -9  -2   59.36    2.52
   7  -9  -2   58.36    2.52
   8  -9  -2   87.30    5.08
   9  -9  -2   63.89    4.44
  10  -9  -2   34.05    3.31
  11  -9  -2    4.05    1.52
  12  -9  -2    6.56    1.87
  13  -9  -2   20.80    3.47
  14  -9  -2    1.63    1.22
  15  -9  -2   21.36    5.32
  -6  -8  -2    4.45    1.68
  -5  -8  -2   36.37    4.54
  -4  -8  -2    6.28    1.86
  -3  -8  -2    5.72    1.65
  -2  -8  -2   93.73    5.62
  -1  -8  -2   84.16    5.08
   0  -8  -2  120.57    5.96
   1  -8  -2   14.85    2.32
   2  -8  -2   30.04    1.59
   3  -8  -2  114.53    3.50
   4  -8  -2   30.96    1.68
   5  -8  -2   32.31    1.71
   6  -8  -2   33.76    1.76
   7  -8  -2   49.94    2.16
   8  -8  -2  130.11    6.23
   9  -8  -2    5.64    1.58
  10  -8  -2   37.29    3.38
  11  -8  -2   37.79    3.52
  12  -8  -2   33.30    4.18
  13  -8  -2   74.12    5.32
  14  -8  -2   40.02    4.07
  15  -8  -2   45.28    4.41
  -8  -7  -2   38.01    5.35
  -7  -7  -2    7.23    1.34
  -6  -7  -2   56.30    3.04
  -5  -7  -2    2.80    1.27
  -4  -7  -2  345.95   12.27
  -3  -7  -2   10.58    2.20
  -2  -7  -2   62.20    4.19
  -1  -7  -2   48.35    3.49
   0  -7  -2   61.92    3.85
   1  -7  -2   14.52    1.11
   2  -7  -2   27.06    1.45
   3  -7  -2  104.47    3.15
   4  -7  -2  157.70    4.10
   5  -7  -2  199.75    4.82
   6  -7  -2  108.16    3.23
   7  -7  -2   73.60    4.19
   8  -7  -2   15.98    2.38
   9  -7  -2    5.32    1.44
  10  -7  -2   78.72    4.95
  11  -7  -2   71.41    4.74
  12  -7  -2    1.82    1.14
  13  -7  -2   31.03    3.95
  14  -7  -2   10.35    2.37
  -9  -6  -2   16.06    3.01
  -8  -6  -2   40.03    2.89
  -7  -6  -2   35.06    2.57
  -6  -6  -2   39.59    2.43
  -5  -6  -2    1.42    0.58
  -4  -6  -2    7.79    1.16
  -3  -6  -2   61.22    4.08
  -2  -6  -2   30.39    2.72
  -1  -6  -2  103.06    5.08
   0  -6  -2   20.23    1.12
   1  -6  -2  336.02    6.65
   2  -6  -2    5.74    0.79
   3  -6  -2  140.66    3.64
   4  -6  -2   14.07    1.05
   5  -6  -2  186.52    4.35
   6  -6  -2   21.13    1.25
   7  -6  -2   10.97    1.81
   8  -6  -2   28.67    1.60
   9  -6  -2  174.25    4.67
  10  -6  -2   72.76    2.95
  11  -6  -2   58.16    2.78
  12  -6  -2   42.56    3.67
  13  -6  -2   54.06    4.33
  -9  -5  -2    2.92    1.38
  -8  -5  -2   72.19    3.45
  -7  -5  -2    2.77    0.85
  -6  -5  -2   65.02    2.95
  -5  -5  -2   41.19    2.22
  -4  -5  -2   70.08    2.80
  -3  -5  -2   26.88    1.59
  -2  -5  -2  194.97    7.40
  -1  -5  -2  183.16    4.04
   0  -5  -2    3.47    0.54
   1  -5  -2   52.73    1.84
   2  -5  -2   71.97    2.23
   3  -5  -2   12.29    0.91
   4  -5  -2   60.34    2.00
   5  -5  -2    5.41    0.66
   6  -5  -2  336.92    6.38
   7  -5  -2   30.19    1.58
   8  -5  -2  120.54    3.63
   9  -5  -2   45.28    2.19
  10  -5  -2   44.35    2.28
  11  -5  -2    1.11    0.49
  12  -5  -2    2.63    0.77
  13  -5  -2   29.04    3.54
 -10  -4  -2    2.24    1.23
  -9  -4  -2   28.71    3.05
  -8  -4  -2   24.54    2.29
  -7  -4  -2   72.47    3.13
  -6  -4  -2   67.21    2.90
  -5  -4  -2   45.74    2.20
  -4  -4  -2   26.45    1.57
  -3  -4  -2  159.67    4.11
  -2  -4  -2   14.80    0.83
  -1  -4  -2   64.09    1.95
   0  -4  -2  133.48    3.18
   1  -4  -2  267.82    5.25
   2  -4  -2  279.11    5.36
   3  -4  -2  133.00    3.08
   4  -4  -2  133.21    2.99
   5  -4  -2   53.38    1.78
   6  -4  -2    6.42    1.37
   7  -4  -2  113.01    3.33
   8  -4  -2   31.69    1.74
   9  -4  -2   72.99    2.87
  10  -4  -2   10.21    1.33
  11  -4  -2  348.25    8.11
  12  -4  -2    4.14    1.37
  13  -4  -2   38.33    3.58
  14  -4  -2   18.26    3.03
 -10  -3  -2    0.32    0.80
  -9  -3  -2    7.45    1.24
  -8  -3  -2   35.55    2.32
  -7  -3  -2   82.61    3.22
  -6  -3  -2  168.87    4.68
  -5  -3  -2  117.33    3.55
  -4  -3  -2  104.91    3.16
  -3  -3  -2  148.66    2.67
  -2  -3  -2   13.24    0.90
  -1  -3  -2  132.32    3.10
   0  -3  -2   47.85    1.64
   1  -3  -2   69.39    2.02
   2  -3  -2  278.83    5.24
   3  -3  -2   49.89    1.46
   4  -3  -2  267.80    4.78
   5  -3  -2   72.71    3.50
   6  -3  -2  140.80    5.41
   7  -3  -2  159.96    4.23
   8  -3  -2   32.38    1.78
   9  -3  -2   57.26    2.55
  10  -3  -2   13.49    1.52
  11  -3  -2    3.79    0.94
  12  -3  -2   30.06    3.70
  13  -3  -2    4.28    1.59
  14  -3  -2   34.33    4.40
 -11  -2  -2    7.93    2.01
 -10  -2  -2  120.26    6.46
  -9  -2  -2    2.18    0.69
  -8  -2  -2   40.53    2.20
  -7  -2  -2    7.46    1.08
  -6  -2  -2   29.87    1.65
  -5  -2  -2   27.22    1.48
  -4  -2  -2    6.36    0.55
  -3  -2  -2   71.26    1.63
  -2  -2  -2  279.15    4.18
  -1  -2  -2  280.76    5.32
   0  -2  -2  428.82    7.57
   1  -2  -2  198.86    3.96
   2  -2  -2  449.83    7.41
   3  -2  -2   70.61    1.59
   4  -2  -2  267.70    7.90
   6  -2  -2   12.79    1.18
   7  -2  -2  210.01    5.06
   8  -2  -2   33.10    1.85
   9  -2  -2   61.18    2.66
  10  -2  -2  104.51    3.83
  11  -2  -2   36.62    3.43
  12  -2  -2   19.29    3.03
  13  -2  -2   48.16    4.27
 -11  -1  -2    1.88    1.02
 -10  -1  -2    7.31    1.80
  -9  -1  -2   32.92    2.02
  -8  -1  -2    4.81    0.91
  -7  -1  -2   16.54    1.58
  -6  -1  -2   13.45    1.29
  -5  -1  -2  348.41    6.77
  -4  -1  -2   51.84    1.75
  -3  -1  -2  269.46    5.06
  -2  -1  -2   71.13    1.78
  -1  -1  -2  196.27    4.01
   0  -1  -2   45.57    1.44
   1  -1  -2   45.88    1.37
   2  -1  -2  206.51    3.69
   3  -1  -2  285.33    7.83
   4  -1  -2  129.08    4.63
   5  -1  -2   64.36    2.23
   6  -1  -2  189.44    4.59
   7  -1  -2  114.16    3.47
   8  -1  -2   50.35    2.27
   9  -1  -2   83.85    3.37
  10  -1  -2   17.72    2.75
  11  -1  -2    7.74    1.97
  12  -1  -2   83.32    5.59
  13  -1  -2    2.10    0.87
 -11   0  -2   17.51    2.83
 -10   0  -2  103.46    5.68
  -9   0  -2   63.61    2.77
  -8   0  -2  119.06    3.80
  -7   0  -2   69.13    2.59
  -6   0  -2   22.28    1.30
  -5   0  -2    3.33    0.56
  -4   0  -2  128.76    3.03
  -3   0  -2   51.08    1.44
  -2   0  -2  439.89    7.15
  -1   0  -2   43.07    2.06
   0   0  -2  845.86   13.35
   1   0  -2   45.15    1.32
   2   0  -2  439.60    7.25
   3   0  -2   49.58    1.28
   4   0  -2  121.34    4.42
   5   0  -2    4.33    0.67
   6   0  -2   20.93    1.29
   7   0  -2   67.51    2.57
   8   0  -2  115.64    5.77
   9   0  -2   65.90    4.38
  10   0  -2  106.43    6.10
  11   0  -2   17.68    2.08
  12   0  -2   21.86    2.37
  13   0  -2    3.60    1.63
 -11   1  -2    6.90    1.83
 -10   1  -2   19.68    1.89
  -9   1  -2   79.97    3.12
  -8   1  -2   50.98    2.24
  -7   1  -2  113.96    3.37
  -6   1  -2  187.13    4.41
  -5   1  -2   61.21    2.01
  -4   1  -2  130.25    2.97
  -3   1  -2  284.76    4.98
  -2   1  -2  202.67    5.98
  -1   1  -2   45.65    2.11
   0   1  -2   47.31    1.97
   1   1  -2  205.50    3.87
   2   1  -2   67.08    2.83
   3   1  -2  267.67    7.32
   4   1  -2   54.99    1.92
   5   1  -2  340.65    6.79
   6   1  -2   14.39    1.14
   7   1  -2   17.11    2.42
   8   1  -2    4.89    1.39
   9   1  -2   32.06    3.76
  10   1  -2    9.79    1.57
  11   1  -2    1.14    0.67
  12   1  -2   11.86    1.93
 -12   2  -2   20.94    3.38
 -11   2  -2   39.91    3.41
 -10   2  -2  101.16    3.62
  -9   2  -2   60.73    2.60
  -8   2  -2   33.14    1.76
  -7   2  -2  212.49    4.94
  -6   2  -2   15.63    1.09
  -5   2  -2   14.17    0.93
  -4   2  -2  277.39    5.16
  -3   2  -2   70.84    1.72
  -2   2  -2  438.51    7.16
  -1   2  -2  201.90    3.64
   0   2  -2  441.54   10.62
   2   2  -2  271.54    7.37
   3   2  -2   71.16    2.20
   4   2  -2    5.76    0.75
   5   2  -2   28.51    1.45
   6   2  -2   28.29    2.53
   7   2  -2    7.50    1.65
   8   2  -2   35.42    3.26
   9   2  -2    0.69    0.51
  10   2  -2  115.66    4.72
  11   2  -2    7.13    1.49
 -12   3  -2   21.65    3.18
 -11   3  -2    4.02    1.31
 -10   3  -2   13.06    1.50
  -9   3  -2   58.61    2.52
  -8   3  -2   32.37    1.71
  -7   3  -2  162.73    4.09
  -6   3  -2  141.04    3.56
  -5   3  -2   71.85    2.12
  -4   3  -2  261.67    4.98
  -3   3  -2   50.07    1.44
  -2   3  -2  279.00    5.02
  -1   3  -2   69.07    1.81
   2   3  -2   12.34    0.90
   3   3  -2  143.96    3.52
   4   3  -2  109.09    3.03
   5   3  -2  120.01    5.43
   6   3  -2  169.99    7.11
   7   3  -2   85.13    3.60
   8   3  -2   37.06    2.44
   9   3  -2    4.26    0.96
  10   3  -2    1.11    0.72
  11   3  -2   35.04    4.61
 -12   4  -2    7.58    1.86
 -11   4  -2  348.57   11.46
 -10   4  -2    8.38    1.15
  -9   4  -2   71.10    2.76
  -8   4  -2   30.47    1.65
  -7   4  -2  108.33    3.14
  -6   4  -2    5.33    0.73
  -5   4  -2   51.97    1.73
  -4   4  -2  129.88    3.02
  -3   4  -2  132.03    2.14
  -2   4  -2  279.73    4.08
  -1   4  -2  254.81    6.75
   1   4  -2   62.02    2.93
   2   4  -2   14.06    1.00
   3   4  -2  157.68    3.83
   4   4  -2   30.98    1.82
   5   4  -2   42.00    2.29
   6   4  -2   74.05    3.23
   7   4  -2   71.88    3.35
   8   4  -2   29.67    2.67
   9   4  -2   29.13    2.81
  10   4  -2    5.29    1.30
 -12   5  -2    4.10    1.39
 -11   5  -2    1.19    0.84
 -10   5  -2   42.17    2.18
  -9   5  -2   43.42    2.13
  -8   5  -2  118.59    3.55
  -7   5  -2   30.33    1.52
  -6   5  -2  336.82    6.65
  -5   5  -2    3.67    0.56
  -4   5  -2   58.11    1.92
  -3   5  -2   13.33    0.86
  -2   5  -2   71.42    1.86
  -1   5  -2   52.29    1.67
   0   5  -2    3.93    0.49
   1   5  -2  185.15    4.42
   2   5  -2  204.73    3.85
   3   5  -2   29.17    1.72
   4   5  -2   72.00    2.94
   5   5  -2   39.18    2.30
   6   5  -2   62.32    3.10
   7   5  -2    2.04    0.78
   8   5  -2   70.23    3.69
   9   5  -2    2.32    0.96
 -12   6  -2   35.88    3.28
 -11   6  -2   63.25    4.10
 -10   6  -2   71.54    2.91
  -9   6  -2  167.57    4.63
  -8   6  -2   25.39    1.53
  -7   6  -2   14.11    1.31
  -6   6  -2   20.13    1.21
  -5   6  -2  191.66    4.39
  -4   6  -2   15.58    0.63
  -3   6  -2  146.46    3.07
  -2   6  -2    6.52    0.55
  -1   6  -2  335.14    5.21
   0   6  -2   19.71    0.95
   1   6  -2  112.86    2.72
   2   6  -2   32.42    1.80
   3   6  -2   58.14    2.61
   4   6  -2    9.61    1.35
   5   6  -2    0.38    0.43
   6   6  -2   37.23    2.48
   7   6  -2   32.08    2.84
   8   6  -2   47.07    3.09
 -12   7  -2    1.12    0.80
 -11   7  -2   69.88    4.44
 -10   7  -2   78.17    3.13
  -9   7  -2    7.64    1.08
  -8   7  -2   19.20    1.43
  -7   7  -2   71.75    2.60
  -6   7  -2  116.12    3.37
  -5   7  -2  203.22    4.77
  -4   7  -2  158.80    4.03
  -3   7  -2  105.38    2.69
  -2   7  -2   28.06    1.03
  -1   7  -2   12.59    0.92
   0   7  -2   72.67    2.06
   1   7  -2   46.29    1.73
   2   7  -2   62.03    2.17
   3   7  -2   13.18    1.53
   4   7  -2  331.99    8.18
   5   7  -2    1.45    0.65
   6   7  -2   49.63    3.01
   7   7  -2    7.66    1.52
   8   7  -2   32.54    4.92
 -12   8  -2   28.21    3.48
 -11   8  -2   37.70    3.31
 -10   8  -2   40.41    2.19
  -9   8  -2    4.66    0.84
  -8   8  -2  124.62    3.82
  -7   8  -2   51.52    2.25
  -6   8  -2   33.64    1.75
  -5   8  -2   31.19    1.66
  -4   8  -2   26.84    1.98
  -3   8  -2  114.11    3.09
  -2   8  -2   29.53    1.49
  -1   8  -2   17.96    1.34
   0   8  -2  120.94    3.77
   1   8  -2   87.51    2.60
   2   8  -2  101.24    2.99
   3   8  -2    4.48    0.78
   4   8  -2    7.10    0.96
   5   8  -2   27.13    2.13
   6   8  -2    4.78    0.98
   7   8  -2   21.91    3.56
 -13   9  -2   32.27    5.71
 -12   9  -2    5.04    1.53
 -11   9  -2    1.09    0.77
 -10   9  -2   32.64    2.01
  -9   9  -2   66.60    2.84
  -8   9  -2   88.72    3.25
  -7   9  -2   59.43    2.56
  -6   9  -2   54.54    2.40
  -5   9  -2   69.50    2.71
  -4   9  -2   43.52    2.76
  -3   9  -2  163.48    6.13
  -2   9  -2    7.54    0.98
  -1   9  -2    5.44    0.87
   0   9  -2   61.72    2.71
   1   9  -2   18.51    1.84
   2   9  -2   37.27    2.33
   3   9  -2   29.09    2.60
   4   9  -2   39.29    2.66
   5   9  -2   58.40    3.42
 -13  10  -2    1.23    1.01
 -12  10  -2  109.25    6.24
 -11  10  -2   10.39    2.25
 -10  10  -2  109.25    3.99
  -9  10  -2   22.84    2.09
  -8  10  -2   98.02    3.62
  -7  10  -2   13.00    1.48
  -6  10  -2    9.58    1.23
  -5  10  -2   37.67    2.68
  -4  10  -2   65.70    3.73
  -3  10  -2   87.59    4.39
  -2  10  -2   38.90    2.04
  -1  10  -2   30.38    1.91
   0  10  -2  102.17    3.87
   1  10  -2    8.54    1.33
   2  10  -2   19.62    2.11
   3  10  -2    5.38    1.21
   4  10  -2   12.33    1.83
 -13  11  -2    7.12    1.96
 -12  11  -2    0.89    1.02
 -11  11  -2   22.16    3.31
 -10  11  -2    5.04    1.00
  -9  11  -2   40.01    2.34
  -8  11  -2    4.89    0.97
  -7  11  -2  327.74    7.86
  -6  11  -2    1.99    0.58
  -5  11  -2   60.17    3.69
  -4  11  -2   67.70    4.06
  -3  11  -2   37.19    3.06
  -2  11  -2    3.90    1.29
  -1  11  -2    8.65    1.32
   0  11  -2   19.59    2.00
   1  11  -2   82.29    3.80
   2  11  -2   44.85    2.91
   3  11  -2   41.23    3.70
 -13  12  -2    8.90    2.27
 -12  12  -2   20.22    3.23
 -11  12  -2   79.13    5.51
 -10  12  -2   19.02    2.07
  -9  12  -2   24.50    2.30
  -8  12  -2    6.92    1.20
  -7  12  -2    1.85    0.64
  -6  12  -2   36.41    2.45
  -5  12  -2    0.97    0.61
  -4  12  -2   29.62    3.39
  -3  12  -2   11.15    2.21
  -2  12  -2  118.24    6.19
  -1  12  -2    1.29    0.93
   0  12  -2   20.68    2.55
   1  12  -2    2.63    0.99
 -13  13  -2    3.64    1.65
 -12  13  -2    2.22    1.29
 -11  13  -2   47.81    4.40
 -10  13  -2    6.33    1.99
  -9  13  -2   40.33    2.60
  -8  13  -2   30.34    2.66
  -7  13  -2   55.38    2.99
  -6  13  -2   29.73    2.66
  -5  13  -2   72.28    4.62
  -4  13  -2   26.56    3.35
  -3  13  -2    1.20    0.99
  -2  13  -2    4.42    1.60
  -1  13  -2   11.96    2.50
 -11  14  -2   41.62    4.96
 -10  14  -2   13.46    2.90
  -9  14  -2   59.46    3.31
  -8  14  -2    5.95    1.28
  -7  14  -2    5.15    1.15
  -6  14  -2   41.00    2.93
  -5  14  -2    2.15    1.17
  -4  14  -2    3.83    1.37
  -3  14  -2   31.83    4.01
  -9  15  -2   25.95    5.85
  -8  15  -2   25.74    3.56
  -7  15  -2   40.94    3.86
  -6  15  -2   20.58    3.64
   6 -15  -1   76.34    5.89
   7 -15  -1   20.46    3.63
   8 -15  -1   56.14    4.69
   9 -15  -1    0.57    0.95
  10 -15  -1    6.63    1.98
   3 -14  -1   41.89    5.30
   4 -14  -1   81.01    5.87
   5 -14  -1    5.45    1.83
   6 -14  -1    1.58    1.23
   7 -14  -1   26.34    3.91
   8 -14  -1    1.39    0.62
   9 -14  -1    2.94    1.28
  10 -14  -1   26.44    3.84
  11 -14  -1   61.74    5.19
   0 -13  -1    8.53    3.40
   1 -13  -1    2.08    1.33
   2 -13  -1   22.66    3.70
   3 -13  -1   28.68    4.14
   4 -13  -1   20.79    3.49
   5 -13  -1    0.32    0.77
   6 -13  -1    1.02    0.86
   7 -13  -1   79.31    3.57
   8 -13  -1   16.77    1.95
   9 -13  -1   67.53    3.56
  10 -13  -1    2.06    1.13
  11 -13  -1    2.42    1.37
  12 -13  -1   20.29    3.52
  13 -13  -1    8.40    2.82
  -1 -12  -1   17.86    3.40
   0 -12  -1   78.64    5.88
   1 -12  -1   49.35    4.46
   2 -12  -1    1.98    1.16
   3 -12  -1    4.64    1.53
   4 -12  -1   98.60    5.96
   5 -12  -1    4.07    1.37
   6 -12  -1   21.39    2.08
   7 -12  -1   15.44    1.73
   8 -12  -1    6.49    1.17
   9 -12  -1   21.95    2.25
  10 -12  -1    0.05    0.65
  11 -12  -1    4.06    1.57
  12 -12  -1   86.19    6.05
  13 -12  -1    4.56    1.82
  -3 -11  -1   74.37    5.80
  -2 -11  -1    2.78    1.46
  -1 -11  -1    3.75    1.51
   0 -11  -1   26.29    3.80
   1 -11  -1   18.37    3.06
   2 -11  -1   48.36    4.01
   3 -11  -1   69.02    4.71
   4 -11  -1   42.34    3.55
   5 -11  -1  151.06    4.60
   6 -11  -1   10.83    1.38
   7 -11  -1    3.83    0.85
   8 -11  -1    6.77    1.12
   9 -11  -1  109.23    4.36
  10 -11  -1   21.16    3.27
  11 -11  -1   24.85    3.65
  12 -11  -1   49.36    4.41
  13 -11  -1   19.94    3.44
  14 -11  -1   44.74    4.42
  -4 -10  -1   19.61    3.50
  -3 -10  -1    3.83    1.62
  -2 -10  -1    1.05    0.96
  -1 -10  -1   26.39    3.69
   0 -10  -1  142.84    7.20
   1 -10  -1   28.63    3.58
   2 -10  -1  154.19    7.20
   3 -10  -1    4.71    1.37
   4 -10  -1    4.81    0.87
   5 -10  -1   30.35    1.84
   6 -10  -1    7.58    1.12
   7 -10  -1    4.82    0.90
   8 -10  -1   38.84    2.19
   9 -10  -1    2.78    1.20
  10 -10  -1  130.69    6.92
  11 -10  -1   17.42    2.90
  12 -10  -1    1.08    0.98
  13 -10  -1   30.67    4.02
  14 -10  -1   74.42    5.59
  15 -10  -1    8.49    2.94
  -6  -9  -1   -0.57    0.80
  -5  -9  -1    3.21    1.43
  -4  -9  -1   71.06    5.25
  -3  -9  -1   23.83    3.57
  -2  -9  -1  106.09    6.19
  -1  -9  -1    2.17    1.08
   0  -9  -1    7.43    1.73
   1  -9  -1   39.70    3.31
   2  -9  -1   18.22    2.57
   3  -9  -1    2.09    0.56
   4  -9  -1    0.43    0.31
   5  -9  -1  214.33    5.40
   6  -9  -1   40.76    2.05
   7  -9  -1  217.59    5.50
   8  -9  -1   10.52    1.28
   9  -9  -1    4.73    1.40
  10  -9  -1   22.65    3.05
  11  -9  -1   42.94    3.83
  12  -9  -1    3.00    1.24
  13  -9  -1   23.69    3.50
  14  -9  -1    8.35    2.13
  15  -9  -1   77.34    5.68
  -7  -8  -1   52.49    3.21
  -6  -8  -1    1.50    0.74
  -5  -8  -1   16.41    1.97
  -4  -8  -1    6.88    1.25
  -3  -8  -1    6.27    1.65
  -2  -8  -1   40.62    3.42
  -1  -8  -1   19.10    2.78
   0  -8  -1    5.72    1.44
   1  -8  -1  209.26    7.83
   2  -8  -1   50.77    2.02
   3  -8  -1  228.47    5.26
   4  -8  -1   59.60    2.32
   5  -8  -1    3.01    0.64
   6  -8  -1    0.08    0.24
   7  -8  -1   30.23    1.70
   8  -8  -1    6.88    0.99
   9  -8  -1   46.09    3.51
  10  -8  -1  167.47    7.46
  11  -8  -1   76.33    4.89
  12  -8  -1  101.45    5.95
  13  -8  -1   -0.13    0.57
  14  -8  -1    1.50    1.03
  15  -8  -1   18.65    3.24
  -8  -7  -1   16.11    2.10
  -7  -7  -1   30.59    2.77
  -6  -7  -1   84.00    3.75
  -5  -7  -1   18.87    2.07
  -4  -7  -1    4.65    0.99
  -3  -7  -1    6.07    1.04
  -2  -7  -1  227.49    8.48
  -1  -7  -1   33.50    2.79
   0  -7  -1  106.03    5.06
   1  -7  -1  129.55    3.38
   2  -7  -1   37.61    1.64
   3  -7  -1  206.11    4.75
   4  -7  -1    2.11    0.47
   5  -7  -1   13.63    1.23
   6  -7  -1  298.57    6.28
   7  -7  -1  109.41    3.29
   8  -7  -1  199.81    7.75
   9  -7  -1   18.54    2.54
  10  -7  -1    4.82    1.42
  11  -7  -1   39.91    3.43
  12  -7  -1    1.67    1.00
  13  -7  -1    1.19    0.89
  14  -7  -1   30.15    3.91
  -9  -6  -1   69.95    5.22
  -8  -6  -1    2.87    0.94
  -7  -6  -1    1.02    0.63
  -6  -6  -1   23.59    2.24
  -5  -6  -1   12.11    1.52
  -4  -6  -1    8.20    1.23
  -3  -6  -1   38.94    2.06
  -2  -6  -1    0.26    0.24
  -1  -6  -1  309.59    9.48
   0  -6  -1   38.71    1.46
   1  -6  -1   10.45    0.82
   2  -6  -1  176.40    3.99
   3  -6  -1  322.70    6.30
   4  -6  -1   54.33    1.99
   5  -6  -1   22.38    1.23
   6  -6  -1   42.57    1.27
   7  -6  -1  130.46    3.37
   8  -6  -1   47.43    1.93
   9  -6  -1    1.24    0.44
  10  -6  -1    3.99    0.76
  11  -6  -1  163.40    7.09
  12  -6  -1   21.02    3.02
  13  -6  -1   80.89    5.19
 -10  -5  -1    7.85    2.10
  -9  -5  -1    8.65    1.46
  -8  -5  -1    0.57    0.54
  -7  -5  -1    3.24    0.85
  -6  -5  -1  144.35    4.65
  -5  -5  -1   32.03    1.92
  -4  -5  -1  207.54    5.43
  -3  -5  -1    1.95    0.55
  -2  -5  -1   12.57    1.20
  -1  -5  -1   24.91    0.80
   0  -5  -1  183.24    3.83
   1  -5  -1   19.45    0.99
   2  -5  -1   86.39    2.39
   3  -5  -1   86.03    2.37
   4  -5  -1  441.51    7.85
   5  -5  -1  174.76    4.00
   6  -5  -1    9.28    0.57
   7  -5  -1   35.14    1.58
   8  -5  -1  237.16    5.30
   9  -5  -1    0.01    0.26
  10  -5  -1   30.90    1.81
  11  -5  -1    9.09    1.24
  12  -5  -1   19.36    1.88
  13  -5  -1   17.22    2.73
 -10  -4  -1   67.92    4.90
  -9  -4  -1   19.00    2.05
  -8  -4  -1   98.29    3.83
  -7  -4  -1   37.50    2.23
  -6  -4  -1    5.43    0.87
  -5  -4  -1    0.21    0.28
  -4  -4  -1   61.02    2.39
  -3  -4  -1    3.06    0.59
  -2  -4  -1   53.67    1.99
  -1  -4  -1  448.45    6.10
   0  -4  -1  182.31    3.72
   1  -4  -1  441.75    7.53
   2  -4  -1   12.16    0.74
   3  -4  -1   10.36    0.74
   4  -4  -1  183.49    3.85
   5  -4  -1   19.78    0.77
   6  -4  -1  180.40    4.05
   7  -4  -1  207.37    4.73
   8  -4  -1   55.23    2.24
   9  -4  -1  206.75    5.25
  10  -4  -1    8.77    1.15
  11  -4  -1    5.27    0.98
  12  -4  -1    8.52    1.82
  13  -4  -1   68.12    4.74
  14  -4  -1   19.76    3.09
 -11  -3  -1   47.26    4.22
 -10  -3  -1   23.46    3.31
  -9  -3  -1    3.64    0.95
  -8  -3  -1   68.97    3.05
  -7  -3  -1    2.83    0.68
  -6  -3  -1    1.79    0.53
  -5  -3  -1  229.04    5.38
  -4  -3  -1  204.64    4.83
  -3  -3  -1  317.27    6.32
  -2  -3  -1   81.79    2.36
  -1  -3  -1   10.87    0.48
   0  -3  -1  200.80    3.75
   1  -3  -1   18.22    0.81
   2  -3  -1   37.47    1.21
   3  -3  -1  203.28    3.78
   4  -3  -1  443.52    7.41
   5  -3  -1   84.43    2.40
   6  -3  -1  319.21    6.29
   7  -3  -1    2.18    0.46
   8  -3  -1    2.61    0.60
   9  -3  -1   39.04    1.98
  10  -3  -1    5.39    0.92
  11  -3  -1    7.96    1.74
  12  -3  -1   19.14    2.87
  13  -3  -1    2.35    1.23
  14  -3  -1   61.31    4.82
 -12  -2  -1   71.48    5.13
 -11  -2  -1   14.93    2.65
 -10  -2  -1    1.97    0.72
  -9  -2  -1   51.30    2.63
  -8  -2  -1  160.88    4.78
  -7  -2  -1   18.88    1.71
  -6  -2  -1   50.06    2.16
  -5  -2  -1   38.94    1.77
  -4  -2  -1  178.71    4.13
  -3  -2  -1   86.67    2.43
  -2  -2  -1   13.00    0.47
  -1  -2  -1   36.87    0.89
   0  -2  -1  557.02    8.80
   1  -2  -1  143.26    2.69
   2  -2  -1  560.08    8.72
   3  -2  -1   18.66    0.76
   4  -2  -1   12.73    1.08
   5  -2  -1   83.12    2.39
   6  -2  -1   53.82    1.99
   7  -2  -1   13.85    1.11
   8  -2  -1    0.38    0.29
   9  -2  -1  220.26    5.41
  10  -2  -1   42.98    3.32
  11  -2  -1  111.89    5.90
  12  -2  -1    0.79    0.57
  13  -2  -1    2.89    0.97
  14  -2  -1   11.58    2.60
 -12  -1  -1    6.02    1.83
 -11  -1  -1   47.53    3.93
 -10  -1  -1   17.41    1.88
  -9  -1  -1   23.02    1.80
  -8  -1  -1   43.65    2.20
  -7  -1  -1  207.08    5.20
  -6  -1  -1  128.67    3.65
  -5  -1  -1    8.01    0.90
  -4  -1  -1   20.18    1.09
  -3  -1  -1  433.90    7.62
  -2  -1  -1   17.19    0.99
  -1  -1  -1  141.75    2.09
   0  -1  -1   46.84    1.20
   1  -1  -1   48.02    1.12
   2  -1  -1  147.05    4.03
   3  -1  -1   32.70    1.72
   4  -1  -1   10.99    0.74
   5  -1  -1  441.20    7.87
   6  -1  -1   24.63    1.29
   7  -1  -1  294.81    6.19
   8  -1  -1   32.58    1.70
   9  -1  -1   11.41    1.97
  10  -1  -1    4.85    1.43
  11  -1  -1   21.35    2.19
  12  -1  -1    3.83    1.03
  13  -1  -1   21.57    2.41
 -12   0  -1   90.47    5.57
 -11   0  -1   24.01    3.31
 -10   0  -1  143.10    4.54
  -9   0  -1    7.15    1.12
  -8   0  -1    8.79    1.14
  -7   0  -1  109.36    3.39
  -6   0  -1   40.14    1.77
  -5   0  -1  174.81    4.12
  -4   0  -1  183.75    3.98
  -3   0  -1  204.79    3.89
  -2   0  -1  544.88    8.76
  -1   0  -1   45.03    1.77
   0   0  -1    0.40    0.20
   1   0  -1   48.16    1.07
   2   0  -1  560.03   12.52
   3   0  -1  207.01    3.91
   4   0  -1  186.67    3.94
   5   0  -1  179.34    4.04
   6   0  -1   38.29    1.64
   7   0  -1  110.73    3.21
   8   0  -1    9.63    1.78
   9   0  -1    7.60    1.68
  10   0  -1  135.62    4.74
  11   0  -1   26.43    2.49
  12   0  -1   93.92    4.22
  13   0  -1    7.55    1.45
 -13   1  -1   21.53    4.35
 -12   1  -1    4.72    1.52
 -11   1  -1   23.25    3.08
 -10   1  -1    1.71    0.59
  -9   1  -1   12.46    1.39
  -8   1  -1   30.16    1.69
  -7   1  -1  298.95    6.30
  -6   1  -1   24.05    1.30
  -5   1  -1  434.12    7.89
  -4   1  -1   12.89    0.78
  -3   1  -1   38.75    1.64
  -2   1  -1  142.79    2.60
  -1   1  -1   50.07    1.84
   1   1  -1  144.94    3.73
   2   1  -1   18.58    0.81
   3   1  -1  439.13    7.50
   4   1  -1   20.31    1.00
   5   1  -1    9.23    0.77
   6   1  -1  126.52    3.36
   7   1  -1  210.25    7.80
   8   1  -1   39.35    2.24
   9   1  -1   22.24    2.11
  10   1  -1   17.69    2.00
  11   1  -1   44.31    2.87
  12   1  -1    5.49    1.24
 -13   2  -1    3.66    1.34
 -12   2  -1    0.91    0.73
 -11   2  -1  111.42    5.76
 -10   2  -1   40.15    2.15
  -9   2  -1  220.67    5.49
  -8   2  -1    0.35    0.22
  -7   2  -1   13.21    0.85
  -6   2  -1   56.57    1.55
  -5   2  -1   87.83    1.84
  -4   2  -1   12.09    0.51
  -3   2  -1   18.44    0.78
  -2   2  -1  547.40    8.71
  -1   2  -1  139.10    3.40
   2   2  -1   12.40    0.67
   3   2  -1   86.13    2.21
   4   2  -1  176.39    3.76
   5   2  -1   38.29    1.47
   6   2  -1   46.13    2.21
   7   2  -1   17.93    1.72
   8   2  -1  168.81    5.14
   9   2  -1   48.32    2.75
  10   2  -1    1.29    0.69
  11   2  -1   15.50    2.04
  12   2  -1   61.15    5.07
 -13   3  -1    4.68    1.57
 -12   3  -1   24.42    3.37
 -11   3  -1    8.32    1.30
 -10   3  -1    4.39    0.86
  -9   3  -1   41.20    2.04
  -8   3  -1    2.74    0.45
  -7   3  -1    2.02    0.34
  -6   3  -1  327.39    4.91
  -5   3  -1   89.60    1.77
  -4   3  -1  441.07    5.88
  -3   3  -1  200.60    3.78
  -2   3  -1   35.79    0.93
  -1   3  -1   17.03    0.69
   0   3  -1  202.50    3.75
   1   3  -1   11.72    0.82
   2   3  -1   85.02    1.82
   3   3  -1  323.10    4.97
   4   3  -1  208.15    3.66
   5   3  -1  232.84    5.62
   6   3  -1    1.98    0.62
   7   3  -1    2.37    0.70
   8   3  -1   71.17    3.31
   9   3  -1    2.96    0.88
  10   3  -1   31.26    2.86
  11   3  -1   44.71    3.31
 -13   4  -1   76.52    4.96
 -12   4  -1   10.07    2.09
 -11   4  -1    4.97    0.93
 -10   4  -1   10.15    1.26
  -9   4  -1  216.08    5.36
  -8   4  -1   57.95    2.28
  -7   4  -1  212.43    3.62
  -6   4  -1  178.19    3.03
  -5   4  -1   20.51    0.68
  -4   4  -1  183.91    2.89
  -3   4  -1   11.10    0.50
  -2   4  -1   12.28    0.59
  -1   4  -1  445.45    5.93
   0   4  -1  180.53    3.08
   1   4  -1  429.45    7.76
   2   4  -1   54.44    1.45
   3   4  -1    2.30    0.35
   4   4  -1   54.40    2.36
   5   4  -1    0.07    0.31
   6   4  -1    4.71    0.94
   7   4  -1   39.67    2.40
   8   4  -1   88.71    3.89
   9   4  -1   18.93    2.12
  10   4  -1   68.80    3.74
 -13   5  -1   18.79    2.96
 -12   5  -1   17.89    2.75
 -11   5  -1   13.45    1.53
 -10   5  -1   32.47    1.85
  -9   5  -1    0.25    0.28
  -8   5  -1  226.93    5.24
  -7   5  -1   37.16    1.68
  -6   5  -1    8.84    0.53
  -5   5  -1  183.46    3.01
  -4   5  -1  441.67    6.06
  -3   5  -1   86.28    1.46
  -2   5  -1   89.13    1.64
  -1   5  -1   20.16    0.75
   0   5  -1  183.90    3.23
   1   5  -1   24.35    1.24
   2   5  -1   12.89    0.73
   3   5  -1    2.70    0.61
   4   5  -1  194.29    5.38
   5   5  -1   30.29    1.92
   6   5  -1  147.92    4.83
   7   5  -1    3.27    0.88
   8   5  -1    0.15    0.46
   9   5  -1    7.53    1.43
 -13   6  -1   80.32    5.05
 -12   6  -1   19.62    2.80
 -11   6  -1  155.22    4.57
 -10   6  -1    3.90    0.82
  -9   6  -1    1.73    0.50
  -8   6  -1   49.98    2.10
  -7   6  -1  125.24    3.55
  -6   6  -1   41.24    1.21
  -5   6  -1   24.47    0.85
  -4   6  -1   56.97    1.63
  -3   6  -1  325.70    4.42
  -2   6  -1  179.60    2.91
  -1   6  -1    7.88    0.56
   0   6  -1   39.61    1.33
   1   6  -1  299.69    5.04
   2   6  -1    0.14    0.24
   3   6  -1   37.43    1.99
   4   6  -1    7.27    1.09
   5   6  -1   10.30    1.40
   6   6  -1   19.22    2.04
   7   6  -1    1.14    0.57
   8   6  -1    3.02    1.01
   9   6  -1   72.23    5.65
 -13   7  -1    1.79    1.07
 -12   7  -1    2.78    1.07
 -11   7  -1   44.23    2.31
 -10   7  -1    3.01    0.74
  -9   7  -1   19.40    1.67
  -8   7  -1  209.14    5.16
  -7   7  -1  111.15    3.33
  -6   7  -1  304.50    6.27
  -5   7  -1   12.58    0.80
  -4   7  -1    2.44    0.42
  -3   7  -1  201.92    4.31
  -2   7  -1   39.84    1.15
  -1   7  -1  132.12    2.70
   0   7  -1  107.75    2.56
   1   7  -1   30.98    1.35
   2   7  -1  216.12    4.44
   3   7  -1    4.98    0.72
   4   7  -1    3.63    0.87
   5   7  -1   15.14    1.83
   6   7  -1   77.33    3.67
   7   7  -1   26.25    2.64
   8   7  -1   14.28    2.16
 -13   8  -1   -0.11    0.64
 -12   8  -1   98.75    5.38
 -11   8  -1   72.38    3.06
 -10   8  -1  175.56    4.90
  -9   8  -1   42.28    2.14
  -8   8  -1    8.65    1.11
  -7   8  -1   34.74    1.80
  -6   8  -1    0.20    0.22
  -5   8  -1    3.02    0.52
  -4   8  -1   58.75    1.97
  -3   8  -1  231.82    4.92
  -2   8  -1   47.77    1.91
  -1   8  -1  203.85    5.02
   0   8  -1    6.59    0.79
   1   8  -1   11.41    1.06
   2   8  -1   38.77    1.73
   3   8  -1    7.71    0.98
   4   8  -1    7.11    0.99
   5   8  -1   15.62    1.58
   6   8  -1    1.85    0.66
   7   8  -1   52.74    3.03
 -13   9  -1   26.26    3.44
 -12   9  -1    3.11    1.19
 -11   9  -1   48.44    2.53
 -10   9  -1   25.34    1.90
  -9   9  -1    5.51    0.92
  -8   9  -1   10.59    1.27
  -7   9  -1  220.46    5.48
  -6   9  -1   37.95    2.58
  -5   9  -1  207.30    7.13
  -4   9  -1    0.19    0.26
  -3   9  -1    1.53    0.46
  -2   9  -1   21.49    1.48
  -1   9  -1   40.41    2.04
   0   9  -1    4.95    0.90
   1   9  -1    1.52    0.59
   2   9  -1  106.08    4.03
   3   9  -1   21.96    2.18
   4   9  -1   65.75    3.43
   5   9  -1    3.58    1.03
 -13  10  -1   29.07    3.84
 -12  10  -1    2.86    1.16
 -11  10  -1   18.68    1.94
 -10  10  -1  135.66    4.49
  -9  10  -1    1.98    0.67
  -8  10  -1   35.01    2.05
  -7  10  -1    3.24    0.76
  -6  10  -1    7.99    1.49
  -5  10  -1   30.87    2.43
  -4  10  -1    4.87    0.76
  -3  10  -1    2.63    0.63
  -2  10  -1  167.61    4.66
  -1  10  -1   23.23    1.96
   0  10  -1  145.11    4.63
   1  10  -1   22.35    2.16
   2  10  -1    0.45    0.53
   3  10  -1    4.41    1.03
   4  10  -1   18.74    2.25
 -13  11  -1   16.45    2.79
 -12  11  -1   39.59    3.57
 -11  11  -1   28.46    2.52
 -10  11  -1   21.05    2.02
  -9  11  -1  108.29    3.99
  -8  11  -1    8.82    1.28
  -7  11  -1    4.46    1.16
  -6  11  -1   12.43    2.03
  -5  11  -1  140.52    6.10
  -4  11  -1   42.29    3.14
  -3  11  -1   76.10    2.98
  -2  11  -1   51.77    2.53
  -1  11  -1   18.56    1.93
   0  11  -1   22.68    2.19
   1  11  -1    2.66    0.79
   2  11  -1    3.60    1.04
   3  11  -1   57.48    3.43
 -13  12  -1    5.91    1.85
 -12  12  -1   85.44    5.36
 -11  12  -1    5.18    1.18
 -10  12  -1   -0.18    0.45
  -9  12  -1   26.08    2.31
  -8  12  -1    5.89    1.10
  -7  12  -1   18.27    2.60
  -6  12  -1   20.23    2.66
  -5  12  -1    4.25    1.26
  -4  12  -1   97.91    5.25
  -3  12  -1    4.77    1.39
  -2  12  -1    0.68    0.49
  -1  12  -1   48.90    2.74
   0  12  -1   89.13    3.95
   1  12  -1   17.11    2.15
   2  12  -1   12.63    2.80
 -13  13  -1   10.38    2.49
 -12  13  -1   17.83    3.05
 -11  13  -1    1.95    0.79
 -10  13  -1    3.59    0.98
  -9  13  -1   66.65    3.31
  -8  13  -1   15.19    1.82
  -7  13  -1   77.87    4.76
  -6  13  -1    2.90    1.15
  -5  13  -1    0.66    0.75
  -4  13  -1   24.46    3.19
  -3  13  -1   27.17    3.47
  -2  13  -1   19.49    3.15
  -1  13  -1    6.41    1.78
   0  13  -1    7.27    1.53
 -12  14  -1   12.61    2.55
 -11  14  -1   57.81    3.24
 -10  14  -1   24.35    2.52
  -9  14  -1    2.95    0.87
  -8  14  -1    1.78    0.79
  -7  14  -1   24.02    3.28
  -6  14  -1    1.44    0.91
  -5  14  -1    5.14    1.61
  -4  14  -1   70.29    4.98
  -3  14  -1   44.78    4.11
 -10  15  -1    6.50    1.43
  -9  15  -1   -0.49    0.58
  -8  15  -1   51.28    3.17
  -7  15  -1   17.29    2.94
  -6  15  -1   71.74    5.18
   6 -15   0    2.54    1.62
   7 -15   0    8.99    2.48
   8 -15   0   43.83    5.16
   9 -15   0  133.51    5.20
  10 -15   0   24.09    2.55
   3 -14   0   13.85    3.11
   4 -14   0   -0.18    0.83
   5 -14   0    0.22    0.84
   6 -14   0   18.81    3.32
   7 -14   0    0.59    0.90
   8 -14   0    1.50    0.71
   9 -14   0   40.62    2.72
  10 -14   0    9.35    1.52
  11 -14   0   37.17    4.67
  12 -14   0   15.38    3.15
   0 -13   0   -0.07    0.96
   1 -13   0   19.65    3.60
   2 -13   0    4.10    1.66
   3 -13   0    1.94    1.14
   4 -13   0    4.76    1.63
   5 -13   0  178.15    8.65
   6 -13   0   75.33    5.24
   7 -13   0   39.99    2.49
   8 -13   0    2.57    0.84
   9 -13   0   47.43    2.81
  10 -13   0   15.49    1.97
  11 -13   0   73.24    5.48
  12 -13   0    0.75    0.96
  13 -13   0    0.10    0.94
  -2 -12   0   11.57    2.78
  -1 -12   0    0.21    0.82
   0 -12   0    0.31    0.90
   1 -12   0    0.87    0.93
   2 -12   0  117.87    6.94
   3 -12   0   17.25    2.91
   4 -12   0   50.57    4.21
   5 -12   0    9.40    1.35
   6 -12   0    1.12    0.53
   7 -12   0    1.77    0.64
   8 -12   0    4.72    1.04
   9 -12   0    4.90    1.04
  10 -12   0  114.26    6.58
  11 -12   0   57.39    4.75
  12 -12   0    3.40    1.45
  13 -12   0   26.60    3.97
  14 -12   0   44.53    5.94
  -3 -11   0   37.11    4.71
  -2 -11   0   77.59    5.66
  -1 -11   0   58.69    4.83
   0 -11   0   24.13    3.62
   1 -11   0   14.89    2.73
   2 -11   0    9.49    2.13
   3 -11   0   63.93    4.63
   4 -11   0   16.07    1.60
   5 -11   0   96.29    3.58
   6 -11   0   13.93    1.60
   7 -11   0  487.48   10.39
   8 -11   0    0.76    0.48
   9 -11   0   64.31    3.08
  10 -11   0    3.62    1.31
  11 -11   0   22.71    3.39
  12 -11   0    0.30    0.81
  13 -11   0    3.34    1.51
  14 -11   0    5.55    1.78
  -5 -10   0   27.86    4.14
  -4 -10   0    9.85    2.41
  -3 -10   0   16.49    3.01
  -2 -10   0  119.19    6.79
  -1 -10   0    3.68    1.46
   0 -10   0   50.37    3.98
   1 -10   0   54.71    4.05
   2 -10   0    2.70    1.11
   3 -10   0   60.90    2.52
   4 -10   0   45.37    2.21
   5 -10   0    1.25    0.48
   6 -10   0   24.76    1.70
   7 -10   0   12.15    1.42
   8 -10   0    1.16    0.49
   9 -10   0   32.23    2.01
  10 -10   0   47.07    3.81
  11 -10   0   11.64    2.38
  12 -10   0  126.77    6.90
  13 -10   0    2.20    1.12
  14 -10   0    1.18    1.01
  15 -10   0    1.06    1.07
  -6  -9   0  122.52    5.09
  -5  -9   0   37.52    2.80
  -4  -9   0   41.03    2.68
  -3  -9   0    4.76    1.61
  -2  -9   0   69.62    4.76
  -1  -9   0   34.62    3.19
   0  -9   0  215.21    8.67
   1  -9   0   -0.08    0.40
   2  -9   0   18.43    1.33
   3  -9   0  339.13    7.20
   4  -9   0    0.56    0.31
   5  -9   0  133.99    4.02
   6  -9   0    0.29    0.32
   7  -9   0  108.73    3.68
   8  -9   0   46.85    2.34
   9  -9   0  221.02    8.66
  10  -9   0   45.76    3.70
  11  -9   0    7.90    1.93
  12  -9   0   18.15    2.85
  13  -9   0    4.61    1.58
  14  -9   0    0.09    0.81
  15  -9   0    0.89    0.98
  -7  -8   0   34.87    3.12
  -6  -8   0    1.35    0.68
  -5  -8   0    2.81    0.91
  -4  -8   0    3.99    0.98
  -3  -8   0    0.19    0.36
  -2  -8   0    0.88    0.44
  -1  -8   0   45.86    3.47
   0  -8   0  165.66    6.99
   1  -8   0    0.11    0.24
   2  -8   0   61.39    2.27
   3  -8   0  103.14    3.17
   4  -8   0    0.05    0.22
   5  -8   0  134.50    3.87
   6  -8   0   28.94    1.64
   7  -8   0   31.85    1.79
   8  -8   0  174.85    7.14
   9  -8   0    0.29    0.55
  10  -8   0    0.80    0.71
  11  -8   0   74.25    4.73
  12  -8   0   60.98    4.36
  13  -8   0  169.82    8.11
  14  -8   0   25.43    3.66
  15  -8   0   10.09    2.44
  -8  -7   0    9.94    2.38
  -7  -7   0    0.26    0.59
  -6  -7   0   42.39    2.60
  -5  -7   0    2.05    0.70
  -4  -7   0  510.11   10.60
  -3  -7   0   14.47    1.55
  -2  -7   0  112.67    3.75
  -1  -7   0   33.16    1.80
   0  -7   0   65.72    2.07
   1  -7   0    2.34    0.46
   2  -7   0   55.70    2.02
   3  -7   0  104.13    3.02
   4  -7   0  183.54    4.47
   5  -7   0  367.21    7.34
   6  -7   0  181.24    4.62
   7  -7   0   66.80    2.53
   8  -7   0   -0.07    0.27
   9  -7   0   15.62    2.25
  10  -7   0   55.21    3.86
  11  -7   0   16.25    2.56
  12  -7   0    9.00    1.96
  13  -7   0   78.81    5.06
  14  -7   0   -0.28    0.68
  -9  -6   0    1.59    1.23
  -8  -6   0   22.60    3.39
  -7  -6   0   70.91    3.39
  -6  -6   0    0.84    0.51
  -5  -6   0   14.82    1.69
  -4  -6   0   27.12    1.78
  -3  -6   0   -0.02    0.25
  -2  -6   0   28.57    1.64
  -1  -6   0  186.66    4.63
   0  -6   0   27.28    1.17
   1  -6   0  407.57    7.35
   2  -6   0    5.99    0.72
   3  -6   0   22.78    1.20
   4  -6   0    0.29    0.24
   5  -6   0   10.95    1.07
   6  -6   0   26.49    0.86
   7  -6   0    3.86    0.53
   8  -6   0   64.55    2.17
   9  -6   0  334.51    6.92
  10  -6   0   40.97    3.20
  11  -6   0  100.69    5.30
  12  -6   0    0.29    0.56
  13  -6   0   35.52    3.33
 -10  -5   0    0.82    1.01
  -9  -5   0    0.56    0.75
  -8  -5   0  177.54    5.63
  -7  -5   0   10.14    1.45
  -6  -5   0   94.16    3.60
  -5  -5   0    1.94    0.62
  -4  -5   0  140.89    4.11
  -3  -5   0  140.99    3.93
  -2  -5   0  362.57    7.29
  -1  -5   0   12.21    0.60
   0  -5   0    2.77    0.36
   1  -5   0  181.18    3.74
   2  -5   0  141.33    3.23
   3  -5   0    0.39    0.23
   4  -5   0    1.15    0.33
   5  -5   0    3.22    0.34
   6  -5   0  408.50    7.21
   7  -5   0   55.48    1.92
   8  -5   0  100.92    3.02
   9  -5   0    0.73    0.38
  10  -5   0    0.55    0.36
  11  -5   0   18.53    1.74
  12  -5   0    1.76    0.63
  13  -5   0    1.60    1.44
 -10  -4   0    0.73    0.96
  -9  -4   0    2.43    1.22
  -8  -4   0   63.87    2.98
  -7  -4   0   13.12    1.54
  -6  -4   0   42.98    2.22
  -5  -4   0    1.23    0.46
  -4  -4   0    0.22    0.25
  -3  -4   0  183.58    4.47
  -2  -4   0    0.14    0.18
  -1  -4   0    1.50    0.23
   0  -4   0  170.32    2.77
   1  -4   0  237.46    4.39
   2  -4   0  809.39   12.95
   3  -4   0  524.99    8.79
   4  -4   0  178.54    3.19
   5  -4   0  179.19    3.63
   6  -4   0    7.58    0.77
   7  -4   0  110.54    2.97
   8  -4   0    0.43    0.28
   9  -4   0  142.96    3.98
  10  -4   0   28.04    1.70
  11  -4   0  513.60   10.15
  12  -4   0    1.63    0.91
  13  -4   0   44.51    3.65
  14  -4   0    6.53    1.78
 -11  -3   0   10.13    2.39
 -10  -3   0    2.99    1.34
  -9  -3   0   18.51    2.87
  -8  -3   0   74.40    3.10
  -7  -3   0   54.08    2.51
  -6  -3   0  342.81    7.32
  -5  -3   0  104.91    3.26
  -4  -3   0  105.62    3.11
  -3  -3   0   20.33    1.14
  -2  -3   0    0.53    0.22
  -1  -3   0  540.07    8.22
   0  -3   0    2.51    0.29
   1  -3   0   57.65    1.48
   2  -3   0  197.43    3.67
   3  -3   0    2.35    0.24
   4  -3   0  237.04    5.75
   5  -3   0  139.78    3.16
   6  -3   0   22.41    1.14
   7  -3   0  190.41    4.36
   8  -3   0  142.42    3.78
   9  -3   0    0.23    0.29
  10  -3   0   14.72    1.50
  11  -3   0    0.63    0.43
  12  -3   0    7.73    1.83
  13  -3   0   20.41    3.01
  14  -3   0   36.10    4.38
 -12  -2   0   35.04    4.52
 -11  -2   0    5.09    1.63
 -10  -2   0  116.19    6.40
  -9  -2   0    5.82    1.60
  -8  -2   0    1.33    0.53
  -7  -2   0   16.44    1.55
  -6  -2   0   61.38    1.99
  -5  -2   0   54.07    1.74
  -4  -2   0    5.98    0.63
  -3  -2   0  142.76    2.72
  -2  -2   0  832.39   10.62
  -1  -2   0  193.13    3.63
   0  -2   0  185.16    2.59
   1  -2   0    3.39    0.46
   2  -2   0  182.90    2.56
   3  -2   0   55.54    1.85
   4  -2   0  807.50   12.83
   5  -2   0    0.12    0.16
   6  -2   0    2.74    0.44
   7  -2   0  363.98    7.05
   8  -2   0   32.35    1.62
   9  -2   0  115.32    3.51
  10  -2   0    1.69    0.59
  11  -2   0   71.06    3.05
  12  -2   0  109.66    6.09
  13  -2   0   72.73    5.14
  14  -2   0   11.12    2.55
 -12  -1   0   19.35    3.20
 -11  -1   0    1.60    1.01
 -10  -1   0   12.37    2.38
  -9  -1   0   54.75    2.70
  -8  -1   0    0.00    0.23
  -7  -1   0    0.25    0.24
  -6  -1   0    2.26    0.43
  -5  -1   0  414.10    6.27
  -4  -1   0  173.14    3.17
  -3  -1   0  231.21    3.68
  -2  -1   0   56.24    1.25
  -1  -1   0    3.38    0.27
   0  -1   0    4.23    0.24
   1  -1   0    4.38    0.25
   2  -1   0    3.40    0.32
   3  -1   0  193.78    3.57
   4  -1   0  526.61    8.64
   5  -1   0    1.44    0.35
   6  -1   0   12.54    0.92
   7  -1   0  190.24    4.34
   8  -1   0   36.55    1.70
   9  -1   0   46.67    2.28
  10  -1   0   31.40    1.96
  11  -1   0    3.62    0.90
  12  -1   0   63.56    3.19
  13  -1   0    0.00    0.73
 -13   0   0    0.66    0.92
 -12   0   0    2.13    1.19
 -11   0   0   27.73    3.55
 -10   0   0   44.66    3.61
  -9   0   0  225.21    4.64
  -8   0   0  179.93    3.84
  -7   0   0   63.69    1.96
  -6   0   0   24.52    1.08
  -5   0   0    2.19    0.35
  -4   0   0  168.06    2.95
  -3   0   0    2.66    0.32
  -2   0   0  183.74    2.69
  -1   0   0    4.24    0.20
   1   0   0    4.41    0.36
   2   0   0  186.68    3.19
   3   0   0    2.35    0.32
   4   0   0  166.98    3.41
   5   0   0    4.80    0.54
   6   0   0   28.38    1.27
   7   0   0   63.15    1.83
   8   0   0  168.49    4.72
   9   0   0  216.67    5.78
  10   0   0   47.29    2.53
  11   0   0   25.01    2.35
  12   0   0    2.23    0.85
  13   0   0   -0.29    0.78
 -13   1   0    0.09    0.72
 -12   1   0   73.89    5.01
 -11   1   0    3.21    0.84
 -10   1   0   33.84    2.06
  -9   1   0   49.57    1.83
  -8   1   0   33.33    1.40
  -7   1   0  187.54    3.67
  -6   1   0   11.32    0.77
  -5   1   0    1.88    0.30
  -4   1   0  521.86    7.11
  -3   1   0  195.61    2.92
  -2   1   0    3.92    0.28
  -1   1   0    4.26    0.32
   0   1   0    4.31    0.23
   1   1   0    2.99    0.31
   2   1   0   56.73    1.08
   3   1   0  234.42    3.48
   4   1   0  171.25    2.92
   5   1   0  406.04    5.93
   6   1   0    2.96    0.44
   7   1   0   -0.24    0.22
   8   1   0    0.23    0.35
   9   1   0   51.60    2.61
  10   1   0   11.77    1.57
  11   1   0   -0.22    0.40
  12   1   0   18.63    2.24
 -14   2   0   10.78    2.52
 -13   2   0   73.14    5.19
 -12   2   0  107.85    6.18
 -11   2   0   68.75    3.07
 -10   2   0    1.86    0.63
  -9   2   0  116.34    2.89
  -8   2   0   30.14    1.28
  -7   2   0  368.25    5.79
  -6   2   0    0.42    0.20
  -5   2   0    0.18    0.15
  -4   2   0  814.56   10.46
  -3   2   0   55.44    1.15
  -2   2   0  184.01    3.12
  -1   2   0    3.41    0.29
   0   2   0  187.80    2.60
   1   2   0  190.03    3.59
   2   2   0  830.53   13.02
   3   2   0  140.93    3.34
   4   2   0    5.87    0.36
   5   2   0   55.86    2.20
   6   2   0   58.96    2.46
   7   2   0   16.51    1.64
   8   2   0    1.60    0.57
   9   2   0    5.06    0.98
  10   2   0  119.55    4.59
  11   2   0    3.54    1.03
  12   2   0   36.19    3.68
 -14   3   0   43.87    4.08
 -13   3   0   15.19    2.76
 -12   3   0    3.96    1.50
 -11   3   0    0.58    0.75
 -10   3   0   13.02    1.43
  -9   3   0    0.41    0.26
  -8   3   0  140.61    3.02
  -7   3   0  195.30    3.55
  -6   3   0   21.88    0.90
  -5   3   0  143.60    2.56
  -4   3   0  234.40    3.52
  -3   3   0    2.42    0.32
  -2   3   0  197.59    3.42
  -1   3   0   56.38    1.04
   0   3   0    2.27    0.26
   1   3   0  520.32    8.65
   2   3   0    0.97    0.30
   3   3   0   22.21    1.21
   4   3   0  106.06    3.16
   5   3   0  106.50    3.39
   6   3   0  335.00    7.47
   7   3   0   58.61    2.70
   8   3   0   69.56    3.16
   9   3   0   21.86    2.20
  10   3   0    1.69    0.72
  11   3   0    5.83    1.27
 -14   4   0    7.38    1.93
 -13   4   0   40.87    3.80
 -12   4   0    4.62    1.37
 -11   4   0  511.88   15.05
 -10   4   0   29.60    1.74
  -9   4   0  142.51    3.14
  -8   4   0    0.23    0.19
  -7   4   0  110.47    2.39
  -6   4   0    6.35    0.58
  -5   4   0  178.24    2.99
  -4   4   0  169.91    3.35
  -3   4   0  535.31    8.45
  -2   4   0  849.91   10.18
  -1   4   0  237.22    4.08
   0   4   0  168.92    2.80
   1   4   0    0.97    0.28
   2   4   0    0.11    0.19
   3   4   0  190.35    4.53
   4   4   0    0.57    0.34
   5   4   0    1.57    0.51
   6   4   0   44.76    2.30
   7   4   0   13.12    1.62
   8   4   0   62.95    3.13
   9   4   0    5.63    1.23
  10   4   0    0.54    0.61
 -15   5   0   24.53    3.60
 -14   5   0   44.75    4.01
 -13   5   0    1.76    1.09
 -12   5   0    1.97    1.03
 -11   5   0   13.59    2.29
 -10   5   0    1.56    0.79
  -9   5   0    1.25    0.36
  -8   5   0  106.43    2.47
  -7   5   0   56.14    1.60
  -6   5   0  406.84    5.96
  -5   5   0    3.19    0.39
  -4   5   0    2.06    0.36
  -3   5   0    0.04    0.13
  -2   5   0  143.04    2.27
  -1   5   0  177.34    2.88
   0   5   0    2.28    0.34
   1   5   0   11.68    0.75
   2   5   0  363.54    7.17
   3   5   0  136.77    3.87
   4   5   0  139.37    4.11
   5   5   0    0.33    0.39
   6   5   0   95.92    3.73
   7   5   0    8.61    1.39
   8   5   0  177.02    5.83
   9   5   0   -0.03    0.52
  10   5   0    0.80    1.31
 -15   6   0  122.40    7.16
 -14   6   0    1.47    1.17
 -13   6   0   37.23    3.50
 -12   6   0    0.36    0.73
 -11   6   0   97.41    5.27
 -10   6   0   51.65    2.30
  -9   6   0  339.63    7.10
  -8   6   0   65.86    1.84
  -7   6   0    3.35    0.48
  -6   6   0   26.84    1.03
  -5   6   0   11.83    0.82
  -4   6   0    0.60    0.19
  -3   6   0   21.89    1.04
  -2   6   0    5.75    0.40
  -1   6   0  396.67    5.82
   0   6   0   26.89    1.05
   1   6   0  190.98    3.63
   2   6   0   29.44    1.29
   3   6   0    0.04    0.27
   4   6   0   25.60    1.88
   5   6   0   12.63    1.55
   6   6   0    1.06    0.52
   7   6   0   72.48    3.49
   8   6   0   25.75    2.54
   9   6   0    0.57    0.56
 -15   7   0   37.99    4.65
 -14   7   0   -0.18    0.84
 -13   7   0   68.71    4.83
 -12   7   0    9.82    2.05
 -11   7   0   13.35    2.25
 -10   7   0   60.83    2.54
  -9   7   0   14.02    1.38
  -8   7   0   -0.07    0.20
  -7   7   0   67.80    1.85
  -6   7   0  196.27    4.22
  -5   7   0  367.77    6.76
  -4   7   0  197.40    4.17
  -3   7   0  106.67    2.82
  -2   7   0   57.17    1.41
  -1   7   0    3.23    0.44
   0   7   0   66.69    1.85
   1   7   0   33.22    1.38
   2   7   0  114.45    2.94
   3   7   0   12.55    1.15
   4   7   0  490.67    8.47
   5   7   0    2.22    0.58
   6   7   0   37.58    2.10
   7   7   0   -0.40    0.36
   8   7   0    7.93    1.23
 -15   8   0   10.67    2.59
 -14   8   0   26.46    3.72
 -13   8   0  183.55    8.31
 -12   8   0   56.81    4.20
 -11   8   0   65.98    4.29
 -10   8   0    1.32    0.50
  -9   8   0    0.20    0.31
  -8   8   0  184.74    4.70
  -7   8   0   34.70    1.33
  -6   8   0   29.13    1.40
  -5   8   0  143.93    3.52
  -4   8   0    0.58    0.28
  -3   8   0  108.25    3.04
  -2   8   0   59.94    2.24
  -1   8   0    0.06    0.23
   0   8   0  178.47    3.65
   1   8   0   46.07    1.75
   2   8   0    1.34    0.40
   3   8   0    0.65    0.38
   4   8   0    2.22    0.59
   5   8   0    1.91    0.60
   6   8   0    1.37    0.59
   7   8   0   36.60    2.60
 -15   9   0    2.02    1.30
 -14   9   0    0.65    0.90
 -13   9   0    3.28    1.38
 -12   9   0   21.93    3.04
 -11   9   0    5.81    1.53
 -10   9   0   56.07    2.56
  -9   9   0  219.08    5.63
  -8   9   0   46.15    2.20
  -7   9   0  111.64    5.00
  -6   9   0    0.34    0.27
  -5   9   0  139.84    3.70
  -4   9   0    0.49    0.29
  -3   9   0  321.21    6.89
  -2   9   0   17.45    1.53
  -1   9   0    0.30    0.32
   0   9   0  221.74    5.73
   1   9   0   31.62    2.00
   2   9   0   68.75    3.13
   3   9   0    4.10    0.97
   4   9   0   44.46    2.52
   5   9   0   49.09    2.68
   6   9   0  122.04    5.71
 -15  10   0   -0.25    0.96
 -14  10   0    0.11    0.74
 -13  10   0    3.86    1.40
 -12  10   0  114.13    6.23
 -11  10   0   11.06    2.20
 -10  10   0   47.10    2.44
  -9  10   0   29.17    1.88
  -8  10   0    1.10    0.47
  -7  10   0   10.31    1.75
  -6  10   0   28.92    2.40
  -5  10   0    1.16    0.42
  -4  10   0   48.05    2.11
  -3  10   0   61.33    2.49
  -2  10   0    1.69    0.55
  -1  10   0   52.70    2.50
   0  10   0   48.49    2.53
   1  10   0    3.69    0.90
   2  10   0  120.79    4.52
   3  10   0   16.58    1.98
   4  10   0    7.99    1.45
 -14  11   0    8.17    2.18
 -13  11   0    1.91    1.14
 -12  11   0    0.09    0.72
 -11  11   0   18.80    2.84
 -10  11   0    3.49    0.87
  -9  11   0   67.37    3.00
  -8  11   0    0.47    0.41
  -7  11   0  461.20   14.08
  -6  11   0   12.93    2.06
  -5  11   0   99.88    3.33
  -4  11   0   15.57    1.55
  -3  11   0   75.03    3.00
  -2  11   0    7.47    1.17
  -1  11   0   11.25    1.49
   0  11   0   23.52    2.22
   1  11   0   58.46    3.13
   2  11   0   76.14    3.75
   3  11   0   34.28    3.07
 -14  12   0   44.18    4.18
 -13  12   0   29.13    3.97
 -12  12   0    1.03    0.94
 -11  12   0   61.39    4.43
 -10  12   0  114.98    4.29
  -9  12   0    6.21    1.10
  -8  12   0    3.60    1.24
  -7  12   0    2.69    0.98
  -6  12   0    0.41    0.48
  -5  12   0    9.13    1.88
  -4  12   0   56.71    2.68
  -3  12   0   21.38    2.00
  -2  12   0  127.03    4.49
  -1  12   0    0.09    0.43
   0  12   0    1.35    0.60
   1  12   0   -0.18    0.47
   2  12   0    9.14    1.86
 -13  13   0    0.00    0.80
 -12  13   0    0.10    0.83
 -11  13   0   84.84    5.31
 -10  13   0   19.78    2.13
  -9  13   0   42.81    2.59
  -8  13   0    2.54    1.18
  -7  13   0   38.79    3.33
  -6  13   0   72.01    4.63
  -5  13   0  185.97    7.98
  -4  13   0    5.40    1.63
  -3  13   0    0.34    0.49
  -2  13   0    4.39    1.04
  -1  13   0   21.20    2.30
   0  13   0    0.58    0.64
 -12  14   0    7.75    2.14
 -11  14   0   33.62    4.01
 -10  14   0    9.01    1.51
  -9  14   0   43.45    2.76
  -8  14   0    0.97    0.93
  -7  14   0    0.31    0.68
  -6  14   0   20.78    3.04
  -5  14   0   -0.23    0.63
  -4  14   0    0.51    0.79
  -3  14   0    7.62    2.03
  -2  14   0   40.30    6.86
 -10  15   0   22.00    2.49
  -9  15   0  130.35    5.14
  -8  15   0   37.79    4.44
  -7  15   0    8.73    2.09
  -6  15   0    1.41    1.08
   7 -15   1   20.66    3.61
   8 -15   1   45.68    4.52
   9 -15   1   -0.07    0.64
  10 -15   1    3.91    1.16
   3 -14   1   52.46    4.93
   4 -14   1   64.45    5.41
   5 -14   1    4.03    1.70
   6 -14   1    3.84    1.61
   7 -14   1   32.38    4.33
   8 -14   1    1.66    0.76
   9 -14   1    2.72    0.98
  10 -14   1   22.00    3.44
  11 -14   1   55.63    4.86
   0 -13   1   11.62    2.82
   1 -13   1    7.75    2.40
   2 -13   1   16.49    3.09
   3 -13   1   32.43    4.25
   4 -13   1   23.06    3.55
   5 -13   1    0.18    0.68
   6 -13   1    2.55    0.84
   7 -13   1   79.63    3.68
   8 -13   1   19.02    2.13
   9 -13   1   66.91    3.45
  10 -13   1    2.46    1.22
  11 -13   1    2.76    1.31
  12 -13   1   22.48    3.64
  13 -13   1    7.51    2.45
  -2 -12   1   14.06    3.03
  -1 -12   1   21.52    3.71
   0 -12   1   88.55    6.15
   1 -12   1   46.01    4.20
   2 -12   1    0.95    0.83
   3 -12   1    4.79    1.57
   4 -12   1   91.54    5.78
   5 -12   1    2.51    0.74
   6 -12   1   19.12    1.97
   7 -12   1   10.36    1.48
   8 -12   1    6.11    1.17
   9 -12   1   22.84    2.22
  10 -12   1    0.46    0.73
  11 -12   1    4.91    1.71
  12 -12   1   85.92    5.95
  13 -12   1    4.79    1.69
  -3 -11   1   60.49    5.12
  -2 -11   1    3.89    1.63
  -1 -11   1    7.62    2.11
   0 -11   1   26.91    3.90
   1 -11   1   14.01    2.66
   2 -11   1   58.58    4.36
   3 -11   1   82.74    5.13
   4 -11   1   39.68    2.25
   5 -11   1  154.41    4.79
   6 -11   1   11.03    1.44
   7 -11   1    5.40    1.02
   8 -11   1    4.29    0.98
   9 -11   1  114.73    6.15
  10 -11   1   24.53    3.30
  11 -11   1   28.20    3.71
  12 -11   1   40.33    3.96
  13 -11   1   16.36    3.03
  14 -11   1   45.77    4.46
  -5 -10   1    7.86    2.24
  -4 -10   1   26.63    3.92
  -3 -10   1    2.17    1.36
  -2 -10   1    0.02    0.63
  -1 -10   1   20.91    3.24
   0 -10   1  137.26    6.98
   1 -10   1   22.20    3.10
   2 -10   1  165.18    7.33
   3 -10   1    2.18    0.60
   4 -10   1    4.88    0.90
   5 -10   1   28.67    1.83
   6 -10   1    5.95    1.01
   7 -10   1    4.86    0.96
   8 -10   1   39.11    2.30
   9 -10   1    4.82    1.50
  10 -10   1  124.68    6.71
  11 -10   1   12.97    2.51
  12 -10   1    1.49    1.05
  13 -10   1   37.81    3.79
  14 -10   1   61.67    5.06
  15 -10   1    8.59    2.11
  -5  -9   1    3.02    0.95
  -4  -9   1   70.00    3.49
  -3  -9   1   23.19    2.28
  -2  -9   1  115.64    6.13
  -1  -9   1    2.47    1.10
   0  -9   1    6.25    1.58
   1  -9   1   46.76    3.52
   2  -9   1   22.69    1.56
   3  -9   1    1.77    0.55
   4  -9   1    0.05    0.28
   5  -9   1  232.36    5.62
   6  -9   1   38.50    2.09
   7  -9   1  204.39    5.60
   8  -9   1    8.74    1.75
   9  -9   1    6.67    1.66
  10  -9   1   20.18    2.85
  11  -9   1   47.01    3.91
  12  -9   1    3.26    1.33
  13  -9   1   17.69    2.87
  14  -9   1    8.53    2.14
  15  -9   1   71.93    5.37
  -7  -8   1   47.28    5.91
  -6  -8   1    1.56    0.79
  -5  -8   1   17.35    1.93
  -4  -8   1    4.39    1.01
  -3  -8   1    7.18    1.22
  -2  -8   1   35.08    2.12
  -1  -8   1   10.80    1.37
   0  -8   1    8.26    1.64
   1  -8   1  218.60    5.02
   2  -8   1   43.43    1.93
   3  -8   1  223.16    5.32
   4  -8   1   61.27    2.40
   5  -8   1    1.58    0.49
   6  -8   1    0.25    0.25
   7  -8   1   31.46    1.83
   8  -8   1    6.61    1.49
   9  -8   1   48.43    3.51
  10  -8   1  160.19    7.16
  11  -8   1   71.50    4.67
  12  -8   1  103.91    5.91
  13  -8   1    0.33    0.64
  14  -8   1    3.06    1.24
  -8  -7   1   16.46    3.42
  -7  -7   1   27.17    3.88
  -6  -7   1   82.19    3.69
  -5  -7   1   14.84    1.79
  -4  -7   1    5.32    0.98
  -3  -7   1    5.96    1.02
  -2  -7   1  206.70    5.51
  -1  -7   1   30.80    1.76
   0  -7   1  113.10    3.06
   1  -7   1  139.84    3.55
   2  -7   1   37.33    1.68
   3  -7   1  204.94    4.79
   4  -7   1    2.95    0.59
   5  -7   1   12.98    1.30
   6  -7   1  285.38    6.44
   7  -7   1  109.59    5.08
   8  -7   1  208.09    7.82
   9  -7   1   23.22    2.90
  10  -7   1    2.20    0.97
  11  -7   1   42.03    3.42
  12  -7   1    3.66    1.29
  13  -7   1    3.17    1.21
  -8  -6   1    4.00    1.47
  -7  -6   1    2.58    1.30
  -6  -6   1   18.60    1.94
  -5  -6   1    8.42    1.25
  -4  -6   1    6.48    1.03
  -3  -6   1   41.99    2.11
  -2  -6   1    1.35    0.47
  -1  -6   1  294.15    4.83
   0  -6   1   43.12    1.35
   1  -6   1    7.03    0.81
   2  -6   1  172.84    4.05
   3  -6   1  322.24    6.38
   4  -6   1   61.31    2.17
   5  -6   1   24.44    1.36
   6  -6   1   43.13    1.28
   7  -6   1  134.98    3.13
   8  -6   1   40.17    1.67
   9  -6   1    1.42    0.72
  10  -6   1    2.90    1.01
  11  -6   1  146.35    6.63
  12  -6   1   20.99    2.91
  13  -6   1   73.91    4.84
  -9  -5   1   10.71    2.43
  -8  -5   1    0.41    0.65
  -7  -5   1    3.75    1.36
  -6  -5   1  147.02    4.65
  -5  -5   1   29.55    1.83
  -4  -5   1  224.09    5.47
  -3  -5   1    4.12    0.72
  -2  -5   1   13.33    0.74
  -1  -5   1   23.77    0.93
   0  -5   1  186.44    3.23
   1  -5   1   19.24    1.01
   2  -5   1   93.88    2.52
   3  -5   1   86.11    2.48
   4  -5   1  441.40    6.07
   5  -5   1  192.79    4.47
   6  -5   1    6.18    0.64
   7  -5   1   36.01    1.48
   8  -5   1  225.12    5.04
   9  -5   1    0.36    0.30
  10  -5   1   29.67    1.72
  11  -5   1   11.45    1.40
  12  -5   1   11.36    1.43
 -10  -4   1   58.82    4.86
  -9  -4   1   22.08    3.40
  -8  -4   1   85.51    5.36
  -7  -4   1   43.86    2.31
  -6  -4   1    4.16    0.81
  -5  -4   1   -0.11    0.21
  -4  -4   1   59.28    1.93
  -3  -4   1    2.56    0.43
  -2  -4   1   62.27    1.35
  -1  -4   1  443.93    5.44
   0  -4   1  193.09    3.14
   1  -4   1  446.31    6.06
   2  -4   1   12.80    0.52
   3  -4   1   12.55    0.48
   4  -4   1  194.55    3.05
   5  -4   1   18.82    0.87
   6  -4   1  174.76    3.83
   7  -4   1  213.50    4.60
   8  -4   1   58.66    2.19
   9  -4   1  227.46    5.27
  10  -4   1    8.07    1.08
  11  -4   1    4.32    0.86
  12  -4   1    6.71    1.65
  13  -4   1   69.45    4.65
  14  -4   1   21.49    3.11
 -11  -3   1   46.17    4.30
 -10  -3   1   33.05    4.08
  -9  -3   1    2.09    1.08
  -8  -3   1   73.53    4.72
  -7  -3   1    1.90    0.49
  -6  -3   1    1.90    0.46
  -5  -3   1  223.89    4.39
  -4  -3   1  206.40    4.72
  -3  -3   1  315.70    5.16
  -2  -3   1   88.56    1.60
  -1  -3   1   12.41    0.50
   0  -3   1  194.54    2.37
   1  -3   1   19.08    0.63
   2  -3   1   41.24    0.94
   3  -3   1  200.92    4.67
   4  -3   1  451.58    7.38
   5  -3   1   90.26    2.31
   6  -3   1  319.68    6.11
   7  -3   1    3.20    0.42
   8  -3   1    3.77    0.50
   9  -3   1   43.77    1.54
  10  -3   1    4.78    0.86
  11  -3   1    8.09    1.72
  12  -3   1   22.66    2.96
  13  -3   1    2.66    1.27
  14  -3   1   65.08    4.86
 -12  -2   1   73.16    6.47
 -11  -2   1   16.63    2.93
 -10  -2   1    1.18    0.90
  -9  -2   1   50.14    2.78
  -8  -2   1  165.55    5.12
  -7  -2   1   23.46    1.37
  -6  -2   1   41.22    1.59
  -5  -2   1   35.20    1.36
  -4  -2   1  173.83    3.34
  -3  -2   1   88.14    2.00
  -2  -2   1   11.42    0.61
  -1  -2   1   42.56    0.88
   0  -2   1  566.80    5.53
   1  -2   1  133.98    1.80
   2  -2   1  562.60    8.66
   3  -2   1   18.21    0.74
   4  -2   1   12.49    0.50
   5  -2   1   87.40    1.77
   6  -2   1   59.83    1.52
   7  -2   1   12.73    0.80
   8  -2   1    0.80    0.27
   9  -2   1  208.97    4.15
  10  -2   1   40.83    2.07
  11  -2   1  112.23    5.74
  12  -2   1    1.26    0.86
  13  -2   1    2.55    1.29
  14  -2   1   12.65    2.61
 -12  -1   1    7.23    2.08
 -11  -1   1   49.12    2.95
 -10  -1   1   13.01    1.74
  -9  -1   1   18.71    1.99
  -8  -1   1   47.39    2.42
  -7  -1   1  214.69    4.24
  -6  -1   1  137.40    2.99
  -5  -1   1    6.53    0.66
  -4  -1   1   19.18    0.83
  -3  -1   1  451.87    6.22
  -2  -1   1   18.36    0.58
  -1  -1   1  135.62    1.68
   0  -1   1   48.16    0.72
   1  -1   1   48.87    0.87
   2  -1   1  136.12    2.00
   3  -1   1   40.24    0.90
   4  -1   1   12.73    0.55
   5  -1   1  443.15    6.20
   6  -1   1   21.45    0.92
   7  -1   1  293.73    4.87
   8  -1   1   33.92    1.33
   9  -1   1   11.28    1.29
  10  -1   1    2.43    0.67
  11  -1   1   20.05    2.85
  12  -1   1    6.21    1.82
  13  -1   1   15.98    2.85
 -13   0   1    9.61    2.39
 -12   0   1   90.36    4.17
 -11   0   1   25.29    2.43
 -10   0   1  143.29    4.87
  -9   0   1    6.18    1.08
  -8   0   1    9.87    1.29
  -7   0   1  114.44    2.69
  -6   0   1   43.55    1.43
  -5   0   1  187.32    3.35
  -4   0   1  196.22    3.79
  -3   0   1  197.25    3.06
  -2   0   1  568.91    6.23
  -1   0   1   50.15    1.72
   0   0   1    0.85    0.13
   1   0   1   47.32    0.90
   2   0   1  566.73    7.07
   3   0   1  199.94    3.00
   4   0   1  203.27    3.10
   5   0   1  189.24    3.19
   6   0   1   42.25    1.31
   7   0   1  121.68    3.44
   8   0   1    9.59    1.15
   9   0   1    5.56    0.92
  10   0   1  139.39    4.49
  11   0   1   29.82    2.24
  12   0   1   92.70    5.84
  13   0   1    6.01    2.03
 -13   1   1   20.96    2.40
 -12   1   1    3.95    1.04
 -11   1   1   23.18    2.28
 -10   1   1    4.20    0.93
  -9   1   1   10.10    1.38
  -8   1   1   33.65    1.92
  -7   1   1  291.74    4.97
  -6   1   1   21.68    0.92
  -5   1   1  434.26    6.29
  -4   1   1   12.16    0.49
  -3   1   1   39.99    1.10
  -2   1   1  136.12    3.85
  -1   1   1   48.87    1.15
   0   1   1   49.17    0.89
   1   1   1  136.26    2.08
   2   1   1   17.83    0.66
   3   1   1  450.77    5.99
   4   1   1   20.02    0.73
   5   1   1    7.26    0.52
   6   1   1  129.86    3.65
   7   1   1  219.84    5.30
   8   1   1   46.46    2.26
   9   1   1   19.00    1.80
  10   1   1   11.90    1.58
  11   1   1   45.92    2.68
  12   1   1    5.05    1.81
 -14   2   1    9.10    2.29
 -13   2   1    1.75    1.17
 -12   2   1    1.44    0.67
 -11   2   1  108.05    4.13
 -10   2   1   40.39    2.31
  -9   2   1  221.40    5.73
  -8   2   1    0.07    0.25
  -7   2   1   12.58    0.80
  -6   2   1   62.40    1.56
  -5   2   1   85.22    1.57
  -4   2   1   12.27    0.46
  -3   2   1   19.22    0.83
  -2   2   1  556.03    7.14
  -1   2   1  138.62    2.53
   0   2   1  559.01    7.08
   1   2   1   39.97    0.97
   2   2   1   12.85    0.75
   3   2   1   88.98    2.43
   4   2   1  175.17    4.12
   5   2   1   30.78    1.60
   6   2   1   39.83    1.96
   7   2   1   20.80    1.83
   8   2   1  158.19    4.86
   9   2   1   47.03    2.57
  10   2   1    1.44    0.60
  11   2   1   17.46    2.08
 -14   3   1   54.92    4.78
 -13   3   1    3.06    1.29
 -12   3   1   25.94    2.11
 -11   3   1    6.31    1.15
 -10   3   1    7.01    1.15
  -9   3   1   38.67    2.08
  -8   3   1    3.21    0.69
  -7   3   1    4.01    0.48
  -6   3   1  328.50    4.95
  -5   3   1   92.51    1.62
  -4   3   1  442.67    5.23
  -3   3   1  197.95    3.04
  -2   3   1   40.85    0.94
  -1   3   1   18.91    0.61
   0   3   1  192.78    3.01
   1   3   1   12.78    0.74
   2   3   1   85.40    2.36
   3   3   1  322.72    6.28
   4   3   1  204.02    4.79
   5   3   1  228.04    5.41
   6   3   1    1.78    0.55
   7   3   1    4.02    0.90
   8   3   1   73.53    3.19
   9   3   1    3.01    0.81
  10   3   1   34.66    2.64
  11   3   1   48.25    3.27
 -14   4   1   25.47    3.85
 -13   4   1   64.76    4.87
 -12   4   1    8.17    2.01
 -11   4   1    3.71    0.70
 -10   4   1    7.18    1.13
  -9   4   1  229.49    5.59
  -8   4   1   61.49    1.82
  -7   4   1  213.30    3.71
  -6   4   1  178.51    3.16
  -5   4   1   19.91    0.67
  -4   4   1  198.83    3.11
  -3   4   1   13.02    0.54
  -2   4   1   12.72    0.52
  -1   4   1  446.75    6.01
   0   4   1  192.20    3.10
   1   4   1  438.90    6.28
   2   4   1   58.92    1.63
   3   4   1    3.06    0.56
   4   4   1   59.86    2.35
   5   4   1    0.14    0.24
   6   4   1    5.54    0.88
   7   4   1   40.84    2.31
   8   4   1   92.27    3.82
   9   4   1   21.90    2.25
  10   4   1   65.72    3.55
 -15   5   1    5.10    2.83
 -14   5   1    3.84    1.58
 -13   5   1   19.85    3.11
 -12   5   1    9.62    2.17
 -11   5   1    7.35    1.14
 -10   5   1   25.21    1.71
  -9   5   1    0.19    0.30
  -8   5   1  231.05    4.12
  -7   5   1   36.28    1.26
  -6   5   1    6.61    0.51
  -5   5   1  193.26    3.16
  -4   5   1  441.97    6.09
  -3   5   1   85.33    1.69
  -2   5   1   91.17    1.77
  -1   5   1   19.67    0.75
   0   5   1  188.26    3.23
   1   5   1   21.10    0.94
   2   5   1   14.00    0.91
   3   5   1    3.58    0.55
   4   5   1  229.98    5.53
   5   5   1   30.45    1.86
   6   5   1  142.51    4.66
   7   5   1    1.36    0.60
   8   5   1    0.25    0.48
   9   5   1    9.39    1.63
  10   5   1   12.81    3.05
 -15   6   1   -0.21    0.92
 -14   6   1    2.58    1.24
 -13   6   1   73.77    5.14
 -12   6   1   18.26    2.87
 -11   6   1  150.02    6.92
 -10   6   1    6.97    1.06
  -9   6   1    1.57    0.47
  -8   6   1   42.10    1.49
  -7   6   1  138.17    2.84
  -6   6   1   42.16    1.25
  -5   6   1   21.93    0.82
  -4   6   1   60.56    1.37
  -3   6   1  324.26    4.71
  -2   6   1  177.03    3.02
  -1   6   1    6.43    0.59
   0   6   1   42.35    1.36
   1   6   1  289.86    4.96
   2   6   1    0.47    0.24
   3   6   1   38.50    1.92
   4   6   1    7.03    0.89
   5   6   1   10.32    1.14
   6   6   1   18.58    1.61
   7   6   1    1.49    0.71
   8   6   1    4.40    0.90
   9   6   1   75.71    3.23
 -15   7   1   55.94    4.71
 -14   7   1   30.93    4.13
 -13   7   1    3.62    1.48
 -12   7   1    1.79    1.00
 -11   7   1   39.99    3.39
 -10   7   1    4.91    1.36
  -9   7   1   22.79    1.59
  -8   7   1  215.19    4.05
  -7   7   1  114.90    2.62
  -6   7   1  292.00    6.07
  -5   7   1   12.67    1.13
  -4   7   1    3.02    0.58
  -3   7   1  209.58    3.46
  -2   7   1   35.29    1.14
  -1   7   1  139.97    2.79
   0   7   1  118.06    2.63
   1   7   1   32.00    1.36
   2   7   1  216.06    4.39
   3   7   1    5.19    0.75
   4   7   1    5.05    0.78
   5   7   1   12.34    1.30
   6   7   1   77.11    2.91
   7   7   1   27.80    2.12
   8   7   1   21.51    2.02
 -15   8   1   20.13    3.52
 -14   8   1    3.17    1.53
 -13   8   1    0.09    0.67
 -12   8   1   90.14    5.53
 -11   8   1   62.31    4.32
 -10   8   1  154.83    6.87
  -9   8   1   51.01    2.24
  -8   8   1    8.65    0.84
  -7   8   1   33.43    1.66
  -6   8   1    0.31    0.27
  -5   8   1    3.95    0.65
  -4   8   1   58.03    2.16
  -3   8   1  215.06    5.05
  -2   8   1   41.74    1.89
  -1   8   1  212.18    3.96
   0   8   1    8.74    0.84
   1   8   1   11.05    1.00
   2   8   1   37.52    1.69
   3   8   1    8.21    1.00
   4   8   1    6.51    0.96
   5   8   1   18.53    1.63
   6   8   1    1.89    0.64
   7   8   1   46.50    2.69
 -15   9   1   75.85    5.65
 -14   9   1   13.79    2.75
 -13   9   1   19.08    3.06
 -12   9   1    4.97    1.56
 -11   9   1   47.60    3.75
 -10   9   1   20.40    2.74
  -9   9   1    7.91    1.11
  -8   9   1   11.07    0.99
  -7   9   1  217.19    5.23
  -6   9   1   45.60    1.98
  -5   9   1  219.54    5.13
  -4   9   1    0.24    0.26
  -3   9   1    1.70    0.48
  -2   9   1   23.13    1.49
  -1   9   1   47.93    2.24
   0   9   1    6.27    1.03
   1   9   1    2.44    0.70
   2   9   1  108.94    4.07
   3   9   1   21.60    1.71
   4   9   1   70.12    2.78
   5   9   1    3.32    0.82
   6   9   1    0.30    0.65
 -15  10   1   15.06    4.54
 -14  10   1   60.60    4.89
 -13  10   1   35.45    4.19
 -12  10   1    2.30    1.17
 -11  10   1   17.47    2.76
 -10  10   1  129.42    6.40
  -9  10   1    2.73    0.69
  -8  10   1   40.50    3.12
  -7  10   1    6.06    0.92
  -6  10   1    5.59    0.89
  -5  10   1   30.19    1.71
  -4  10   1    4.71    0.81
  -3  10   1    1.85    0.55
  -2  10   1  167.42    4.77
  -1  10   1   21.99    1.96
   0  10   1  135.91    4.52
   1  10   1   21.36    2.12
   2  10   1    0.20    0.44
   3  10   1    4.07    0.95
   4  10   1   23.73    2.55
 -14  11   1   51.44    4.60
 -13  11   1   15.26    2.91
 -12  11   1   31.22    3.86
 -11  11   1   31.94    3.70
 -10  11   1   21.02    2.98
  -9  11   1  118.37    4.02
  -8  11   1    5.58    1.47
  -7  11   1    3.92    0.98
  -6  11   1    9.76    1.25
  -5  11   1  149.39    4.43
  -4  11   1   41.02    2.17
  -3  11   1   77.34    3.11
  -2  11   1   56.14    2.71
  -1  11   1   13.38    1.63
   0  11   1   32.19    2.18
   1  11   1    3.93    1.00
   2  11   1    1.38    0.70
   3  11   1   60.98    3.46
 -14  12   1   58.78    5.10
 -13  12   1    4.99    1.75
 -12  12   1   87.51    5.67
 -11  12   1    4.13    1.39
 -10  12   1    0.90    0.74
  -9  12   1   23.54    2.17
  -8  12   1    6.41    1.61
  -7  12   1   11.32    2.11
  -6  12   1   20.07    1.84
  -5  12   1    4.13    0.88
  -4  12   1   95.67    3.65
  -3  12   1    4.60    0.94
  -2  12   1    1.86    0.71
  -1  12   1   44.32    2.66
   0  12   1   86.14    3.92
   1  12   1   17.85    2.15
 -13  13   1    7.79    2.09
 -12  13   1   18.59    3.01
 -11  13   1    2.73    1.25
 -10  13   1    6.17    1.81
  -9  13   1   74.30    4.88
  -8  13   1   18.46    2.88
  -7  13   1   75.12    4.85
  -6  13   1    1.96    0.97
  -5  13   1   -0.30    0.37
  -4  13   1   21.25    2.09
  -3  13   1   38.71    2.47
  -2  13   1   16.02    2.00
  -1  13   1    5.30    1.15
   0  13   1    9.58    1.69
 -11  14   1   56.12    4.57
 -10  14   1   21.79    3.32
  -9  14   1    2.16    1.19
  -8  14   1    0.82    0.83
  -7  14   1   32.77    3.98
  -6  14   1    4.49    1.41
  -5  14   1    9.97    2.23
  -4  14   1   65.38    4.88
  -3  14   1   50.50    3.03
  -2  14   1   63.31    4.88
  -8  15   1   37.47    4.94
  -7  15   1   17.92    3.35
   9 -15   2   29.41    4.03
   3 -14   2   41.80    7.28
   4 -14   2    1.99    1.31
   5 -14   2    1.31    1.10
   6 -14   2   33.03    4.45
   7 -14   2    6.18    1.32
   8 -14   2    3.75    1.07
   9 -14   2   62.34    4.86
  10 -14   2   12.32    2.61
  11 -14   2   43.55    5.19
   1 -13   2    7.22    2.26
   2 -13   2    5.88    1.88
   3 -13   2    0.75    0.91
   4 -13   2   25.96    3.70
   5 -13   2   64.00    5.10
   6 -13   2   32.27    2.51
   7 -13   2   54.61    3.11
   8 -13   2   26.87    2.60
   9 -13   2   40.07    3.87
  10 -13   2    2.93    1.36
  11 -13   2   41.58    4.21
  12 -13   2    2.63    1.40
  -1 -12   2    1.22    1.07
   0 -12   2   17.97    3.38
   1 -12   2    2.50    1.27
   2 -12   2  109.79    6.67
   3 -12   2    3.07    1.39
   4 -12   2   32.90    4.10
   5 -12   2    1.68    0.70
   6 -12   2   35.22    2.35
   7 -12   2    2.07    0.74
   8 -12   2    5.46    1.17
   9 -12   2   31.67    3.90
  10 -12   2   17.78    2.93
  11 -12   2   69.96    5.38
  12 -12   2   16.68    3.09
  13 -12   2    6.67    2.15
  -3 -11   2   46.20    5.34
  -2 -11   2   50.42    4.56
  -1 -11   2   82.48    5.72
   0 -11   2   18.46    3.16
   1 -11   2    7.43    2.02
   2 -11   2    3.28    1.34
   3 -11   2   32.59    3.95
   4 -11   2   65.70    3.02
   5 -11   2   62.39    2.98
   6 -11   2    3.34    0.84
   7 -11   2  322.73    8.27
   8 -11   2    2.80    1.15
   9 -11   2   41.85    3.69
  10 -11   2    7.45    2.00
  11 -11   2   23.27    3.46
  12 -11   2    2.15    1.12
  13 -11   2   10.16    2.56
  14 -11   2   45.32    4.57
  -4 -10   2   13.17    1.88
  -3 -10   2    5.73    1.75
  -2 -10   2   17.98    3.00
  -1 -10   2    6.20    1.75
   0 -10   2  111.78    6.14
   1 -10   2   22.97    3.25
   2 -10   2   37.20    3.32
   3 -10   2   88.22    3.33
   4 -10   2   68.74    2.95
   5 -10   2   40.66    2.27
   6 -10   2    8.10    1.23
   7 -10   2   11.62    1.54
   8 -10   2  105.00    5.64
   9 -10   2   26.00    3.36
  10 -10   2  109.23    6.15
  11 -10   2    8.08    2.02
  12 -10   2  111.81    6.64
  13 -10   2    2.14    1.19
  14 -10   2    3.42    1.57
  -5  -9   2   52.34    4.64
  -4  -9   2   36.44    3.04
  -3  -9   2   23.98    2.33
  -2  -9   2   41.78    2.49
  -1  -9   2   17.90    2.75
   0  -9   2   58.25    4.11
   1  -9   2    2.96    1.10
   2  -9   2    6.81    0.97
   3  -9   2  169.95    4.74
   4  -9   2   47.15    2.30
   5  -9   2   61.90    2.79
   6  -9   2   59.62    2.75
   7  -9   2   56.63    3.83
   8  -9   2   77.02    4.70
   9  -9   2   64.16    4.34
  10  -9   2   30.54    3.71
  11  -9   2    2.12    1.07
  12  -9   2    5.82    1.71
  13  -9   2   26.83    3.72
  14  -9   2    0.37    0.92
  15  -9   2   17.11    3.18
  -6  -8   2    2.78    1.41
  -5  -8   2   26.67    3.62
  -4  -8   2    6.69    1.23
  -3  -8   2    4.88    1.05
  -2  -8   2   94.92    3.69
  -1  -8   2   85.40    3.30
   0  -8   2  112.76    5.55
   1  -8   2   17.04    1.29
   2  -8   2   25.97    1.57
   3  -8   2  119.64    3.67
   4  -8   2   28.75    1.71
   5  -8   2   33.46    1.88
   6  -8   2   35.56    1.99
   7  -8   2   44.44    3.24
   8  -8   2  117.31    5.74
   9  -8   2    1.92    0.92
  10  -8   2   36.62    3.19
  11  -8   2   37.07    3.37
  12  -8   2   31.00    3.84
  13  -8   2   64.47    4.84
  14  -8   2   48.42    4.26
  -7  -7   2    7.51    2.18
  -6  -7   2   57.29    4.55
  -5  -7   2    3.14    0.87
  -4  -7   2  347.79    8.11
  -3  -7   2   15.29    1.64
  -2  -7   2   56.02    2.57
  -1  -7   2   42.89    2.14
   0  -7   2   71.90    2.05
   1  -7   2   14.75    1.28
   2  -7   2   21.71    1.38
   3  -7   2  105.26    3.27
   4  -7   2  164.82    4.39
   5  -7   2  203.25    5.19
   6  -7   2  106.74    4.98
   7  -7   2   65.86    3.90
   8  -7   2   21.66    2.70
   9  -7   2    8.34    1.77
  10  -7   2   78.80    4.68
  11  -7   2   60.62    4.26
  12  -7   2    2.65    1.14
  13  -7   2   30.55    3.80
  -8  -6   2   39.68    4.65
  -7  -6   2   30.67    3.89
  -6  -6   2   33.96    4.04
  -5  -6   2    1.14    0.54
  -4  -6   2    9.29    1.24
  -3  -6   2   57.37    2.51
  -2  -6   2   35.64    1.86
  -1  -6   2  112.28    2.62
   0  -6   2   18.87    0.95
   1  -6   2  339.07    5.37
   2  -6   2    5.51    0.58
   3  -6   2  144.80    3.24
   4  -6   2   11.16    0.65
   5  -6   2  187.29    3.90
   6  -6   2   18.01    1.00
   7  -6   2   15.52    1.01
   8  -6   2   26.74    2.37
   9  -6   2  168.89    6.83
  10  -6   2   63.03    4.08
  11  -6   2   58.87    4.04
  12  -6   2   34.68    3.20
  -9  -5   2    1.50    1.20
  -8  -5   2   61.57    4.85
  -7  -5   2    2.49    1.12
  -6  -5   2   60.15    3.05
  -5  -5   2   40.29    1.80
  -4  -5   2   68.56    2.27
  -3  -5   2   28.28    1.35
  -2  -5   2  204.00    3.35
  -1  -5   2  192.81    3.10
   0  -5   2    3.51    0.36
   1  -5   2   43.73    1.03
   2  -5   2   68.38    1.71
   3  -5   2    9.13    0.61
   4  -5   2   65.87    1.84
   5  -5   2    3.91    0.51
   6  -5   2  329.15    6.36
   7  -5   2   23.70    1.25
   8  -5   2  113.93    3.28
   9  -5   2   47.38    2.07
  10  -5   2   42.50    2.08
  11  -5   2    1.60    0.53
 -10  -4   2    3.88    1.50
  -9  -4   2   26.36    3.60
  -8  -4   2   33.11    2.86
  -7  -4   2   69.49    3.31
  -6  -4   2   65.43    3.08
  -5  -4   2   49.08    2.19
  -4  -4   2   27.79    1.32
  -3  -4   2  158.98    3.37
  -2  -4   2   11.41    0.64
  -1  -4   2   61.85    1.29
   0  -4   2  129.86    1.96
   1  -4   2  262.73    3.17
   2  -4   2  275.62    3.60
   3  -4   2  131.50    2.93
   4  -4   2  127.59    2.95
   5  -4   2   43.02    1.56
   6  -4   2    5.96    0.72
   7  -4   2  104.06    2.99
   8  -4   2   28.52    1.52
   9  -4   2   67.32    2.58
  10  -4   2    7.87    1.09
  11  -4   2  357.96   11.07
  12  -4   2    9.11    1.95
  13  -4   2   37.61    3.41
 -10  -3   2    0.71    0.75
  -9  -3   2    3.71    0.98
  -8  -3   2   39.96    2.52
  -7  -3   2   79.88    3.47
  -6  -3   2  159.48    4.92
  -5  -3   2  120.35    2.94
  -4  -3   2  106.79    3.07
  -3  -3   2  140.97    2.59
  -2  -3   2    7.94    0.53
  -1  -3   2  132.29    1.96
   0  -3   2   47.58    0.99
   1  -3   2   70.43    1.17
   2  -3   2  280.88    4.02
   3  -3   2   49.40    1.53
   4  -3   2  264.92    5.03
   5  -3   2   66.72    2.07
   6  -3   2  146.62    2.54
   7  -3   2  160.48    3.05
   8  -3   2   29.55    1.58
   9  -3   2   58.61    2.42
  10  -3   2   14.04    2.18
  11  -3   2    3.67    1.24
  12  -3   2   26.78    3.39
  13  -3   2    7.95    1.98
  14  -3   2   50.27    4.27
 -11  -2   2    4.94    1.26
 -10  -2   2  111.17    4.65
  -9  -2   2    1.89    0.67
  -8  -2   2   36.79    2.34
  -7  -2   2    5.66    1.01
  -6  -2   2   27.59    1.78
  -5  -2   2   24.10    1.23
  -4  -2   2    4.65    0.49
  -3  -2   2   67.72    1.56
  -2  -2   2  277.68    4.34
  -1  -2   2  284.37    3.31
   0  -2   2  448.49    4.69
   1  -2   2  201.76    2.60
   2  -2   2  449.81    5.92
   3  -2   2   72.09    1.36
   4  -2   2  273.40    3.99
   5  -2   2    8.60    0.52
   6  -2   2   10.70    0.67
   7  -2   2  207.45    3.69
   8  -2   2   35.13    1.32
   9  -2   2   59.13    3.67
  10  -2   2   87.34    4.92
  11  -2   2   41.79    3.43
  12  -2   2   17.20    2.75
  13  -2   2   46.32    4.09
 -12  -1   2    9.48    1.62
 -11  -1   2    2.04    0.83
 -10  -1   2    8.82    1.48
  -9  -1   2   28.33    2.49
  -8  -1   2    3.78    0.87
  -7  -1   2   20.84    1.92
  -6  -1   2   16.67    1.60
  -5  -1   2  339.25    4.78
  -4  -1   2   42.75    1.17
  -3  -1   2  265.95    3.67
  -2  -1   2   70.85    1.38
  -1  -1   2  204.13    2.47
   0  -1   2   41.80    0.89
   1  -1   2   42.63    1.23
   2  -1   2  203.53    3.05
   3  -1   2  283.87    4.06
   4  -1   2  129.39    2.33
   5  -1   2   64.38    1.55
   6  -1   2  188.67    3.38
   7  -1   2  113.95    2.55
   8  -1   2   43.69    1.97
   9  -1   2   90.22    3.15
  10  -1   2   28.14    3.40
  11  -1   2    6.74    1.76
  12  -1   2   82.84    5.40
  13  -1   2    1.55    1.15
 -13   0   2    3.05    1.55
 -12   0   2   21.81    2.46
 -11   0   2   19.15    2.17
 -10   0   2  109.69    4.33
  -9   0   2   57.88    2.95
  -8   0   2  132.16    4.31
  -7   0   2   67.37    2.85
  -6   0   2   18.96    1.66
  -5   0   2    4.60    0.41
  -4   0   2  130.39    2.11
  -3   0   2   49.16    1.04
  -2   0   2  439.35    6.25
  -1   0   2   41.87    1.08
   0   0   2  868.02    9.29
   1   0   2   42.69    1.06
   2   0   2  452.21    5.05
   3   0   2   49.11    1.22
   4   0   2  130.31    2.42
   5   0   2    3.61    0.44
   6   0   2   19.05    0.91
   7   0   2   70.27    2.53
   8   0   2  122.80    3.75
   9   0   2   63.26    2.70
  10   0   2  110.63    5.94
  11   0   2   17.63    2.81
  12   0   2   21.69    3.48
 -13   1   2    1.08    0.72
 -12   1   2   92.38    4.18
 -11   1   2    5.32    1.15
 -10   1   2   23.22    2.23
  -9   1   2   86.63    3.50
  -8   1   2   46.92    2.41
  -7   1   2  114.32    3.72
  -6   1   2  187.51    3.87
  -5   1   2   62.36    1.86
  -4   1   2  127.55    2.71
  -3   1   2  284.05    4.44
  -2   1   2  196.41    3.22
  -1   1   2   42.73    1.05
   0   1   2   43.70    0.97
   1   1   2  199.20    2.60
   2   1   2   72.92    1.26
   3   1   2  270.92    4.08
   4   1   2   44.61    1.29
   5   1   2  342.15    5.25
   6   1   2   13.74    1.29
   7   1   2   18.83    1.46
   8   1   2    3.42    0.76
   9   1   2   28.17    2.01
  10   1   2    8.17    1.27
  11   1   2    1.55    1.03
  12   1   2    6.34    1.91
 -13   2   2   46.08    2.99
 -12   2   2   19.81    2.22
 -11   2   2   40.59    2.53
 -10   2   2   93.40    3.82
  -9   2   2   60.13    2.82
  -8   2   2   33.89    1.95
  -7   2   2  204.03    4.21
  -6   2   2    9.83    0.91
  -5   2   2    9.40    0.83
  -4   2   2  270.30    5.49
  -3   2   2   68.51    1.63
  -2   2   2  443.16    6.08
  -1   2   2  203.44    3.11
   0   2   2  449.17    5.96
   1   2   2  279.46    4.09
   2   2   2  272.59    4.14
   3   2   2   69.14    1.63
   4   2   2    5.30    0.50
   5   2   2   24.64    1.42
   6   2   2   27.70    1.64
   7   2   2    5.98    1.00
   8   2   2   35.33    2.10
   9   2   2    2.75    0.78
  10   2   2  110.37    4.31
  11   2   2    3.34    1.43
 -14   3   2   45.88    5.94
 -13   3   2    6.56    1.32
 -12   3   2   23.32    2.37
 -11   3   2    3.56    0.89
 -10   3   2   10.72    1.49
  -9   3   2   58.45    2.70
  -8   3   2   29.96    1.81
  -7   3   2  154.93    3.45
  -6   3   2  139.44    3.06
  -5   3   2   70.49    1.86
  -4   3   2  262.88    4.26
  -3   3   2   47.29    1.28
  -2   3   2  282.60    4.20
  -1   3   2   68.60    1.51
   0   3   2   48.27    1.23
   1   3   2  129.86    2.41
   2   3   2    9.04    0.68
   3   3   2  141.14    2.85
   4   3   2  104.29    3.17
   5   3   2  120.18    3.61
   6   3   2  168.39    4.73
   7   3   2   78.05    3.23
   8   3   2   36.98    2.26
   9   3   2    4.95    1.04
  10   3   2    1.06    0.72
 -14   4   2   14.94    2.98
 -13   4   2   40.30    2.84
 -12   4   2    7.42    1.30
 -11   4   2  333.90    8.24
 -10   4   2    7.48    1.19
  -9   4   2   68.01    2.86
  -8   4   2   25.82    1.63
  -7   4   2  107.98    2.66
  -6   4   2    4.76    0.36
  -5   4   2   44.07    1.41
  -4   4   2  127.58    3.03
  -3   4   2  132.44    2.48
  -2   4   2  277.57    4.21
  -1   4   2  267.65    4.09
   0   4   2  128.87    2.45
   1   4   2   61.86    1.61
   2   4   2   10.88    0.73
   3   4   2  158.54    3.24
   4   4   2   28.53    1.28
   5   4   2   44.41    2.19
   6   4   2   66.54    2.90
   7   4   2   69.35    3.11
   8   4   2   33.40    2.25
   9   4   2   27.34    2.62
  10   4   2    6.76    1.37
 -14   5   2   58.95    4.90
 -13   5   2   28.92    3.87
 -12   5   2    2.13    0.75
 -11   5   2    0.63    0.48
 -10   5   2   40.65    2.27
  -9   5   2   44.86    2.27
  -8   5   2  120.82    2.94
  -7   5   2   22.73    1.11
  -6   5   2  340.94    4.55
  -5   5   2    3.03    0.42
  -4   5   2   60.12    1.59
  -3   5   2    8.60    0.65
  -2   5   2   68.15    1.65
  -1   5   2   43.05    1.30
   0   5   2    3.44    0.45
   1   5   2  185.73    3.49
   2   5   2  205.85    3.87
   3   5   2   28.81    1.29
   4   5   2   63.16    2.11
   5   5   2   40.25    1.75
   6   5   2   57.91    2.27
   7   5   2    1.21    0.49
   8   5   2   78.81    2.94
   9   5   2    0.83    0.52
 -14   6   2    4.28    1.64
 -13   6   2   59.55    4.68
 -12   6   2   33.91    2.47
 -11   6   2   62.42    2.96
 -10   6   2   72.54    3.07
  -9   6   2  160.20    4.68
  -8   6   2   22.85    1.21
  -7   6   2   14.55    1.07
  -6   6   2   19.77    0.95
  -5   6   2  185.27    3.42
  -4   6   2   10.62    0.70
  -3   6   2  141.28    2.74
  -2   6   2    4.97    0.52
  -1   6   2  341.68    5.30
   0   6   2   19.00    0.93
   1   6   2  112.75    2.66
   2   6   2   34.10    1.41
   3   6   2   56.64    1.99
   4   6   2    8.91    0.96
   5   6   2    0.79    0.37
   6   6   2   36.80    1.87
   7   6   2   30.25    2.13
   8   6   2   43.43    2.26
 -14   7   2    3.15    1.42
 -13   7   2   29.25    3.85
 -12   7   2    1.52    1.06
 -11   7   2   67.70    3.09
 -10   7   2   81.60    3.27
  -9   7   2    6.96    1.08
  -8   7   2   19.11    1.47
  -7   7   2   66.42    2.58
  -6   7   2  112.03    2.72
  -5   7   2  204.86    3.69
  -4   7   2  157.91    3.04
  -3   7   2  106.75    2.36
  -2   7   2   24.95    1.05
  -1   7   2   14.07    0.91
   0   7   2   71.61    2.03
   1   7   2   45.20    1.69
   2   7   2   59.88    2.07
   3   7   2   12.65    1.17
   4   7   2  341.05    6.48
   5   7   2    1.97    0.57
   6   7   2   55.74    2.47
   7   7   2    5.87    1.02
   8   7   2   39.83    4.53
 -14   8   2   49.30    4.46
 -13   8   2   70.44    5.18
 -12   8   2   26.08    3.50
 -11   8   2   32.63    3.74
 -10   8   2   36.40    2.17
  -9   8   2    3.34    0.70
  -8   8   2  120.94    3.86
  -7   8   2   41.37    2.04
  -6   8   2   33.20    1.76
  -5   8   2   27.56    1.56
  -4   8   2   28.21    1.54
  -3   8   2  116.00    3.44
  -2   8   2   24.24    1.09
  -1   8   2   17.61    1.09
   0   8   2  121.31    2.97
   1   8   2   85.07    2.52
   2   8   2   97.88    2.88
   3   8   2    3.06    0.65
   4   8   2    6.96    1.00
   5   8   2   27.69    2.04
   6   8   2    5.34    0.96
   7   8   2   25.58    2.60
 -14   9   2    1.57    1.09
 -13   9   2   29.07    3.86
 -12   9   2    2.70    1.17
 -11   9   2    2.28    1.00
 -10   9   2   29.97    2.10
  -9   9   2   62.44    2.75
  -8   9   2   91.66    3.28
  -7   9   2   59.32    2.53
  -6   9   2   57.46    2.44
  -5   9   2   63.94    2.56
  -4   9   2   43.49    2.07
  -3   9   2  167.82    4.52
  -2   9   2    7.13    1.02
  -1   9   2    3.46    0.76
   0   9   2   58.34    2.67
   1   9   2   19.45    1.90
   2   9   2   39.58    1.88
   3   9   2   27.74    1.84
   4   9   2   42.88    2.16
   5   9   2   62.46    2.77
   6   9   2   21.80    2.45
 -14  10   2    5.57    1.88
 -13  10   2    0.63    0.81
 -12  10   2  119.79    6.67
 -11  10   2   10.47    2.25
 -10  10   2   92.42    5.44
  -9  10   2   22.22    2.03
  -8  10   2  100.77    3.57
  -7  10   2   11.80    1.43
  -6  10   2   10.04    1.28
  -5  10   2   38.46    2.04
  -4  10   2   72.19    2.87
  -3  10   2   83.23    3.13
  -2  10   2   36.05    2.05
  -1  10   2   30.71    2.12
   0  10   2  108.04    3.95
   1  10   2    6.77    1.16
   2  10   2   19.71    2.08
   3  10   2    4.91    1.15
   4  10   2   14.32    1.93
 -14  11   2   45.09    5.98
 -13  11   2   10.17    2.39
 -12  11   2    0.89    0.96
 -11  11   2   17.66    2.93
 -10  11   2    6.30    1.62
  -9  11   2   37.82    3.27
  -8  11   2    2.17    0.65
  -7  11   2  339.80    7.78
  -6  11   2    1.16    0.52
  -5  11   2   59.40    2.70
  -4  11   2   65.67    2.92
  -3  11   2   38.67    2.19
  -2  11   2    3.01    0.80
  -1  11   2   10.25    1.46
   0  11   2   17.05    1.95
   1  11   2   78.25    3.68
   2  11   2   49.84    3.01
   3  11   2   39.76    4.61
 -13  12   2    7.34    2.18
 -12  12   2   20.18    3.32
 -11  12   2   75.79    5.24
 -10  12   2   17.62    2.78
  -9  12   2   31.81    3.75
  -8  12   2    6.31    1.62
  -7  12   2    1.30    0.57
  -6  12   2   32.61    2.10
  -5  12   2    1.86    0.64
  -4  12   2   27.79    2.12
  -3  12   2    3.99    0.91
  -2  12   2  113.04    4.33
  -1  12   2    1.58    0.63
   0  12   2   19.13    2.17
   1  12   2    2.37    0.89
 -12  13   2    1.43    1.10
 -11  13   2   48.01    4.20
 -10  13   2    6.30    1.80
  -9  13   2   40.27    3.64
  -8  13   2   25.07    3.48
  -7  13   2   53.78    4.14
  -6  13   2   27.66    2.44
  -5  13   2   74.82    3.42
  -4  13   2   25.72    2.38
  -3  13   2    0.51    0.54
  -2  13   2    6.22    1.31
  -1  13   2    8.57    1.47
 -10  14   2   10.45    2.37
  -9  14   2   56.66    4.57
  -8  14   2    4.53    1.56
  -7  14   2    4.03    1.51
  -6  14   2   40.35    3.76
  -5  14   2    1.62    0.70
  -4  14   2    6.28    1.26
  -3  14   2   44.10    3.23
   5 -14   3   11.26    3.10
   6 -14   3   15.87    3.39
   7 -14   3   22.91    2.57
   8 -14   3    2.04    1.27
   9 -14   3    0.20    0.81
   2 -13   3   12.05    2.69
   3 -13   3   36.52    4.69
   4 -13   3   23.26    3.70
   5 -13   3   -0.10    0.79
   6 -13   3    2.74    0.94
   7 -13   3   73.56    3.76
   8 -13   3   17.94    3.11
   9 -13   3   50.83    4.54
  10 -13   3    6.54    2.06
  11 -13   3    2.58    1.36
  -1 -12   3   16.99    3.31
   0 -12   3   78.79    5.74
   1 -12   3   31.62    4.18
   2 -12   3   13.50    2.77
   3 -12   3    3.22    1.42
   4 -12   3   94.30    6.15
   5 -12   3    0.23    0.48
   6 -12   3   11.97    1.71
   7 -12   3   25.23    2.42
   8 -12   3   11.91    2.45
   9 -12   3   18.82    3.06
  10 -12   3    3.17    1.34
  11 -12   3   16.63    3.15
  12 -12   3   72.31    5.64
  -2 -11   3    3.66    1.51
  -1 -11   3   11.87    2.62
   0 -11   3   23.38    3.53
   1 -11   3    4.46    1.50
   2 -11   3   28.98    3.76
   3 -11   3   46.75    4.04
   4 -11   3   31.18    2.32
   5 -11   3   98.23    3.96
   6 -11   3   21.73    2.21
   7 -11   3    4.97    1.56
   8 -11   3   13.22    2.45
   9 -11   3   84.07    5.57
  10 -11   3   18.76    3.16
  11 -11   3   24.14    3.59
  12 -11   3   29.69    4.13
  13 -11   3   18.67    3.31
  -2 -10   3    3.81    1.50
  -1 -10   3   21.05    3.23
   0 -10   3  124.22    6.74
   1 -10   3   35.04    3.31
   2 -10   3  136.19    4.73
   3 -10   3    4.72    0.95
   4 -10   3    3.19    0.80
   5 -10   3   22.27    2.16
   6 -10   3   19.47    1.98
   7 -10   3   13.52    2.34
   8 -10   3   30.90    3.10
   9 -10   3    0.61    0.61
  10 -10   3  130.04    7.05
  11 -10   3    8.13    2.10
  12 -10   3   15.34    2.87
  13 -10   3   34.59    4.36
  14 -10   3   50.24    4.73
  -5  -9   3    0.19    1.01
  -4  -9   3   52.89    4.52
  -3  -9   3   22.14    2.27
  -2  -9   3   92.00    3.82
  -1  -9   3    1.26    0.89
   0  -9   3    4.88    1.47
   1  -9   3   50.09    2.42
   2  -9   3   17.27    1.69
   3  -9   3    0.97    0.48
   4  -9   3    7.71    1.20
   5  -9   3  212.51    5.96
   6  -9   3   33.36    2.97
   7  -9   3  118.48    6.03
   8  -9   3    2.14    0.96
   9  -9   3    6.35    1.71
  10  -9   3   38.58    3.59
  11  -9   3   32.10    3.97
  12  -9   3    3.24    1.44
  13  -9   3   29.45    3.96
  14  -9   3   13.05    2.72
  -6  -8   3    2.04    1.33
  -5  -8   3   17.36    3.04
  -4  -8   3   11.29    2.26
  -3  -8   3   16.08    1.84
  -2  -8   3   32.01    2.24
  -1  -8   3    0.35    0.43
   0  -8   3    4.80    0.88
   1  -8   3  187.71    5.05
   2  -8   3   71.38    2.82
   3  -8   3  226.21    5.74
   4  -8   3   49.92    2.45
   5  -8   3   14.28    1.54
   6  -8   3    4.59    1.34
   7  -8   3   27.95    2.68
   8  -8   3    2.58    1.01
   9  -8   3   43.42    3.62
  10  -8   3  141.42    7.02
  11  -8   3   44.65    3.86
  12  -8   3  102.40    6.10
  13  -8   3    0.72    0.90
  14  -8   3   11.70    2.52
  -7  -7   3   24.01    3.74
  -6  -7   3   74.42    5.33
  -5  -7   3   18.30    2.86
  -4  -7   3    5.22    1.54
  -3  -7   3   12.47    1.52
  -2  -7   3  122.17    4.00
  -1  -7   3   24.97    1.28
   0  -7   3   85.94    2.43
   1  -7   3   92.32    2.45
   2  -7   3   22.85    1.19
   3  -7   3  114.69    3.62
   4  -7   3   18.10    1.66
   5  -7   3    8.94    1.64
   6  -7   3  286.11    9.46
   7  -7   3   76.59    4.46
   8  -7   3  180.36    7.53
   9  -7   3   17.10    2.62
  10  -7   3    4.13    1.38
  11  -7   3   25.99    3.33
  12  -7   3    0.07    0.72
  13  -7   3    2.81    1.20
  -8  -6   3   14.25    2.89
  -7  -6   3    2.73    1.40
  -6  -6   3   16.67    2.83
  -5  -6   3   20.64    2.13
  -4  -6   3   20.82    2.02
  -3  -6   3   39.77    1.77
  -2  -6   3    7.01    0.70
  -1  -6   3  280.40    3.92
   0  -6   3   41.40    1.19
   1  -6   3   22.26    0.93
   2  -6   3   63.80    1.88
   3  -6   3  242.31    4.36
   4  -6   3   65.78    2.18
   5  -6   3   45.71    1.77
   6  -6   3   41.06    1.72
   7  -6   3   86.50    4.60
   8  -6   3   69.07    4.12
   9  -6   3    1.42    0.76
  10  -6   3    3.45    1.19
  11  -6   3  103.16    5.58
  12  -6   3   15.36    2.60
  -9  -5   3   10.52    2.93
  -8  -5   3    0.31    0.57
  -7  -5   3    0.98    0.64
  -6  -5   3   93.13    3.97
  -5  -5   3   17.96    1.93
  -4  -5   3  217.57    4.65
  -3  -5   3   14.07    1.17
  -2  -5   3   10.78    0.74
  -1  -5   3   44.84    1.22
   0  -5   3  135.19    2.25
   1  -5   3   15.60    0.65
   2  -5   3   89.54    1.86
   3  -5   3   45.86    1.25
   4  -5   3  285.98    5.77
   5  -5   3  133.32    3.42
   6  -5   3   21.35    1.23
   7  -5   3   22.47    1.33
   8  -5   3  214.02    5.20
   9  -5   3    9.16    1.16
  10  -5   3   20.39    1.60
  11  -5   3   21.12    2.95
  -9  -4   3   25.19    2.68
  -8  -4   3   95.16    4.29
  -7  -4   3   34.06    2.89
  -6  -4   3    2.60    0.75
  -5  -4   3    7.96    1.28
  -4  -4   3   50.47    1.85
  -3  -4   3   18.86    1.06
  -2  -4   3   61.23    1.45
  -1  -4   3  292.40    3.79
   0  -4   3  136.27    2.17
   1  -4   3  380.13    4.44
   2  -4   3    7.40    0.62
   3  -4   3   28.79    0.91
   4  -4   3  135.30    3.39
   5  -4   3   14.94    1.06
   6  -4   3   61.64    2.21
   7  -4   3  107.36    3.22
   8  -4   3   44.61    2.07
   9  -4   3  212.78    5.46
  10  -4   3   21.13    1.84
  11  -4   3    2.44    1.07
  12  -4   3   14.93    2.44
  13  -4   3   59.53    4.93
 -10  -3   3   37.44    3.28
  -9  -3   3    3.02    0.93
  -8  -3   3   47.66    2.83
  -7  -3   3    4.98    1.05
  -6  -3   3    1.26    0.54
  -5  -3   3  217.62    5.81
  -4  -3   3  112.47    2.42
  -3  -3   3  236.07    3.80
  -2  -3   3   45.47    1.17
  -1  -3   3   28.83    0.87
   0  -3   3   93.94    1.63
   1  -3   3   28.64    0.83
   2  -3   3   82.64    1.82
   3  -3   3   96.14    1.93
   4  -3   3  386.20    5.44
   5  -3   3   86.08    2.67
   6  -3   3  231.42    5.21
   7  -3   3   21.72    1.34
   8  -3   3   14.73    1.43
   9  -3   3   42.58    2.13
  10  -3   3   12.46    2.11
  11  -3   3   19.12    2.71
  12  -3   3   21.01    3.02
  13  -3   3    7.54    2.03
 -11  -2   3   11.72    1.78
 -10  -2   3   10.95    1.71
  -9  -2   3   30.25    2.79
  -8  -2   3  138.09    4.92
  -7  -2   3   15.88    1.77
  -6  -2   3   69.41    3.01
  -5  -2   3   22.02    1.38
  -4  -2   3   64.85    1.63
  -3  -2   3   90.85    1.95
  -2  -2   3    6.57    0.56
  -1  -2   3   80.39    1.67
   0  -2   3  339.49    4.44
   1  -2   3   74.98    1.37
   2  -2   3  345.23    5.12
   3  -2   3   31.15    0.98
   4  -2   3    7.58    0.51
   5  -2   3   44.19    1.26
   6  -2   3   61.40    1.73
   7  -2   3    9.13    1.07
   8  -2   3    6.27    0.96
   9  -2   3  124.93    5.67
  10  -2   3   28.56    2.77
  11  -2   3   86.82    5.32
  12  -2   3    2.56    1.19
  13  -2   3    2.62    1.42
 -11  -1   3   27.04    2.71
 -10  -1   3    9.48    1.60
  -9  -1   3   36.07    2.63
  -8  -1   3   46.68    2.63
  -7  -1   3  181.24    5.44
  -6  -1   3   87.35    2.71
  -5  -1   3   22.78    1.30
  -4  -1   3   15.34    0.74
  -3  -1   3  376.68    6.07
  -2  -1   3   30.02    1.14
  -1  -1   3   74.09    1.75
   0  -1   3   55.51    1.20
   1  -1   3   54.37    1.46
   2  -1   3   75.17    1.72
   3  -1   3   78.39    1.77
   4  -1   3   27.75    0.98
   5  -1   3  281.95    4.59
   6  -1   3   47.94    1.47
   7  -1   3  275.58    4.77
   8  -1   3   25.60    2.40
   9  -1   3    0.67    0.62
  10  -1   3    0.73    0.64
  11  -1   3   19.38    3.05
  12  -1   3   11.49    2.46
 -12   0   3   75.52    4.00
 -11   0   3   27.99    2.74
 -10   0   3  135.07    5.02
  -9   0   3    4.93    1.09
  -8   0   3    2.98    0.80
  -7   0   3   84.89    2.73
  -6   0   3   41.87    1.77
  -5   0   3  130.51    3.17
  -4   0   3  131.95    3.02
  -3   0   3   96.27    2.30
  -2   0   3  342.12    5.30
  -1   0   3   57.60    1.45
   0   0   3    0.14    0.11
   1   0   3   55.02    1.47
   2   0   3  341.62    5.15
   3   0   3   97.83    1.55
   4   0   3  133.47    2.68
   5   0   3  133.31    2.77
   6   0   3   43.82    1.49
   7   0   3   88.73    2.90
   8   0   3    4.13    0.89
   9   0   3    4.92    1.41
  10   0   3  127.02    6.62
  11   0   3   28.55    3.79
  12   0   3   68.09    5.24
 -13   1   3   10.84    3.00
 -12   1   3   11.38    1.78
 -11   1   3   17.61    2.11
 -10   1   3    0.56    0.48
  -9   1   3    0.34    0.46
  -8   1   3   22.96    2.08
  -7   1   3  265.87    5.38
  -6   1   3   44.88    1.76
  -5   1   3  283.19    5.14
  -4   1   3   26.15    1.17
  -3   1   3   80.24    2.00
  -2   1   3   77.07    1.82
  -1   1   3   55.13    1.39
   0   1   3   55.76    1.30
   1   1   3   76.55    1.37
   2   1   3   30.93    0.78
   3   1   3  386.77    4.79
   4   1   3   16.04    0.66
   5   1   3   21.96    1.03
   6   1   3   87.31    2.93
   7   1   3  188.66    4.96
   8   1   3   48.95    2.38
   9   1   3   33.08    3.17
  10   1   3    6.63    1.72
  11   1   3   24.19    3.49
 -13   2   3    3.31    1.03
 -12   2   3    3.40    0.99
 -11   2   3   92.71    4.06
 -10   2   3   32.34    2.71
  -9   2   3  111.47    4.17
  -8   2   3    5.92    0.84
  -7   2   3    8.02    0.92
  -6   2   3   61.66    2.04
  -5   2   3   44.06    1.60
  -4   2   3    7.36    0.73
  -3   2   3   28.37    1.09
  -2   2   3  342.44    5.20
  -1   2   3   74.30    1.68
   0   2   3  348.38    5.02
   1   2   3   80.55    1.70
   2   2   3    7.61    0.52
   3   2   3   90.46    1.75
   4   2   3   64.11    1.46
   5   2   3   22.41    1.40
   6   2   3   75.77    2.81
   7   2   3   17.40    1.69
   8   2   3  138.28    4.50
   9   2   3   32.58    2.38
  10   2   3   12.92    2.54
  11   2   3   15.75    3.02
 -13   3   3    7.05    1.29
 -12   3   3   20.71    2.30
 -11   3   3   16.79    1.99
 -10   3   3   10.86    1.50
  -9   3   3   36.29    2.22
  -8   3   3   13.85    1.21
  -7   3   3   19.08    1.37
  -6   3   3  235.20    4.54
  -5   3   3   87.21    2.31
  -4   3   3  362.48    5.89
  -3   3   3   92.90    2.14
  -2   3   3   77.82    1.85
  -1   3   3   29.94    1.02
   0   3   3   93.76    2.00
   1   3   3   27.19    0.99
   2   3   3   44.67    1.35
   3   3   3  240.83    4.15
   4   3   3  115.01    2.62
   5   3   3  225.78    4.30
   6   3   3    1.05    0.36
   7   3   3    4.40    0.91
   8   3   3   45.09    2.55
   9   3   3    3.98    0.95
  10   3   3   33.05    4.21
 -14   4   3   20.92    3.33
 -13   4   3   53.94    3.22
 -12   4   3   12.11    1.70
 -11   4   3    2.77    0.73
 -10   4   3   21.48    2.11
  -9   4   3  209.21    4.73
  -8   4   3   47.29    1.90
  -7   4   3  107.48    2.86
  -6   4   3   61.68    1.94
  -5   4   3   13.93    1.02
  -4   4   3  134.04    2.82
  -3   4   3   28.57    1.10
  -2   4   3    7.49    0.66
  -1   4   3  382.87    5.71
   0   4   3  138.33    2.70
   1   4   3  287.14    4.68
   2   4   3   60.90    1.76
   3   4   3   19.23    1.05
   4   4   3   48.25    1.73
   5   4   3    7.70    0.86
   6   4   3    3.70    0.66
   7   4   3   30.87    2.25
   8   4   3   93.59    3.97
   9   4   3   24.93    2.44
 -14   5   3    0.36    1.29
 -13   5   3   17.15    2.10
 -12   5   3   24.98    2.48
 -11   5   3   18.37    1.98
 -10   5   3   21.05    2.05
  -9   5   3    6.84    1.08
  -8   5   3  220.40    4.59
  -7   5   3   22.71    1.26
  -6   5   3   22.54    1.13
  -5   5   3  132.97    2.93
  -4   5   3  293.59    4.85
  -3   5   3   44.79    1.44
  -2   5   3   92.33    2.17
  -1   5   3   14.80    0.84
   0   5   3  133.85    2.80
   1   5   3   46.16    1.52
   2   5   3    9.96    0.88
   3   5   3   12.60    1.05
   4   5   3  217.25    4.48
   5   5   3   22.02    1.44
   6   5   3   94.49    3.05
   7   5   3   -0.03    0.44
   8   5   3   -0.18    0.42
   9   5   3   10.99    1.84
 -14   6   3    1.65    1.16
 -13   6   3   66.78    3.55
 -12   6   3   16.21    1.99
 -11   6   3   93.81    3.87
 -10   6   3    3.69    0.83
  -9   6   3    1.41    0.45
  -8   6   3   69.13    2.24
  -7   6   3   88.02    2.47
  -6   6   3   41.57    1.56
  -5   6   3   43.49    1.53
  -4   6   3   61.51    1.81
  -3   6   3  239.40    4.22
  -2   6   3   62.16    1.77
  -1   6   3   20.94    1.01
   0   6   3   39.67    1.46
   1   6   3  280.33    4.93
   2   6   3    5.45    0.68
   3   6   3   39.95    1.68
   4   6   3   21.82    1.45
   5   6   3   18.36    1.54
   6   6   3   15.53    1.86
   7   6   3    2.13    0.83
   8   6   3   12.84    1.88
 -14   7   3   30.39    4.20
 -13   7   3    2.32    1.27
 -12   7   3    0.29    0.49
 -11   7   3   33.15    2.43
 -10   7   3    5.40    1.09
  -9   7   3   17.09    1.81
  -8   7   3  186.21    5.21
  -7   7   3   84.98    2.40
  -6   7   3  271.88    4.92
  -5   7   3   10.06    0.88
  -4   7   3   21.34    1.05
  -3   7   3  116.76    2.64
  -2   7   3   21.39    1.06
  -1   7   3   88.61    2.34
   0   7   3   85.63    2.36
   1   7   3   25.27    1.33
   2   7   3  120.73    3.13
   3   7   3   10.43    1.09
   4   7   3    2.95    0.64
   5   7   3   24.43    1.85
   6   7   3   69.75    3.56
   7   7   3   25.40    2.62
 -14   8   3   12.05    2.57
 -13   8   3   -0.24    0.78
 -12   8   3  104.09    4.23
 -11   8   3   43.64    2.61
 -10   8   3  132.26    4.60
  -9   8   3   44.04    2.41
  -8   8   3    5.35    0.98
  -7   8   3   26.40    1.70
  -6   8   3    4.68    0.84
  -5   8   3   15.01    1.47
  -4   8   3   47.40    2.18
  -3   8   3  224.76    4.22
  -2   8   3   69.90    2.08
  -1   8   3  186.74    3.93
   0   8   3    4.49    0.68
   1   8   3    0.22    0.26
   2   8   3   33.59    1.65
   3   8   3   17.97    1.56
   4   8   3   12.22    1.28
   5   8   3   15.90    1.65
   6   8   3    0.71    0.61
 -14   9   3   14.88    4.37
 -13   9   3   29.84    4.06
 -12   9   3    2.54    1.26
 -11   9   3   35.13    2.57
 -10   9   3   37.35    2.34
  -9   9   3    4.75    0.98
  -8   9   3    0.68    0.46
  -7   9   3  124.77    4.05
  -6   9   3   37.14    2.07
  -5   9   3  209.36    5.52
  -4   9   3    7.61    1.07
  -3   9   3    1.88    0.58
  -2   9   3   15.86    1.58
  -1   9   3   45.91    2.33
   0   9   3    3.88    0.88
   1   9   3    1.08    0.41
   2   9   3   92.27    3.02
   3   9   3   20.68    1.73
   4   9   3   62.34    2.63
   5   9   3    0.41    0.68
 -13  10   3   31.59    4.27
 -12  10   3   11.67    2.51
 -11  10   3    7.82    2.02
 -10  10   3  131.25    4.63
  -9  10   3    0.60    0.52
  -8  10   3   31.22    2.03
  -7  10   3   10.54    1.37
  -6  10   3   22.09    1.96
  -5  10   3   17.86    1.73
  -4  10   3    1.79    0.59
  -3  10   3    4.69    0.93
  -2  10   3  126.68    4.29
  -1  10   3   33.82    2.13
   0  10   3  130.87    4.52
   1  10   3   19.18    2.06
   2  10   3    3.17    0.91
   3  10   3    5.61    1.19
   4  10   3   15.28    2.78
 -13  11   3   15.92    3.06
 -12  11   3   21.69    3.44
 -11  11   3   30.28    3.98
 -10  11   3   20.23    2.12
  -9  11   3   96.02    3.87
  -8  11   3   15.67    1.76
  -7  11   3    3.92    0.92
  -6  11   3   21.77    2.04
  -5  11   3   93.14    3.64
  -4  11   3   30.93    2.18
  -3  11   3   43.21    2.46
  -2  11   3   32.93    2.32
  -1  11   3    8.90    1.34
   0  11   3   28.17    2.57
   1  11   3   11.77    1.68
   2  11   3    2.16    0.86
 -12  12   3   72.03    5.41
 -11  12   3   12.35    2.55
 -10  12   3    4.19    1.40
  -9  12   3   23.84    2.30
  -8  12   3   13.48    1.72
  -7  12   3   27.68    2.46
  -6  12   3   13.19    1.68
  -5  12   3    0.92    0.51
  -4  12   3   93.45    3.85
  -3  12   3    3.86    0.96
  -2  12   3   13.32    1.70
  -1  12   3   30.17    2.69
   0  12   3   68.98    3.59
   1  12   3   13.62    2.67
 -11  13   3    3.57    1.52
 -10  13   3    5.57    1.73
  -9  13   3   59.88    4.62
  -8  13   3   17.89    2.06
  -7  13   3   66.12    3.33
  -6  13   3    2.59    0.81
  -5  13   3    0.44    0.53
  -4  13   3   27.86    2.57
  -3  13   3   32.94    2.84
  -2  13   3   16.95    2.14
  -1  13   3    6.30    2.03
  -9  14   3   -0.13    0.86
  -8  14   3    0.21    0.83
  -7  14   3   28.91    2.66
  -6  14   3   13.11    1.84
  -5  14   3   10.61    2.37
  -4  14   3   50.69    4.42
   3 -13   4    0.56    1.36
   4 -13   4    1.90    1.44
   5 -13   4   65.04    5.40
   6 -13   4   70.44    5.09
   7 -13   4   12.57    2.59
   8 -13   4   13.79    2.76
   9 -13   4   14.92    2.87
   0 -12   4    3.52    1.57
   1 -12   4    3.64    1.73
   2 -12   4  111.33    6.96
   3 -12   4    1.08    1.13
   4 -12   4   20.50    3.46
   5 -12   4    1.00    0.63
   6 -12   4   17.78    2.94
   7 -12   4    0.71    0.95
   8 -12   4   10.74    2.41
   9 -12   4   23.06    3.54
  10 -12   4  106.96    6.84
  11 -12   4   61.56    5.36
  -1 -11   4   61.67    5.95
   0 -11   4    9.97    2.39
   1 -11   4    2.89    1.34
   2 -11   4   12.08    2.58
   3 -11   4   27.14    2.50
   4 -11   4    0.61    0.53
   5 -11   4   38.08    3.49
   6 -11   4   24.26    3.40
   7 -11   4  193.21    8.74
   8 -11   4    4.75    1.61
   9 -11   4   26.23    3.74
  10 -11   4    4.31    1.55
  11 -11   4    2.59    1.29
  12 -11   4    2.24    1.36
  -1 -10   4    1.24    1.13
   0 -10   4   13.19    2.55
   1 -10   4   19.59    3.15
   2 -10   4   23.11    2.22
   3 -10   4   61.16    3.07
   4 -10   4   51.26    2.85
   5 -10   4   28.03    2.81
   6 -10   4   35.16    3.29
   7 -10   4   16.24    2.65
   8 -10   4    7.28    1.96
   9 -10   4    9.07    2.14
  10 -10   4   14.71    2.78
  11 -10   4    1.24    1.07
  12 -10   4  108.04    6.97
  13 -10   4    0.31    1.05
  -4  -9   4   14.98    2.80
  -3  -9   4   22.28    3.35
  -2  -9   4   28.80    3.49
  -1  -9   4    8.95    2.10
   0  -9   4   63.75    4.48
   1  -9   4    4.61    0.96
   2  -9   4   31.19    2.06
   3  -9   4   98.56    3.83
   4  -9   4    2.48    1.00
   5  -9   4   52.24    3.80
   6  -9   4   23.08    3.15
   7  -9   4   34.26    3.27
   8  -9   4   54.14    4.24
   9  -9   4   62.09    4.67
  10  -9   4   23.68    3.42
  11  -9   4   13.08    2.66
  12  -9   4    0.68    0.86
  13  -9   4    4.25    1.72
  -5  -8   4   10.20    2.43
  -4  -8   4    5.78    1.72
  -3  -8   4    3.71    1.36
  -2  -8   4    7.27    1.20
  -1  -8   4   53.96    2.70
   0  -8   4  156.66    4.73
   1  -8   4   25.37    1.91
   2  -8   4   21.23    1.97
   3  -8   4   29.97    1.97
   4  -8   4   17.69    2.50
   5  -8   4  124.30    6.04
   6  -8   4    3.11    1.16
   7  -8   4    0.37    0.63
   8  -8   4  143.40    7.10
   9  -8   4    5.52    1.60
  10  -8   4   22.65    3.24
  11  -8   4   26.05    3.57
  12  -8   4   25.51    3.75
  13  -8   4   74.38    5.47
  -6  -7   4   15.13    2.87
  -5  -7   4    0.72    0.83
  -4  -7   4  195.18    6.15
  -3  -7   4   27.34    2.44
  -2  -7   4   41.99    1.90
  -1  -7   4    0.91    0.29
   0  -7   4   20.04    1.06
   1  -7   4   15.45    1.06
   2  -7   4    2.15    0.51
   3  -7   4   30.97    2.65
   4  -7   4  159.46    6.72
   5  -7   4   85.04    4.78
   6  -7   4   74.70    4.41
   7  -7   4   17.05    2.53
   8  -7   4   26.43    3.34
   9  -7   4   27.55    3.50
  10  -7   4   57.44    4.40
  11  -7   4   -0.20    0.59
  12  -7   4    0.53    0.85
  -7  -6   4   71.19    3.87
  -6  -6   4   17.59    2.10
  -5  -6   4   17.20    1.99
  -4  -6   4   34.49    2.45
  -3  -6   4   20.27    1.99
  -2  -6   4    3.40    0.54
  -1  -6   4   67.66    1.72
   0  -6   4    6.66    0.62
   1  -6   4  322.19    4.90
   2  -6   4    1.39    0.47
   3  -6   4    9.58    1.12
   4  -6   4    7.52    0.97
   5  -6   4    7.14    0.97
   6  -6   4    4.83    0.82
   7  -6   4   12.70    2.16
   8  -6   4   18.97    2.80
   9  -6   4  101.15    5.60
  10  -6   4   55.29    4.15
  11  -6   4   37.10    3.48
  12  -6   4   22.42    3.30
  -8  -5   4   67.04    3.78
  -7  -5   4    0.58    0.69
  -6  -5   4   43.23    2.72
  -5  -5   4   19.23    2.03
  -4  -5   4   51.93    2.70
  -3  -5   4  131.31    3.49
  -2  -5   4   99.41    2.37
  -1  -5   4    8.89    0.70
   0  -5   4    2.48    0.37
   1  -5   4   12.62    0.76
   2  -5   4   38.77    1.40
   3  -5   4   13.04    1.26
   4  -5   4   52.16    2.14
   5  -5   4    2.71    0.57
   6  -5   4  311.48    6.82
   7  -5   4    0.96    0.45
   8  -5   4   32.41    1.84
   9  -5   4    1.84    0.59
  10  -5   4   23.58    2.38
  11  -5   4   20.33    2.91
  -9  -4   4    1.92    0.97
  -8  -4   4   20.53    2.42
  -7  -4   4    0.40    0.52
  -6  -4   4   51.04    2.88
  -5  -4   4    2.94    0.68
  -4  -4   4   21.00    1.57
  -3  -4   4  160.52    3.81
  -2  -4   4    6.87    0.68
  -1  -4   4   50.71    1.52
   0  -4   4   40.75    1.27
   1  -4   4   60.11    1.46
   2  -4   4  181.44    3.51
   3  -4   4  334.49    6.88
   4  -4   4   41.20    1.88
   5  -4   4   13.19    1.28
   6  -4   4    0.81    0.39
   7  -4   4   29.65    1.70
   8  -4   4   19.50    1.54
   9  -4   4   51.86    2.49
  10  -4   4   32.48    2.03
  11  -4   4  193.94    7.99
  12  -4   4   10.39    2.14
  -9  -3   4    0.19    0.63
  -8  -3   4   26.34    2.57
  -7  -3   4   62.27    3.21
  -6  -3   4   95.87    3.87
  -5  -3   4   33.79    1.80
  -4  -3   4   31.09    1.56
  -3  -3   4    6.74    0.82
  -2  -3   4   11.81    1.00
  -1  -3   4  334.30    4.85
   0  -3   4   32.26    1.06
   1  -3   4    2.67    0.33
   2  -3   4  161.13    3.23
   3  -3   4   32.10    1.19
   4  -3   4   55.52    2.21
   5  -3   4   37.09    1.82
   6  -3   4    7.32    1.00
   7  -3   4  167.25    4.53
   8  -3   4  127.00    4.01
   9  -3   4   21.53    1.91
  10  -3   4   25.74    3.15
  11  -3   4    5.68    1.56
  12  -3   4   30.29    3.86
  13  -3   4    4.08    1.56
 -10  -2   4  110.93    4.92
  -9  -2   4   12.97    1.83
  -8  -2   4   18.22    2.07
  -7  -2   4   25.92    2.43
  -6  -2   4   18.44    1.56
  -5  -2   4    1.61    0.49
  -4  -2   4    1.49    0.42
  -3  -2   4   39.28    1.59
  -2  -2   4  181.20    3.66
  -1  -2   4  160.53    2.84
   0  -2   4   37.51    1.09
   1  -2   4   70.55    1.46
   2  -2   4   35.80    1.30
   3  -2   4    2.16    0.38
   4  -2   4  181.99    3.39
   5  -2   4   13.38    1.32
   6  -2   4    6.75    0.95
   7  -2   4   87.59    3.15
   8  -2   4    4.31    0.84
   9  -2   4   39.34    3.20
  10  -2   4    8.72    1.85
  11  -2   4   25.86    3.36
  12  -2   4  113.59    6.52
 -11  -1   4    1.60    0.90
 -10  -1   4    2.24    0.81
  -9  -1   4   20.58    2.30
  -8  -1   4    5.17    1.12
  -7  -1   4   25.51    1.88
  -6  -1   4   13.38    1.31
  -5  -1   4  310.62    5.97
  -4  -1   4   12.52    1.10
  -3  -1   4   63.57    1.99
  -2  -1   4    2.41    0.44
  -1  -1   4   71.94    1.86
   0  -1   4   19.59    0.72
   1  -1   4   18.70    0.94
   2  -1   4   69.11    1.89
   3  -1   4  159.99    3.19
   4  -1   4  336.07    5.41
   5  -1   4   49.55    1.59
   6  -1   4    5.71    0.87
   7  -1   4   66.38    2.71
   8  -1   4    1.51    0.80
   9  -1   4   57.75    4.03
  10  -1   4    8.29    1.98
  11  -1   4    0.63    0.84
  12  -1   4   62.89    4.96
 -11   0   4    7.21    1.41
 -10   0   4   16.44    2.09
  -9   0   4   62.56    3.25
  -8   0   4  146.11    4.10
  -7   0   4   17.99    1.54
  -6   0   4    6.70    0.86
  -5   0   4    3.46    0.62
  -4   0   4   42.96    1.67
  -3   0   4   33.91    1.39
  -2   0   4   38.06    1.37
  -1   0   4   19.50    0.89
   0   0   4  983.37   11.06
   1   0   4   18.57    0.93
   2   0   4   35.81    1.33
   3   0   4   33.07    1.27
   4   0   4   40.31    1.43
   5   0   4    2.63    0.46
   6   0   4    5.85    0.71
   7   0   4   17.18    2.44
   8   0   4  148.74    6.80
   9   0   4   66.81    4.54
  10   0   4   14.93    2.70
  11   0   4    8.00    2.14
 -12   1   4   54.96    3.41
 -11   1   4    2.33    0.84
 -10   1   4    5.76    1.25
  -9   1   4   50.18    2.85
  -8   1   4    0.77    0.39
  -7   1   4   64.35    2.40
  -6   1   4    6.96    0.87
  -5   1   4   48.32    1.85
  -4   1   4  333.70    5.80
  -3   1   4  164.88    3.40
  -2   1   4   70.42    1.91
  -1   1   4   17.48    0.83
   0   1   4   18.32    0.78
   1   1   4   69.01    2.31
   2   1   4    2.63    0.45
   3   1   4   60.72    1.82
   4   1   4   13.74    1.03
   5   1   4  317.60    5.52
   6   1   4   13.33    1.35
   7   1   4   20.34    2.77
   8   1   4    5.44    1.53
   9   1   4   17.81    2.89
  10   1   4    0.85    1.01
  11   1   4    1.64    1.15
 -12   2   4   98.18    4.51
 -11   2   4   23.92    2.42
 -10   2   4    6.00    1.25
  -9   2   4   39.61    2.00
  -8   2   4    3.37    0.68
  -7   2   4   89.64    2.82
  -6   2   4    5.14    0.76
  -5   2   4   11.28    1.04
  -4   2   4  179.50    3.71
  -3   2   4    2.76    0.46
  -2   2   4   38.31    1.33
  -1   2   4   73.76    1.83
   0   2   4   36.97    1.17
   1   2   4  160.52    2.94
   2   2   4  186.92    4.39
   3   2   4   38.81    1.77
   4   2   4    0.77    0.38
   5   2   4    0.80    0.38
   6   2   4   19.83    1.58
   7   2   4   29.82    2.03
   8   2   4   24.58    3.32
   9   2   4   10.11    2.20
  10   2   4  119.25    7.08
 -13   3   4    3.01    1.54
 -12   3   4   22.82    2.48
 -11   3   4    5.27    1.23
 -10   3   4   18.24    2.01
  -9   3   4   19.56    1.64
  -8   3   4  127.89    3.54
  -7   3   4  160.10    3.89
  -6   3   4    6.72    0.84
  -5   3   4   38.54    1.56
  -4   3   4   57.63    1.86
  -3   3   4   31.07    1.27
  -2   3   4  162.63    3.21
  -1   3   4    2.96    0.43
   0   3   4   32.41    1.16
   1   3   4  333.68    5.25
   2   3   4   11.90    1.22
   3   3   4    7.80    1.01
   4   3   4   32.35    1.81
   5   3   4   31.07    1.87
   6   3   4   96.90    3.61
   7   3   4   66.36    3.05
   8   3   4   25.03    3.42
   9   3   4    3.78    1.48
 -13   4   4   18.37    2.32
 -12   4   4    8.83    1.56
 -11   4   4  199.03    6.30
 -10   4   4   32.36    2.05
  -9   4   4   50.68    2.20
  -8   4   4   19.03    1.50
  -7   4   4   28.52    1.48
  -6   4   4    0.50    0.29
  -5   4   4   14.34    1.13
  -4   4   4   42.47    1.56
  -3   4   4  340.85    5.57
  -2   4   4  186.33    3.53
  -1   4   4   57.81    1.72
   0   4   4   39.92    1.37
   1   4   4   50.59    1.60
   2   4   4    7.40    1.01
   3   4   4  156.24    4.47
   4   4   4   24.41    1.82
   5   4   4    2.80    0.71
   6   4   4   55.06    2.78
   7   4   4   -0.30    0.47
   8   4   4   26.41    2.51
   9   4   4    2.29    1.22
 -13   5   4   16.71    2.19
 -12   5   4    0.40    0.59
 -11   5   4   18.75    2.12
 -10   5   4   22.62    1.79
  -9   5   4    2.86    0.63
  -8   5   4   31.10    1.60
  -7   5   4    1.77    0.46
  -6   5   4  315.19    5.75
  -5   5   4    2.16    0.44
  -4   5   4   48.84    1.72
  -3   5   4   11.69    0.95
  -2   5   4   37.72    1.42
  -1   5   4   13.29    0.90
   0   5   4    2.05    0.39
   1   5   4    7.75    0.79
   2   5   4   96.22    2.64
   3   5   4  129.60    4.11
   4   5   4   54.48    2.64
   5   5   4   21.37    2.11
   6   5   4   42.27    2.56
   7   5   4    0.16    0.53
   8   5   4   64.03    3.52
 -13   6   4   16.27    2.18
 -12   6   4   13.56    1.84
 -11   6   4   34.90    2.65
 -10   6   4   52.19    2.28
  -9   6   4   96.76    3.03
  -8   6   4   19.63    1.51
  -7   6   4   15.00    1.27
  -6   6   4    5.53    0.76
  -5   6   4    6.89    0.78
  -4   6   4    6.49    0.73
  -3   6   4    7.64    0.79
  -2   6   4    0.92    0.30
  -1   6   4  314.81    5.47
   0   6   4    6.87    0.73
   1   6   4   66.64    2.11
   2   6   4    5.02    0.78
   3   6   4   23.10    2.02
   4   6   4   33.12    2.16
   5   6   4   20.49    2.15
   6   6   4   17.03    2.01
   7   6   4   72.07    3.69
 -13   7   4   72.36    3.84
 -12   7   4    0.85    0.69
 -11   7   4    0.07    0.43
 -10   7   4   57.52    3.06
  -9   7   4   24.81    2.31
  -8   7   4   28.03    1.58
  -7   7   4   19.05    1.45
  -6   7   4   71.20    2.26
  -5   7   4   93.28    2.60
  -4   7   4  164.60    3.61
  -3   7   4   32.37    1.41
  -2   7   4    1.88    0.40
  -1   7   4   14.44    1.16
   0   7   4   17.99    1.30
   1   7   4    0.87    0.35
   2   7   4   43.65    2.35
   3   7   4   23.13    2.15
   4   7   4  203.26    6.05
   5   7   4    1.02    0.56
   6   7   4   10.83    1.68
 -13   8   4   66.69    3.68
 -12   8   4   24.26    2.55
 -11   8   4   23.20    2.34
 -10   8   4   28.93    2.59
  -9   8   4    4.81    1.03
  -8   8   4  150.85    4.89
  -7   8   4    0.65    0.48
  -6   8   4    5.06    0.94
  -5   8   4  130.45    4.12
  -4   8   4   22.27    1.28
  -3   8   4   32.41    1.47
  -2   8   4   18.24    1.33
  -1   8   4   25.45    1.41
   0   8   4  154.24    3.67
   1   8   4   55.34    2.14
   2   8   4    7.56    1.23
   3   8   4    4.52    1.03
   4   8   4   10.36    1.57
   5   8   4   17.82    2.12
 -13   9   4    3.23    1.53
 -12   9   4    1.33    0.78
 -11   9   4   16.04    2.00
 -10   9   4   23.94    2.40
  -9   9   4   63.99    3.15
  -8   9   4   52.02    2.74
  -7   9   4   39.04    2.27
  -6   9   4   21.88    2.01
  -5   9   4   55.19    2.62
  -4   9   4    2.76    0.71
  -3   9   4   96.03    3.54
  -2   9   4   26.43    1.92
  -1   9   4    6.20    1.08
   0   9   4   63.91    2.55
   1   9   4    7.05    0.95
   2   9   4   26.15    2.40
   3   9   4   24.16    2.40
   4   9   4   14.41    1.97
 -12  10   4  112.43    4.80
 -11  10   4    1.31    0.74
 -10  10   4   15.77    1.88
  -9  10   4    8.49    1.42
  -8  10   4    5.29    1.05
  -7  10   4   21.41    2.09
  -6  10   4   31.89    2.09
  -5  10   4   23.94    2.17
  -4  10   4   50.14    2.64
  -3  10   4   60.52    2.88
  -2  10   4   23.82    2.11
  -1  10   4   19.27    1.98
   0  10   4   16.54    1.82
   1  10   4    1.21    0.92
   2  10   4   95.39    6.24
 -12  11   4    2.37    1.37
 -11  11   4    7.27    1.40
 -10  11   4    3.03    0.97
  -9  11   4   31.64    2.70
  -8  11   4    5.49    1.13
  -7  11   4  200.01    5.97
  -6  11   4   20.75    2.08
  -5  11   4   35.74    2.30
  -4  11   4    0.25    0.41
  -3  11   4   29.20    2.20
  -2  11   4   15.06    1.82
  -1  11   4    2.77    0.89
   0  11   4    5.26    1.09
   1  11   4   53.07    4.75
 -11  12   4   68.32    5.26
 -10  12   4  102.31    4.42
  -9  12   4   25.67    2.55
  -8  12   4   12.91    1.78
  -7  12   4    0.49    0.55
  -6  12   4   15.24    1.87
  -5  12   4    1.30    0.66
  -4  12   4   22.43    2.24
  -3  12   4    2.39    0.81
  -2  12   4  114.90    4.58
  -1  12   4    2.86    0.94
  -9  13   4   17.12    2.11
  -8  13   4   11.58    1.69
  -7  13   4   18.26    2.16
  -6  13   4   69.15    3.56
  -5  13   4   64.83    3.43
  -4  13   4    2.45    0.87
  -3  13   4    0.48    0.83
   5 -12   5    3.78    1.60
   6 -12   5   11.42    2.52
   7 -12   5   35.04    4.42
   8 -12   5   25.32    3.85
   1 -11   5    9.83    2.30
   3 -11   5   10.89    2.26
   4 -11   5   17.49    2.90
   5 -11   5   46.26    4.13
   6 -11   5   34.46    4.21
   7 -11   5    2.78    1.40
   8 -11   5   30.18    4.18
   9 -11   5   21.21    3.42
  10 -11   5    8.19    2.29
   1 -10   5   43.94    4.01
   2 -10   5   92.94    5.42
   3 -10   5    5.92    1.57
   4 -10   5    5.90    1.70
   5 -10   5   16.39    2.83
   6 -10   5   27.92    3.78
   7 -10   5   20.70    3.31
   8 -10   5   19.80    3.16
   9 -10   5    4.73    1.63
  10 -10   5  134.10    7.75
  11 -10   5   12.38    2.83
   0  -9   5    1.52    0.94
   1  -9   5    0.44    0.70
   2  -9   5    0.46    0.78
   3  -9   5    0.68    0.72
   4  -9   5   15.17    2.61
   5  -9   5   35.23    3.35
   6  -9   5   14.29    2.61
   7  -9   5   64.38    4.79
   8  -9   5    8.00    1.94
   9  -9   5    2.66    1.28
  10  -9   5   51.49    4.51
  11  -9   5    3.00    1.45
  12  -9   5    0.96    1.05
  -4  -8   5   19.84    3.10
  -3  -8   5   21.86    3.15
   0  -8   5    6.54    1.62
   1  -8   5   78.23    4.78
   2  -8   5   82.60    5.00
   3  -8   5  215.08    8.73
   4  -8   5   22.74    3.08
   5  -8   5    7.42    1.79
   6  -8   5   15.78    2.74
   7  -8   5   13.47    2.55
   8  -8   5    4.43    1.57
   9  -8   5    0.86    0.83
  10  -8   5   88.55    5.88
  11  -8   5   12.91    2.67
  12  -8   5   91.13    6.20
  -5  -7   5   27.72    2.73
  -4  -7   5    2.69    0.87
  -3  -7   5   21.73    2.22
  -2  -7   5   68.08    2.62
  -1  -7   5   13.25    1.32
   0  -7   5    6.81    1.16
   1  -7   5    9.09    1.29
   2  -7   5   20.31    2.85
   3  -7   5   31.69    2.93
   4  -7   5   16.38    2.59
   5  -7   5    8.22    1.91
   6  -7   5  276.29   10.39
   7  -7   5    6.21    1.64
   8  -7   5   85.10    5.38
   9  -7   5    0.48    0.71
  10  -7   5    8.22    2.07
  11  -7   5   16.41    2.86
  12  -7   5    3.14    1.48
  -6  -6   5    9.49    1.67
  -5  -6   5   31.74    2.87
  -4  -6   5   35.64    2.59
  -3  -6   5   16.44    1.52
  -2  -6   5   18.59    1.51
  -1  -6   5  271.33    5.57
   0  -6   5   15.49    1.38
   1  -6   5   35.16    2.04
   2  -6   5   21.78    1.69
   3  -6   5  132.85    4.20
   4  -6   5    0.23    0.35
   5  -6   5   66.30    2.78
   6  -6   5   12.03    2.20
   7  -6   5    9.96    2.15
   8  -6   5   86.20    5.33
   9  -6   5    0.91    0.80
  10  -6   5    3.56    1.41
  11  -6   5   43.74    4.00
  -7  -5   5    4.06    1.10
  -6  -5   5   44.23    2.90
  -5  -5   5   20.18    2.16
  -4  -5   5   29.87    2.05
  -3  -5   5   10.43    1.17
  -2  -5   5    5.23    0.79
  -1  -5   5   66.62    2.37
   0  -5   5    8.94    1.00
   1  -5   5    7.73    1.12
   2  -5   5   98.52    3.46
   3  -5   5    3.05    0.72
   4  -5   5  186.46    5.06
   5  -5   5    9.13    1.21
   6  -5   5   35.19    2.00
   7  -5   5   23.21    1.76
   8  -5   5  217.86    5.91
   9  -5   5   22.52    3.24
  10  -5   5   14.27    2.61
  -8  -4   5   96.13    4.49
  -7  -4   5   20.47    2.28
  -6  -4   5    4.06    1.01
  -5  -4   5   20.90    1.73
  -4  -4   5   21.64    1.70
  -3  -4   5   13.23    1.26
  -2  -4   5   -0.08    0.27
  -1  -4   5  193.49    4.29
   0  -4   5    6.25    0.79
   1  -4   5  322.56    5.77
   2  -4   5    2.83    0.69
   3  -4   5   12.89    1.40
   4  -4   5    6.86    1.02
   5  -4   5    8.45    1.14
   6  -4   5   23.78    1.64
   7  -4   5   30.12    1.88
   8  -4   5   21.64    1.94
   9  -4   5   33.31    2.34
  10  -4   5   29.40    2.85
  11  -4   5    1.81    1.11
  -9  -3   5    4.02    1.61
  -8  -3   5   12.62    1.82
  -7  -3   5    5.82    1.19
  -6  -3   5    0.86    0.47
  -5  -3   5  218.17    5.12
  -4  -3   5   28.97    1.79
  -3  -3   5  141.01    3.56
  -2  -3   5    3.72    0.61
  -1  -3   5   10.53    1.06
   0  -3   5   61.43    2.12
   1  -3   5   29.85    1.40
   2  -3   5   29.51    1.40
   3  -3   5   61.78    2.61
   4  -3   5  313.82    7.11
   5  -3   5   99.61    3.46
   6  -3   5  135.61    4.25
   7  -3   5   10.54    1.31
   8  -3   5    9.08    1.32
   9  -3   5   16.67    2.61
  10  -3   5   25.66    3.31
  11  -3   5   27.63    3.66
  12  -3   5    9.61    2.20
  -9  -2   5    2.18    0.91
  -8  -2   5   88.05    4.04
  -7  -2   5   -0.11    0.34
  -6  -2   5   93.24    3.16
  -5  -2   5   22.43    1.72
  -4  -2   5   24.15    1.54
  -3  -2   5  103.46    2.86
  -2  -2   5    3.42    0.56
  -1  -2   5   32.07    1.84
   0  -2   5   89.09    2.54
   1  -2   5   49.07    1.80
   2  -2   5   80.65    2.33
   3  -2   5   28.69    1.74
   4  -2   5    2.26    0.61
   5  -2   5    2.74    0.71
   6  -2   5    0.65    0.41
   7  -2   5    4.54    0.92
   8  -2   5   17.89    2.52
   9  -2   5   65.76    4.42
  10  -2   5   19.90    2.99
  11  -2   5   27.25    3.72
 -10  -1   5   12.05    1.86
  -9  -1   5   44.23    2.91
  -8  -1   5    0.52    0.44
  -7  -1   5   85.14    3.07
  -6  -1   5    9.60    1.15
  -5  -1   5   35.74    1.75
  -4  -1   5   10.61    1.07
  -3  -1   5  318.03    5.79
  -2  -1   5   30.55    1.48
  -1  -1   5   49.89    2.27
   0  -1   5   80.48    2.85
   1  -1   5   77.96    2.28
   2  -1   5   46.36    1.72
   3  -1   5   27.96    1.29
   4  -1   5   10.91    1.29
   5  -1   5  187.63    5.12
   6  -1   5   68.60    2.88
   7  -1   5  273.34    9.66
   8  -1   5   10.49    2.09
   9  -1   5   11.64    2.34
  10  -1   5    5.38    1.75
  11  -1   5   10.07    2.36
 -10   0   5  136.79    5.34
  -9   0   5    2.56    0.84
  -8   0   5    5.46    0.93
  -7   0   5    5.14    0.78
  -6   0   5   11.22    1.18
  -5   0   5    8.12    0.98
  -4   0   5    6.34    0.84
  -3   0   5   63.69    2.09
  -2   0   5   81.44    3.03
  -1   0   5   80.38    2.91
   0   0   5   -0.13    0.22
   1   0   5   77.42    2.29
   2   0   5   78.97    2.31
   3   0   5   62.07    2.01
   4   0   5    8.85    0.90
   5   0   5    9.45    1.25
   6   0   5   12.11    2.11
   7   0   5    9.93    1.99
   8   0   5    4.68    1.40
   9   0   5    1.13    0.88
  10   0   5  133.67    7.28
 -11   1   5    6.06    1.29
 -10   1   5    5.49    1.22
  -9   1   5   11.90    1.39
  -8   1   5   11.51    1.31
  -7   1   5  267.56    5.78
  -6   1   5   66.47    2.45
  -5   1   5  182.36    4.24
  -4   1   5   11.80    1.08
  -3   1   5   31.16    1.40
  -2   1   5   53.68    2.32
  -1   1   5   76.00    2.83
   0   1   5   77.84    2.80
   1   1   5   44.81    2.04
   2   1   5   28.36    1.61
   3   1   5  318.92    5.68
   4   1   5   10.37    0.99
   5   1   5   31.54    1.91
   6   1   5   10.43    2.01
   7   1   5   82.21    5.00
   8   1   5    1.36    0.99
   9   1   5   45.81    4.07
  10   1   5   15.09    2.82
 -11   2   5   22.08    2.46
 -10   2   5   20.08    1.86
  -9   2   5   58.00    2.59
  -8   2   5   18.58    1.65
  -7   2   5    3.91    0.74
  -6   2   5    0.50    0.34
  -5   2   5    4.13    0.71
  -4   2   5    3.56    0.59
  -3   2   5   29.17    1.36
  -2   2   5   82.92    3.03
  -1   2   5   46.05    2.12
   0   2   5   80.88    2.89
   1   2   5   28.24    1.64
   2   2   5    3.71    0.71
   3   2   5   99.77    3.32
   4   2   5   24.03    1.70
   5   2   5   20.57    1.87
   6   2   5   71.23    4.66
   7   2   5    0.61    0.77
   8   2   5   83.65    5.50
   9   2   5    4.97    1.69
 -12   3   5   14.78    2.60
 -11   3   5   24.95    2.63
 -10   3   5   20.47    1.84
  -9   3   5   17.23    1.63
  -8   3   5    9.89    1.19
  -7   3   5   11.35    1.18
  -6   3   5  138.25    3.61
  -5   3   5   97.58    2.82
  -4   3   5  320.87    5.77
  -3   3   5   61.79    2.02
  -2   3   5   34.09    1.85
  -1   3   5   28.91    2.41
   0   3   5   63.02    2.54
   1   3   5   13.35    1.35
   2   3   5    2.43    0.61
   3   3   5  137.45    4.20
   4   3   5   29.31    2.00
   5   3   5  219.38    5.93
   6   3   5    0.48    0.43
   7   3   5    6.51    1.83
   8   3   5    9.90    2.23
 -12   4   5   24.47    2.60
 -11   4   5    2.84    0.96
 -10   4   5   33.06    2.29
  -9   4   5   36.80    2.04
  -8   4   5   24.30    1.82
  -7   4   5   30.67    1.73
  -6   4   5   22.62    1.67
  -5   4   5    9.68    1.00
  -4   4   5    5.99    0.78
  -3   4   5   10.03    0.94
  -2   4   5    4.11    0.80
  -1   4   5  320.18    7.11
   0   4   5    5.92    0.93
   1   4   5  179.67    4.98
   2   4   5    0.07    0.30
   3   4   5   10.55    1.34
   4   4   5   23.41    2.10
   5   4   5   19.39    1.92
   6   4   5    5.66    1.18
   7   4   5   19.20    3.16
   8   4   5   96.66    6.28
 -12   5   5   38.59    3.31
 -11   5   5   31.83    2.28
 -10   5   5   17.41    1.67
  -9   5   5   19.31    1.68
  -8   5   5  216.44    5.02
  -7   5   5   20.27    1.57
  -6   5   5   33.65    1.65
  -5   5   5    7.70    0.90
  -4   5   5  187.88    4.06
  -3   5   5    3.61    0.59
  -2   5   5   92.79    3.36
  -1   5   5    8.24    1.09
   0   5   5    7.70    1.12
   1   5   5   64.26    2.79
   2   5   5    4.25    0.88
   3   5   5   10.71    1.41
   4   5   5   33.83    2.20
   5   5   5   19.39    2.05
   6   5   5   44.96    2.77
   7   5   5    4.05    1.61
 -12   6   5   12.50    1.84
 -11   6   5   43.42    2.28
 -10   6   5    5.05    0.92
  -9   6   5    0.51    0.36
  -8   6   5   81.86    2.86
  -7   6   5    9.56    1.08
  -6   6   5   13.92    1.30
  -5   6   5   64.41    2.25
  -4   6   5    0.32    0.28
  -3   6   5  139.18    3.33
  -2   6   5   24.43    1.78
  -1   6   5   35.18    2.02
   0   6   5   12.14    1.44
   1   6   5  268.83    6.78
   2   6   5   16.45    1.76
   3   6   5   16.10    1.81
   4   6   5   34.40    2.56
   5   6   5   36.12    2.68
   6   6   5   13.87    1.93
 -12   7   5    6.43    1.43
 -11   7   5   16.52    2.10
 -10   7   5    5.73    1.20
  -9   7   5    1.00    0.62
  -8   7   5   88.76    2.92
  -7   7   5    7.94    0.99
  -6   7   5  268.40    5.51
  -5   7   5    3.68    0.65
  -4   7   5   11.52    1.10
  -3   7   5   29.00    1.45
  -2   7   5   19.20    1.77
  -1   7   5    9.01    1.28
   0   7   5    7.96    1.20
   1   7   5   11.47    1.48
   2   7   5   61.96    3.08
   3   7   5   23.56    2.27
   4   7   5    2.02    0.79
   5   7   5   34.68    3.04
 -12   8   5   86.09    4.24
 -11   8   5   14.21    1.94
 -10   8   5   87.79    4.07
  -9   8   5    0.67    0.59
  -8   8   5    5.80    1.14
  -7   8   5   15.26    1.76
  -6   8   5   19.21    1.87
  -5   8   5    9.21    1.02
  -4   8   5   23.42    1.53
  -3   8   5  223.69    4.73
  -2   8   5   82.64    3.38
  -1   8   5   84.02    3.42
   0   8   5    5.47    1.00
   1   8   5   10.28    1.46
   2   8   5   18.69    2.09
   3   8   5   24.29    2.43
   4   8   5   23.59    2.51
 -12   9   5    2.94    1.04
 -11   9   5    4.04    1.15
 -10   9   5   48.97    3.00
  -9   9   5    1.33    0.70
  -8   9   5   11.42    1.66
  -7   9   5   64.64    3.17
  -6   9   5   16.16    1.82
  -5   9   5   28.90    2.14
  -4   9   5   18.78    1.95
  -3   9   5    1.30    0.59
  -2   9   5    0.01    0.52
  -1   9   5    1.41    0.90
   0   9   5    3.67    0.97
   1   9   5    4.94    1.14
   2   9   5   21.79    2.36
   3   9   5   13.44    2.19
 -11  10   5   14.33    2.05
 -10  10   5  136.79    5.26
  -9  10   5    5.12    1.16
  -8  10   5   20.88    2.22
  -7  10   5   21.45    2.18
  -6  10   5   31.30    2.35
  -5  10   5   17.41    1.92
  -4  10   5    3.58    0.90
  -3  10   5    7.99    2.01
  -2  10   5   93.71    5.82
  -1  10   5   48.28    4.16
   0  10   5  138.38    7.44
   1  10   5    6.37    1.90
 -11  11   5    0.27    0.99
 -10  11   5    9.56    1.63
  -9  11   5   23.57    2.55
  -8  11   5   29.20    2.69
  -7  11   5    2.91    0.88
  -6  11   5   30.27    2.63
  -5  11   5   43.47    2.70
  -4  11   5   18.43    2.00
  -3  11   5    9.75    2.28
  -2  11   5    4.11    1.59
  -1  11   5   10.16    2.40
  -9  12   5   15.71    2.08
  -8  12   5   24.59    2.50
  -7  12   5   38.31    2.84
  -6  12   5   11.08    1.63
  -5  12   5    2.65    1.00
  -4  12   5   89.80    6.01
   3 -11   6    4.67    1.62
   4 -11   6   45.15    4.24
   5 -11   6   11.12    2.52
   6 -11   6    0.62    0.91
   2 -10   6   28.98    3.90
   3 -10   6   44.32    4.13
   4 -10   6   44.00    4.17
   5 -10   6   29.32    4.11
   6 -10   6    8.24    2.16
   7 -10   6    8.23    2.25
   8 -10   6   60.58    5.13
   1  -9   6    1.16    0.92
   2  -9   6   -0.38    0.66
   3  -9   6   35.83    3.61
   4  -9   6    5.60    1.84
   5  -9   6   15.12    2.82
   6  -9   6   41.06    3.97
   7  -9   6   15.67    3.00
   8  -9   6   53.08    4.70
   9  -9   6    8.11    2.25
  10  -9   6    7.24    2.76
   0  -8   6   68.29    4.73
   1  -8   6   21.96    3.14
   2  -8   6    6.09    1.79
   3  -8   6   22.50    3.33
   4  -8   6   20.86    3.20
   5  -8   6   31.86    4.06
   6  -8   6    1.40    0.94
   7  -8   6   28.59    3.91
   8  -8   6   63.45    5.05
   9  -8   6    2.96    1.37
  10  -8   6   29.33    4.15
  -4  -7   6  103.15    6.70
  -3  -7   6    6.25    1.97
  -2  -7   6    9.60    2.28
  -1  -7   6   21.52    3.23
   0  -7   6   10.80    2.17
   1  -7   6    0.73    0.79
   2  -7   6   12.36    2.44
   3  -7   6   13.66    2.45
   4  -7   6   84.35    5.43
   5  -7   6   40.19    3.74
   6  -7   6   25.46    3.49
   7  -7   6   10.17    2.30
   8  -7   6   20.41    3.25
   9  -7   6   -0.60    0.69
  10  -7   6   52.06    4.62
  11  -7   6   43.52    4.29
  -5  -6   6    1.15    1.15
  -4  -6   6    8.33    1.52
  -3  -6   6   45.68    2.86
  -2  -6   6    1.58    0.94
  -1  -6   6   23.18    3.18
   0  -6   6    4.65    1.02
   1  -6   6  183.74    5.61
   2  -6   6    5.13    1.05
   3  -6   6   89.18    3.60
   4  -6   6    6.86    1.19
   5  -6   6   32.09    3.26
   6  -6   6    6.69    1.82
   7  -6   6    1.30    0.95
   8  -6   6    5.49    1.78
   9  -6   6   39.19    3.88
  10  -6   6   41.76    4.13
  11  -6   6   16.79    3.14
  -6  -5   6   16.90    3.29
  -5  -5   6   32.69    2.99
  -4  -5   6   14.86    2.00
  -3  -5   6   29.20    2.62
  -2  -5   6   35.37    2.35
  -1  -5   6   41.93    3.52
   0  -5   6    5.03    1.04
   1  -5   6   24.30    2.24
   2  -5   6   11.65    1.52
   3  -5   6    4.03    0.90
   4  -5   6   50.32    2.63
   5  -5   6    3.22    0.82
   6  -5   6  176.87    5.43
   7  -5   6   16.37    1.83
   8  -5   6   26.90    3.64
   9  -5   6    5.40    1.73
  10  -5   6   31.88    4.10
  -7  -4   6   36.25    5.33
  -6  -4   6   51.24    3.22
  -5  -4   6    6.74    1.34
  -4  -4   6   15.10    1.93
  -3  -4   6   84.69    3.75
  -2  -4   6    7.83    1.30
  -1  -4   6   46.82    2.56
   0  -4   6   13.75    1.62
   1  -4   6   43.86    2.46
   2  -4   6   37.79    2.26
   3  -4   6   68.16    3.06
   4  -4   6   19.80    1.93
   5  -4   6   26.71    2.06
   6  -4   6    5.38    1.05
   7  -4   6   18.09    1.94
   8  -4   6   18.37    1.97
   9  -4   6   14.12    1.78
  10  -4   6    8.76    2.04
  -8  -3   6   11.45    2.56
  -7  -3   6   47.56    3.16
  -6  -3   6   37.37    3.18
  -5  -3   6   27.35    2.58
  -4  -3   6   16.65    1.99
  -3  -3   6   87.85    3.77
  -2  -3   6    4.64    0.97
  -1  -3   6   64.80    2.99
   0  -3   6   20.05    1.53
   1  -3   6    3.90    0.93
   2  -3   6  123.42    4.26
   3  -3   6   21.27    1.97
   4  -3   6   42.20    2.38
   5  -3   6   10.15    1.42
   6  -3   6   81.26    3.48
   7  -3   6   88.53    3.68
   8  -3   6   29.73    2.31
   9  -3   6   39.62    3.52
  10  -3   6   11.42    2.44
  11  -3   6    6.18    1.90
  -8  -2   6   30.97    2.43
  -7  -2   6    1.24    0.61
  -6  -2   6    4.62    1.14
  -5  -2   6   12.68    1.78
  -4  -2   6    4.02    0.97
  -3  -2   6    9.32    1.41
  -2  -2   6   41.15    2.36
  -1  -2   6  129.38    4.26
   0  -2   6   68.69    2.90
   1  -2   6   87.12    2.74
   2  -2   6   70.08    3.08
   3  -2   6    3.76    0.90
   4  -2   6   37.64    2.25
   5  -2   6    4.55    0.95
   6  -2   6    7.61    1.29
   7  -2   6   37.05    2.36
   8  -2   6    3.65    1.36
   9  -2   6    9.70    2.16
  10  -2   6   56.95    4.63
  -9  -1   6    5.37    1.75
  -8  -1   6    1.76    0.65
  -7  -1   6   23.02    1.97
  -6  -1   6    0.28    0.41
  -5  -1   6  182.58    5.88
  -4  -1   6   27.07    2.39
  -3  -1   6   48.92    2.62
  -2  -1   6    4.75    0.91
  -1  -1   6   89.92    3.39
   0  -1   6   20.90    1.94
   1  -1   6   19.54    1.74
   2  -1   6   88.35    3.45
   3  -1   6  123.44    4.24
   4  -1   6   63.84    2.99
   5  -1   6   50.57    2.65
   6  -1   6   40.48    2.42
   7  -1   6   17.65    2.70
   8  -1   6   31.56    3.71
   9  -1   6   55.26    4.41
  10  -1   6    3.92    1.61
  -9   0   6   11.47    1.46
  -8   0   6   68.07    2.92
  -7   0   6   11.50    1.31
  -6   0   6    4.81    1.11
  -5   0   6    5.71    1.15
  -4   0   6   17.28    1.93
  -3   0   6   21.60    2.12
  -2   0   6   68.78    3.01
  -1   0   6   16.58    1.68
   0   0   6  139.81    4.36
   1   0   6   17.46    1.65
   2   0   6   65.58    2.73
   3   0   6   22.30    2.05
   4   0   6   16.09    1.74
   5   0   6    6.37    1.07
   6   0   6    6.46    1.63
   7   0   6   14.53    2.54
   8   0   6   62.73    4.72
   9   0   6   10.12    2.33
 -10   1   6    2.67    1.28
  -9   1   6   50.59    2.54
  -8   1   6   29.34    2.14
  -7   1   6   20.12    1.73
  -6   1   6   39.95    2.54
  -5   1   6   45.34    2.62
  -4   1   6   67.07    3.12
  -3   1   6  123.30    4.29
  -2   1   6   87.78    3.42
  -1   1   6   17.02    1.73
   0   1   6   16.41    1.66
   1   1   6   81.33    3.13
   2   1   6    3.58    0.78
   3   1   6   43.39    2.22
   4   1   6   24.60    3.15
   5   1   6  187.27    7.98
   6   1   6    0.09    0.58
   7   1   6   20.99    3.17
   8   1   6    2.42    1.21
   9   1   6    4.91    2.75
 -10   2   6   64.02    2.91
  -9   2   6   10.35    1.36
  -8   2   6    3.10    0.73
  -7   2   6   34.98    2.02
  -6   2   6    7.00    1.24
  -5   2   6    5.48    1.09
  -4   2   6   35.82    2.22
  -3   2   6    3.85    0.86
  -2   2   6   66.29    2.94
  -1   2   6   86.10    3.33
   0   2   6   72.47    2.98
   1   2   6  122.10    4.01
   2   2   6   37.99    2.12
   3   2   6   10.22    1.35
   4   2   6    5.68    1.57
   5   2   6   15.13    2.63
   6   2   6    3.72    1.35
   7   2   6    0.27    0.82
   8   2   6   34.27    4.43
 -11   3   6    5.66    1.79
 -10   3   6    7.83    1.20
  -9   3   6   40.48    2.28
  -8   3   6   30.09    2.16
  -7   3   6   81.64    2.95
  -6   3   6   83.42    3.67
  -5   3   6    6.09    1.11
  -4   3   6   45.57    2.48
  -3   3   6   25.28    1.90
  -2   3   6  127.26    4.23
  -1   3   6    2.70    0.71
   0   3   6   19.33    1.84
   1   3   6   66.52    2.90
   2   3   6    5.79    1.00
   3   3   6   84.80    3.41
   4   3   6   20.14    2.00
   5   3   6   23.63    3.22
   6   3   6   40.54    3.80
   7   3   6   50.48    4.38
 -11   4   6   98.57    6.31
 -10   4   6    6.61    1.07
  -9   4   6   13.69    1.47
  -8   4   6   16.77    1.61
  -7   4   6   16.93    1.53
  -6   4   6    5.30    1.09
  -5   4   6   26.29    2.34
  -4   4   6   17.71    1.84
  -3   4   6   72.94    3.16
  -2   4   6   35.28    2.12
  -1   4   6   41.51    2.31
   0   4   6   13.70    1.56
   1   4   6   46.75    2.48
   2   4   6    7.15    1.20
   3   4   6   83.90    3.53
   4   4   6   17.86    1.96
   5   4   6    5.45    1.65
   6   4   6   41.85    4.01
 -11   5   6    0.87    0.74
 -10   5   6   29.67    2.27
  -9   5   6    4.64    0.89
  -8   5   6   24.82    1.95
  -7   5   6   14.15    1.42
  -6   5   6  170.19    5.53
  -5   5   6    3.85    0.86
  -4   5   6   47.60    2.59
  -3   5   6    3.88    0.86
  -2   5   6    9.93    1.39
  -1   5   6   24.54    2.15
   0   5   6    5.99    1.08
   1   5   6   41.28    2.39
   2   5   6   37.89    2.35
   3   5   6   28.73    2.51
   4   5   6   14.32    1.77
   5   5   6   30.47    2.75
 -11   6   6   13.01    2.29
 -10   6   6   44.49    2.44
  -9   6   6   39.73    2.27
  -8   6   6    4.16    0.84
  -7   6   6    0.27    0.36
  -6   6   6    5.90    1.20
  -5   6   6   38.21    2.38
  -4   6   6    7.36    1.19
  -3   6   6   79.91    3.42
  -2   6   6    8.04    1.30
  -1   6   6  182.23    5.49
   0   6   6    6.02    1.11
   1   6   6   16.69    1.87
   2   6   6    3.25    0.85
   3   6   6   42.07    2.65
   4   6   6    7.20    1.37
   5   6   6   -0.09    0.59
 -11   7   6   39.81    4.56
 -10   7   6   52.05    3.18
  -9   7   6    0.28    0.59
  -8   7   6   20.95    1.80
  -7   7   6   12.96    1.76
  -6   7   6   19.39    2.04
  -5   7   6   42.13    2.68
  -4   7   6   89.06    3.68
  -3   7   6   20.03    2.02
  -2   7   6   15.53    1.80
  -1   7   6    0.13    0.45
   0   7   6   11.21    1.55
   1   7   6   29.63    2.54
   2   7   6   10.14    1.57
   3   7   6    8.34    1.45
   4   7   6  101.64    4.55
 -11   8   6    6.08    1.91
 -10   8   6   32.15    2.96
  -9   8   6    1.39    0.75
  -8   8   6   71.78    3.55
  -7   8   6   29.32    3.86
  -6   8   6    1.15    0.93
  -5   8   6   31.52    2.72
  -4   8   6   17.50    1.97
  -3   8   6   25.62    2.30
  -2   8   6    5.42    1.08
  -1   8   6   20.72    2.17
   0   8   6   70.49    3.46
   1   8   6   64.74    3.35
   2   8   6   63.71    3.43
   3   8   6    4.62    2.01
 -10   9   6    5.12    1.23
  -9   9   6   16.08    2.06
  -8   9   6   54.23    3.15
  -7   9   6   10.91    2.53
  -6   9   6   30.41    3.90
  -5   9   6   11.35    2.36
  -4   9   6    7.17    1.88
  -3   9   6   38.45    3.76
  -2   9   6   -0.19    0.73
  -1   9   6    2.20    1.22
   0   9   6   12.61    2.55
   1   9   6    1.80    0.87
  -9  10   6    1.07    0.86
  -8  10   6   59.20    5.00
  -7  10   6    7.51    2.11
  -6  10   6    5.60    1.78
  -5  10   6   29.16    4.04
  -4  10   6   46.94    4.28
  -3  10   6   48.87    4.37
  -2  10   6   33.31    4.27
   2  -9   7    1.60    1.44
   3  -9   7   -0.09    0.82
   4  -9   7    6.21    1.94
   5  -9   7   55.06    8.25
   1  -8   7   69.84    5.27
   2  -8   7   15.02    2.87
   3  -8   7   70.30    5.46
   4  -8   7   12.33    2.66
   5  -8   7    0.57    0.91
   6  -8   7    7.17    2.11
   7  -8   7    5.53    1.91
   1  -7   7   13.90    2.71
   2  -7   7    7.19    2.05
   3  -7   7   17.65    3.27
   4  -7   7    0.41    0.84
   5  -7   7    0.81    0.93
   6  -7   7   81.45    5.88
   7  -7   7   14.20    2.94
   8  -7   7   80.72    5.98
  -3  -6   7   18.09    3.25
  -2  -6   7   11.00    2.35
  -1  -6   7   93.17    5.81
   0  -6   7   18.60    3.11
   1  -6   7    5.51    1.22
   2  -6   7   14.35    1.88
   3  -6   7   71.42    5.35
   4  -6   7    2.01    1.08
   5  -6   7   20.95    3.35
   6  -6   7   16.59    3.05
   7  -6   7    9.40    2.32
   8  -6   7   13.23    2.81
   9  -6   7   -0.10    0.92
  -4  -5   7   59.80    5.09
  -3  -5   7    0.88    1.06
  -2  -5   7    2.73    1.37
  -1  -5   7   17.06    3.00
   0  -5   7   13.21    2.46
   1  -5   7    6.66    1.29
   2  -5   7   56.38    3.09
   3  -5   7    3.36    0.92
   4  -5   7   85.62    3.79
   5  -5   7   20.39    2.13
   6  -5   7    3.62    0.99
   7  -5   7    5.03    1.81
   8  -5   7   78.26    5.69
   9  -5   7    9.86    2.46
  -5  -4   7    7.79    1.61
  -4  -4   7   12.78    1.80
  -3  -4   7    0.40    0.61
  -2  -4   7    4.36    1.54
  -1  -4   7   75.21    5.12
   0  -4   7   16.83    2.82
   1  -4   7  135.63    4.92
   2  -4   7    1.14    0.62
   3  -4   7    0.70    0.54
   4  -4   7   16.23    1.93
   5  -4   7    5.96    1.18
   6  -4   7   13.19    1.78
   7  -4   7   20.66    2.24
   8  -4   7   14.03    1.87
  -6  -3   7   -0.13    0.95
  -5  -3   7   77.37    3.98
  -4  -3   7   19.52    2.26
  -3  -3   7   70.62    3.62
  -2  -3   7    4.15    1.02
  -1  -3   7    0.41    0.73
   0  -3   7   14.59    2.57
   1  -3   7    5.24    1.54
   2  -3   7    0.25    0.42
   3  -3   7   14.40    1.80
   4  -3   7  135.61    4.90
   5  -3   7   57.04    3.10
   6  -3   7   77.18    3.66
   7  -3   7    0.98    0.60
   8  -3   7   -0.23    0.66
   9  -3   7   22.13    3.38
  -6  -2   7   14.89    2.03
  -5  -2   7    5.92    1.30
  -4  -2   7   11.61    1.75
  -3  -2   7   59.95    3.24
  -2  -2   7    2.01    0.79
  -1  -2   7   -0.54    0.42
   0  -2   7   64.61    4.45
   1  -2   7   21.69    3.03
   2  -2   7   60.56    4.30
   3  -2   7    4.88    1.07
   4  -2   7    1.14    0.63
   5  -2   7    4.17    0.97
   6  -2   7    2.76    0.87
   7  -2   7    1.53    0.84
   8  -2   7   12.38    2.49
   9  -2   7   28.26    4.32
  -7  -1   7   73.43    4.00
  -6  -1   7   13.85    2.00
  -5  -1   7    5.95    1.35
  -4  -1   7    6.44    1.30
  -3  -1   7  126.94    4.82
  -2  -1   7    4.36    1.03
  -1  -1   7   18.27    1.97
   0  -1   7   32.02    3.81
   1  -1   7   37.18    3.36
   2  -1   7   18.35    2.75
   3  -1   7   -0.09    0.55
   4  -1   7    0.15    0.49
   5  -1   7   76.01    3.59
   6  -1   7   19.28    2.24
   7  -1   7   83.88    5.49
   8  -1   7    6.79    1.98
  -7   0   7   12.88    1.94
  -6   0   7   18.50    2.25
  -5   0   7   16.80    2.09
  -4   0   7   15.37    1.96
  -3   0   7   17.05    1.96
  -2   0   7   62.09    3.12
  -1   0   7   35.74    2.32
   0   0   7    0.20    0.40
   1   0   7   36.95    3.34
   2   0   7   50.38    3.92
   3   0   7   13.06    2.30
   4   0   7   15.05    2.56
   5   0   7   10.36    2.23
   6   0   7   17.77    2.89
   7   0   7   11.00    2.45
  -8   1   7    4.61    1.19
  -7   1   7   82.53    4.09
  -6   1   7   17.28    2.11
  -5   1   7   78.46    3.79
  -4   1   7    1.17    0.60
  -3   1   7    0.00    0.44
  -2   1   7   17.23    1.91
  -1   1   7   39.29    2.39
   0   1   7   36.15    2.26
   1   1   7   17.96    1.90
   2   1   7    3.15    1.20
   3   1   7  131.37    6.74
   4   1   7    4.86    1.57
   5   1   7    5.89    1.65
   6   1   7   15.92    2.87
   7   1   7   62.04    5.03
  -8   2   7    8.52    1.60
  -7   2   7    1.92    0.80
  -6   2   7    3.32    1.02
  -5   2   7    3.18    0.98
  -4   2   7    1.37    0.63
  -3   2   7    3.64    0.96
  -2   2   7   60.66    3.06
  -1   2   7   15.98    1.80
   0   2   7   56.67    2.90
   1   2   7    0.22    0.43
   2   2   7    1.87    0.99
   3   2   7   48.47    3.99
   4   2   7   13.67    2.55
   5   2   7    7.97    2.02
   6   2   7   16.70    2.92
  -9   3   7   18.99    4.83
  -8   3   7    1.30    0.78
  -7   3   7    0.78    0.64
  -6   3   7   73.55    3.70
  -5   3   7   54.99    3.16
  -4   3   7  132.27    4.90
  -3   3   7   14.96    1.79
  -2   3   7    0.07    0.42
  -1   3   7    4.54    1.02
   0   3   7   13.95    1.70
   1   3   7    0.82    0.52
   2   3   7    3.57    0.90
   3   3   7   73.17    5.07
   4   3   7   18.10    3.00
   5   3   7   76.07    5.47
  -9   4   7   59.06    4.90
  -8   4   7   14.82    2.03
  -7   4   7   17.85    2.22
  -6   4   7   13.68    1.92
  -5   4   7    5.64    1.11
  -4   4   7   13.87    1.77
  -3   4   7    0.63    0.60
  -2   4   7    1.47    0.70
  -1   4   7  136.59    4.81
   0   4   7   12.29    1.63
   1   4   7   79.34    3.56
   2   4   7    3.71    0.94
   3   4   7   -0.30    0.54
   4   4   7   17.03    3.01
  -9   5   7    8.83    2.33
  -8   5   7   76.10    3.92
  -7   5   7    7.17    1.38
  -6   5   7    4.56    1.12
  -5   5   7   21.54    2.32
  -4   5   7   77.84    3.62
  -3   5   7    4.17    1.03
  -2   5   7   59.50    3.11
  -1   5   7    7.59    1.33
   0   5   7   15.54    1.89
   1   5   7   18.97    2.15
   2   5   7    3.08    0.93
   3   5   7    1.06    0.69
  -9   6   7    0.02    0.87
  -8   6   7   17.68    2.27
  -7   6   7   12.94    1.84
  -6   6   7   17.10    2.10
  -5   6   7   21.99    2.36
  -4   6   7    2.71    0.92
  -3   6   7   79.78    3.71
  -2   6   7   11.80    1.68
  -1   6   7    5.23    1.17
   0   6   7   16.83    1.95
   1   6   7   84.80    3.93
   2   6   7    6.43    1.30
   3   6   7   16.21    2.36
  -8   7   7   71.20    4.02
  -7   7   7   14.48    1.95
  -6   7   7   80.52    3.88
  -5   7   7    2.27    0.83
  -4   7   7    0.28    0.54
  -3   7   7   22.04    2.36
  -2   7   7    5.02    1.17
  -1   7   7   12.44    1.76
   0   7   7   12.36    1.80
   1   7   7    5.13    1.25
   2   7   7   29.22    3.94
  -7   8   7    3.78    1.61
  -6   8   7    9.49    2.38
  -5   8   7   -0.64    0.62
  -4   8   7   14.84    1.91
  -3   8   7   79.35    3.81
  -2   8   7   17.61    2.13
  -1   8   7   73.88    3.72
   0   8   7    2.58    1.08
  -1  -5   8    1.91    1.29
   0  -5   8    3.42    1.57
   1  -5   8    5.42    1.79
   2  -5   8   10.36    2.35
   3  -5   8    0.24    0.63
   4  -5   8   43.37    3.27
   5  -5   8    4.61    1.82
  -2  -4   8    0.06    0.97
  -1  -4   8   38.14    4.50
   0  -4   8    5.87    1.87
   1  -4   8   16.45    3.05
   2  -4   8   30.93    3.93
   3  -4   8   76.65    3.87
   4  -4   8    7.28    1.44
   5  -4   8    5.51    1.31
   6  -4   8    1.37    0.83
  -3  -3   8   30.21    4.25
  -2  -3   8   -0.12    0.88
  -1  -3   8   83.82    5.74
   0  -3   8   15.04    2.84
   1  -3   8    0.79    0.92
   2  -3   8   60.06    4.62
   3  -3   8   13.75    2.55
   4  -3   8   12.64    1.88
   5  -3   8   10.46    1.76
   6  -3   8   26.04    2.63
  -4  -2   8    3.35    1.63
  -3  -2   8    8.59    2.19
  -2  -2   8   36.61    4.62
  -1  -2   8   53.58    4.58
   0  -2   8    3.82    1.50
   1  -2   8   32.98    4.10
   2  -2   8    4.98    1.71
   3  -2   8    3.60    1.47
   4  -2   8   37.14    4.36
   5  -2   8    0.52    0.86
   6  -2   8   -0.26    0.91
  -5  -1   8   99.98    6.65
  -4  -1   8    5.67    1.32
  -3  -1   8   11.75    1.78
  -2  -1   8    1.65    1.12
  -1  -1   8   31.86    4.09
   0  -1   8    0.81    0.92
   1  -1   8    2.39    1.32
   2  -1   8   32.16    4.00
   3  -1   8   55.84    4.55
   4  -1   8   82.75    5.49
   5  -1   8   36.83    4.42
  -5   0   8    3.87    1.30
  -4   0   8    8.46    1.60
  -3   0   8    8.60    1.56
  -2   0   8    6.64    1.33
  -1   0   8    2.20    1.11
   0   0   8  206.13    9.29
   1   0   8    3.74    1.55
   2   0   8    7.54    2.00
   3   0   8   11.73    2.44
   4   0   8    7.24    2.01
   5   0   8    4.69    1.70
  -6   1   8   -0.21    1.49
  -5   1   8   31.23    2.94
  -4   1   8   81.88    4.04
  -3   1   8   50.12    3.12
  -2   1   8   31.96    2.85
  -1   1   8    1.27    1.01
   0   1   8    2.95    1.37
   1   1   8   30.46    4.00
   2   1   8    1.45    1.06
   3   1   8    8.78    2.21
   4   1   8    5.21    1.77
  -6   2   8    0.47    0.95
  -5   2   8    0.24    0.57
  -4   2   8   36.67    3.17
  -3   2   8    0.97    0.70
  -2   2   8    3.73    1.06
  -1   2   8   31.23    2.81
   0   2   8    8.49    2.19
   1   2   8   50.26    4.36
   2   2   8   34.13    4.32
   3   2   8    8.66    2.11
  -6   3   8   23.31    3.02
  -5   3   8    6.42    1.29
  -4   3   8   10.00    1.66
  -3   3   8   12.47    1.87
  -2   3   8   49.28    3.03
  -1   3   8    1.60    0.77
   0   3   8   12.24    1.76
   1   3   8   76.49    5.39
   2   3   8   -0.52    0.77
  -6   4   8    2.59    1.29
  -5   4   8    3.64    1.01
  -4   4   8    7.98    1.49
  -3   4   8   78.76    3.88
  -2   4   8   32.68    2.92
  -1   4   8   10.75    1.72
   0   4   8    7.90    1.45
   1   4   8   35.06    4.35
  -6   5   8  104.31    9.59
  -5   5   8    3.81    1.15
  -4   5   8   38.92    3.28
  -3   5   8    0.70    0.72
  -2   5   8    9.87    1.65
  -1   5   8    5.86    1.28
   0   5   8    2.72    0.88
   1   5   8    1.69    1.25
  -5   6   8    1.45    1.22
  -4   6   8    0.00    0.60
  -3   6   8   26.30    2.72
  -2   6   8    3.14    1.03
  -1   6   8  101.78    6.54
   0   0   0    0.00    0.00
;
_shelx_hkl_checksum              10714
loop_
_space_group_symop_operation_xyz
'x, y, z'
'-y, x-y, z'
'-x+y, -x, z'
'-x, -y, z+1/2'
'y, -x+y, z+1/2'
'x-y, x, z+1/2'
loop_
_atom_site_label
_atom_site_type_symbol
_atom_site_fract_x
_atom_site_fract_y
_atom_site_fract_z
_atom_site_U_iso_or_equiv
_atom_site_adp_type
_atom_site_occupancy
_atom_site_site_symmetry_order
_atom_site_calc_flag
_atom_site_refinement_flags_posn
_atom_site_refinement_flags_adp
_atom_site_refinement_flags_occupancy
_atom_site_disorder_assembly
_atom_site_disorder_group
Nd Nd 0.12989(3) 0.35740(3) 0.48002(11) 0.01008(7) Uani 1 1 d . . . . .
Co Co 0.0000 0.0000 0.2493(8) 0.0093(5) Uani 0.5 3 d S T P . .
Ge Ge 0.3333 0.6667 0.89831(19) 0.0097(2) Uani 1 3 d S T P . .
S1 S 0.24448(16) 0.15520(15) 0.5000(4) 0.0136(3) Uani 1 1 d . . . . .
S2 S 0.51986(17) 0.10158(17) 0.2463(3) 0.0104(2) Uani 1 1 d . . . . .
S3 S 0.3333 0.6667 0.2748(5) 0.0109(5) Uani 1 3 d S T P . .
loop_
_atom_site_aniso_label
_atom_site_aniso_U_11
_atom_site_aniso_U_22
_atom_site_aniso_U_33
_atom_site_aniso_U_23
_atom_site_aniso_U_13
_atom_site_aniso_U_12
Nd 0.01017(12) 0.00899(12) 0.01134(12) -0.00054(17) -0.00068(16) 0.00499(9)
Co 0.0064(6) 0.0064(6) 0.0152(13) 0.000 0.000 0.0032(3)
Ge 0.0106(3) 0.0106(3) 0.0079(4) 0.000 0.000 0.00530(14)
S1 0.0126(6) 0.0103(5) 0.0195(7) -0.0024(7) -0.0012(7) 0.0070(5)
S2 0.0096(6) 0.0102(6) 0.0107(6) -0.0003(5) 0.0011(5) 0.0043(5)
S3 0.0119(7) 0.0119(7) 0.0088(11) 0.000 0.000 0.0059(3)
loop_
_atom_type_symbol
_atom_type_description
_atom_type_scat_dispersion_real
_atom_type_scat_dispersion_imag
_atom_type_scat_source
S S 0.1246 0.1234 'International Tables Vol C Tables 4.2.6.8 and 6.1.1.4'
Co Co 0.3494 0.9721 'International Tables Vol C Tables 4.2.6.8 and 6.1.1.4'
Ge Ge 0.1547 1.8001 'International Tables Vol C Tables 4.2.6.8 and 6.1.1.4'
Nd Nd -0.1943 3.0179 'International Tables Vol C Tables 4.2.6.8 and 6.1.1.4'
loop_
_geom_angle_atom_site_label_1
_geom_angle_atom_site_label_2
_geom_angle_atom_site_label_3
_geom_angle
_geom_angle_site_symmetry_1
_geom_angle_site_symmetry_3
S1 Nd S1 83.88(6) 2 .
S1 Nd S2 106.33(5) 2 5_565
S1 Nd S2 142.38(6) . 5_565
S1 Nd S1 77.76(5) 2 6_554
S1 Nd S1 77.63(5) . 6_554
S2 Nd S1 139.52(4) 5_565 6_554
S1 Nd S2 139.94(5) 2 6
S1 Nd S2 74.50(4) . 6
S2 Nd S2 75.05(6) 5_565 6
S1 Nd S2 127.70(4) 6_554 6
S1 Nd S3 149.61(5) 2 .
S1 Nd S3 117.22(3) . .
S2 Nd S3 71.12(5) 5_565 .
S1 Nd S3 85.45(6) 6_554 .
S2 Nd S3 69.90(5) 6 .
S1 Nd S2 71.86(4) 2 2
S1 Nd S2 144.05(5) . 2
S2 Nd S2 71.72(3) 5_565 2
S1 Nd S2 71.66(4) 6_554 2
S2 Nd S2 140.13(4) 6 2
S3 Nd S2 78.90(3) . 2
S1 Nd S1 74.18(5) 2 6
S1 Nd S1 74.07(5) . 6
S2 Nd S1 74.26(4) 5_565 6
S1 Nd S1 141.78(5) 6_554 6
S2 Nd S1 67.69(4) 6 6
S3 Nd S1 130.48(6) . 6
S2 Nd S1 121.61(4) 2 6
S1 Nd Co 48.08(5) 2 .
S1 Nd Co 48.05(5) . .
S2 Nd Co 154.40(5) 5_565 .
S1 Nd Co 47.32(7) 6_554 .
S2 Nd Co 122.51(4) 6 .
S3 Nd Co 130.13(8) . .
S2 Nd Co 96.45(5) 2 .
S1 Nd Co 94.46(7) 6 .
S1 Nd Co 46.81(4) 2 4
S1 Nd Co 46.78(4) . 4
S2 Nd Co 115.99(7) 5_565 4
S1 Nd Co 96.38(7) 6_554 4
S2 Nd Co 95.56(5) 6 4
S3 Nd Co 162.272(16) . 4
S2 Nd Co 118.46(4) 2 4
S1 Nd Co 45.40(7) 6 4
Co Nd Co 49.063(6) . 4
S1 Co S1 92.24(12) 4_554 6_554
S1 Co S1 92.24(12) 4_554 5_554
S1 Co S1 92.24(12) 6_554 5_554
S1 Co S1 179.84(18) 4_554 .
S1 Co S1 87.87(2) 6_554 .
S1 Co S1 87.87(2) 5_554 .
S1 Co S1 87.87(2) 4_554 3
S1 Co S1 179.85(18) 6_554 3
S1 Co S1 87.87(2) 5_554 3
S1 Co S1 92.02(12) . 3
S1 Co S1 87.87(2) 4_554 2
S1 Co S1 87.87(2) 6_554 2
S1 Co S1 179.85(18) 5_554 2
S1 Co S1 92.02(12) . 2
S1 Co S1 92.02(12) 3 2
S1 Co Co 123.67(9) 4_554 4
S1 Co Co 123.67(9) 6_554 4
S1 Co Co 123.67(9) 5_554 4
S1 Co Co 56.18(9) . 4
S1 Co Co 56.18(9) 3 4
S1 Co Co 56.18(9) 2 4
S1 Co Co 56.33(9) 4_554 4_554
S1 Co Co 56.33(9) 6_554 4_554
S1 Co Co 56.33(9) 5_554 4_554
S1 Co Co 123.82(9) . 4_554
S1 Co Co 123.82(9) 3 4_554
S1 Co Co 123.82(9) 2 4_554
Co Co Co 180.0 4 4_554
S1 Co Nd 56.53(5) 4_554 2
S1 Co Nd 126.88(4) 6_554 2
S1 Co Nd 126.69(4) 5_554 2
S1 Co Nd 123.31(15) . 2
S1 Co Nd 53.11(5) 3 2
S1 Co Nd 53.29(5) 2 2
Co Co Nd 67.14(7) 4 2
Co Co Nd 112.86(7) 4_554 2
S1 Co Nd 126.88(4) 4_554 3
S1 Co Nd 126.69(4) 6_554 3
S1 Co Nd 56.53(5) 5_554 3
S1 Co Nd 53.11(5) . 3
S1 Co Nd 53.29(5) 3 3
S1 Co Nd 123.31(15) 2 3
Co Co Nd 67.14(7) 4 3
Co Co Nd 112.86(7) 4_554 3
Nd Co Nd 105.88(8) 2 3
S1 Co Nd 126.69(4) 4_554 .
S1 Co Nd 56.53(5) 6_554 .
S1 Co Nd 126.88(4) 5_554 .
S1 Co Nd 53.29(5) . .
S1 Co Nd 123.31(15) 3 .
S1 Co Nd 53.11(5) 2 .
Co Co Nd 67.14(7) 4 .
Co Co Nd 112.86(7) 4_554 .
Nd Co Nd 105.88(8) 2 .
Nd Co Nd 105.88(8) 3 .
S1 Co Nd 51.91(5) 4_554 4_554
S1 Co Nd 120.13(15) 6_554 4_554
S1 Co Nd 51.73(5) 5_554 4_554
S1 Co Nd 128.11(3) . 4_554
S1 Co Nd 60.02(5) 3 4_554
S1 Co Nd 128.30(3) 2 4_554
Co Co Nd 116.20(7) 4 4_554
Co Co Nd 63.80(7) 4_554 4_554
Nd Co Nd 76.005(5) 2 4_554
Nd Co Nd 76.005(5) 3 4_554
Nd Co Nd 176.67(14) . 4_554
S3 Ge S2 113.20(5) 1_556 5_565
S3 Ge S2 113.20(5) 1_556 4_665
S2 Ge S2 105.50(5) 5_565 4_665
S3 Ge S2 113.19(5) 1_556 6
S2 Ge S2 105.50(5) 5_565 6
S2 Ge S2 105.50(5) 4_665 6
Co S1 Co 67.49(3) 4 .
Co S1 Nd 81.46(4) 4 3
Co S1 Nd 78.81(4) . 3
Co S1 Nd 81.30(4) 4 .
Co S1 Nd 78.66(4) . .
Nd S1 Nd 155.57(6) 3 .
Co S1 Nd 76.15(10) 4 5
Co S1 Nd 143.64(10) . 5
Nd S1 Nd 96.36(6) 3 5
Nd S1 Nd 96.17(5) . 5
Co S1 Nd 142.07(10) 4 5_554
Co S1 Nd 74.58(9) . 5_554
Nd S1 Nd 91.59(5) 3 5_554
Nd S1 Nd 91.44(5) . 5_554
Nd S1 Nd 141.78(5) 5 5_554
Ge S2 Nd 90.89(5) 4_664 6_654
Ge S2 Nd 88.54(5) 4_664 5_554
Nd S2 Nd 109.52(5) 6_654 5_554
Ge S2 Nd 121.05(6) 4_664 3
Nd S2 Nd 142.60(5) 6_654 3
Nd S2 Nd 91.60(4) 5_554 3
Ge S3 Nd 113.34(5) 1_554 .
Ge S3 Nd 113.34(5) 1_554 3_565
Nd S3 Nd 105.34(5) . 3_565
Ge S3 Nd 113.34(5) 1_554 2_665
Nd S3 Nd 105.34(5) . 2_665
Nd S3 Nd 105.34(5) 3_565 2_665
loop_
_geom_bond_atom_site_label_1
_geom_bond_atom_site_label_2
_geom_bond_distance
_geom_bond_site_symmetry_2
Nd S1 2.7937(14) 2
Nd S1 2.8021(14) .
Nd S2 2.8633(15) 5_565
Nd S1 2.944(2) 6_554
Nd S2 2.9547(16) 6
Nd S3 2.9882(11) .
Nd S2 3.0112(15) 2
Nd S1 3.162(2) 6
Nd Co 3.4269(18) .
Nd Co 3.519(2) 4
Co S1 2.595(3) 4_554
Co S1 2.595(3) 6_554
Co S1 2.595(3) 5_554
Co S1 2.599(3) .
Co S1 2.599(3) 3
Co S1 2.599(3) 2
Co Co 2.88520(15) 4
Co Co 2.88520(15) 4_554
Co Nd 3.4269(18) 2
Co Nd 3.4269(18) 3
Co Nd 3.519(2) 4_554
Ge S3 2.173(3) 1_556
Ge S2 2.2265(16) 5_565
Ge S2 2.2265(16) 4_665
Ge S2 2.2265(16) 6
S1 Co 2.595(3) 4
S1 Nd 2.7937(14) 3
S1 Nd 2.944(2) 5
S1 Nd 3.162(2) 5_554
S2 Ge 2.2265(16) 4_664
S2 Nd 2.8634(15) 6_654
S2 Nd 2.9547(16) 5_554
S2 Nd 3.0112(15) 3
S3 Ge 2.173(3) 1_554
S3 Nd 2.9882(11) 3_565
S3 Nd 2.9882(11) 2_665
