#------------------------------------------------------------------------------
#$Date: 2021-02-11 14:22:18 +0200 (Thu, 11 Feb 2021) $
#$Revision: 261889 $
#$URL: file:///home/coder/svn-repositories/cod/cif/1/56/03/1560335.cif $
#------------------------------------------------------------------------------
#
# This file is available in the Crystallography Open Database (COD),
# http://www.crystallography.net/
#
# All data on this site have been placed in the public domain by the
# contributors.
#
data_1560335
loop_
_publ_author_name
'Hamchaoui, Farida'
'Alonzo, V\'eronique'
'Marlart, Isabelle'
'Auguste, Sandy'
'Galven, Cyrille'
'Rebbah, Houria'
'Le Fur, Eric'
_publ_section_title
;
 Hydrothermal synthesis, structural and thermal characterizations of three
 open-framework gallium phosphites
;
_journal_name_full               'Journal of Solid State Chemistry'
_journal_page_first              8
_journal_page_last               12
_journal_paper_doi               10.1016/j.jssc.2017.07.030
_journal_volume                  255
_journal_year                    2017
_chemical_formula_sum            'Ga H2 K O6 P2'
_chemical_formula_weight         268.78
_space_group_crystal_system      hexagonal
_space_group_IT_number           186
_space_group_name_Hall           'P 6c -2c'
_space_group_name_H-M_alt        'P 63 m c'
_atom_sites_solution_hydrogens   difmap
_cell_angle_alpha                90
_cell_angle_beta                 90
_cell_angle_gamma                120
_cell_formula_units_Z            2
_cell_length_a                   5.2567(2)
_cell_length_b                   5.2567(2)
_cell_length_c                   12.2582(3)
_cell_measurement_reflns_used    7302
_cell_measurement_temperature    293(2)
_cell_measurement_theta_max      42.11
_cell_measurement_theta_min      2.91
_cell_volume                     293.348(17)
_computing_structure_refinement  'SHELXL-2014/6 (Sheldrick, 2014)'
_diffrn_ambient_temperature      293(2)
_diffrn_measured_fraction_theta_full 0.992
_diffrn_measured_fraction_theta_max 0.993
_diffrn_measurement_device_type  '95mm CCD camera on \k-goniostat'
_diffrn_measurement_method       'CCD rotation images, thick slices'
_diffrn_radiation_monochromator  graphite
_diffrn_radiation_source         'fine-focus sealed tube'
_diffrn_radiation_type           MoK\a
_diffrn_radiation_wavelength     0.71069
_diffrn_reflns_av_R_equivalents  0.0405
_diffrn_reflns_av_unetI/netI     0.0314
_diffrn_reflns_Laue_measured_fraction_full 0.992
_diffrn_reflns_Laue_measured_fraction_max 0.993
_diffrn_reflns_limit_h_max       9
_diffrn_reflns_limit_h_min       -8
_diffrn_reflns_limit_k_max       9
_diffrn_reflns_limit_k_min       -9
_diffrn_reflns_limit_l_max       15
_diffrn_reflns_limit_l_min       -22
_diffrn_reflns_number            6120
_diffrn_reflns_point_group_measured_fraction_full 0.943
_diffrn_reflns_point_group_measured_fraction_max 0.889
_diffrn_reflns_theta_full        25.240
_diffrn_reflns_theta_max         41.878
_diffrn_reflns_theta_min         4.477
_exptl_absorpt_coefficient_mu    5.908
_exptl_absorpt_correction_T_max  0.865
_exptl_absorpt_correction_T_min  0.561
_exptl_absorpt_correction_type   empirical
_exptl_absorpt_process_details   '(SADABS; Sheldrick, 2002)'
_exptl_crystal_colour            colorless
_exptl_crystal_density_diffrn    3.043
_exptl_crystal_description       block
_exptl_crystal_F_000             260
_exptl_crystal_size_max          0.12
_exptl_crystal_size_mid          0.08
_exptl_crystal_size_min          0.03
_refine_diff_density_max         0.338
_refine_diff_density_min         -0.788
_refine_diff_density_rms         0.135
_refine_ls_abs_structure_details
;
 Flack x determined using 256 quotients [(I+)-(I-)]/[(I+)+(I-)]
 (Parsons, Flack and Wagner, Acta Cryst. B69 (2013) 249-259).
;
_refine_ls_abs_structure_Flack   0.064(9)
_refine_ls_extinction_coef       .
_refine_ls_extinction_method     none
_refine_ls_goodness_of_fit_ref   0.800
_refine_ls_hydrogen_treatment    refxyz
_refine_ls_matrix_type           full
_refine_ls_number_parameters     27
_refine_ls_number_reflns         745
_refine_ls_number_restraints     1
_refine_ls_restrained_S_all      0.799
_refine_ls_R_factor_all          0.0324
_refine_ls_R_factor_gt           0.0230
_refine_ls_shift/su_max          0.000
_refine_ls_shift/su_mean         0.000
_refine_ls_structure_factor_coef Fsqd
_refine_ls_weighting_details
'w=1/[\s^2^(Fo^2^)+(0.0241P)^2^+0.6653P] where P=(Fo^2^+2Fc^2^)/3'
_refine_ls_weighting_scheme      calc
_refine_ls_wR_factor_gt          0.0490
_refine_ls_wR_factor_ref         0.0522
_reflns_Friedel_coverage         0.733
_reflns_Friedel_fraction_full    0.888
_reflns_Friedel_fraction_max     0.778
_reflns_number_gt                644
_reflns_number_total             745
_reflns_threshold_expression     'I > 2\s(I)'
_cod_data_source_file            KGa.cif
_cod_data_source_block           1
_cod_original_cell_volume        293.35(2)
_cod_database_code               1560335
_shelx_space_group_comment
;
The symmetry employed for this shelxl refinement is uniquely defined
by the following loop, which should always be used as a source of
symmetry information in preference to the above space-group names.
They are only intended as comments.
;
_shelxl_version_number           2014/6
_shelx_res_file
;
TITL import in P 63 m c
CELL   0.71069      5.2567    5.2567   12.2582   90.000   90.000  120.000
ZERR         2      0.0002    0.0002    0.0003    0.00    0.00    0.00
LATT  -1
SYMM  - X, - Y, 1/2 + Z
SYMM  - Y,   X - Y,   Z
SYMM  - X + Y, - X,   Z
SYMM    X - Y,   X, 1/2 + Z
SYMM    Y, - X + Y, 1/2 + Z
SYMM  - X + Y,   Y,   Z
SYMM    X,   X - Y,   Z
SYMM  - Y, - X,   Z
SYMM    Y,   X, 1/2 + Z
SYMM  - X, - X + Y, 1/2 + Z
SYMM    X - Y, - Y, 1/2 + Z
SFAC  O    P    K    Ga  H
UNIT  12   4    2    2  4
MERG   2
OMIT     0.00 180.00
ACTA
FMAP   2
LIST   1
L.S.   24
WGHT    0.024100    0.665300
FVAR       0.91413
K1    3   -0.666667   -0.333333   -0.443862    10.16667    0.01872    0.01872 =
         0.01769    0.00000    0.00000    0.00936
GA    4   -1.333333   -0.666667   -0.647832    10.16667    0.00651    0.00651 =
         0.01361    0.00000    0.00000    0.00326
P1    2   -1.000000    0.000000   -0.593741    10.16667    0.00652    0.00652 =
         0.01234    0.00000    0.00000    0.00326
H1    5   -1.000000    0.000000   -0.715897    10.16667   -1.20000
P2    2   -0.666667   -0.333333   -0.776057    10.16667    0.00637    0.00637 =
         0.01014    0.00000    0.00000    0.00318
H2    5   -0.666667   -0.333333   -0.875185    10.16667   -1.20000
O1    1   -1.159016    0.159016   -0.552936    10.50000    0.01664    0.01664 =
         0.01438    0.00053   -0.00053    0.01307
O2    1   -0.988299   -0.494149   -0.744423    10.50000    0.00812    0.01475 =
         0.02421    0.00214    0.00428    0.00406
HKLF    4

REM  import in P 63 m c
REM R1 =  0.0230 for     644 Fo > 4sig(Fo)  and  0.0324 for all     745 data
REM     27 parameters refined using      0 restraints

END

WGHT      0.0206      0.0000

REM Highest difference peak  0.338,  deepest hole -0.788,  1-sigma level  0.135
Q1    1  -1.4068 -0.0880 -0.6174  11.00000  0.05    0.34
Q2    1  -1.0000  0.0000 -0.6466  10.16667  0.05    0.33
Q3    1  -0.9693 -0.3441 -0.6704  11.00000  0.05    0.33
Q4    1  -1.0924 -0.4242 -0.7983  11.00000  0.05    0.33
Q5    1  -0.9486 -0.3441 -0.8052  11.00000  0.05    0.31
Q6    1  -0.9958 -0.2777 -0.7738  11.00000  0.05    0.30
Q7    1  -1.0568  0.2086 -0.4891  11.00000  0.05    0.29
Q8    1  -0.9644  0.3758 -0.4666  11.00000  0.05    0.29
Q9    1  -1.1409 -0.5704 -0.8026  10.50000  0.05    0.29
Q10   1  -1.2910 -0.0174 -0.5646  11.00000  0.05    0.29
Q11   1  -0.8692 -0.4346 -0.7368  10.50000  0.05    0.28
Q12   1  -0.8742 -0.4371 -0.6847  10.50000  0.05    0.28
Q13   1  -0.5007 -0.4993 -0.8892  10.50000  0.05    0.28
Q14   1  -0.8847 -0.4423 -0.7967  10.50000  0.05    0.27
Q15   1  -1.1058  0.1058 -0.5907  10.50000  0.05    0.27
Q16   1  -1.0051 -0.5026 -0.6609  10.50000  0.05    0.26
Q17   1  -0.3329 -0.0042 -0.4208  11.00000  0.05    0.26
Q18   1  -1.2418 -0.0014 -0.6124  11.00000  0.05    0.26
Q19   1  -1.1073  0.1073 -0.4998  10.50000  0.05    0.26
Q20   1  -1.1387 -0.5693 -0.7514  10.50000  0.05    0.25
;
_shelx_res_checksum              949
_shelx_hkl_file
;
   1  -1   0 1069.38   54.78   1
  -1   0   0 1046.04   54.70   1
   0   1   0  982.57   54.49   1
  -1   1   0 1008.93   54.54   1
   0  -1   0 1099.12   54.82   1
   0  -1   0  988.22   46.30   5
   0   1   0 1087.86   46.41   5
   1   0   0 1021.83   54.57   1
  -1  -1   0 6657.13  338.42   1
   2  -1   0 6847.38  338.48   1
   2  -1   0 6372.21  338.02   1
   1  -2   0 6226.19  338.20   1
   2  -2   0   88.65    7.42   1
   0   2   0   92.70    4.93   5
  -2   2   0   79.09    6.89   1
   2   0   0   80.49    6.81   1
  -2   0   0   80.76    7.06   1
   0  -2   0   85.42    7.32   1
   0   2   0   83.50    6.92   1
  -1  -2   0  708.40   32.47   5
   3  -1   0  702.23   39.85   1
   2  -3   0  687.07   39.74   1
  -1  -2   0  697.56   39.84   1
  -1   3   0  740.08   33.77   5
   3  -2   0  727.48   32.12   2
   1  -3   0  704.92   41.05   1
  -2  -1   0  712.98   41.07   1
   3  -2   0  731.92   41.14   1
   0  -3   0 4535.79  246.77   1
  -3   0   0 4638.71  246.90   1
   0   3   0 5119.25  210.07   5
   3  -3   0 4566.84  246.72   1
  -1  -3   0  302.15   15.32   5
  -1  -3   0  309.47   21.30   1
   3  -4   0  283.19   20.73   1
   4  -1   0  304.70   21.06   1
  -3   4   0  313.48   14.36   2
  -2  -2   0 9997.32  429.16   5
   2  -4   0 9223.94  498.86   1
   4  -2   0 9655.30  499.24   1
  -2  -2   0 9570.28  499.20   1
   1  -4   0  302.16   21.19   1
   4  -3   0  315.28   21.29   1
  -3  -1   0  298.54   21.06   1
  -1   4   0  304.96   15.58   5
   0  -4   0   55.30    8.73   1
   4  -4   0   60.59    8.96   1
  -4   0   0   63.22    8.97   1
  -1  -4   0 2588.61  137.98   1
   4  -5   0 2475.75  137.57   1
   5  -1   0 2549.22  137.95   1
  -2  -3   0  150.07   10.16   5
  -3   5   0  162.67    9.54   2
   3  -5   0  155.95   14.74   1
  -2  -3   0  150.69   14.62   1
   5  -2   0  171.16   15.65   1
   5  -3   0  130.23   13.32   1
  -2   5   0  151.43    9.64   5
   2  -5   0  150.06   14.16   1
  -3  -2   0  145.01   14.15   1
   5  -4   0 2525.43  137.08   1
  -4  -1   0 2471.43  136.89   1
   1  -5   0 2422.21  136.42   1
  -1   5   0 2665.39  113.62   5
  -5   0   0  195.48   18.42   1
   0  -5   0  195.19   18.50   1
   5  -5   0  198.72   18.16   1
   5   0   0  212.36   18.87   1
   6  -1   0  108.20   15.12   1
   5  -6   0  104.74   14.69   1
   6  -1   0  126.26    8.12   4
  -1  -5   0  126.32   15.48   1
  -2  -4   0   43.20   10.84   1
   6  -2   0   36.49    9.76   1
   4  -6   0   43.15   10.86   1
  -3   6   0 2011.70   90.81   5
  -3  -3   0 1901.01  109.33   1
   3  -6   0 1944.87  109.37   1
   6  -3   0 1963.07  109.50   1
   2  -6   0   41.37   11.34   1
  -2   6   0   37.38    5.29   5
   6  -4   0   42.74    9.97   1
  -4  -2   0   31.12    9.79   1
  -5  -1   0  129.02   16.09   1
   6  -5   0  123.85   15.62   1
   1  -6   0  134.88   16.79   1
   6   0   0 2690.21  148.96   1
   0  -6   0 2716.53  149.14   1
   6  -6   0 2680.04  148.71   1
  -1  -6   0   52.48   14.56   1
   6  -7   0   51.33   14.68   1
   7  -1   0   52.54   13.62   1
   5  -7   0 1235.09   75.89   1
   7  -2   0 1255.68   76.36   1
   7  -2   0 1304.52   61.28   4
  -2  -5   0 1260.88   76.18   1
   4  -7   0  123.36   17.26   1
  -3  -4   0  128.18   17.64   1
  -4   7   0  120.57   11.55   5
   7  -3   0  135.04   17.40   1
   7  -4   0  107.72   17.14   1
   3  -7   0   95.60   16.24   1
  -4  -3   0  117.34   16.87   1
  -3   7   0  108.49    9.74   5
  -5  -2   0 1311.54   76.16   1
   7  -5   0 1187.81   74.55   1
   2  -7   0 1256.73   75.32   1
   7  -6   0   38.14   13.92   1
  -6  -1   0   51.51   14.19   1
   1  -7   0   37.84   14.55   1
   6   1   0   51.33   14.49   1
   0  -7   0    8.04   14.26   1
   7  -7   0   33.77   15.18   1
   7   0   0   34.83   15.83   1
   8  -1   0  559.61   44.06   1
   7  -8   0  578.48   43.17   1
  -1  -7   0  575.71   43.92   1
  -2  -6   0   -6.28   15.79   1
   6  -8   0  -14.41   15.07   1
   8  -2   0    2.94   14.70   1
  -3  -5   0   35.07   16.09   1
   5  -8   0   42.09   15.11   1
   8  -3   0   38.59   15.87   1
   4  -8   0 1758.95  104.21   1
  -4  -4   0 1783.83  104.88   1
   8  -4   0 1792.46  104.56   1
  -5  -3   0   55.19   16.91   1
   3  -8   0   37.87   15.77   1
   8  -5   0   33.71   14.51   1
   2  -8   0    3.08   14.12   1
  -6  -2   0   12.40   14.97   1
   8  -6   0   -0.06   14.83   1
   8  -7   0  558.48   43.41   1
   7   1   0  568.82   44.22   1
   1  -8   0  592.28   44.44   1
   0  -8   0   -6.67   19.80   1
   8   0   0   29.87   19.22   1
   8  -8   0   14.24   18.91   1
   9  -1   0    6.99   27.19   1
   8  -9   0  -32.25   32.71   1
  -1  -8   0   45.20   29.22   1
   9  -2   0   58.29   22.19   1
  -2  -7   0   37.79   21.78   1
   7  -9   0   79.83   23.93   1
  -3  -6   0  538.38   44.26   1
   6  -9   0  542.42   44.54   1
   9  -3   0  526.16   43.07   1
   9  -4   0   41.78   19.74   1
   5  -9   0   19.53   18.29   1
  -4  -5   0   28.31   18.18   1
  -5  -4   0   41.24   19.03   1
   9  -5   0   23.13   18.49   1
   4  -9   0   12.54   18.70   1
   3  -9   0  460.61   41.30   1
   9  -6   0  532.01   41.32   1
  -6  -3   0  514.27   42.31   1
   2  -9   0   32.01   21.71   1
   7   2   0   37.30   20.16   1
   9  -7   0   19.95   20.60   1
   8   1   0   16.71   24.96   1
   9  -8   0   33.04   35.83   1
   1  -9   0   60.00   23.72   1
   0   1  -1  897.74   47.69   1
   1  -1  -1  876.35   47.58   1
   0   1  -1  889.91   40.80   5
   0  -1   1  904.94   40.75   5
   0  -1   1  932.82   47.87   1
   1   0   1  881.12   47.59   1
   1  -1  -1  917.74   39.80   2
  -1   0  -1  869.10   47.64   1
  -1   1   1  909.86   39.78   2
  -1   1   1  911.90   43.97   3
   1  -1  -1  903.47   43.96   3
  -1   1   1  908.44   47.54   1
  -1   0   1  901.43   46.53   1
   1   0  -1  885.13   40.31   4
  -1   1  -1  889.05   42.61   3
   1  -1   1  906.46   46.66   1
   1   0  -1  860.95   46.34   1
   0  -1  -1  870.90   46.43   1
  -1   1  -1  817.87   46.36   1
   0   1   1  884.93   46.41   1
  -1  -1  -1   -3.48    2.62   1
  -1   2  -1   -0.97    2.57   1
   2  -1  -1    2.69    2.38   1
   1   1   1   -4.47    1.75   1
   2  -1  -1    0.89    2.66   1
   3  -2  -1  784.87   35.01   2
  -1   3  -1  794.14   36.65   5
   1  -3   1  819.76   44.48   1
  -2  -1  -1  749.08   43.87   1
   3  -2  -1  755.89   43.73   1
  -2   2   1  336.05   19.48   1
   0  -2   1  326.36   19.72   1
  -2   2   1  335.44   15.07   2
   2   0   1  321.42   19.39   1
   0  -2   1  320.20   15.86   5
   1   1  -1   -6.30    2.50   1
  -2   1  -1   -1.82    2.35   1
   1  -2  -1   -4.90    2.78   1
   2  -1   1    0.03    2.93   1
  -1  -1   1   -2.05    1.66   5
  -1  -1   1   -2.05    2.28   1
   2  -1   1   -2.37    2.48   1
   0  -2  -1  465.29   23.71   1
   2  -2   1  338.92   23.46   1
   2   0  -1  465.17   23.50   1
   0   2   1  354.33   18.34   5
  -1  -2  -1  767.66   35.33   5
  -1  -2  -1  759.10   43.42   1
   2  -3   1  790.29   43.82   1
   3  -1  -1  774.42   43.53   1
  -2  -2  -1    1.77    4.78   1
   4  -2  -1    7.22    5.82   1
  -2  -2  -1   -2.66    2.98   5
  -2   5  -1  160.34   11.04   5
   2  -5   1  181.51   15.53   1
  -5   3   1  165.87   10.77   3
  -3  -2  -1  142.94   14.90   1
   5  -3  -1  175.11   14.93   1
  -4   3   1  330.71   16.96   3
   1  -4   1  333.94   22.57   1
  -3  -1  -1  320.32   22.30   1
   4  -3  -1  322.77   22.19   1
  -1   4  -1  337.15   17.11   5
  -3   0  -1    4.97    4.70   1
   0  -3   1   16.25    4.35   1
   0   3  -1   17.72    2.69   5
  -1  -2   1  811.64   45.14   1
   2  -3  -1  775.66   44.71   1
   2  -3  -1  788.95   39.49   3
  -1  -2   1  803.10   37.24   5
  -2   3   1  795.36   36.27   2
   3  -1   1  825.64   45.26   1
  -2  -1   1  751.82   42.73   1
   3  -2   1  776.51   42.81   1
   1  -3  -1  729.99   42.31   1
   3  -3   1   29.62    5.94   1
  -3   0   1   24.87    5.54   1
   3   0  -1   15.24    2.32   4
   0  -3  -1    6.51    4.72   1
  -1  -3  -1  328.73   16.12   5
  -1  -3  -1  346.22   22.79   1
   3  -4   1  338.57   22.79   1
   4  -1  -1  330.10   22.62   1
   3  -5   1  175.55   15.52   1
  -2  -3  -1  170.45   15.24   1
  -2  -3  -1  152.30    9.69   5
   5  -2  -1  162.25   15.11   1
   3  -6   1    1.61    7.98   1
   6  -3  -1   -2.66    8.90   1
  -3  -3  -1   14.68    8.89   1
  -3   6  -1    4.04    5.23   5
  -4  -3  -1  152.94   18.74   1
   3  -7   1  144.21   18.40   1
   7  -4  -1  117.29   17.69   1
  -3   7  -1  129.70   11.33   5
  -2   6  -1   58.22    6.46   5
  -4  -2  -1   61.80   10.81   1
   6  -4  -1   57.53   10.87   1
   1  -5   1   24.69    8.33   1
  -4  -1  -1   17.48    7.69   1
  -4   0  -1  146.05   13.19   1
   0   4  -1  137.81    8.67   5
   4  -4  -1  132.37   12.78   1
   4  -1   1  340.77   22.93   1
  -1  -3   1  331.63   17.26   5
  -3   4   1  345.31   16.16   2
   3  -4  -1  329.48   22.49   1
  -1  -3   1  333.67   23.03   1
   2  -4  -1    2.94    5.53   1
  -2  -2   1    3.26    3.73   5
  -2  -2   1    6.43    5.78   1
  -1   4   1  357.99   16.87   5
   4  -3   1  319.25   23.03   1
   1  -4  -1  322.96   22.77   1
  -3  -1   1  378.45   23.79   1
   4  -4   1   68.32    9.41   1
  -4   0   1   61.12    9.00   1
  -1  -4  -1   -3.45    6.72   1
   5  -1  -1    2.73    3.72   4
   5  -1  -1   -2.30    6.34   1
   4  -6   1   35.75   10.52   1
   6  -2  -1   61.52   12.65   1
   4  -7   1  163.44   20.09   1
  -3  -4  -1  130.23   18.76   1
   7  -3  -1  155.91   18.07   1
  -4   7  -1  146.46   13.11   5
  -4  -4  -1    9.28   15.15   1
   4  -8   1    9.91   14.40   1
   8  -4  -1   20.56   15.20   1
   4  -9   1    3.02   18.84   1
   9  -5  -1   39.07   18.38   1
  -5  -4  -1   32.38   19.00   1
   3  -8   1   55.97   16.88   1
   8  -5  -1   49.50   16.20   1
  -5  -3  -1   83.18   17.71   1
  -5  -2  -1    0.63   11.21   1
   7  -5  -1   14.51   12.02   1
   6  -5  -1  167.43   17.39   1
   1  -6   1  142.99   17.12   1
  -5  -1  -1  141.89   16.95   1
   5  -5  -1  226.15   20.32   1
   5   0   1  257.10   21.24   1
   0  -5   1  263.73   21.75   1
  -5   0  -1  254.80   21.08   1
   4  -5  -1    0.23    6.41   1
  -1  -4   1    1.18    7.03   1
   5  -1   1    3.05    6.63   1
   3  -5  -1  160.31   14.74   1
   5  -2   1  170.23   15.81   1
  -2  -3   1  166.95   15.63   1
  -3   5   1  173.41   10.31   2
   5  -3   1  175.63   15.54   1
  -3  -2   1  173.70   15.74   1
   2  -5  -1  166.95   15.50   1
  -2   5   1  168.83   10.28   5
   5  -4   1   12.56    6.06   1
   1  -5  -1   -2.37    6.38   1
   5   0  -1  251.89   21.06   1
  -5   0   1  264.66   21.49   1
   0  -5  -1  257.57   21.61   1
   5  -5   1  264.73   21.52   1
   6  -1  -1  173.39   17.71   1
   5  -6   1  142.59   16.96   1
  -1  -5  -1  166.47   17.62   1
   6  -1  -1  160.32   10.15   4
  -2  -5  -1    2.49   12.03   1
   7  -2  -1   26.29   13.57   1
   7  -2  -1   -2.95    6.75   4
   5  -7   1    5.02   12.29   1
   5  -8   1   66.89   16.38   1
   8  -3  -1   45.00   15.33   1
  -3  -5  -1   43.46   16.37   1
  -5   8  -1   65.88   12.13   5
   5  -9   1   28.47   19.67   1
  -4  -5  -1   22.20   19.65   1
   9  -4  -1   10.75   18.92   1
  -6  -3  -1   13.62   19.90   1
   9  -6  -1   -3.87   18.13   1
   3  -9   1   10.56   19.47   1
   8  -6  -1   17.50   15.22   1
  -6  -2  -1   29.34   16.72   1
   2  -8   1    3.97   16.53   1
   1  -7   1   76.80   16.11   1
  -6  -1  -1   58.75   15.54   1
   6   1   1   83.14   16.34   1
   7  -6  -1   42.04   14.55   1
   0  -6   1   26.75   12.15   1
   6   0   1   -5.25   10.78   1
   6  -6  -1   11.63   11.25   1
   6  -1   1  183.82   10.59   4
   5  -6  -1  167.12   18.13   1
  -1  -5   1  172.80   18.78   1
   6  -1   1  171.84   18.39   1
   4  -6  -1   60.93   11.53   1
   6  -2   1   48.22   11.38   1
  -2  -4   1   35.60   10.31   1
  -3  -3   1   12.54    9.63   1
   3  -6  -1   -2.72    3.24   3
   6  -3   1    3.36    8.44   1
   3  -6  -1    0.15    7.91   1
  -3   6   1    7.49    5.06   5
   2  -6  -1   64.50   12.30   1
  -4  -2   1   31.96   10.42   1
  -2   6   1   38.69    4.79   5
   6  -4   1   56.12   11.37   1
   1  -6  -1  148.83   18.11   1
   6  -5   1  162.66   17.77   1
  -5  -1   1  186.01   18.24   1
   6  -6   1    7.53   10.59   1
   0  -6  -1    9.78   11.51   1
   6   0  -1   14.46   10.75   1
   6  -7   1   72.64   15.70   1
   7  -1  -1   36.31   13.61   1
  -1  -6  -1   72.33   15.65   1
  -2  -6  -1   29.86   16.20   1
   6  -8   1   23.68   16.52   1
   8  -2  -1   24.22   16.06   1
  -3  -6  -1   26.94   20.45   1
   9  -3  -1  -20.35   17.96   1
   6  -9   1   29.01   20.81   1
   7   2   1   59.77   21.12   1
   9  -7  -1   82.13   23.07   1
   2  -9   1   54.33   22.37   1
   1  -8   1   -6.00   17.40   1
   7   1   1    8.58   17.04   1
   8  -7  -1   16.48   15.85   1
   7   0   1   34.70   16.56   1
   0  -7   1   40.42   15.34   1
   7  -7  -1   10.21   14.98   1
   7  -1   1   51.06   14.30   1
  -1  -6   1   78.19   16.86   1
   6  -7  -1   27.58   12.60   1
   7  -2   1   25.00   12.03   1
   5  -7  -1   14.22   11.96   1
  -4   7   1  140.87   12.37   5
  -3  -4   1  180.15   20.08   1
   4  -7  -1  146.56   18.46   1
   7  -3   1  150.39   18.59   1
  -4  -3   1  154.61   19.06   1
   7  -4   1  142.34   18.64   1
   3  -7  -1  154.21   18.67   1
  -5  -2   1    5.53   12.14   1
   2  -7  -1   -0.69   11.55   1
   7  -5   1   11.80   10.82   1
   6   1  -1   52.69   14.77   1
   7  -6   1   57.06   14.69   1
  -6  -1   1   79.68   16.91   1
   1  -7  -1   39.73   15.39   1
   7  -7   1   23.76   15.15   1
   7   0  -1   42.51   16.25   1
   0  -7  -1   26.64   15.13   1
   7  -8   1    3.97   15.64   1
  -1  -7  -1   23.10   17.00   1
   8  -1  -1   -9.48   16.14   1
   7  -9   1   82.62   23.79   1
  -2  -7  -1  103.59   22.08   1
   9  -2  -1   74.46   23.43   1
   9  -8  -1    9.96   23.28   1
   8   1   1   30.89   39.92   1
   1  -9   1   63.91   48.67   1
   8   0   1   -1.05   18.79   1
   0  -8   1    1.77   18.88   1
   8  -8  -1   28.16   20.38   1
  -1  -7   1   30.62   18.56   1
   8  -1   1   -8.54   16.92   1
   7  -8  -1  -28.05   17.64   1
   8  -2   1    5.49   14.08   1
   6  -8  -1   43.51   15.22   1
  -2  -6   1   14.32   16.78   1
  -3  -5   1   37.82   17.26   1
   5  -8  -1   51.24   16.20   1
   8  -3   1   84.05   17.60   1
   8  -4   1   12.54   14.76   1
  -4  -4   1   14.30   15.14   1
   4  -8  -1   -0.58   13.99   1
  -5  -3   1   41.93   16.74   1
   8  -5   1   51.18   16.21   1
   3  -8  -1   49.13   15.93   1
   2  -8  -1   14.51   15.81   1
  -6  -2   1   14.74   16.34   1
   8  -6   1   34.26   15.62   1
   1  -8  -1    8.42   15.73   1
   8  -7   1   18.81   17.01   1
   7   1  -1   24.28   16.70   1
   0  -8  -1   17.38   20.78   1
   8   0  -1   43.31   20.03   1
   8  -8   1   26.92   19.68   1
   9  -1  -1   66.95   23.77   1
  -1  -8  -1   59.20   30.48   1
   8  -9   1   62.09   26.76   1
   8  -9  -1   57.68   24.93   1
   9  -1   1   42.07   34.10   1
  -1  -8   1   74.68   40.91   1
   7  -9  -1   65.80   22.96   1
   9  -2   1   40.76   19.75   1
  -2  -7   1   64.70   22.37   1
   6  -9  -1    3.32   20.46   1
  -3  -6   1    0.24   19.11   1
   9  -3   1    5.05   18.26   1
  -4  -5   1    7.96   18.27   1
   9  -4   1   16.40   18.23   1
   5  -9  -1   23.96   17.83   1
  -5  -4   1   23.80   19.28   1
   9  -5   1   29.66   17.87   1
   9  -6   1    7.01   17.62   1
  -6  -3   1    2.75   19.35   1
   3  -9  -1    8.78   19.04   1
   2  -9  -1   52.25   28.18   1
   9  -7   1   46.43   21.67   1
   7   2  -1   39.73   19.32   1
   1  -9  -1   36.59   28.16   1
   9  -8   1   90.42   24.38   1
   8   1  -1   49.16   44.32   1
   1   0   2 1125.28   66.09   1
   0  -1   2 1184.98   57.01   5
   1   0   2 1261.76   57.79   4
   0   1  -2 1369.38   57.34   5
   1  -1  -2 1367.76   56.03   2
  -1   1   2 1223.41   61.82   3
   0  -1   2 1223.29   66.41   1
   1  -1  -2 1318.56   66.10   1
  -1   0  -2 1326.49   66.37   1
   0   1  -2 1287.07   66.29   1
  -1   1   2 1193.53   55.84   2
   1  -1  -2 1323.59   61.90   3
  -1   1   2 1204.90   65.97   1
  -1   1  -2 1316.48   60.85   3
   1   0  -2 1379.33   57.43   4
  -1   0   2 1183.32   65.32   1
  -1   1  -2 1363.27   54.82   2
   0   1   2 1190.48   65.19   1
  -1   0   2 1200.99   56.55   5
  -1   0   2 1124.17   57.11   4
  -1   1  -2 1258.89   65.41   1
   1   0  -2 1246.67   65.18   1
   1  -1   2 1132.91   60.65   3
   1  -1   2 1237.45   65.64   1
   0  -1  -2 1307.75   65.30   1
   1   1   2  886.15   47.77   1
   2  -1  -2  857.88   47.54   1
   2  -1  -2  895.26   47.86   1
   1  -2   2  935.14   48.40   1
  -1  -1  -2  883.41   47.95   1
  -1   2  -2  855.90   47.80   1
  -1  -1  -2  898.60   40.67   4
   1  -3   2  345.50   24.20   1
   3  -2  -2  412.67   18.78   2
  -3   2   2  355.07   20.75   3
  -2  -1  -2  405.89   24.23   1
  -1   3  -2  426.22   20.16   5
   3  -2  -2  420.50   24.16   1
  -2   2   2  730.82   34.07   3
   2  -2  -2  654.24   30.94   2
  -2   2   2  722.32   37.69   1
   0  -2   2  731.54   32.11   5
   2  -2  -2  621.60   37.58   1
  -2   2   2  736.88   31.00   2
  -2   0  -2  604.30   37.69   1
   0   2  -2  611.90   31.97   5
   2   0   2  707.33   37.74   1
   0   2  -2  626.45   37.57   1
   0  -2   2  765.32   38.60   1
   2  -1   2  902.81   49.18   1
  -1  -1   2  930.50   42.34   4
  -1  -1   2  953.66   42.32   5
  -1   2   2  931.84   49.01   1
  -2   1  -2  880.80   49.11   1
  -1  -1   2  938.88   49.44   1
   1   1  -2  852.63   48.94   1
   1  -2  -2  908.31   49.05   1
   2  -1   2  912.47   49.42   1
  -2   2  -2  618.99   37.75   1
  -2   2  -2  692.04   33.74   3
   2  -2   2  741.50   38.63   1
   0   2   2  746.23   38.10   1
   0  -2  -2  632.57   37.71   1
   2   0  -2  647.27   32.42   4
  -2   0   2  730.33   38.26   1
  -1  -2  -2  394.17   17.27   5
   3  -1  -2  410.44   23.10   1
   2  -3   2  344.00   23.02   1
  -1  -2  -2  392.79   22.89   1
   2  -3   2  317.23   18.60   3
   4  -2  -2 1637.79   72.39   2
  -2  -2  -2 1592.22   88.18   1
   2  -4   2 1579.92   88.52   1
   4  -2  -2 1612.85   88.21   1
  -2  -2  -2 1653.83   73.42   5
  -3  -2  -2  288.46   21.15   1
   2  -5   2  228.95   20.09   1
  -5   3   2  225.51   15.60   3
   5  -3  -2  303.50   20.91   1
  -2   5  -2  287.31   16.07   5
   5  -3  -2  290.82   13.74   2
   1  -4   2  273.63   22.06   1
  -1   4  -2  344.59   17.85   5
   4  -3  -2  355.55   15.94   2
   4  -3  -2  338.82   22.53   1
  -3  -1  -2  343.12   22.47   1
   0  -3   2  789.40   45.37   1
   0   3  -2  817.76   37.72   5
  -3   0  -2  794.07   45.42   1
   3  -3  -2  773.03   44.91   1
  -1  -2   2  361.29   22.50   1
  -1  -2   2  320.69   17.58   4
  -2   3   2  337.52   17.26   2
   3  -1   2  339.17   22.30   1
   2  -3  -2  407.51   18.72   3
   2  -3  -2  407.56   22.28   1
  -1  -2   2  311.12   17.79   5
   1  -3  -2  379.01   21.32   1
  -2  -1   2  343.59   21.61   1
   3  -2   2  310.52   21.24   1
  -2  -1   2  331.31   17.87   5
   3   0  -2  823.70   38.25   4
  -3   0   2  809.38   45.96   1
   3  -3   2  835.21   46.45   1
   0  -3  -2  764.33   45.65   1
   4  -1  -2  337.78   22.07   1
  -1  -3  -2  347.40   22.13   1
   3  -4   2  283.69   21.74   1
  -2  -3  -2  311.74   14.66   5
   5  -2  -2  289.09   21.37   1
  -2  -3  -2  298.50   21.53   1
   3  -5   2  227.89   20.77   1
   6  -3  -2  362.52   18.88   2
  -3   6  -2  392.96   22.17   5
  -3  -3  -2  374.65   28.13   1
   6  -3  -2  352.14   27.60   1
   3  -6   2  404.44   28.99   1
  -4  -3  -2   81.77   14.77   1
   3  -7   2   45.70   13.07   1
  -3   7  -2   78.46    9.80   5
   7  -4  -2   64.68   13.78   1
   6  -4  -2    2.82    8.54   1
   2  -6   2   13.73    9.11   1
  -2   6  -2    4.88    5.39   5
  -4  -2  -2    4.65    8.71   1
   5  -4  -2  488.75   31.61   1
  -1   5  -2  494.95   24.65   5
   1  -5   2  452.29   31.67   1
  -4  -1  -2  468.36   31.56   1
   4  -4  -2   32.61    6.94   1
   0   4  -2   28.14    4.18   5
  -4   0  -2   13.71    5.96   1
  -3   4   2  291.75   14.79   2
   3  -4  -2  343.54   20.90   1
  -1  -3   2  280.05   20.75   1
   4  -1   2  281.71   20.85   1
  -1  -3   2  281.25   15.75   5
  -2  -2   2 1627.97   89.07   1
   2  -4  -2 1607.94   88.42   1
   4  -2   2 1582.21   88.91   1
  -2  -2   2 1681.73   74.54   4
   4  -3   2  308.76   21.94   1
  -3  -1   2  290.66   21.55   1
   1  -4  -2  338.90   21.52   1
   4  -4   2   47.45    8.38   1
   0  -4  -2   18.54    6.83   1
   4   0  -2   29.17    3.51   4
  -4   0   2   45.51    8.31   1
   5  -1  -2  501.81   33.07   1
  -1  -4  -2  487.78   32.97   1
   4  -5   2  558.33   34.15   1
   5  -1  -2  490.81   26.09   4
  -2  -4  -2   10.10    9.48   1
   4  -6   2   28.88    9.98   1
   6  -2  -2   17.17    9.98   1
   7  -3  -2   89.46   14.92   1
  -4   7  -2   81.65   10.95   5
  -3  -4  -2   73.22   15.20   1
  -4  -4  -2  347.79   30.51   1
   8  -4  -2  289.15   29.13   1
   4  -8   2  346.20   31.07   1
  -5  -4  -2   85.70   20.40   1
   4  -9   2   32.65   18.14   1
   9  -5  -2   54.22   19.47   1
  -5  -3  -2  111.69   19.01   1
   8  -5  -2   97.43   18.86   1
   2  -7   2  233.92   23.50   1
  -5  -2  -2  238.69   24.14   1
   7  -5  -2  283.60   24.26   1
   6  -5  -2  117.29   15.22   1
  -1   6  -2  129.38    9.36   5
  -5  -1  -2  134.15   16.03   1
   1  -6   2   83.79   15.15   1
   0  -5   2   56.07   11.35   1
   5   0   2   77.60   11.63   1
   4  -5  -2  494.33   32.55   1
   5  -1   2  480.72   33.28   1
  -1  -4   2  516.55   33.17   1
  -2  -3   2  229.83   19.15   1
  -3   5   2  217.12   13.53   2
   3  -5  -2  282.83   19.14   1
   5  -2   2  246.49   19.47   1
  -2  -3   2  206.97   11.85   4
  -3  -2   2  233.10   19.76   1
  -2   5   2  240.44   13.28   5
   5  -3   2  235.88   19.86   1
   2  -5  -2  304.03   20.50   1
   5  -4   2  466.84   31.74   1
   1  -5  -2  473.85   31.14   1
  -4  -1   2  485.63   31.91   1
   5  -5   2   74.02   12.14   1
  -5   0   2   67.58   11.78   1
   6  -1  -2  143.57    9.47   4
  -1  -5  -2  121.09   15.87   1
   6  -1  -2  118.98   16.00   1
   7  -2  -2  238.51   24.85   1
   5  -7   2  288.17   25.73   1
  -2  -5  -2  269.40   25.38   1
   7  -2  -2  291.67   17.98   4
  -3  -5  -2   79.34   17.35   1
   5  -8   2   42.97   16.70   1
   8  -3  -2   93.97   17.40   1
  -5   8  -2   72.48   12.43   5
  -4  -5  -2   66.25   21.13   1
   9  -4  -2   40.00   19.49   1
   5  -9   2   32.03   19.86   1
   3  -9   2  123.46   24.51   1
   9  -6  -2  152.52   23.86   1
  -6  -3  -2  120.29   24.25   1
   2  -8   2   -1.03   16.33   1
   8  -6  -2   13.01   14.18   1
  -6  -2  -2   -4.18   15.92   1
   7  -6  -2  118.14   17.45   1
   1  -7   2   74.40   15.87   1
   6   1   2   88.33   17.35   1
   0  -6   2  423.74   34.03   1
   6   0   2  499.67   34.80   1
   6  -6  -2  462.98   33.36   1
  -1  -5   2   98.69   14.58   1
   6  -1   2   89.09   13.88   1
   6  -2   2    7.67   10.11   1
  -2  -4   2   37.46   11.27   1
   4  -6  -2    8.67    8.94   1
   3  -6  -2  384.84   27.76   1
  -3  -3   2  386.53   28.80   1
   6  -3   2  381.25   28.61   1
   3  -6  -2  387.66   21.15   3
  -4  -2   2    4.99    9.18   1
   6  -4   2   10.74    9.71   1
   2  -6  -2   16.44    9.50   1
   6  -5   2   81.64   13.63   1
   1  -6  -2  114.89   14.78   1
  -5  -1   2   95.95   14.15   1
   6  -6   2  487.43   34.44   1
   0  -6  -2  433.44   33.57   1
   6   0  -2  462.26   33.64   1
   7  -1  -2  115.98   18.15   1
   6  -7   2   84.54   17.05   1
  -1  -6  -2  134.95   18.50   1
   6  -8   2    5.52   14.54   1
  -2  -6  -2   -1.83   14.84   1
   8  -2  -2   13.47   14.77   1
   6  -9   2   94.59   24.06   1
  -3  -6  -2  118.23   23.93   1
   9  -3  -2  113.10   23.21   1
   9  -7  -2   31.90   20.69   1
   2  -9   2    1.66   21.71   1
   7   2   2    2.66   20.21   1
   8  -7  -2  144.70   22.54   1
   7   1   2  158.08   23.69   1
   1  -8   2  128.96   23.37   1
   7   0   2   71.11   17.51   1
   7  -7  -2   98.47   18.24   1
   0  -7   2   54.20   17.00   1
  -1  -6   2   92.21   17.12   1
   6  -7  -2  107.11   16.57   1
   7  -1   2   76.18   16.07   1
   7  -2   2  249.46   24.63   1
   5  -7  -2  273.22   24.48   1
  -2  -5   2  293.89   26.01   1
   7  -3   2   36.29   13.15   1
  -3  -4   2   54.41   14.70   1
   4  -7  -2   67.64   13.35   1
   3  -7  -2   82.67   14.71   1
   7  -4   2   44.73   14.81   1
  -4  -3   2   64.46   15.13   1
  -5  -2   2  245.43   23.66   1
   7  -5   2  265.06   24.07   1
   2  -7  -2  203.66   22.53   1
   1  -7  -2   94.76   17.18   1
  -6  -1   2  119.01   19.71   1
   7  -6   2   76.04   16.98   1
   6   1  -2  116.55   18.07   1
   7  -7   2   66.03   17.47   1
   7   0  -2   94.35   17.79   1
   0  -7  -2   56.27   16.51   1
   8  -1  -2  173.85   23.77   1
  -1  -7  -2  138.95   22.06   1
   7  -8   2  143.92   22.65   1
   9  -2  -2    3.25   19.98   1
   7  -9   2    6.36   20.26   1
  -2  -7  -2    5.28   20.46   1
   0  -8   2  -10.84   19.67   1
   8   0   2   17.55   19.66   1
   8  -8  -2    8.76   18.00   1
  -1  -7   2  110.73   22.05   1
   8  -1   2  118.51   21.95   1
   7  -8  -2  122.10   20.01   1
   6  -8  -2    9.52   13.89   1
   8  -2   2   26.55   16.86   1
  -2  -6   2   19.11   16.92   1
   8  -3   2   52.00   17.18   1
  -3  -5   2   41.45   17.51   1
   4  -8  -2  325.18   29.14   1
   8  -4   2  347.46   30.93   1
  -4  -4   2  314.94   30.88   1
  -5  -3   2   47.76   17.28   1
   8  -5   2   63.01   16.88   1
   3  -8  -2   96.23   17.55   1
   8  -6   2   15.63   16.04   1
   2  -8  -2    5.24   15.42   1
  -6  -2   2    5.98   15.59   1
   1  -8  -2  142.98   21.95   1
   8  -7   2  156.73   23.00   1
   7   1  -2  114.64   21.37   1
   0  -8  -2   22.51   20.26   1
   8   0  -2   16.61   18.83   1
   8  -8   2  -11.66   17.92   1
   9  -2   2   26.33   19.55   1
  -2  -7   2    9.46   21.75   1
   7  -9  -2   -7.07   19.93   1
   9  -3   2  105.61   23.90   1
  -3  -6   2  134.42   24.99   1
   6  -9  -2  165.71   25.01   1
   5  -9  -2   43.47   20.05   1
  -4  -5   2   57.06   20.62   1
   9  -4   2   37.42   18.24   1
  -5  -4   2   25.88   19.54   1
   4  -9  -2   68.50   19.74   1
   9  -5   2    9.79   18.18   1
   9  -6   2  127.91   23.74   1
  -6  -3   2  143.22   25.81   1
   3  -9  -2  123.11   24.74   1
   2  -9  -2   47.13   21.87   1
   7   2  -2   36.68   20.68   1
   9  -7   2   36.51   21.80   1
   0   0  -3   -2.71    1.84   5
   0   0   3   -3.91    1.39   2
   0   0   3   -3.53    1.18   4
   0   0   3   -4.69    1.31   3
   0   0  -3   -5.37    1.86   4
   0  -1   3 5999.89  260.62   5
   0   1  -3 5335.44  302.36   1
   1   0   3 6217.06  265.33   4
  -1   1   3 6000.87  302.18   1
   0   1  -3 5805.36  260.71   5
   1  -1  -3 5714.76  255.83   2
  -1   1   3 6041.67  283.43   3
   1   0   3 5947.55  302.53   1
   1   0   3 5737.70  255.78   2
  -1   1   3 6109.80  255.87   2
   1  -1  -3 5535.94  283.35   3
   0  -1   3 6284.35  302.89   1
   1  -1  -3 5803.69  302.22   1
  -1   0  -3 5513.66  302.46   1
  -1   0   3 5981.16  263.74   4
   1  -1   3 6085.87  300.81   1
  -1   1  -3 5626.04  300.50   1
   0  -1  -3 5862.50  263.74   4
   1  -1   3 5955.51  253.63   2
  -1   0   3 6111.50  300.48   1
   0  -1  -3 5805.93  300.25   1
   0   1   3 5846.30  254.31   2
   0  -1  -3 5787.68  257.74   5
   1   0  -3 5631.61  263.73   4
  -1   1  -3 5672.54  253.65   2
   0   1   3 6241.63  300.32   1
   1   0  -3 5377.80  300.12   1
  -1   1  -3 5596.60  281.20   3
   1  -1   3 5719.70  281.12   3
   2  -1  -3   -4.23    2.24   1
   2  -1  -3    0.69    1.91   1
   2  -1  -3    1.31    2.30   2
  -1  -1  -3   -1.57    1.31   4
  -1   2  -3   -5.69    2.90   1
   1   1   3    0.62    2.29   1
   1  -2   3   -5.19    3.08   1
  -2   1   3   -3.79    2.45   3
   1  -2   3    0.44    1.92   3
  -1  -1  -3    0.95    2.26   1
   3  -2  -3 3039.09  134.89   2
  -1   3  -3 2986.02  138.17   5
  -2  -1  -3 3028.33  161.20   1
   3  -2  -3 2983.90  160.79   1
   1  -3   3 3268.55  162.01   1
  -3   2   3 3305.86  149.59   3
   3  -2  -3 2816.35  160.12   1
  -2   2   3 3999.61  199.01   3
   0  -2   3 3918.99  183.43   5
  -2   0  -3 4222.46  214.04   1
   0  -2   3 4140.97  214.21   1
   2  -2  -3 3963.28  213.33   1
   2   0   3 3856.24  213.39   1
   2   0   3 4146.69  186.25   4
  -2   2   3 4180.53  213.39   1
  -2   2   3 4191.21  179.89   2
   0   2  -3 4263.02  183.89   5
   0   2  -3 3917.74  213.50   1
   2  -2  -3 4398.28  199.32   3
   2  -2  -3 4177.20  180.00   2
   2  -1   3   -2.22    2.57   1
   1  -2  -3   -3.43    1.92   3
   2  -1   3    2.38    1.35   2
   2  -1   3   -3.21    2.66   1
   1   1  -3   -0.98    2.00   1
   1   1  -3   -0.74    2.43   5
  -1  -1   3   -2.49    2.33   5
  -1   2   3    1.45    2.15   2
   1  -2  -3   -3.45    2.02   1
  -1  -1   3    1.88    2.57   1
  -1   2   3   -3.70    2.27   1
  -1  -1   3   -2.53    1.78   4
  -2   1  -3    2.15    2.77   1
   2   0  -3 3957.19  213.45   1
  -2   0   3 4066.52  213.89   1
   0  -2  -3 4074.04  213.76   1
  -2   2  -3 4360.18  198.87   3
  -2   2  -3 3949.55  213.78   1
  -2   2  -3 4291.57  179.18   2
   2  -2   3 4172.66  214.36   1
   0   2   3 3955.29  213.57   1
   2   0  -3 4150.76  187.01   4
   3  -1  -3 2934.43  160.48   1
  -1  -2  -3 2985.73  160.61   1
   2  -3   3 3233.19  161.51   1
  -1  -2  -3 3061.30  139.05   4
   2  -3   3 3059.88  148.13   3
   2  -4   3    4.28    3.34   3
  -2  -2  -3    3.83    4.85   1
   2  -4   3    5.84    5.66   1
   4  -2  -3    2.94    2.57   2
  -2   4  -3    3.99    4.03   5
   4  -2  -3    9.18    5.21   1
   2  -5   3 1573.00   84.91   1
   5  -3  -3 1459.48   83.59   1
   5  -3  -3 1467.42   67.52   2
  -3  -2  -3 1481.59   84.33   1
  -5   3   3 1601.65   75.60   3
  -2   5  -3 1432.39   70.62   5
   4  -3  -3 2099.57   92.77   2
   4  -3  -3 2050.44  112.73   1
  -3  -1  -3 1936.30  112.70   1
  -1   4  -3 2027.49   95.86   5
   1  -4   3 2221.06  113.80   1
  -4   3   3 2214.64  102.83   3
   3   0   3   35.49    3.34   4
   0  -3   3   45.30    6.87   1
  -3   0  -3   39.14    6.39   1
   0   3  -3   40.40    4.81   5
  -1  -2   3 3153.27  142.66   4
   2  -3  -3 3074.80  152.05   3
   3  -1   3 3155.05  164.53   1
  -2   3   3 3262.80  137.73   2
  -2   3   3 2986.81  163.38   1
   2  -3  -3 2988.85  163.63   1
  -1  -2   3 3149.31  140.55   5
   1   2  -3 3057.19  140.82   5
  -1  -2   3 3257.58  164.78   1
   3  -2   3 3113.66  134.84   2
  -2  -1   3 3129.55  139.68   5
   1  -3  -3 3001.47  162.26   1
  -2  -1   3 3221.42  162.96   1
  -3   2  -3 3006.68  150.25   3
  -2  -1   3 3107.88  140.80   4
  -1   3   3 3036.30  161.89   1
   3  -2   3 3097.38  162.85   1
  -3   0   3   43.32    6.29   1
   3  -3   3   35.33    6.72   1
   0  -3  -3   37.47    6.12   1
   3   0  -3   37.29    3.87   4
   3  -4   3 2214.78  111.77   1
   4  -1  -3 2005.83  110.42   1
  -1  -3  -3 1985.89  110.34   1
   4  -1  -3 2060.36   95.54   4
  -1  -3  -3 1978.47   94.07   4
   3  -5   3 1642.66   86.23   1
   5  -2  -3 1486.26   84.93   1
  -2  -3  -3 1441.32   84.82   1
   6  -3  -3    0.03    3.68   2
   3  -6   3   -8.35    8.84   1
  -3  -3  -3    8.52    9.32   1
   6  -3  -3   -3.47    7.92   1
  -3   6  -3    1.13    6.19   5
   3  -7   3  683.14   44.17   1
   7  -4  -3  574.53   42.02   1
  -4  -3  -3  630.34   42.74   1
  -3   7  -3  591.03   33.15   5
   2  -6   3  968.15   57.54   1
  -2   6  -3  907.64   45.59   5
   6  -4  -3  914.19   55.79   1
  -4  -2  -3  913.17   56.35   1
  -4  -1  -3    5.48    6.87   1
   1  -5   3   10.75    7.72   1
  -1   5  -3    7.76    4.22   5
   5  -4  -3    4.67    6.58   1
   0   4  -3 1723.76   80.49   5
   4  -4  -3 1732.16   95.25   1
   0  -4   3 1798.64   96.58   1
  -4   0  -3 1717.44   95.99   1
  -3   4   3 2223.27   95.40   2
   4  -1   3 2249.54  116.61   1
  -1  -3   3 2080.85   99.03   4
   3  -4  -3 2081.08  104.65   3
  -1  -3   3 2271.07  116.56   1
   3  -4  -3 1960.04  114.81   1
   2  -4  -3   -2.25    4.59   1
   4  -2   3   -0.22    2.07   2
   2  -4  -3    0.21    3.21   3
  -2  -2   3   -1.45    4.83   1
  -2  -2   3   -0.70    2.36   4
   4  -2   3  -10.03    5.90   1
  -3  -1   3 2272.20  114.34   1
   1  -4  -3 1999.90  112.87   1
  -4   3  -3 2017.17  102.18   3
   4  -3   3 2125.89  113.98   1
   4  -4   3 1776.90   97.55   1
   0  -4  -3 1723.58   96.74   1
   4   0  -3 1782.79   82.06   4
  -4   0   3 1785.51   97.34   1
   4  -5   3    5.36    7.15   1
  -1  -4  -3    8.31    3.33   4
   5  -1  -3   11.75    4.35   4
  -1  -4  -3    8.21    7.10   1
   6  -2  -3  963.47   48.01   4
   4  -6   3  921.04   58.07   1
  -2  -4  -3  917.51   57.65   1
   6  -2  -3 1013.72   58.19   1
   4  -7   3  662.35   44.08   1
   7  -3  -3  602.67   34.37   4
  -4   7  -3  598.00   34.19   5
   7  -3  -3  591.46   41.85   1
  -3  -4  -3  614.57   42.38   1
   8  -4  -3    3.07   13.59   1
   8  -4  -3    3.08   11.39   4
  -4  -4  -3    9.13   14.77   1
   4  -8   3  -10.20   15.77   1
   9  -5  -3  245.14   26.54   4
  -5  -4  -3  284.34   29.36   1
   9  -5  -3  234.79   26.77   1
   4  -9   3  272.90   29.43   1
   3  -8   3  352.54   32.19   1
   8  -5  -3  394.04   32.06   1
  -5  -3  -3  386.52   32.05   1
   2  -7   3   25.64   12.98   1
  -2   7  -3    7.97    7.74   5
  -5  -2  -3   39.70   13.46   1
   7  -5  -3   14.36   11.43   1
  -1   6  -3  809.69   39.84   5
   6  -5  -3  792.80   50.30   1
   1  -6   3  862.38   52.28   1
  -5  -1  -3  762.33   50.57   1
   5   0   3 1074.36   64.03   1
   0  -5   3 1130.39   64.93   1
   5  -5  -3 1041.43   63.26   1
  -1  -4   3   -0.68    6.89   1
   5  -1   3    9.90    6.97   1
   4  -5  -3    7.29    7.12   1
  -2  -3   3 1550.98   71.98   4
   5  -2   3 1586.29   87.47   1
  -2  -3   3 1701.46   87.97   1
   3  -5  -3 1457.25   85.84   1
   3  -5  -3 1482.66   76.73   3
  -2   5   3 1665.87   71.66   5
  -3  -2   3 1650.73   89.00   1
  -5   3  -3 1466.77   78.25   3
   5  -3   3 1634.40   89.07   1
   2  -5  -3 1494.11   87.49   1
  -4  -1   3   17.53    7.27   1
   5  -4   3    5.16    6.88   1
   1  -5  -3   19.56    7.49   1
   5   0  -3 1052.29   49.25   4
   5  -5   3 1012.82   62.36   1
  -5   0   3 1121.85   62.91   1
   0  -5  -3 1004.13   61.52   1
   6  -1  -3  799.11   51.08   1
   5  -6   3  888.07   52.42   1
   6  -1  -3  804.43   39.99   4
  -1  -5  -3  792.64   39.28   4
  -1  -5  -3  793.31   50.91   1
  -2  -5  -3   19.85   12.41   1
   5  -7   3   10.11   12.40   1
   7  -2  -3   17.30    7.53   4
   7  -2  -3   12.14    7.53   2
   7  -2  -3    8.64   11.71   1
   8  -3  -3  400.81   33.16   1
   5  -8   3  435.25   34.24   1
  -5   8  -3  388.73   26.75   5
  -3  -5  -3  393.64   34.29   1
   5  -9   3  303.29   31.04   1
  -4  -5  -3  266.24   30.37   1
   9  -4  -3  257.95   29.16   1
  -6  -3  -3   -1.38   19.76   1
   3  -9   3   34.04   21.38   1
   9  -6  -3   24.71   18.99   1
  -6  -2  -3  415.48   35.54   1
   2  -8   3  388.18   35.13   1
   8  -6  -3  385.44   33.40   1
   6   2   3  376.69   34.64   1
   7  -6  -3  496.19   38.43   1
   6   1   3  542.22   39.57   1
   1  -7   3  549.61   40.26   1
   6  -6  -3   11.41   10.32   1
   6   0   3   -1.74   10.71   1
   0  -6   3    6.52   11.86   1
  -1  -5   3  829.02   52.79   1
   6  -1   3  879.96   53.46   1
   5  -6  -3  801.24   51.60   1
   4  -6  -3  933.16   57.05   1
   6  -2   3  982.97   58.83   1
  -2  -4   3  941.43   58.54   1
  -3  -3   3   -1.47    9.32   1
   6  -3   3  -10.44    9.78   1
   3  -6  -3   -6.05    8.62   1
   3  -6  -3   -4.67    4.50   3
   6  -4   3  931.07   57.20   1
   2  -6  -3  881.01   55.83   1
  -4  -2   3  988.20   57.69   1
  -5  -1   3  899.57   54.63   1
   1  -6  -3  796.16   52.95   1
   6  -5   3  893.64   54.58   1
   6  -6   3   12.94   11.78   1
   0  -6  -3   -6.37   10.91   1
   6   0  -3    7.06   10.95   1
   6  -7   3  561.32   39.74   1
  -1  -6  -3  497.79   37.87   1
   7  -1  -3  499.69   38.08   1
  -2  -6  -3  367.55   32.84   1
   8  -2  -3  375.57   31.95   1
  -6   8  -3  326.55   25.75   5
   6  -8   3  358.63   32.85   1
   6  -9   3  -19.86   20.20   1
  -3  -6  -3   19.26   20.88   1
   9  -3  -3   -4.50   18.20   1
   2  -9   3  204.91   29.68   1
   9  -7  -3  163.08   26.14   1
   7   2   3  200.82   28.50   1
   1  -8   3   31.83   17.98   1
   7   1   3   14.60   17.51   1
   7   0   3  458.91   36.50   1
   7  -7  -3  410.13   34.88   1
   0  -7   3  478.46   37.13   1
   6  -7  -3  502.13   38.54   1
   7  -1   3  556.60   40.10   1
  -1  -6   3  570.45   41.25   1
  -2  -5   3   28.41   14.30   1
   5  -7  -3   11.43   11.11   1
   7  -2   3   11.08   13.20   1
  -3  -4   3  680.65   44.87   1
   4  -7  -3  571.70   41.85   1
   7  -3   3  647.57   43.56   1
   7  -4   3  654.51   43.54   1
  -4  -3   3  633.19   43.49   1
   3  -7  -3  570.67   41.50   1
   2  -7  -3   11.61   11.96   1
  -5  -2   3   27.13   12.57   1
   7  -5   3   35.19   12.83   1
   6   1  -3  484.46   39.38   1
   1  -7  -3  520.70   39.42   1
   7  -6   3  606.52   41.78   1
  -6  -1   3  601.02   42.01   1
   0  -7  -3  413.98   34.07   1
   7   0  -3  393.65   34.11   1
   7  -7   3  451.80   35.66   1
   7  -8   3   -1.85   16.50   1
  -1  -7  -3    0.19   15.67   1
   8  -1  -3  -12.77   16.43   1
   7  -9   3  204.95   28.87   1
   9  -2  -3  156.16   26.17   1
  -2  -7  -3  172.33   26.24   1
   8   0   3  238.92   27.96   1
   8  -8  -3  240.25   28.44   1
   0  -8   3  170.15   28.07   1
   7  -8  -3   -4.97   17.60   1
   8  -1   3   -3.59   16.91   1
  -1  -7   3  -13.46   18.39   1
   6  -8  -3  393.61   33.13   1
  -2  -6   3  375.23   34.91   1
   8  -2   3  404.93   35.09   1
   8  -3   3  436.44   35.74   1
  -3  -5   3  463.56   37.18   1
   5  -8  -3  424.43   35.02   1
  -4  -4   3   -7.23   14.78   1
   4  -8  -3    7.85   14.20   1
   8  -4   3    4.47   15.33   1
   3  -8  -3  378.84   33.15   1
  -5  -3   3  427.65   35.86   1
   8  -5   3  454.24   35.56   1
   2  -8  -3  355.84   31.76   1
  -6  -2   3  377.40   33.58   1
   8  -6   3  352.44   32.75   1
   7   1  -3  -18.71   16.63   1
   1  -8  -3   -8.71   16.17   1
   8  -7   3   15.94   17.38   1
   8  -8   3  233.11   28.52   1
   8   0  -3  190.27   26.17   1
   0  -8  -3  231.66   27.03   1
  -2  -7   3  212.62   31.19   1
   9  -2   3  219.41   28.80   1
   7  -9  -3  228.09   29.51   1
   6  -9  -3   19.70   19.22   1
  -3  -6   3  -36.66   22.13   1
   9  -3   3    0.57   20.44   1
  -4  -5   3  263.73   31.03   1
   5  -9  -3  264.21   28.50   1
   9  -4   3  271.00   30.12   1
   4  -9  -3  267.36   29.19   1
   9  -5   3  310.43   31.21   1
  -5  -4   3  243.34   30.47   1
   9  -6   3  -18.84   18.90   1
   3  -9  -3   24.50   19.69   1
  -6  -3   3   21.03   20.60   1
   7   2  -3  191.38   26.75   1
   9  -7   3  211.71   28.63   1
   2  -9  -3  185.92   27.83   1
   0   0   4   49.77    4.13   4
   0   0   4   50.40    4.02   5
   0   0   4   59.61    4.22   2
   0   0   4   52.56    4.64   3
   0  -1   4 1530.39   72.28   5
   1  -1  -4 1739.51   71.26   2
   1   0   4 1656.79   71.03   2
   1  -1  -4 1669.00   78.75   3
   1   0   4 1517.23   83.04   1
  -1   1   4 1595.06   72.03   5
   0   1  -4 1700.88   72.72   5
   0   1  -4 1611.94   83.13   1
   0  -1   4 1636.24   83.49   1
   0  -1   4 1567.30   78.75   3
   1  -1  -4 1665.87   74.13   4
   1   0   4 1521.39   83.13   1
   0  -1   4 1417.48   73.39   4
   1  -1  -4 1705.24   82.68   1
  -1   1   4 1554.40   70.89   2
  -1   1   4 1477.47   82.50   1
   1   0   4 1565.62   73.31   4
  -1   1   4 1439.28   78.30   3
  -1   0   4 1555.61   73.46   5
  -1   1  -4 1699.73   79.65   3
   1   0  -4 1587.28   84.05   1
   1  -1   4 1555.69   84.65   1
   0  -1  -4 1734.68   72.46   5
  -1   1  -4 1678.71   71.73   2
   1  -1   4 1505.48   79.29   3
  -1   0   4 1553.52   74.63   4
   0   1   4 1449.07   72.20   5
   1  -1   4 1505.34   71.45   2
   1   0  -4 1750.24   74.98   4
   0  -1  -4 1692.71   84.03   1
  -1   0   4 1562.27   84.21   1
   0  -1  -4 1695.78   74.77   4
   0   1   4 1440.91   83.83   1
  -1   0   4 1662.48   80.24   3
   0   1   4 1544.37   72.11   2
   1   0  -4 1741.53   73.75   5
  -1   1  -4 1641.27   84.50   1
   0  -1  -4 1674.47   80.17   3
  -1  -1  -4 2484.92  112.21   4
   2  -1  -4 2341.10  127.91   1
  -1   2  -4 2502.65  111.35   5
   2  -1  -4 2511.56  113.55   4
   1   1   4 2415.16  128.28   1
  -1  -1  -4 2462.66  128.49   1
   1  -2   4 2475.49  120.09   3
   2  -1  -4 2444.55  128.23   1
   1  -2   4 2518.83  129.10   1
   2  -1  -4 2420.68  108.88   2
  -1   2  -4 2289.14  128.38   1
  -2   1   4 2590.04  120.80   3
  -1   3  -4  669.92   32.49   5
   3  -2  -4  695.40   31.10   2
   3  -2  -4  659.37   36.73   1
   1  -3   4  602.59   37.90   1
   3  -2  -4  669.12   37.17   1
  -3   2   4  596.28   34.16   3
  -2  -1  -4  696.00   37.79   1
   0  -2   4  466.93   26.08   1
  -2   0  -4  417.39   25.42   1
   0   2  -4  432.19   22.35   5
  -2   2   4  465.42   21.43   2
   2  -2  -4  429.56   21.49   2
   2   0   4  446.72   25.36   1
   2   0   4  484.49   21.75   4
  -2   2   4  441.13   23.39   3
   2  -2  -4  419.13   24.88   1
   0  -2   4  434.43   22.06   5
   2  -2  -4  433.10   23.49   3
  -2   2   4  448.03   24.92   1
   0   2  -4  389.97   25.13   1
  -2   1  -4 2351.53  128.06   1
   2  -1   4 2429.58  128.23   1
   1   1  -4 2322.42  127.83   1
  -1   2   4 2582.03  109.55   5
   1  -2  -4 2447.66  120.21   3
   1   1  -4 2492.27  111.06   5
  -1   2   4 2416.21  127.57   1
  -1  -1   4 2502.15  128.38   1
   1  -2  -4 2372.84  127.62   1
  -1  -1   4 2421.38  112.28   4
   2  -1   4 2440.28  107.83   2
  -1   2   4 2392.12  108.48   2
   2  -1   4 2493.57  128.58   1
  -1  -1   4 2594.96  110.90   5
   2  -2   4  443.12   25.90   1
   2   0  -4  386.76   24.66   1
  -2   0   4  458.40   25.47   1
   0   2   4  453.65   25.03   1
  -2   2  -4  430.57   20.40   2
  -2   2  -4  398.04   25.16   1
   2   0  -4  453.64   22.28   4
  -2   0   4  461.88   22.80   5
   0  -2  -4  446.08   25.16   1
  -2   2  -4  440.93   22.94   3
   2  -3   4  568.74   38.20   1
   3  -1  -4  703.41   38.16   1
  -1  -2  -4  683.11   38.11   1
  -1  -2  -4  713.95   32.03   4
  -2   3  -4  708.69   30.85   2
   2  -3   4  578.27   33.71   3
   3  -1  -4  721.28   33.61   4
   4  -2  -4   38.71    6.52   1
  -2   4  -4   35.58    5.78   5
  -2  -2  -4   44.47    6.84   1
   4  -2  -4   37.30    4.69   2
   2  -5   4  382.30   28.61   1
  -2   5  -4  445.07   23.63   5
  -3  -2  -4  400.82   28.16   1
   5  -3  -4  437.06   28.29   1
   5  -3  -4  425.97   21.19   2
  -3  -1  -4  550.57   32.95   1
  -4   3   4  453.62   28.17   3
   1  -4   4  502.88   33.35   1
   4  -3  -4  561.26   25.83   2
   4  -3  -4  573.85   32.76   1
  -1   4  -4  573.33   27.95   5
   0   3  -4 1227.59   60.04   5
  -3   3   4 1257.76   57.86   2
   3  -3  -4 1264.14   69.74   1
  -3   0  -4 1243.33   70.42   1
   3   0   4 1356.72   59.61   4
   0  -3   4 1345.23   71.01   1
   3  -1   4  588.96   35.13   1
   2  -3  -4  656.10   31.62   3
  -2   3   4  565.69   28.67   2
  -1  -2   4  612.77   35.31   1
  -2   3   4  590.40   34.06   1
  -1  -2   4  558.63   29.47   4
   3  -1   4  559.58   28.25   2
   2  -3  -4  674.36   34.53   1
   3  -2   4  581.27   35.11   1
   1  -3  -4  674.04   34.52   1
  -2  -1   4  609.77   34.97   1
  -2  -1   4  602.69   29.26   4
   3  -2   4  558.07   27.15   2
  -1   3   4  582.99   34.11   1
  -1   3   4  586.27   27.27   5
   3  -3   4 1347.27   72.39   1
   3   0  -4 1327.59   61.68   4
   0  -3  -4 1253.47   71.24   1
  -3   0   4 1302.95   71.59   1
   4  -1  -4  580.87   28.99   4
  -1  -3  -4  573.25   27.32   4
   4  -1  -4  565.64   33.85   1
  -1  -3  -4  543.79   33.60   1
   3  -4   4  482.44   34.08   1
  -3   4  -4  572.80   25.40   2
  -2  -3  -4  455.72   29.87   1
   5  -2  -4  453.52   29.86   1
  -3   5  -4  452.46   25.72   5
   5  -2  -4  434.46   23.46   2
   3  -6   4  425.16   31.70   1
   6  -3  -4  418.67   30.02   1
  -3  -3  -4  457.66   31.37   1
  -3   6  -4  429.18   25.25   5
   6  -3  -4  404.28   21.90   2
   7  -4  -4  160.58   17.95   1
  -4  -3  -4  151.57   18.62   1
  -3   7  -4  124.82   13.35   5
   2  -6   4   57.19   13.35   1
  -2   6  -4   78.61    9.20   5
  -4  -2  -4   82.98   12.71   1
   6  -4  -4   82.36   12.45   1
   5  -4  -4  507.00   33.91   1
  -4  -1  -4  541.60   35.19   1
   1  -5   4  552.10   35.69   1
  -1   5  -4  554.86   28.48   5
  -4   0  -4  168.72   14.81   1
   4   0   4  172.12   15.08   1
   4   0   4  161.24    8.74   4
   0   4  -4  159.27   11.10   5
   0  -4   4  147.23   14.84   1
   4  -4  -4  155.50   13.71   1
   3  -4  -4  536.16   25.44   3
  -1  -3   4  424.32   24.44   4
  -1  -3   4  460.62   30.43   1
  -3   4   4  490.50   23.75   2
   4  -1   4  462.04   30.29   1
   2  -4  -4   40.55    7.19   1
   2  -4  -4   50.32    6.04   3
  -2  -2   4   67.26    5.39   4
   4  -2   4   70.22    8.44   1
   4  -2   4   56.92    4.55   2
  -2  -2   4   66.30    8.60   1
   4  -3   4  460.13   31.76   1
  -3  -1   4  497.51   31.92   1
   1  -4  -4  540.09   31.38   1
  -4   3  -4  542.34   26.40   3
   4  -4   4  167.65   15.21   1
   0  -4  -4  169.22   14.53   1
   4   0  -4  167.30   10.52   4
  -4   0   4  158.85   14.43   1
  -1  -4  -4  533.32   35.40   1
   5  -1  -4  562.12   35.62   1
  -1  -4  -4  537.74   27.65   4
   4  -5   4  600.40   37.11   1
   5  -1  -4  553.67   29.05   4
   6  -2  -4   83.06    9.05   2
  -2  -4  -4   84.72   13.04   1
   6  -2  -4  101.71   10.13   4
   4  -6   4  102.26   14.78   1
   6  -2  -4   90.05   13.74   1
   7  -3  -4  137.98   13.97   4
   7  -3  -4  159.41   18.14   1
  -4   7  -4  135.02   14.43   5
  -3  -4  -4  146.24   18.89   1
   8  -4  -4   -2.70   11.01   4
  -4   8  -4   21.51   11.22   5
  -4  -4  -4   19.74   14.87   1
   8  -4  -4   11.20   14.14   1
   4  -8   4   34.13   15.64   1
   9  -5  -4  101.58   21.81   1
   9  -5  -4  135.32   23.35   4
  -5  -4  -4   73.78   21.50   1
   8  -5  -4  101.92   17.70   1
  -5  -3  -4  131.58   20.23   1
   3  -8   4   66.49   18.49   1
  -5  -2  -4  199.83   22.52   1
   7  -5  -4  214.64   21.54   1
  -2   7  -4  213.23   15.76   5
   2  -7   4  236.31   23.59   1
  -5  -1  -4  192.04   19.42   1
  -1   6  -4  190.88   13.82   5
   6  -5  -4  209.24   19.42   1
   0   5  -4  220.23   14.06   5
   5  -5  -4  203.19   18.06   1
   0  -5   4  184.12   19.17   1
   5  -1   4  605.37   37.68   1
  -1  -4   4  556.93   37.14   1
   4  -5  -4  561.39   36.05   1
  -2  -3   4  401.57   28.88   1
   5  -2   4  371.08   28.10   1
   3  -5  -4  437.74   27.94   1
   3  -5  -4  455.42   23.15   3
  -3  -2   4  368.39   27.81   1
  -5   3  -4  429.55   22.30   3
   5  -3   4  365.44   27.72   1
   2  -5  -4  420.33   27.23   1
   2  -5  -4  436.28   24.02   3
   1  -5  -4  555.38   35.45   1
   5  -4   4  542.73   36.17   1
  -4  -1   4  582.12   36.25   1
   0  -5  -4  221.46   18.66   1
   5  -5   4  162.35   18.23   1
   5   0  -4  220.13   18.36   1
   5   0  -4  209.92   11.82   4
  -5   0   4  167.25   17.66   1
  -1  -5  -4  204.39   19.99   1
   6  -1  -4  209.13   20.12   1
   6  -1  -4  221.87   14.07   4
  -2  -5  -4  210.23   22.09   1
   7  -2  -4  179.71   15.03   2
   7  -2  -4  199.94   21.51   1
  -5   7  -4  210.53   18.30   5
   7  -2  -4  230.20   15.95   4
   5  -7   4  229.80   23.09   1
   8  -3  -4  124.99   19.60   1
  -5   8  -4  118.96   15.80   5
  -3  -5  -4  116.70   20.13   1
   9  -4  -4   79.99   19.23   1
  -4  -5  -4   48.79   21.16   1
   5  -9   4   41.75   21.00   1
   3  -9   4  114.84   24.65   1
  -6  -3  -4   97.60   24.23   1
   9  -6  -4  105.18   23.15   1
   6   3   4  110.24   24.50   1
   9  -6  -4  114.06   21.12   4
   2  -8   4   40.65   18.45   1
   6   2   4   57.88   17.49   1
   8  -6  -4   26.73   16.53   1
  -6  -2  -4   27.16   15.93   1
   7  -6  -4  160.78   19.72   1
   1  -7   4  101.82   18.93   1
   6   1   4  112.84   18.16   1
   6  -6  -4   40.55   11.64   1
   6   0   4   55.47   13.74   1
   0  -6   4   45.62   14.20   1
   6  -1   4  137.85   16.86   1
  -1  -5   4  142.44   17.08   1
  -2  -4   4   66.72   13.34   1
   6  -2   4   64.79   12.80   1
   4  -6  -4   87.31   12.44   1
   6  -3   4  451.85   32.53   1
  -3  -3   4  460.92   32.52   1
   3  -6  -4  434.46   25.16   3
   3  -6  -4  453.59   31.28   1
   2  -6  -4   92.32   12.24   1
  -4  -2   4   81.25   13.37   1
   6  -4   4   66.48   13.23   1
   2  -6  -4   83.93    9.56   3
  -5  -1   4  141.10   17.72   1
   1  -6  -4  189.01   17.93   1
   6  -5   4  154.21   18.40   1
   0  -6  -4   16.54    6.82   4
   6   0  -4   29.75   11.98   1
   6  -6   4   47.06   12.43   1
   7  -1  -4  165.75   19.62   1
  -1  -6  -4  149.49   19.63   1
   6  -7   4  129.17   19.82   1
  -6   8  -4   43.16   13.95   5
   8  -2  -4   25.20   15.82   1
   6  -8   4  -11.51   16.75   1
  -2  -6  -4   61.74   16.66   1
  -3  -6  -4   59.70   20.93   1
   9  -3  -4   90.60   22.09   1
   6  -9   4  115.13   23.27   1
   2  -9   4   23.06   24.42   1
   9  -7  -4   69.71   23.47   1
   7   2   4   11.01   21.88   1
   1  -8   4  119.30   23.71   1
   7   1   4  170.25   24.80   1
   8  -7  -4  131.71   21.01   1
   7   0   4   69.24   17.61   1
   7  -7  -4  122.80   18.07   1
   0  -7   4   90.95   19.09   1
   7  -1   4  154.97   20.36   1
   6  -7  -4  157.10   19.12   1
  -1  -6   4  134.37   19.94   1
   7  -2   4  224.37   23.24   1
  -2  -5   4  219.64   23.47   1
   5  -7  -4  211.40   21.36   1
   4  -7  -4  128.79   16.05   1
  -3  -4   4   77.41   16.43   1
   7  -3   4   95.95   16.09   1
   7  -4   4   74.08   15.45   1
  -4  -3   4   88.29   16.03   1
   2  -7  -4  210.14   17.65   3
   7  -5   4  251.99   24.69   1
  -5  -2   4  254.68   24.38   1
   2  -7  -4  218.88   22.27   1
   7  -6   4  113.59   19.45   1
  -6  -1   4  130.79   20.20   1
   1  -7  -4  164.10   19.52   1
   6   1  -4  165.77   20.55   1
   0  -7  -4  111.17   18.33   1
   7  -7   4  103.90   19.51   1
   7   0  -4  155.11   20.73   1
   7  -8   4  117.61   22.35   1
  -1  -7  -4  101.45   20.78   1
   8  -1  -4  110.35   21.58   1
  -2  -7  -4   54.29   22.88   1
   9  -2  -4   26.35   20.51   1
   7  -9   4   35.74   29.50   1
   0  -8   4  -25.81   21.34   1
   8   0   4    8.14   19.64   1
   8  -8  -4   24.54   18.86   1
  -1  -7   4  166.06   26.02   1
   7  -8  -4  143.20   21.99   1
   8  -1   4  174.31   24.85   1
  -2  -6   4   16.36   17.25   1
   6  -8  -4   36.59   16.80   1
   8  -2   4   46.41   18.33   1
  -3  -5   4   97.78   19.92   1
   8  -3   4   68.46   18.20   1
   5  -8  -4  128.98   19.08   1
  -4  -4   4   29.69   17.08   1
   8  -4   4   34.36   16.53   1
   4  -8  -4    7.20   13.55   1
  -5  -3   4   63.23   18.62   1
   8  -5   4   53.05   17.37   1
   8  -6   4   36.31   17.48   1
  -6  -2   4   21.83   17.70   1
   2  -8  -4   37.32   16.25   1
   1  -8  -4  111.78   21.19   1
   8  -7   4  149.46   23.49   1
   7   1  -4  132.35   22.50   1
   0  -8  -4   18.02   19.83   1
   8  -8   4   11.82   20.99   1
   8   0  -4   18.34   19.42   1
   7  -9  -4   55.98   22.37   1
   9  -2   4    8.48   20.23   1
  -2  -7   4   33.27   24.02   1
  -3  -6   4  107.47   23.99   1
   9  -3   4  125.96   24.71   1
   6  -9  -4   84.12   21.64   1
   9  -4   4   51.32   20.95   1
   5  -9  -4   82.44   20.30   1
  -4  -5   4   30.46   21.65   1
   9  -5   4   53.70   21.26   1
  -5  -4   4   59.62   22.46   1
   4  -9  -4   86.90   21.23   1
   9  -6   4  145.13   25.29   1
  -6  -3   4   95.30   24.35   1
   3  -9  -4  101.21   22.72   1
   2  -9  -4   10.02   35.85   1
   9  -7   4   -4.24   24.15   1
   7   2  -4   17.50   23.93   1
   0   0  -5   -8.03    2.17   2
   0   0   5   -4.27    1.73   4
   0   0  -5   -6.01    2.28   5
   0   0   5   -5.54    2.34   2
   0   0  -5   -4.68    2.55   4
   0   0   5    2.24    2.28   5
   0   0   5   -0.10    2.86   3
   0   0  -5   -2.52    2.93   3
  -1   1   5  542.20   26.43   2
  -1   1   5  548.81   26.58   5
   0  -1   5  532.69   30.12   1
  -1   1   5  538.67   29.21   3
   1   0   5  511.02   26.16   2
  -1   0  -5  597.93   29.66   3
   1   0   5  518.20   26.96   4
   0   1  -5  560.88   29.91   1
   1  -1  -5  609.65   29.57   3
   0   1  -5  582.82   26.60   2
   0  -1   5  499.46   26.74   5
   0  -1   5  502.52   27.13   4
   0  -1   5  538.73   29.23   3
   1  -1  -5  604.24   28.03   4
   1   0   5  519.94   29.78   1
   1  -1  -5  550.26   29.09   1
   1  -1  -5  582.75   29.21   1
   1   0   5  523.52   29.93   1
   1  -1  -5  599.01   26.73   2
   0   1  -5  571.97   27.22   5
  -1   1  -5  619.46   26.59   2
   1   0  -5  595.92   27.12   2
   1  -1   5  521.81   27.71   4
  -1   1  -5  600.34   29.60   3
   1   0  -5  578.65   27.53   5
   0   1   5  537.45   26.78   2
   1  -1   5  506.51   26.10   2
  -1   1  -5  570.09   27.42   5
  -1   0   5  497.72   27.43   4
   0  -1  -5  605.15   27.80   4
   0  -1  -5  579.59   29.90   3
  -1   0   5  526.85   27.18   5
   1   0  -5  555.31   29.87   1
   1   0  -5  597.48   28.04   4
   0  -1  -5  589.88   29.77   1
   1  -1   5  553.77   29.17   3
   0   1   5  504.73   26.00   5
  -1   0   5  533.80   29.98   1
  -1   0   5  535.64   29.72   3
   1  -1   5  532.29   30.55   1
   0   1   5  541.39   29.74   1
  -1   1  -5  574.69   30.40   1
   0  -1  -5  584.74   26.32   5
   2  -1  -5   -5.63    2.94   2
   2  -1  -5    0.00    2.24   1
  -2   1   5   -1.96    3.33   3
  -1  -1  -5   -0.85    1.68   5
   1   1   5   -4.01    2.39   1
   1  -2   5   -3.23    2.81   3
   1  -2   5    4.97    3.26   1
  -1   2  -5   -3.38    2.40   2
  -1   2  -5   -2.65    2.51   1
  -1   2  -5    0.39    3.21   5
  -1  -1  -5   -5.31    2.11   4
  -2   1   5    4.80    3.66   5
   2  -1  -5   -1.26    2.59   4
   2  -1  -5    1.40    2.09   1
   1   1   5   -3.04    2.53   4
  -3   2   5  307.42   20.13   3
  -1   3  -5  419.17   20.32   5
   1  -3   5  319.54   20.39   3
   1  -3   5  316.81   22.52   1
   3  -2  -5  386.37   21.85   1
  -2  -1  -5  396.53   22.56   1
   3  -2  -5  347.02   21.33   1
   3  -2  -5  382.06   18.68   2
  -2   2   5 1989.35   87.92   2
   2   0   5 1995.55  104.22   1
   0  -2   5 2010.73  104.41   1
   0  -2   5 1846.92   91.38   4
  -2   2   5 1944.24   89.64   5
  -2   2   5 1957.81   97.16   3
   2  -2  -5 2011.33   97.37   3
   2  -2  -5 2010.32   88.17   2
   2  -2  -5 2030.18  103.23   1
   0   2  -5 1918.68  103.64   1
   0   2  -5 2070.08   90.40   5
   2   0   5 1844.61   87.98   2
   0  -2   5 1890.29   89.72   5
  -2   2   5 1916.88  103.02   1
   2   0   5 2049.74   90.79   4
   2   0   5 1944.64  103.69   1
   2  -1   5    2.81    2.85   1
   2  -1   5    5.61    2.38   2
   1   1  -5   -2.27    3.25   5
  -1   2   5   -1.41    2.00   1
  -1   2   5    0.90    1.98   5
   1  -2  -5    0.84    3.10   3
   1  -2  -5   -0.85    1.75   1
  -1  -1   5    0.30    2.49   4
  -1   2   5    4.75    3.48   2
  -1  -1   5    1.00    2.60   1
   1   1  -5    0.82    2.34   1
   2  -1   5   -1.12    2.90   1
  -1  -1   5    1.92    3.68   5
  -2   1  -5    2.55    2.87   3
  -2   2  -5 2066.33   98.73   3
   0  -2  -5 2029.08   93.10   4
   2   0  -5 2089.69   93.25   4
   0   2   5 1911.03  105.15   1
   2  -2   5 2043.34  106.47   1
  -2   0   5 1961.95  105.64   1
  -2   2  -5 1901.07  105.60   1
  -2   2  -5 2099.82   88.86   2
   0  -2  -5 2046.25  105.42   1
   2   0  -5 1876.48  105.07   1
   2  -3   5  324.17   19.68   3
  -1  -2  -5  390.67   18.72   4
  -2   3  -5  388.07   18.05   2
   2  -3   5  310.53   22.81   1
   3  -1  -5  383.91   20.36   4
  -1  -2  -5  369.36   22.22   1
   3  -1  -5  370.50   19.37   2
   3  -1  -5  358.76   21.86   1
   3  -1  -5  371.79   22.23   1
   2  -4   5    3.76    5.62   1
   4  -2  -5    0.21    4.52   1
   4  -2  -5   -0.71    3.05   2
  -2  -2  -5    1.49    4.77   1
  -2   4  -5   -0.38    3.99   5
  -2   5  -5  395.49   23.26   5
   5  -3  -5  411.48   21.04   2
   5  -3  -5  430.34   27.33   1
  -3  -2  -5  381.87   27.04   1
   2  -5   5  373.92   28.19   1
  -4   3   5  351.37   22.38   3
   1  -4   5  366.35   26.59   1
   4  -3  -5  423.61   20.72   2
  -1   4  -5  452.22   22.90   5
   4  -3  -5  427.19   25.74   1
  -3  -1  -5  404.50   26.14   1
   3  -3  -5    5.05    3.73   1
   3   0   5    2.12    2.72   4
   3  -3  -5    0.26    2.80   2
   3   0   5   -6.73    4.68   1
  -3   0  -5    2.52    4.07   1
   0   3  -5    0.83    3.62   5
  -2   3   5  300.83   20.07   1
   3  -1   5  315.37   21.18   1
   1   2  -5  373.64   19.06   5
   2  -3  -5  384.06   20.63   1
   2  -3  -5  359.11   19.13   3
   3  -1   5  308.93   16.99   2
  -2   3   5  318.41   17.74   2
  -1  -2   5  331.13   21.45   1
  -1  -2   5  318.36   18.11   4
   3  -2   5  318.73   21.43   1
  -2  -1   5  320.76   21.12   1
   3  -2   5  317.74   16.13   2
  -3   2  -5  388.41   19.00   3
  -2  -1   5  310.87   17.63   4
  -1   3   5  319.18   15.66   5
   1  -3  -5  387.65   20.74   1
  -1   3   5  299.50   20.10   1
   3   0  -5    6.93    3.43   4
   3  -3   5   -3.90    5.04   1
   0  -3  -5    7.21    3.18   4
   0  -3  -5    5.16    4.32   1
  -3   0   5    2.23    4.33   1
  -1  -3  -5  419.94   21.27   4
  -3   4  -5  446.71   19.77   2
   4  -1  -5  429.05   22.90   4
   4  -1  -5  403.48   26.35   1
  -1  -3  -5  417.95   26.52   1
   3  -4   5  364.90   27.03   1
   3  -5   5  361.66   27.88   1
   5  -2  -5  412.60   23.99   4
  -3   5  -5  436.45   20.48   2
   5  -2  -5  432.30   22.48   2
  -2  -3  -5  441.78   28.26   1
   5  -2  -5  421.43   27.92   1
   3  -5   5  361.87   21.76   3
  -3   5  -5  416.18   24.16   5
  -3   6  -5    4.50    7.11   5
   6  -3  -5   -3.51    4.97   2
   6  -3  -5   -1.04    7.28   4
   6  -3  -5   -0.80    8.33   1
   3  -6   5   11.13    9.47   1
  -3   7  -5  126.24   13.57   5
   7  -4  -5  125.01   16.13   1
  -4  -3  -5  139.38   17.35   1
   3  -7   5   81.91   17.03   1
  -4  -2  -5  492.53   34.39   1
   2  -6   5  467.72   35.43   1
  -2   6  -5  507.58   28.17   5
   6  -4  -5  532.30   34.55   1
   6  -4  -5  500.96   24.82   2
   5  -4  -5    3.08    6.40   1
  -4  -1  -5   -3.69    7.26   1
  -1   5  -5    1.94    5.40   5
   1  -5   5    3.88    7.47   1
   0   4  -5  853.01   42.28   5
   4  -4  -5  860.15   49.30   1
   4   0   5  821.33   50.29   1
   4   0   5  839.79   40.12   4
   0  -4   5  885.86   51.07   1
  -1  -3   5  397.64   26.61   1
   3  -4  -5  416.81   22.12   3
   4  -1   5  343.92   25.87   1
   3  -4  -5  428.36   25.47   1
   1   3  -5  401.47   22.08   5
   2  -4  -5   -0.46    4.29   1
  -2   4   5   -4.82    3.08   5
  -2  -2   5   10.04    5.50   1
   2  -4  -5    4.18    4.10   3
   4  -2   5    2.43    4.76   1
  -2  -2   5   -1.65    3.92   4
   4  -2   5    3.14    2.63   2
  -4   3  -5  418.70   21.25   3
   4  -3   5  359.96   25.94   1
   1  -4  -5  402.68   24.94   1
  -3  -1   5  382.39   25.71   1
   0  -4  -5  881.05   50.84   1
  -4   0   5  862.61   51.33   1
   4  -4   5  838.99   51.94   1
   4   0  -5  921.77   43.14   4
  -1  -4  -5   -7.65    7.36   1
   4  -5   5    2.08    7.15   1
   5  -1  -5   -0.99    7.14   1
   5  -1  -5    1.46    4.42   4
  -1  -4  -5    3.76    3.74   4
   6  -2  -5  515.53   28.78   2
  -2  -4  -5  535.97   36.45   1
  -4   6  -5  518.78   30.89   5
   4  -6   5  515.52   36.78   1
   6  -2  -5  580.43   36.78   1
   6  -2  -5  538.26   30.10   4
  -4   7  -5  115.18   13.87   5
   7  -3  -5  114.76   10.93   2
   7  -3  -5  135.52   14.03   4
  -3  -4  -5  139.01   18.25   1
   7  -3  -5  123.17   16.54   1
   4  -7   5   89.67   17.27   1
   4  -8   5  -18.84   16.14   1
   8  -4  -5    9.32   12.42   4
  -4  -4  -5  -22.38   14.63   1
  -4   8  -5  -11.80   11.49   5
   9  -5  -5  139.08   25.31   4
   9  -5  -5  137.32   23.54   1
   4  -9   5  129.76   23.86   1
  -5  -4  -5  145.17   24.78   1
   8  -5  -5  114.80   16.98   4
  -5  -3  -5  134.18   21.03   1
   8  -5  -5  105.12   18.10   1
   7  -5  -5  -12.32   11.97   1
   2  -7   5   -2.75   12.87   1
  -2   7  -5   -4.86    8.41   5
  -5  -2  -5    0.33   11.20   1
  -1   6  -5  157.91   12.77   5
   1  -6   5  133.88   18.09   1
   6  -5  -5  175.56   17.28   1
  -5  -1  -5  164.03   17.64   1
   5   1   5  132.00   17.80   1
   5  -5  -5  201.98   16.87   1
   5   0   5  153.01   16.92   1
   0  -5   5  154.92   17.69   1
   0   5  -5  199.30   13.58   5
   5  -1   5   -5.86    7.47   1
   4  -5  -5   -5.48    6.70   1
  -1  -4   5    2.59    7.39   1
   3  -5  -5  409.96   21.88   3
   5  -2   5  352.15   26.70   1
  -2  -3   5  343.23   26.60   1
   3  -5  -5  408.46   25.87   1
  -3  -2   5  367.91   27.15   1
  -5   3  -5  401.91   22.00   3
   2  -5  -5  417.02   23.57   3
   2  -5  -5  386.30   26.04   1
   5  -3   5  369.61   27.25   1
   5  -4   5   14.80    7.71   1
   1  -5  -5    1.74    7.11   1
  -4  -1   5   -6.60    6.93   1
   5  -5   5  146.40   17.70   1
   5   0  -5  197.95   17.73   1
   0  -5  -5  189.33   17.19   1
   0  -5  -5  198.95   13.17   4
   5   0  -5  219.74   12.53   4
  -5   0   5  163.56   17.49   1
   6  -1  -5  186.85   12.74   4
   6  -1  -5  162.55   17.27   1
   5  -6   5  147.16   19.14   1
  -1  -5  -5  173.13   17.80   1
  -5   7  -5   10.72   11.09   5
   7  -2  -5  -11.52    8.79   4
   7  -2  -5   -4.68    7.98   2
  -2  -5  -5  -11.01   11.69   1
   7  -2  -5   16.98   12.02   1
   5  -7   5    5.14   13.45   1
   5  -8   5   88.45   18.59   1
   8  -3  -5   90.54   17.69   1
  -5   8  -5  103.56   15.50   5
  -3  -5  -5   85.31   17.68   1
   5  -9   5   90.24   24.22   1
   9  -4  -5  103.31   21.46   1
  -4  -5  -5  111.40   22.30   1
   6   3   5    7.75   19.78   1
   9  -6  -5    2.87   17.82   1
   3  -9   5  -26.91   22.06   1
   9  -6  -5  -15.06   19.38   4
   2  -8   5  168.50   26.35   1
   8  -6  -5  229.14   24.74   1
   6   2   5  217.43   25.57   1
   7  -6  -5  197.55   20.41   1
   1  -7   5  143.07   22.32   1
   6   1   5  146.28   20.63   1
   6   0   5   -1.69   10.41   1
   6  -6  -5   -7.73    9.75   1
   0  -6   5    1.88   11.51   1
  -1  -5   5  112.52   16.77   1
   6  -1   5  128.19   16.80   1
   5  -6  -5  168.09   16.33   1
  -2  -4   5  442.21   33.16   1
   6  -2   5  429.66   32.53   1
   4  -6  -5  499.04   31.93   1
   6  -3   5   -2.24    8.70   1
  -3  -3   5   -9.91    9.55   1
  -6   3  -5    3.20    5.03   3
   3  -6  -5  -12.15    8.22   1
   3  -6  -5   -3.65    5.45   3
   2  -6  -5  467.52   31.42   1
   6  -4   5  415.35   33.14   1
  -4  -2   5  460.78   33.15   1
   2  -6  -5  482.55   27.81   3
   6  -5   5   92.48   15.22   1
  -5  -1   5  115.08   16.12   1
   6  -6   5   -3.70   11.10   1
   6   0  -5  -15.16   11.22   1
   0  -6  -5   -6.46    6.96   4
   0  -6  -5   10.03   10.43   1
  -1  -6  -5  189.65   20.60   1
   7  -1  -5  173.04   20.53   1
   6  -7   5  136.83   20.43   1
   6  -8   5  178.47   25.90   1
  -2  -6  -5  214.94   25.55   1
   8  -2  -5  236.51   25.57   1
  -6   8  -5  224.99   21.42   5
   6  -9   5   -6.86   21.35   1
  -3  -6  -5   -1.17   17.99   1
   9  -3  -5   22.77   24.26   1
   7   2   5   37.48   22.71   1
   2  -9   5   32.24   23.71   1
   1  -8   5  -17.01   19.87   1
   7   1   5    9.78   17.50   1
   0  -7   5  172.76   22.67   1
   7  -7  -5  165.72   21.13   1
   7   0   5  165.90   22.82   1
   7  -1   5  136.57   21.05   1
  -1  -6   5  155.83   21.48   1
   6  -7  -5  181.76   19.91   1
   7  -2   5    3.64   13.13   1
   5  -7  -5   -0.61   10.77   1
  -2  -5   5   11.23   12.69   1
  -7   3  -5  103.81   10.69   3
   4  -7  -5  104.88   15.03   1
   7  -3   5   89.48   16.69   1
  -3  -4   5   69.93   15.70   1
  -4  -3   5   89.03   17.18   1
   3  -7  -5  118.67   15.31   1
   7  -4   5   91.82   16.34   1
  -5  -2   5   20.49   13.15   1
   2  -7  -5    6.05    9.56   3
   2  -7  -5  -10.67   11.64   1
   7  -5   5    4.05   13.44   1
   1  -7  -5  159.47   15.17   4
   6   1  -5  174.05   21.65   1
   7  -6   5  144.62   21.91   1
   1  -7  -5  208.88   21.30   1
  -6  -1   5  175.76   22.33   1
   7  -7   5  163.43   22.84   1
   0  -7  -5  186.54   21.68   1
   7   0  -5  171.43   22.69   1
  -1  -7  -5   -3.62   16.15   1
   8  -1  -5   -3.54   16.45   1
   7  -8   5   11.70   17.55   1
   9  -2  -5   26.04   21.61   1
  -2  -7  -5   53.85   23.46   1
   7  -9   5   41.64   23.13   1
   8   0   5  103.63   24.64   1
   8  -8  -5  109.10   22.40   1
   0  -8   5  140.88   25.64   1
  -1  -7   5  -16.25   19.69   1
   8  -1   5   -3.45   18.07   1
   7  -8  -5   -4.78   16.86   1
   6  -8  -5  236.89   24.73   1
  -2  -6   5  187.39   25.34   1
   8  -2   5  229.31   27.05   1
  -3  -5   5  111.35   21.45   1
   5  -8  -5  125.47   18.90   1
   8  -3   5   91.03   19.63   1
   4  -8  -5    9.74   13.41   1
  -4  -4   5  -17.15   16.26   1
   8  -4   5   -9.35   15.31   1
  -5  -3   5  109.34   20.95   1
   3  -8  -5  125.72   19.67   1
   8  -5   5   95.85   19.68   1
   8  -6   5  200.20   25.15   1
  -6  -2   5  155.81   23.91   1
   2  -8  -5  221.15   24.57   1
   7   1  -5   -0.38   17.42   1
   8  -7   5    7.15   18.46   1
   1  -8  -5   12.58   17.47   1
   8   0  -5  130.32   24.23   1
   8  -8   5  124.39   23.40   1
   0  -8  -5  140.13   23.27   1
  -2  -7   5   39.05   23.81   1
   9  -2   5   29.57   26.50   1
   7  -9  -5  103.11   25.74   1
   6  -9  -5   -5.63   18.97   1
   9  -3   5  -26.14   20.51   1
  -4  -5   5  110.93   26.22   1
   5  -9  -5  146.57   23.01   1
   9  -4   5  115.22   24.78   1
  -5  -4   5  148.74   25.82   1
   4  -9  -5  148.98   24.30   1
   9  -5   5  107.57   24.32   1
   3  -9  -5   -1.05   19.43   1
  -6  -3   5   -3.69   20.73   1
   9  -6   5    7.75   20.43   1
   9  -7   5   37.60   21.07   1
   2  -9  -5   69.49   23.93   1
   7   2  -5   89.12   23.69   1
   0   0  -6 2525.82  120.95   2
   0   0  -6 2500.53  122.83   5
   0   0   6 2984.60  121.11   2
   0   0   6 3060.57  123.05   5
   0   0  -6 2527.35  134.09   3
   0   0   6 2867.43  125.48   4
   0   0   6 3012.21  134.28   3
   0   0  -6 2325.63  125.31   4
   0  -1   6  907.61   45.48   1
  -1   0  -6  836.03   44.18   3
  -1   1   6  859.94   43.85   3
   0   1  -6  779.48   40.46   5
  -1   0  -6  847.36   39.77   2
   1  -1  -6  795.89   39.66   2
   0  -1   6  835.96   41.04   4
   1   0   6  856.97   39.51   2
   0  -1   6  864.94   44.05   3
  -1   1   6  885.70   40.10   5
   1   0   6  859.73   40.76   4
  -1   1   6  896.94   39.85   2
   1   0   6  881.61   45.06   1
   1   0   6  881.87   45.20   1
   0   1  -6  804.87   39.62   2
  -1   0  -6  840.26   39.98   5
   1  -1  -6  820.70   43.93   3
   0  -1   6  840.94   40.36   5
   1  -1  -6  821.42   41.40   4
   0   1  -6  797.18   44.99   1
  -1   1  -6  860.20   39.10   2
   1  -1   6  920.95   45.22   1
   0   1   6  861.75   40.55   4
   1   0  -6  798.10   44.09   1
   0   1   6  855.90   39.45   2
   1   0  -6  769.34   40.71   4
   0  -1  -6  808.06   43.76   3
   1  -1   6  756.61   40.32   4
  -1   1  -6  822.22   40.12   5
  -1   1  -6  831.53   43.36   3
   1  -1   6  822.63   43.03   3
   0  -1  -6  791.30   40.50   4
   1   0  -6  812.55   40.11   5
   0  -1  -6  820.64   38.96   5
   1   0  -6  837.63   39.57   2
  -1   0   6  885.02   40.11   5
   0  -1  -6  831.30   39.62   2
  -1   1  -6  769.40   44.62   1
  -1   0   6  839.10   40.70   4
   0  -1  -6  849.05   43.95   1
   0   1   6  840.33   43.90   1
   1  -1   6  860.44   38.88   2
  -1   0   6  889.21   44.37   1
  -1   0   6  890.66   44.02   3
   0   1   6  896.31   38.95   5
   1  -2   6 4059.03  196.30   1
   1   1   6 3853.68  171.70   4
  -1   2  -6 3461.93  195.45   1
  -1   2  -6 3647.86  165.74   2
   2  -1  -6 3800.49  166.55   2
   2  -1  -6 3530.52  194.68   1
   2  -1  -6 3701.20  172.97   4
   2  -1  -6 3869.69  195.07   1
  -1  -1  -6 3718.45  171.94   4
   1  -2   6 3929.59  183.76   3
   1   1   6 3925.52  195.33   1
  -1  -1  -6 3659.32  195.31   1
  -1  -1  -6 3814.19  167.98   5
  -1   2  -6 3646.65  169.63   5
   1  -3   6  422.61   25.84   1
   3  -2  -6  394.24   24.00   1
   3  -2  -6  418.33   24.58   1
   3  -2  -6  418.17   21.53   2
   2   1   6  435.99   21.00   4
  -2  -1  -6  406.19   25.06   1
  -1   3  -6  411.58   22.81   5
   3  -2  -6  407.55   23.37   4
   2  -2  -6 1172.55   61.52   1
   0   2  -6 1206.91   55.24   5
   2   0   6 1168.94   62.71   1
   2   0   6 1182.57   54.82   4
   2  -2  -6 1169.15   59.06   3
  -2   2   6 1115.87   61.39   1
  -2   2   6 1125.15   58.76   3
   0   2  -6 1119.38   62.17   1
   2   0   6 1129.64   62.24   1
   2  -2  -6 1201.93   56.54   4
  -2   2   6 1108.19   54.07   5
   2  -2  -6 1199.95   53.72   2
   0  -2   6 1138.42   62.69   1
   2  -1   6 3915.04  171.98   2
   1  -2  -6 3631.80  179.61   4
  -1  -1   6 3998.94  179.08   4
  -1   2   6 4113.48  174.72   5
  -1  -1   6 4076.14  203.58   1
   2  -1   6 4109.74  179.40   4
   1  -2  -6 3841.25  191.62   3
  -1   2   6 4139.62  202.54   1
   1   1  -6 3697.27  203.05   1
   1   1  -6 3636.72  176.07   5
   2  -1   6 4024.02  203.49   1
  -2   1  -6 3865.70  191.34   3
   1  -2  -6 3692.69  202.38   1
   2  -1   6 3974.06  203.78   1
  -2   2  -6 1229.14   53.59   2
   0   2   6 1119.52   62.64   1
   2  -2   6 1185.50   64.12   1
   2   0  -6 1203.70   56.59   4
  -2   0   6 1153.77   63.13   1
   2   0  -6 1167.05   62.87   1
  -2   2  -6 1163.13   63.47   1
   0  -2  -6 1168.64   56.24   4
  -2   2  -6 1222.52   59.66   3
   0  -2  -6 1157.71   62.73   1
  -2   3  -6  419.70   23.00   5
   3  -1  -6  407.36   22.76   4
   3  -1  -6  428.46   24.93   1
  -1  -2  -6  400.65   24.73   1
   3  -1  -6  426.22   22.20   2
  -2   3  -6  409.25   20.51   2
   2  -3   6  439.65   26.28   1
  -1  -2  -6  415.11   19.50   5
   2  -3   6  406.14   22.63   3
  -1  -2  -6  422.86   21.55   4
   3  -1  -6  388.98   24.25   1
   2  -4   6 1257.15   55.04   3
  -2  -2  -6 1047.58   59.80   1
  -2   4  -6 1058.63   52.44   5
   4  -2  -6 1007.64   59.20   1
   4  -2  -6 1009.37   50.16   2
   4  -2  -6  991.73   52.93   4
   5  -3  -6  335.52   18.42   2
   2  -5   6  353.90   25.63   1
  -2   5  -6  309.66   20.36   5
  -3  -2  -6  311.28   23.43   1
   5  -3  -6  327.93   23.24   1
   1  -4   6  399.78   25.88   1
   4  -3  -6  387.33   24.39   1
  -1   4  -6  352.91   21.34   5
   4  -3  -6  377.39   19.94   2
  -3  -1  -6  356.33   24.52   1
   3  -3  -6 2371.31  114.31   2
   3   0   6 2689.94  117.80   4
   3  -3  -6 2319.05  134.64   1
   3   0   6 2803.33  136.81   1
   0   3  -6 2393.30  117.22   5
   0  -3   6 2769.63  136.98   1
   3  -1   6  412.68   20.97   2
   2  -3  -6  379.13   23.05   3
  -2   3   6  427.76   21.03   5
   1   2  -6  403.41   22.44   5
  -1  -2   6  429.42   25.65   1
  -2   3   6  420.94   24.21   1
   3  -1   6  453.19   26.04   1
   2  -3  -6  370.65   23.83   1
   3  -2   6  419.05   20.53   2
  -3   2  -6  442.18   23.83   3
   3  -2   6  422.94   26.52   1
   1  -3  -6  414.10   24.82   1
   1  -3  -6  408.14   24.56   3
  -1   3   6  429.48   20.09   5
  -1   3   6  412.24   24.91   1
  -2  -1   6  452.08   26.17   1
   0  -3  -6 2290.68  132.34   1
   3   0  -6 2365.71  116.46   4
  -3   0   6 2739.29  133.58   1
  -3   3  -6 2524.74  110.67   2
   3  -3   6 2732.58  134.59   1
   0  -3  -6 2391.98  116.49   4
  -1  -3  -6  367.38   19.66   4
  -1  -3  -6  369.31   24.15   1
   4  -1  -6  356.87   20.77   2
  -3   4  -6  382.77   18.34   2
   3  -4   6  399.72   26.03   1
   4  -1  -6  382.68   24.31   1
   4  -1  -6  349.13   21.10   4
   5  -2  -6  309.69   19.23   2
  -2  -3  -6  321.77   23.43   1
   5  -2  -6  331.11   20.81   4
  -3   5  -6  316.81   20.76   5
   3  -5   6  338.52   24.70   1
   5  -2  -6  317.16   23.10   1
  -3   5  -6  350.39   17.32   2
  -3   6  -6  987.13   46.34   2
   3  -6   6 1127.14   61.14   1
  -3  -3  -6  949.82   58.66   1
   6  -3  -6  954.90   51.45   4
   6  -3  -6  943.89   58.00   1
   6  -3  -6  951.62   46.98   2
  -3   6  -6  940.81   50.24   5
  -3   7  -6  117.68   10.89   2
   3  -7   6  100.59   17.94   1
  -4  -3  -6   98.89   16.11   1
   7  -4  -6   87.96   13.70   4
  -3   7  -6   98.21   12.84   5
   7  -4  -6   82.16   14.79   1
   6  -4  -6  287.47   23.20   1
  -4  -2  -6  285.74   23.52   1
   6  -4  -6  293.77   16.45   2
  -2   6  -6  285.68   19.58   5
   2  -6   6  293.76   25.32   1
   1  -5   6 1402.50   72.78   1
  -4  -1  -6 1240.42   71.59   1
  -1   5  -6 1205.23   60.66   5
   5  -4  -6 1153.22   70.26   1
   4  -4  -6  549.18   33.17   1
   0  -4   6  527.14   34.45   1
   0   4  -6  521.21   28.74   5
   4   0   6  547.80   34.43   1
   4   0   6  527.67   26.35   4
   3  -4  -6  379.84   23.87   1
   3  -4  -6  360.46   21.43   3
  -1  -3   6  400.39   25.86   1
   4  -1   6  398.27   25.49   1
   1   3  -6  345.26   21.17   5
  -2  -2   6 1337.69   68.26   1
  -4   2  -6 1014.28   61.36   3
   4  -2   6 1332.54   68.50   1
   2  -4  -6 1002.26   61.61   3
   4  -2   6 1257.50   54.83   2
  -2   4   6 1302.23   55.48   5
  -3  -1   6  383.94   25.31   1
   4  -3   6  398.24   26.35   1
   1  -4  -6  379.35   23.57   3
  -4   3  -6  383.21   21.24   3
   1  -4  -6  366.32   24.09   1
   0  -4  -6  562.81   28.84   4
   4  -4   6  529.45   34.66   1
   4   0  -6  550.64   28.30   4
   0  -4  -6  528.42   33.22   1
  -4   0   6  519.35   33.71   1
   5  -1  -6 1243.67   62.08   4
  -1  -4  -6 1228.53   71.94   1
  -1  -4  -6 1253.70   60.40   4
   4  -5   6 1431.25   74.77   1
   5  -1  -6 1207.47   72.02   1
  -2  -4  -6  312.23   24.54   1
   4  -6   6  289.64   25.32   1
   6  -2  -6  306.29   19.26   2
   6  -2  -6  327.26   24.64   1
   6  -2  -6  312.68   20.10   4
  -4   6  -6  298.35   21.32   5
   7  -3  -6  102.65   13.29   4
  -4   7  -6   84.61   12.68   5
   4  -7   6   94.20   16.95   1
  -3  -4  -6   85.91   14.98   1
   7  -3  -6   77.64   10.08   2
   7  -3  -6   89.33   14.54   1
  -4  -4  -6  206.14   23.84   1
   8  -4  -6  205.94   22.46   1
   8  -4  -6  233.51   21.21   4
  -4   8  -6  205.74   19.55   5
   9  -5  -6   72.31   22.05   1
   9  -5  -6   89.75   24.76   4
   4  -9   6   90.89   23.70   1
  -5  -4  -6   64.58   20.82   1
   3  -8   6   55.35   18.98   1
   8  -5  -6   34.90   14.72   4
   8  -5  -6   79.84   17.12   1
  -5  -3  -6   97.75   18.77   1
   7  -5  -6  528.76   38.23   1
  -5  -2  -6  566.21   39.98   1
   2  -7   6  604.91   41.75   1
  -2   7  -6  528.57   31.62   5
   1  -6   6  127.90   18.08   1
   6  -5  -6  127.98   15.35   1
   5   1   6  124.46   16.64   1
  -1   6  -6  143.13   12.64   5
   0   5  -6  156.13   12.74   5
   5  -5  -6  149.92   14.64   1
   5   0   6  148.08   16.60   1
   0  -5   6  155.50   17.54   1
   5  -1   6 1447.63   78.54   1
  -1  -4   6 1485.29   78.85   1
   4  -5  -6 1160.76   75.37   1
   3  -5  -6  330.14   20.27   3
   5  -2   6  317.24   24.91   1
  -2  -3   6  360.31   25.44   1
   3  -5  -6  360.26   23.91   1
   5  -3   6  328.42   24.56   1
  -5   3  -6  312.58   19.15   3
  -3  -2   6  348.91   24.34   1
   2  -5  -6  320.93   22.48   1
   2  -5  -6  310.94   20.53   3
  -4  -1   6 1463.79   78.55   1
   5  -4   6 1429.44   79.33   1
   1  -5  -6 1230.71   76.58   1
   5   0  -6  151.10   15.87   1
   5   0  -6  152.83   11.16   4
   0  -5  -6  161.16   12.00   4
  -5   0   6  143.36   16.09   1
   0  -5  -6  158.26   15.36   1
   5  -5   6  168.02   17.64   1
   6  -1  -6  138.44   11.90   4
  -1  -5  -6  121.75   15.53   1
   5  -6   6  147.88   18.05   1
   6  -1  -6  102.95   14.25   1
   7  -2  -6  551.11   31.19   4
   7  -2  -6  593.79   39.23   1
  -5   7  -6  557.09   33.97   5
  -2  -5  -6  503.71   38.14   1
   5  -7   6  609.29   41.63   1
   7  -2  -6  469.90   29.85   2
   8  -3  -6  121.03   19.62   1
  -3  -5  -6   70.92   17.78   1
  -5   8  -6   82.31   15.31   5
   5  -8   6   89.20   19.66   1
  -4  -5  -6   55.08   21.21   1
   5  -9   6   90.34   23.41   1
   9  -4  -6   56.90   19.63   1
   9  -6  -6  213.56   29.09   1
   3  -9   6  276.80   31.96   1
   9  -6  -6  238.44   28.38   4
   6   3   6  283.66   31.54   1
   6   2   6  116.93   22.14   1
   8  -6  -6  168.49   23.06   1
   2  -8   6  104.02   22.70   1
   1  -7   6  133.73   20.51   1
   7  -6  -6  130.81   17.85   1
   6   1   6  123.08   19.21   1
   6   0   6  508.85   35.82   1
   0  -6   6  506.59   36.30   1
   6  -6  -6  372.85   32.00   1
   5  -6  -6  141.38   15.43   1
  -1  -5   6  146.41   18.17   1
   6  -1   6  144.12   17.92   1
   4  -6  -6  298.42   23.14   1
  -2  -4   6  306.69   25.59   1
   6  -2   6  275.02   24.79   1
  -3  -3   6 1131.64   62.07   1
  -6   3  -6  941.03   52.11   3
   3  -6  -6  921.18   58.13   1
   6  -3   6 1102.82   62.00   1
   3  -6  -6  913.50   51.95   3
   6  -4   6  290.26   24.92   1
   2  -6  -6  323.68   23.18   1
   2  -6  -6  295.90   20.41   3
  -4  -2   6  259.47   23.92   1
   6  -5   6  159.94   18.58   1
   1  -6  -6  145.29   16.83   1
  -5  -1   6  149.28   17.80   1
   6   0  -6  316.02   26.50   1
   0  -6  -6  346.16   26.43   1
   0  -6  -6  304.59   19.91   4
   7  -1  -6  105.32   13.94   2
   7  -1  -6   99.10   17.09   1
   6  -7   6  148.61   20.27   1
  -1  -6  -6  112.50   17.66   1
  -6   8  -6  136.20   17.99   5
  -2  -6  -6  148.67   21.55   1
   8  -2  -6  160.45   21.31   1
   6  -8   6   97.07   20.64   1
   9  -3  -6  226.92   28.41   1
   6  -9   6  272.49   32.25   1
  -3  -6  -6  225.90   28.31   1
   7   2   6   50.38   31.47   1
   9  -7  -6   43.16   30.27   1
   9  -7  -6   -4.89   20.38   4
   2  -9   6  -20.47   32.63   1
   7   1   6  348.17   32.88   1
   8  -7  -6  289.54   30.15   1
   1  -8   6  311.65   32.77   1
   7  -7  -6  129.77   19.30   1
   0  -7   6   97.91   20.99   1
   7   0   6  135.58   21.48   1
   7  -1   6  119.42   19.31   1
   6  -7  -6  101.86   16.55   1
  -1  -6   6  135.72   20.54   1
  -2  -5   6  583.31   42.33   1
   5  -7  -6  559.24   39.24   1
   7  -2   6  585.90   42.35   1
   7  -3   6   85.66   16.99   1
   4  -7  -6   99.31   15.50   1
  -3  -4   6   85.85   17.07   1
   3  -7  -6  104.81   11.67   3
   3  -7  -6   78.33   14.32   1
  -4  -3   6  121.56   18.42   1
   7  -4   6   86.28   17.35   1
   7  -5   6  693.52   44.55   1
   2  -7  -6  537.62   35.50   3
   2  -7  -6  553.29   40.21   1
  -5  -2   6  635.85   43.38   1
   1  -7  -6  108.86   16.74   1
   1  -7  -6  112.92   13.45   4
   6   1  -6  101.51   17.49   1
  -6  -1   6  128.95   19.72   1
   1  -7  -6  117.73   15.28   3
   7  -6   6   98.75   19.09   1
   7   0  -6  101.73   18.69   1
   0  -7  -6   95.93   18.19   1
   7  -7   6  131.39   20.93   1
  -1  -7  -6  278.35   30.09   1
   8  -1  -6  278.40   29.01   1
   7  -8   6  327.83   31.59   1
  -7   8  -6  262.49   25.52   5
   7  -9   6   10.77   23.43   1
   9  -2  -6   70.51   23.26   1
  -7   9  -6  -24.79   42.43   5
  -2  -7  -6  -11.08   23.76   1
   8  -8  -6   78.46   23.01   1
   0  -8   6   74.23   23.96   1
   8   0   6   54.63   21.99   1
   8  -1   6  427.95   37.11   1
  -1  -7   6  369.89   35.80   1
  -2  -6   6  142.90   23.10   1
   6  -8  -6  146.67   19.77   1
   8  -2   6   97.99   22.63   1
  -3  -5   6   86.09   19.61   1
   8  -3   6   56.72   19.19   1
   5  -8  -6   75.66   17.17   1
   8  -4   6  421.14   35.29   1
  -4  -4   6  340.51   33.13   1
  -5  -3   6  122.45   20.91   1
   3  -8  -6   94.28   18.52   1
   8  -5   6   64.76   17.94   1
  -6  -2   6  132.29   22.11   1
   2  -8  -6  135.10   21.47   1
   8  -6   6  141.30   23.30   1
   1  -8  -6  290.74   28.48   1
   7   1  -6  241.56   28.91   1
   8  -7   6  362.51   32.99   1
   8  -8   6   53.14   20.49   1
   0  -8  -6   97.03   23.49   1
   8   0  -6   91.33   26.84   1
   9  -2   6   39.40   22.63   1
   7  -9  -6   12.92   24.72   1
  -2  -7   6    3.63   22.64   1
   6  -9  -6  238.35   29.41   1
   9  -3   6  261.11   31.90   1
  -3  -6   6  243.77   32.08   1
  -4  -5   6   91.53   23.15   1
   5  -9  -6   60.23   20.49   1
   9  -4   6   64.21   24.06   1
   9  -5   6   68.08   23.09   1
   4  -9  -6   71.68   21.20   1
   9  -6   6  314.76   32.95   1
  -6  -3   6  254.79   32.52   1
   3  -9  -6  221.77   28.98   1
   2  -9  -6   30.84   23.79   1
   7   2  -6   13.57   21.93   1
   9  -7   6   -2.93   21.11   1
   0   0  -7   -7.33    3.78   4
   0   0  -7    3.55    3.77   3
   0   0  -7   -2.74    2.97   5
   0   0   7    1.14    3.12   5
   1   0   7 1436.72   79.19   1
  -1   0  -7 1546.03   69.93   5
   1  -1  -7 1571.42   69.50   2
   0   1  -7 1572.88   70.79   5
   1  -1  -7 1556.79   76.75   3
   1   0   7 1491.45   79.37   1
   0   1  -7 1538.31   69.20   2
  -1   0  -7 1527.81   69.24   2
   0  -1   7 1486.29   79.56   1
   1  -1  -7 1574.05   72.13   4
  -1   1   7 1442.12   69.74   5
   0   1  -7 1463.16   79.24   1
   1  -1  -7 1572.05   69.96   5
  -1   0  -7 1522.25   76.79   3
   1   0   7 1402.42   71.08   4
   1   0  -7 1534.69   68.79   2
  -1   1  -7 1538.89   69.89   5
  -1   1  -7 1544.89   68.22   2
   0  -1  -7 1543.58   68.72   5
   1   0  -7 1509.39   71.25   4
   0  -1  -7 1560.54   68.97   2
   1  -1   7 1347.06   67.60   2
  -1   1  -7 1547.37   75.82   3
  -1   0   7 1477.19   78.13   1
  -1   1  -7 1494.83   78.69   1
   0  -1  -7 1555.43   76.43   3
   1  -1   7 1362.58   75.14   3
   0  -1  -7 1554.54   71.20   4
   1   0  -7 1518.90   78.03   1
   0   1   7 1397.00   68.39   5
   1   0  -7 1574.47   70.00   5
   1  -1   7 1416.63   78.85   1
   1   1   7    1.33    2.44   1
  -1   2  -7    8.70    3.38   2
  -1   2  -7   -3.95    3.13   1
   2  -1  -7   -1.47    3.33   4
  -1  -1  -7    3.00    2.39   5
   1  -2   7    0.72    2.85   1
  -1  -1  -7    0.39    2.14   1
   2  -1  -7   -1.34    4.01   2
   1   1   7   -5.00    3.77   4
  -1   2  -7   -4.07    4.28   5
   2  -1  -7   -0.67    1.73   1
  -1  -1  -7    8.04    4.72   3
  -1  -1  -7    3.58    3.40   4
  -2  -1  -7  851.74   45.28   1
  -1   3  -7  845.00   40.62   5
   3  -2  -7  823.35   44.41   1
   3  -2  -7  820.70   41.63   4
   1  -3   7  765.56   45.97   1
   3  -2  -7  818.05   38.85   2
   3  -2  -7  794.02   43.91   1
   2   1   7  704.42   38.52   4
   0   2  -7 1325.73   76.61   1
   2  -2  -7 1439.70   66.42   2
   0  -2   7 1490.27   77.61   1
   2  -2  -7 1378.04   75.68   1
  -2   0  -7 1443.17   74.05   3
   2   0   7 1527.14   68.17   4
   2  -2  -7 1370.86   75.66   1
   2  -2  -7 1398.45   73.14   3
   2  -2  -7 1489.21   69.89   4
   2   0   7 1538.31   77.53   1
   2   0   7 1405.69   76.74   1
   0   2  -7 1483.61   68.22   5
  -2   1  -7    1.74    3.27   3
  -1   2   7   -2.60    1.94   1
   1   1  -7   -1.02    2.74   1
  -1   2   7    2.44    2.96   5
   2  -1   7   -0.53    3.29   1
   2  -1   7   11.67    3.93   2
   2  -1   7    0.70    2.81   1
   1  -2  -7    1.71    3.92   3
   1  -2  -7   -4.22    4.00   4
   1   1  -7    3.11    3.22   5
   1  -2  -7    1.00    1.74   1
  -1  -1   7   -0.80    2.42   1
  -2   2  -7 1443.26   72.83   3
   0  -2  -7 1416.26   73.98   3
  -2   0   7 1494.90   76.87   1
   0  -2  -7 1402.58   76.21   1
   2  -2   7 1563.97   78.13   1
   0  -2  -7 1497.51   65.38   5
  -2   2  -7 1490.84   65.55   2
   2   0  -7 1384.63   76.34   1
  -2   2  -7 1333.48   76.88   1
   0   2   7 1437.06   76.23   1
  -2   2  -7 1367.95   68.05   5
   2   0  -7 1487.85   67.23   2
   2   0  -7 1460.82   69.11   4
   0  -2  -7 1397.73   68.47   4
  -2   3  -7  895.71   39.35   2
   2  -3   7  744.91   43.07   3
   3  -1  -7  856.37   42.16   4
   2  -3   7  759.14   47.10   1
   3  -1  -7  802.39   45.55   1
  -1  -2  -7  855.70   38.21   5
  -1  -2  -7  826.11   40.68   4
   3  -1  -7  821.44   45.94   1
  -1  -2  -7  872.40   46.38   1
   3  -1  -7  831.03   40.69   2
  -2   3  -7  869.82   42.18   5
   4  -2  -7   -3.65    4.76   4
  -2  -2  -7   -2.58    4.97   1
   2  -4   7    1.06    5.18   1
   4  -2  -7    0.51    4.70   1
   4  -2  -7    4.68    4.52   2
  -2   4  -7   -4.16    5.39   5
  -2   4  -7    1.54    3.87   2
  -2  -2  -7    2.52    2.31   5
   5  -3  -7  550.84   33.53   1
   5  -3  -7  524.01   27.37   2
   2  -5   7  482.93   34.77   1
  -3  -2  -7  549.39   33.92   1
  -2   5  -7  518.13   29.62   5
   5  -3  -7  522.24   30.80   4
  -1   4  -7  660.69   34.20   5
  -3  -1  -7  690.06   39.28   1
   4  -3  -7  671.82   32.44   2
   4  -3  -7  655.04   37.85   1
   4  -3  -7  660.91   36.03   4
   1  -4   7  553.54   39.04   1
   0   3  -7   21.50    5.50   5
   0  -3   7   13.32    5.54   1
   3   0   7   15.98    4.98   4
   3  -3  -7    4.84    4.05   2
   3  -3  -7    4.79    3.65   1
   3   0   7   13.00    4.83   1
  -2   3   7  725.22   37.02   5
   2  -3  -7  817.82   40.45   4
  -2   3   7  701.92   42.26   1
  -1  -2   7  710.20   43.69   1
   2  -3  -7  785.74   41.29   3
  -3   1  -7  835.70   41.96   3
   1   2  -7  809.78   39.19   5
   3  -1   7  758.80   44.12   1
   2  -3  -7  807.23   42.45   1
  -2  -1   7  772.37   44.01   1
  -1   3   7  688.51   42.53   1
  -1   3   7  742.59   35.92   5
   1  -3  -7  825.41   40.10   4
   3  -2   7  742.19   36.29   2
  -3   2  -7  821.11   41.23   3
   3  -2   7  753.64   44.47   1
   1  -3  -7  839.20   42.56   3
   1  -3  -7  824.48   43.08   1
   0  -3  -7    8.39    4.33   1
   3   0  -7   16.28    4.89   4
   0  -3  -7   11.29    4.13   4
  -3   3  -7    8.20    3.21   2
   3  -3   7    0.12    4.90   1
  -3   0   7    1.67    3.79   1
  -3   3  -7    7.85    3.98   3
  -3   4  -7  681.77   36.01   5
  -3   4  -7  694.77   31.80   2
  -1  -3  -7  672.68   39.49   1
   3  -4   7  628.48   40.82   1
   4  -1  -7  656.90   34.43   2
   4  -1  -7  674.91   35.30   4
   4  -1  -7  690.44   39.72   1
  -1  -3  -7  665.57   33.71   4
   5  -2  -7  545.55   28.46   2
  -3   5  -7  571.14   26.39   2
  -2  -3  -7  524.62   33.98   1
  -3   5  -7  520.94   30.43   5
   5  -2  -7  520.51   30.00   4
   3  -5   7  452.13   34.31   1
   5  -2  -7  548.98   33.65   1
  -3  -3  -7    7.20    8.67   1
   3  -6   7    6.75   10.85   1
   6  -3  -7    7.25    6.47   2
   6  -3  -7    6.36    9.02   4
  -3   6  -7   -0.04    8.65   5
   6  -3  -7   -6.30    8.95   1
  -3   6  -7   -2.76    5.39   2
  -3   7  -7  172.41   16.68   5
  -4  -3  -7  181.28   19.67   1
   7  -4  -7  148.80   18.52   1
   7  -4  -7  170.73   17.67   4
   2  -6   7  310.75   26.87   1
   6  -4  -7  350.38   24.80   1
  -2   6  -7  323.92   21.71   5
   6  -4  -7  319.03   23.41   4
   6  -4  -7  323.20   18.60   2
  -4  -2  -7  307.78   25.40   1
  -4  -1  -7    3.62    7.57   1
   5  -4  -7    1.50    6.92   1
   4   1   7    7.24    8.23   1
   5  -4  -7    2.53    5.10   2
  -1   5  -7    9.67    6.63   5
   1  -5   7    7.73    8.30   1
   4   0   7  647.77   39.06   1
   0   4  -7  576.64   32.84   5
   4  -4  -7  601.50   36.72   1
   0  -4   7  659.72   39.57   1
   3  -4  -7  641.73   34.33   3
   4  -1   7  623.67   38.68   1
  -1  -3   7  576.81   38.02   1
   1   3  -7  657.39   33.39   5
   3  -4  -7  633.23   36.38   1
  -4   2  -7    1.30    4.14   3
  -2   4   7   -2.98    3.42   5
   4  -2   7    8.08    5.17   2
   4  -2   7   -0.57    5.47   1
   2  -4  -7   -4.22    4.28   1
  -2  -2   7    0.50    5.26   1
   1  -4  -7  665.37   36.58   1
  -3  -1   7  555.15   36.77   1
  -4   3  -7  637.64   32.94   3
   1  -4  -7  626.28   32.94   4
   1  -4  -7  647.42   35.37   3
   4  -3   7  552.14   37.31   1
  -4   0   7  559.04   36.08   1
   4  -4   7  598.94   37.89   1
   4   0  -7  613.52   31.25   4
   0  -4  -7  587.39   35.67   1
   0  -4  -7  588.73   31.22   4
   4  -5   7   -2.07    8.62   1
   5  -1  -7    7.75    7.42   1
  -1  -4  -7    6.27    7.59   1
   5  -1  -7    3.10    6.49   2
   5  -1  -7   16.64    6.06   4
  -1  -4  -7    4.32    4.07   4
   6  -2  -7  285.11   19.49   2
   6  -2  -7  297.12   23.84   1
  -4   6  -7  318.58   22.59   5
   6  -2  -7  343.91   20.95   4
  -2  -4  -7  325.75   24.67   1
   4  -6   7  291.09   26.02   1
   7  -3  -7  183.00   16.63   4
  -4   7  -7  153.17   17.41   5
  -3  -4  -7  186.72   19.70   1
   7  -3  -7  164.35   13.83   2
   7  -3  -7  148.87   19.04   1
   4  -8   7   42.07   18.66   1
   8  -4  -7  -15.88   13.46   4
   8  -4  -7   10.65   15.55   1
  -4   8  -7   -5.78   13.41   5
   9  -5  -7  125.63   25.29   1
   4  -9   7  103.55   24.05   1
   9  -5  -7  135.55   26.38   4
  -5  -4  -7   93.42   21.69   1
   3  -8   7  140.10   23.03   1
   8  -5  -7  161.04   19.61   4
   8  -5  -7  144.96   20.11   1
  -5  -3  -7  162.99   22.39   1
   2  -7   7   10.22   13.53   1
  -5  -2  -7    1.31   12.49   1
   5   2   7   18.17   13.54   1
   7  -5  -7    6.35   11.17   1
  -2   7  -7   11.78    9.57   5
   6  -5  -7  261.90   20.70   1
   5   1   7  206.64   21.16   1
  -1   6  -7  229.25   17.06   5
   1  -6   7  191.51   21.68   1
   0  -5   7  210.39   21.81   1
   5   0   7  231.10   22.02   1
   5  -5  -7  288.50   20.55   1
   0   5  -7  292.73   18.49   5
   4  -5  -7    8.64    6.51   1
  -1  -4   7    9.04    8.01   1
   5  -1   7    5.20    7.95   1
   3  -5  -7  510.19   30.76   1
  -2  -3   7  460.31   32.53   1
   3  -5  -7  530.00   28.52   3
  -5   2  -7  505.69   29.09   3
   5  -2   7  435.22   32.50   1
  -5   3  -7  520.77   27.24   3
   5  -3   7  424.57   31.59   1
  -3  -2   7  463.10   31.94   1
   2  -5  -7  479.69   29.95   1
   2  -5  -7  493.41   28.60   3
   1  -5  -7    8.82    7.31   3
  -4  -1   7   -0.06    7.21   1
   5  -4   7   -5.11    8.71   1
   1  -5  -7   -0.88    7.08   1
   1  -5  -7    1.33    5.86   4
   5   0  -7  278.70   16.73   4
   0  -5  -7  259.26   20.78   1
   5   0  -7  254.84   21.01   1
   5  -5   7  234.29   22.34   1
   0  -5  -7  280.02   17.26   4
   6  -1  -7  225.76   20.45   1
   6  -1  -7  200.74   17.18   2
  -1  -5  -7  250.13   21.07   1
   5  -6   7  202.51   21.73   1
   6  -1  -7  245.98   16.16   4
   7  -2  -7   -4.51   11.70   1
  -5   7  -7    5.25   11.06   5
   7  -2  -7    7.57    9.81   4
  -2  -5  -7   19.55   12.83   1
   7  -2  -7   -6.59    8.76   2
   5  -7   7   11.45   13.71   1
  -5   8  -7  130.26   18.59   5
  -3  -5  -7  162.49   21.15   1
   5  -8   7  100.80   22.42   1
   8  -3  -7  175.58   21.96   1
  -4  -5  -7  103.82   24.12   1
   9  -4  -7  117.20   23.68   1
   5  -9   7  119.69   24.34   1
   9  -6  -7   -2.44   21.43   4
   3  -9   7    4.72   21.55   1
   9  -6  -7   -9.78   22.34   1
   6   3   7   25.50   27.23   1
   6   2   7  120.23   21.55   1
   8  -6  -7  135.84   18.94   4
   2  -8   7  135.14   24.56   1
   8  -6  -7  124.33   20.92   1
   6   1   7  173.19   21.96   1
   7  -6  -7  186.72   20.07   1
   1  -7   7  158.35   23.02   1
  -1   7  -7  176.96   16.31   5
   6   0   7   10.09   11.82   1
   6  -6  -7   -0.95    9.09   1
   0  -6   7   -5.80   13.86   1
   6  -1   7  196.34   21.66   1
  -1  -5   7  185.97   20.91   1
   5  -6  -7  252.60   19.48   1
  -6   2  -7  335.34   22.27   3
  -2  -4   7  303.32   25.97   1
   4  -6  -7  320.40   23.62   1
   6  -2   7  293.55   25.97   1
   6  -3   7   -1.57    9.73   1
   3  -6  -7   -5.73    9.09   1
   3  -6  -7   -5.62    6.41   3
  -3  -3   7    8.52   10.20   1
  -6   3  -7   -0.48    5.83   3
   6  -4   7  350.00   27.47   1
   2  -6  -7  358.60   23.29   3
   2  -6  -7  320.05   24.82   1
  -4  -2   7  307.60   26.05   1
   1  -6  -7  224.22   18.63   3
   6  -5   7  185.26   21.04   1
   1  -6  -7  232.92   19.85   1
  -5  -1   7  190.67   20.54   1
   1  -6  -7  235.10   17.09   4
   0  -6  -7   -2.78    9.01   4
   0  -6  -7  -14.16   11.18   1
   6  -6   7   25.80   13.46   1
   6   0  -7   -4.94   10.67   1
   6  -7   7  140.98   21.01   1
  -1  -6  -7  163.87   19.75   1
   7  -1  -7  150.29   16.25   2
  -6   7  -7  168.83   18.92   5
  -2  -6  -7  115.28   20.88   1
   6  -8   7  121.49   21.96   1
  -6   8  -7  125.14   19.60   5
   8  -2  -7  120.21   20.33   1
  -3  -6  -7   20.49   20.15   1
   9  -3  -7    3.50   28.87   1
   6  -9   7    1.66   20.80   1
   7   1   7  -12.87   18.38   1
   1  -8   7    7.22   18.15   1
   8  -7  -7    2.36   19.24   1
   8  -7  -7    3.48   15.54   4
   7   0   7   98.14   19.42   1
   0  -7   7  100.18   21.09   1
   7  -1   7  146.06   21.15   1
  -1  -6   7  147.97   21.97   1
   6  -7  -7  175.91   19.55   1
   7  -2   7   15.54   14.80   1
  -2  -5   7   -8.57   13.82   1
  -7   2  -7   -2.12    8.83   3
   5  -7  -7   15.45   10.47   1
  -3  -4   7  119.65   18.83   1
   7  -3   7  113.72   18.39   1
   7  -4   7  148.11   20.61   1
   3  -7  -7  166.42   17.66   1
   3  -7  -7  193.44   15.62   3
  -4  -3   7  120.73   19.19   1
   2  -7  -7   -1.39   10.20   4
  -5  -2   7   28.76   13.72   1
   2  -7  -7   11.70   11.24   3
   7  -5   7   32.72   14.25   1
   7  -6   7  147.80   21.84   1
   1  -7  -7  162.57   20.10   1
   6   1  -7  178.76   20.97   1
   1  -7  -7  191.25   18.44   3
   1  -7  -7  166.36   15.94   4
   7   0  -7  173.83   20.95   1
   0  -7  -7  145.90   20.27   1
   7  -7   7  102.41   20.92   1
   7  -8   7   -9.97   19.75   1
   8  -1  -7  -23.92   19.34   1
  -1  -7  -7   26.93   18.58   1
  -7   8  -7   -7.13   16.86   5
   0  -8   7   63.78   23.63   1
   8  -8  -7   32.51   20.38   4
   8   0   7   52.68   24.66   1
   8  -8  -7   92.82   25.89   1
   7  -8  -7   18.80   18.53   1
   8  -1   7    4.40   18.98   1
  -1  -7   7   -7.00   20.09   1
   6  -8  -7  155.81   21.62   1
   8  -2   7  108.79   22.64   1
  -2  -6   7  156.88   24.05   1
   8  -3   7   91.03   20.37   1
  -3  -5   7   72.68   19.79   1
   4  -8  -7    6.88   13.51   1
   8  -4   7   19.78   17.29   1
  -4  -4   7   -8.11   16.00   1
   8  -5   7  128.60   22.48   1
   3  -8  -7  151.84   19.93   1
  -5  -3   7  133.25   21.87   1
   3  -8  -7  128.18   17.93   4
   8  -6   7  108.98   23.08   1
   2  -8  -7   99.17   19.14   1
  -6  -2   7  134.06   22.53   1
   8  -7   7    1.06   18.14   1
   7   1  -7   -6.06   16.70   1
   1  -8  -7   -1.57   19.33   1
  -8   8  -7   85.67   23.15   5
   8  -8   7   82.38   23.47   1
   0  -8  -7   85.12   24.26   1
   8   0  -7   90.34   21.91   1
  -3  -6   7   27.70   23.84   1
   9  -3   7   19.00   26.03   1
   6  -9  -7   21.62   24.37   1
   9  -4   7   74.66   24.46   1
  -4  -5   7  116.80   25.09   1
   5  -9  -7  129.78   26.04   1
   4  -9  -7   95.87   24.20   1
  -5  -4   7  120.07   25.46   1
   4  -9  -7   82.61   20.81   4
   9  -5   7   73.18   23.22   1
   3  -9  -7   36.57   23.60   1
  -6  -3   7  -15.62   22.79   1
   9  -6   7   10.70   22.95   1
   0   0  -8  866.62   41.18   2
   0   0  -8  829.15   42.45   4
   0   0  -8  868.98   45.68   3
   0   0  -8  864.97   41.52   5
  -1   0  -8  962.10   46.84   2
   0   1  -8  981.27   47.87   5
   1  -1  -8 1004.83   47.15   2
   1  -1  -8  955.94   51.85   3
   1  -1  -8  976.55   48.82   4
   0   1  -8  899.05   52.06   1
  -1   0  -8 1001.49   47.07   5
   0  -1   8 1084.73   52.77   1
  -1   0  -8 1001.48   52.35   3
   1  -1  -8  935.17   46.85   5
   1   0   8 1052.75   52.39   1
   1   0   8  993.10   52.11   1
   0   1  -8  969.29   46.80   2
   0  -1  -8 1026.40   52.88   3
  -1   0   8 1055.51   52.24   1
   1   0  -8 1039.03   47.75   2
   0  -1  -8 1017.02   49.03   4
  -1   1  -8  958.32   52.91   1
   0  -1  -8  945.80   46.83   5
   0  -1  -8 1021.83   47.78   2
  -1   1  -8 1018.55   52.23   3
   1   0  -8  917.07   51.94   1
   1  -1   8 1047.30   53.34   1
   1   0  -8  974.60   49.16   4
  -1   1  -8  989.99   48.10   5
  -1   1  -8  977.74   46.87   2
   1   0  -8  964.00   47.98   5
  -1  -1  -8  527.55   28.78   1
   1  -2   8  493.04   29.68   1
   2  -1  -8  497.69   27.94   4
  -1  -1  -8  517.26   30.19   3
  -1  -1  -8  541.58   25.77   5
  -1   2  -8  531.51   27.82   5
   2  -1  -8  512.15   27.97   1
   1   1   8  462.64   28.42   1
  -1   2  -8  517.46   29.28   1
  -1  -1  -8  545.59   27.15   4
  -1   2  -8  539.29   26.40   2
   2  -1  -8  513.84   26.86   2
   2  -1  -8  524.31   28.11   1
  -1   3  -8  717.13   36.35   2
   3  -2  -8  720.58   39.13   4
   1  -3   8  751.25   43.24   1
   3  -2  -8  726.76   40.75   1
  -2  -1  -8  755.90   35.91   5
   3  -2  -8  760.29   37.03   2
   3  -2  -8  718.59   40.92   1
  -1   3  -8  757.29   38.38   5
  -2  -1  -8  770.54   42.03   1
  -2   0  -8 1734.80   85.56   3
   0  -2   8 1651.75   89.06   1
   0   2  -8 1675.82   88.51   1
   2  -2  -8 1625.53   86.88   1
  -2   0  -8 1601.68   76.99   5
   0   2  -8 1710.98   78.59   5
   2  -2  -8 1707.63   80.47   4
   2  -2  -8 1717.46   76.90   2
   2   0   8 1575.79   88.51   1
   2   0   8 1541.03   88.14   1
   0   2  -8 1701.81   76.89   2
   2  -2  -8 1661.50   86.98   1
   2  -2  -8 1737.18   84.83   3
   1  -2  -8  505.51   28.72   3
   1   1  -8  511.99   26.46   2
  -2   1  -8  526.76   28.91   3
  -1   2   8  477.09   25.09   5
   1  -2  -8  519.62   27.47   4
   1  -2  -8  555.17   27.15   1
   1   1  -8  504.74   28.13   1
  -2   1  -8  501.07   26.39   5
   2  -1   8  494.67   28.96   1
  -1   2   8  461.61   26.92   1
   2  -1   8  481.30   28.60   1
  -1  -1   8  490.31   28.48   1
   1   1  -8  511.52   26.94   5
   2   0  -8 1572.12   88.51   1
   0  -2  -8 1720.58   76.51   5
   2   0  -8 1699.41   78.08   2
   0  -2  -8 1744.89   88.65   1
  -2   2  -8 1654.55   84.91   3
   0  -2  -8 1705.71   86.49   3
   2   0  -8 1698.48   80.48   4
   0  -2  -8 1755.78   80.22   4
  -2   0   8 1662.64   89.16   1
   2  -2   8 1715.67   90.51   1
  -2   2  -8 1724.73   76.48   2
  -2   2  -8 1666.21   79.30   5
   0   2   8 1572.45   88.35   1
   3  -1  -8  727.29   41.36   1
  -1  -2  -8  758.59   35.04   5
  -2   3  -8  781.49   39.14   5
  -1  -2  -8  760.39   42.09   1
   3  -1  -8  765.25   37.70   2
   3  -1  -8  779.09   39.13   4
  -2   3  -8  726.79   35.96   2
   2  -3   8  744.60   43.44   1
  -1  -2  -8  753.32   37.59   4
   3  -1  -8  712.97   41.55   1
  -2  -2  -8  425.14   21.70   5
   4  -2  -8  438.78   27.09   1
   4  -2  -8  431.51   26.00   4
   4  -2  -8  420.73   24.12   2
   2  -4   8  454.17   29.59   1
  -2  -2  -8  468.92   27.97   1
  -2   4  -8  454.60   23.51   2
  -2   4  -8  449.81   25.84   5
   5  -3  -8  439.14   27.22   4
   5  -3  -8  432.15   27.95   1
  -3  -2  -8  435.32   21.81   5
  -2   5  -8  423.80   25.88   5
   2  -5   8  451.71   30.50   1
   5  -3  -8  412.49   23.56   2
  -2   5  -8  421.34   23.68   2
  -3  -2  -8  400.28   28.31   1
   4  -3  -8  529.73   32.12   1
  -1   4  -8  554.51   30.27   5
   1  -4   8  571.83   34.79   1
   4  -3  -8  540.85   31.47   4
  -3  -1  -8  546.46   33.69   1
   4  -3  -8  512.76   28.13   2
   3  -3  -8  393.74   23.86   4
   0  -3   8  383.71   25.44   1
   3  -3  -8  381.19   23.30   1
   3  -3  -8  379.21   23.10   1
   3   0   8  385.57   25.05   1
   3  -3  -8  399.83   21.66   2
   0   3  -8  411.75   23.06   5
  -1  -2   8  758.29   42.11   1
   1   2  -8  704.89   37.58   5
   2  -3  -8  715.74   39.96   3
   3  -1   8  733.39   42.29   1
  -3   1  -8  735.54   40.45   3
  -2   3   8  719.14   40.30   1
   2  -3  -8  742.99   38.96   4
   2  -3  -8  746.11   40.27   1
   3  -2   8  777.55   43.15   1
  -1   3   8  656.03   40.26   1
  -1   3   8  729.35   34.57   5
   1  -3  -8  754.52   40.85   3
   1  -3  -8  753.88   40.78   1
  -3   2  -8  722.81   39.56   3
   1  -3  -8  764.25   38.68   4
  -2  -1   8  752.43   42.04   1
   0  -3  -8  405.60   23.85   1
   0  -3  -8  384.16   22.01   4
  -3   3  -8  393.50   22.78   3
  -3   0   8  367.60   24.27   1
   3   0  -8  391.93   22.68   4
   0  -3  -8  381.64   24.90   3
   3  -3   8  399.42   25.99   1
   3   0  -8  392.90   22.72   2
  -3   3  -8  407.58   20.23   2
   4  -1  -8  517.71   29.27   2
   3  -4   8  576.12   35.08   1
  -1  -3  -8  537.93   28.53   4
  -1  -3  -8  559.68   33.14   1
   4  -1  -8  532.32   32.85   1
  -3   4  -8  567.00   31.18   5
   4  -1  -8  525.14   29.89   4
  -3   4  -8  550.24   26.74   2
  -3   5  -8  423.76   26.12   5
   5  -2  -8  404.32   24.07   2
  -3   5  -8  433.27   21.84   2
  -2  -3  -8  425.81   28.04   1
   5  -2  -8  412.56   27.58   1
   5  -2  -8  423.93   25.57   4
   3  -5   8  392.12   29.34   1
   3  -6   8  181.88   20.17   1
   6  -3  -8  163.84   16.30   4
  -3   6  -8  187.45   12.41   2
  -3  -3  -8  167.51   16.84   1
   6  -3  -8  160.66   13.15   2
  -3   6  -8  149.95   15.86   5
   6  -3  -8  170.02   16.71   1
   7  -4  -8  246.98   21.95   1
  -4  -3  -8  218.72   22.11   1
   7  -4  -8  252.34   21.17   4
  -3   7  -8  242.09   20.31   5
   3  -7   8  198.73   25.00   1
   6  -4  -8  510.35   31.70   4
  -4  -2  -8  472.47   33.47   1
   2  -6   8  467.65   35.09   1
  -2   6  -8  461.23   29.06   5
   6  -4  -8  495.42   26.19   2
   6  -4  -8  484.21   32.31   1
   4   1   8  175.04   17.72   1
  -1   5  -8  231.11   16.51   5
   5  -4  -8  217.05   16.90   1
   1  -5   8  184.58   18.59   1
   5  -4  -8  211.26   13.79   2
   5  -4  -8  200.78   17.52   4
   4  -4  -8  839.79   46.68   1
   0  -4   8  774.70   49.04   1
   0   4  -8  838.57   42.48   5
   4   0   8  775.72   48.65   1
   4  -4  -8  830.57   44.73   4
   3  -4  -8  545.56   30.40   3
   3  -4  -8  543.30   31.18   4
   4  -1   8  555.63   33.80   1
   1   3  -8  497.36   29.22   5
   3  -4  -8  512.66   31.24   1
  -1  -3   8  546.46   33.66   1
  -4   1  -8  516.45   31.59   3
  -4   2  -8  413.73   24.75   3
  -2   4   8  376.44   20.87   5
   2  -4  -8  439.24   25.48   3
  -2  -2   8  414.30   26.97   1
   2  -4  -8  435.35   25.48   1
   2  -4  -8  405.34   24.82   4
   4  -2   8  423.99   27.72   1
  -3  -1   8  561.93   33.41   1
   4  -3   8  562.54   34.37   1
  -4   3  -8  508.95   29.46   3
   1  -4  -8  533.27   31.97   1
   1  -4  -8  532.84   29.87   4
   1  -4  -8  517.54   31.83   3
   4  -4   8  777.71   49.33   1
   0  -4  -8  856.97   47.59   1
   0  -4  -8  808.31   41.85   4
   4   0  -8  862.18   42.36   4
  -4   0   8  788.44   48.27   1
  -1  -4  -8  241.11   18.81   1
  -4   5  -8  237.46   18.68   5
   5  -1  -8  229.67   16.40   4
   5  -1  -8  221.97   18.17   1
   4  -5   8  211.20   20.04   1
  -1  -4  -8  229.50   14.38   4
   5  -1  -8  218.25   16.58   2
   6  -2  -8  506.35   29.75   4
  -2  -4  -8  516.57   34.42   1
   6  -2  -8  488.73   28.63   2
   6  -2  -8  512.06   33.94   1
  -4   6  -8  529.50   32.20   5
   4  -6   8  449.58   35.59   1
   4  -7   8  234.17   25.78   1
   7  -3  -8  234.73   19.17   4
  -3  -4  -8  238.40   22.63   1
   7  -3  -8  241.84   22.00   1
   7  -3  -8  202.56   16.74   2
  -4   7  -8  218.37   20.38   5
   4  -8   8  114.79   22.93   1
  -4   8  -8  117.20   17.45   5
   8  -4  -8  128.95   17.95   4
  -4  -4  -8  118.25   20.52   1
   8  -4  -8  137.04   20.26   1
  -5  -4  -8  144.90   26.58   1
   5   4   8   99.69   26.27   1
   4  -9   8   92.35   24.46   1
   9  -5  -8   52.29   26.27   1
   5   3   8  137.33   21.50   1
   8  -5  -8  133.31   19.80   4
  -5  -3  -8  160.04   21.69   1
   8  -5  -8  132.82   19.78   1
   3  -8   8  101.23   22.70   1
   2  -7   8  125.37   20.71   1
   7  -5  -8  101.77   16.94   4
   5   2   8  114.41   18.07   1
  -2   7  -8  106.04   14.90   5
   7  -5  -8  126.38   16.74   1
   6  -5  -8  303.44   23.12   1
  -1   6  -8  261.26   19.69   5
   6  -5  -8  282.66   23.55   4
   1  -6   8  301.73   26.51   1
   5   1   8  267.60   24.79   1
   5  -5  -8  349.72   24.23   1
   0  -5   8  342.34   27.39   1
   0   5  -8  354.10   22.28   5
   5   0   8  308.55   26.20   1
   5  -1   8  215.12   19.53   1
  -1  -4   8  200.29   18.93   1
   4  -5  -8  211.57   16.65   1
   5  -2   8  403.18   28.57   1
   3  -5  -8  380.58   25.95   1
  -2  -3   8  407.16   28.30   1
  -5   2  -8  418.00   25.48   3
   3  -5  -8  393.56   24.52   3
  -3  -2   8  418.73   28.83   1
   5  -3   8  414.76   29.25   1
   2  -5  -8  393.69   25.56   4
   2  -5  -8  413.51   26.62   1
   2  -5  -8  430.95   26.52   3
  -5   3  -8  400.41   24.09   3
   1  -5  -8  212.59   16.69   1
   5  -4   8  199.09   18.87   1
  -4  -1   8  179.86   17.35   1
   1  -5  -8  213.41   15.69   4
   1  -5  -8  208.35   17.19   3
   5   0  -8  353.39   25.46   1
   0  -5  -8  319.99   20.76   4
   5   0  -8  360.64   21.16   4
   5  -5   8  319.10   26.78   1
   0  -5  -8  381.95   25.40   1
   5  -6   8  266.26   25.47   1
   6  -1  -8  280.42   20.90   2
   6  -1  -8  269.19   23.02   1
  -5   6  -8  272.50   22.22   5
  -1  -5  -8  299.08   23.34   1
   6  -1  -8  284.61   18.89   4
   7  -2  -8   95.72   14.20   2
   7  -2  -8  156.45   18.41   1
   7  -2  -8  146.41   14.70   4
  -2  -5  -8  130.98   17.96   1
   5  -7   8  119.33   19.84   1
  -5   7  -8  115.51   16.84   5
   5  -8   8  151.80   25.22   1
  -3  -5  -8  170.88   21.56   1
  -5   8  -8  135.39   19.50   5
   8  -3  -8  134.09   20.31   1
  -4  -5  -8  151.24   27.50   1
   9  -4  -8  124.10   26.63   1
   6   3   8   25.20   25.22   1
   3  -9   8   62.58   25.89   1
   9  -6  -8   93.64   25.24   4
   6   2   8  146.57   25.10   1
   8  -6  -8  206.97   23.01   4
   8  -6  -8  185.45   23.50   1
   2  -8   8  169.02   26.26   1
   6   1   8  187.36   23.67   1
  -1   7  -8  180.78   17.29   5
   7  -6  -8  145.22   19.67   4
   7  -6  -8  180.60   19.83   1
   1  -7   8  175.78   24.08   1
   0  -6   8  124.96   20.39   1
   6   0   8  173.28   20.54   1
   6  -6  -8  182.02   17.77   1
   6  -1   8  260.70   24.55   1
   5  -6  -8  275.89   21.46   1
  -1  -5   8  230.25   23.72   1
   4  -6  -8  464.61   31.38   1
  -2  -4   8  469.59   34.09   1
   6  -2   8  451.78   34.18   1
  -6   2  -8  472.50   29.68   3
  -3  -3   8  144.76   17.93   1
   6  -3   8  153.08   18.56   1
   3  -6  -8  166.82   15.73   1
  -6   3  -8  171.63   13.81   3
   3  -6  -8  181.72   14.62   3
   2  -6  -8  482.05   29.86   3
   2  -6  -8  543.95   32.27   1
  -4  -2   8  422.21   32.83   1
   6  -4   8  432.93   33.53   1
   2  -6  -8  430.95   28.38   4
   6  -5   8  284.27   25.19   1
   1  -6  -8  261.82   21.70   3
   1  -6  -8  265.66   21.48   1
  -5  -1   8  268.68   23.59   1
   1  -6  -8  238.96   18.90   4
   6   0  -8  183.62   18.86   1
   6  -6   8  166.06   21.30   1
   0  -6  -8  159.45   18.26   1
  -1  -6  -8  165.34   19.94   1
   7  -1  -8  175.42   20.35   1
   7  -1  -8  120.33   15.97   2
   6  -7   8  178.44   22.56   1
  -6   7  -8  141.03   18.19   5
  -6   8  -8  180.33   21.36   5
  -2  -6  -8  192.24   23.04   1
   6  -8   8  161.55   25.51   1
   8  -2  -8  211.78   24.68   1
   6  -9   8   61.11   23.67   1
  -3  -6  -8  114.59   27.40   1
   9  -3  -8   59.04   26.09   1
   8  -7  -8   28.88   18.48   4
   7   1   8   24.91   19.43   1
   8  -7  -8   60.17   23.10   1
   1  -8   8   77.28   22.49   1
   0  -7   8  124.68   22.50   1
   7  -7  -8  140.76   20.64   1
   7   0   8  124.16   21.88   1
   7  -7  -8  125.41   20.05   4
  -1  -6   8  145.97   22.50   1
   7  -1   8  142.60   20.79   1
   6  -7  -8  158.55   18.55   1
  -7   2  -8  117.30   14.88   3
  -2  -5   8  113.73   19.33   1
   7  -2   8  114.29   19.27   1
   5  -7  -8  112.79   16.74   1
  -3  -4   8  225.19   24.27   1
   4  -7  -8  224.63   20.91   1
   7  -3   8  231.77   24.76   1
   3  -7  -8  210.91   20.53   4
   3  -7  -8  225.61   20.60   1
   3  -7  -8  234.80   18.94   3
   7  -4   8  212.20   23.59   1
  -4  -3   8  200.05   22.72   1
  -5  -2   8   71.68   17.64   1
   2  -7  -8  134.14   15.87   3
   2  -7  -8  103.13   14.69   4
   7  -5   8  105.91   18.49   1
   2  -7  -8  141.24   17.07   1
   1  -7  -8  177.90   20.03   1
   1  -7  -8  147.98   18.58   3
   7  -6   8  159.31   21.77   1
   6   1  -8  152.62   20.03   1
   0  -7  -8  122.79   19.85   3
   7  -7   8  126.93   21.36   1
   7   0  -8  108.22   19.61   1
   0  -7  -8  139.26   19.87   1
   7   0  -8  126.83   17.72   2
  -7   8  -8   61.38   18.58   5
   8  -1  -8   49.38   20.03   1
  -1  -7  -8   43.72   21.02   1
  -1  -7  -8   77.40   29.47   3
   7  -8   8   45.18   21.83   1
   8   0   8  104.27   26.65   1
   0  -8   8   80.40   41.75   1
   8  -1   8   27.39   20.81   1
   7  -8  -8   54.79   19.10   4
  -1  -7   8   43.57   20.53   1
   8  -2   8  152.70   24.92   1
   6  -8  -8  191.43   24.23   1
  -2  -6   8  166.67   25.84   1
  -3  -5   8  150.23   22.85   1
   5  -8  -8  139.51   20.16   1
   8  -3   8  125.87   23.75   1
   4  -8  -8  110.80   18.97   4
   8  -4   8  124.39   21.41   1
   4  -8  -8  107.17   17.94   1
  -4  -4   8   65.70   20.13   1
   3  -8  -8  115.51   17.28   4
  -5  -3   8   96.31   20.70   1
   8  -5   8  117.38   22.15   1
   3  -8  -8   96.87   19.45   1
   8  -6   8  171.50   24.92   1
   2  -8  -8  187.49   23.73   1
  -6  -2   8  152.17   23.96   1
   6   2  -8  199.99   24.64   1
   1  -8  -8   63.39   21.91   1
   8  -7   8   62.58   21.73   1
   7   1  -8   52.61   25.52   1
   8  -8   8   79.73   24.36   1
  -8   8  -8   80.10   23.00   5
   0  -8  -8  155.20   29.28   1
   9  -3   8   46.70   24.06   1
   6  -9  -8   19.00   24.68   4
  -3  -6   8   51.28   25.98   1
  -4  -5   8   60.47   23.87   1
   9  -4   8  101.30   25.09   1
   5  -9  -8   68.85   28.26   4
   4  -9  -8   30.71   31.32   4
   9  -5   8   56.91   24.50   1
  -5  -4   8   68.59   29.91   1
   9  -6   8   58.84   25.17   1
  -6  -3   8   65.41   26.13   1
   0   0  -9   -0.34    3.67   2
   0   0  -9   -0.13    3.44   5
   0   0  -9   -9.76    5.53   3
   0   0  -9    3.19    4.47   4
   1  -1  -9  400.05   21.90   5
   0   1  -9  399.09   22.58   1
  -1   0  -9  411.80   24.78   3
   1  -1  -9  410.92   23.44   4
  -1   0  -9  413.05   22.02   5
   1  -1  -9  387.88   22.22   2
  -1   0  -9  450.43   22.78   2
   0   1  -9  415.09   22.40   2
   1  -1  -9  399.50   24.86   3
   0   1  -9  409.50   22.87   5
  -1   1  -9  417.65   23.18   5
  -1   1  -9  433.35   25.10   3
   1   0  -9  394.79   22.85   5
   0  -1  -9  401.21   25.14   3
   0  -1  -9  441.85   22.07   5
   0  -1  -9  447.97   23.42   2
  -1   1  -9  409.15   23.20   1
  -1   1  -9  398.52   22.25   2
   1   0  -9  410.65   22.77   2
   1   0  -9  425.71   23.91   4
   0  -1  -9  425.07   23.38   4
  -1   2  -9   -5.86    3.84   1
   2  -1  -9   -1.77    1.68   1
  -1  -1  -9   -4.33    4.00   4
  -1  -1  -9   -1.53    4.99   3
  -1   2  -9   -1.43    4.92   5
   2  -1  -9   -1.23    4.68   4
   1  -2   9   -0.54    3.06   1
   1   1   9    2.61    2.46   1
  -1  -1  -9    7.70    3.58   5
  -1   2  -9    1.29    3.82   2
   2  -1  -9   -2.73    4.47   2
   1   1   9   -2.78    2.45   1
   2  -1  -9   -1.83    1.59   1
   3  -2  -9  345.50   21.55   4
  -2  -1  -9  344.30   18.70   5
   3  -2  -9  330.65   19.93   1
   3  -2  -9  362.28   20.09   2
   3  -2  -9  343.01   20.04   1
  -1   3  -9  318.70   20.66   5
  -1   3  -9  333.73   19.45   2
  -2  -1  -9  350.86   23.33   3
   2  -2  -9  667.40   34.14   4
  -2   0  -9  625.54   35.95   3
   0   2  -9  644.72   32.23   2
   0   2  -9  603.38   32.86   5
   2  -2  -9  635.09   35.46   3
   2  -2  -9  633.96   32.35   2
  -2   0  -9  592.52   31.51   5
   0   2  -9  599.70   35.03   1
   1  -2  -9    2.87    4.97   3
   1   1  -9   -0.10    4.50   5
   2  -1   9   -0.02    2.75   1
  -1  -1   9    0.28    2.92   1
   1  -2  -9   -5.81    4.71   4
   2  -1   9   -4.16    3.87   1
  -2   1  -9    2.52    4.37   5
   1   1  -9   -1.72    2.86   1
   1  -2  -9    7.21    4.98   2
   1   1  -9    9.82    5.21   2
  -2   1  -9   -0.99    4.08   3
  -2   2  -9  654.05   31.57   2
  -2   2  -9  649.69   33.67   5
   0  -2  -9  614.42   33.20   4
   0  -2  -9  628.91   36.55   3
  -2   2  -9  633.74   35.13   3
   2   0  -9  640.91   33.08   2
   0  -2  -9  635.03   34.39   1
   2   0  -9  638.34   33.78   4
   0  -2  -9  633.73   30.62   5
   2   0  -9  617.32   34.73   1
   3  -1  -9  373.30   21.89   1
  -2   3  -9  366.63   19.85   2
  -1  -2  -9  358.41   21.91   1
  -2   3  -9  369.57   22.11   5
   3  -1  -9  343.78   21.80   4
  -1  -2  -9  340.37   23.77   3
   3  -1  -9  336.33   21.42   1
  -1  -2  -9  348.31   20.58   4
   1   2   9  424.02   22.68   1
   3  -1  -9  347.18   21.22   2
  -1  -2  -9  381.90   18.44   5
  -2  -2  -9   -3.52    3.13   5
  -2  -2  -9   -5.17    5.03   1
   4  -2  -9   -2.68    6.30   4
  -2   4  -9    0.95    6.06   5
   2  -4   9    3.19    5.94   1
  -2   4  -9    6.78    4.94   2
   4  -2  -9    8.16    5.45   1
   4  -2  -9   -3.80    5.26   2
   5  -3  -9  135.22   14.61   4
   5  -3  -9  155.30   12.66   2
  -2   5  -9  155.66   14.31   5
  -3  -2  -9  146.00   14.52   1
   5  -3  -9  150.59   14.17   1
  -3  -2  -9  159.23   10.21   5
  -2   5  -9  174.34   12.70   2
   4  -3  -9  216.35   16.91   4
  -1   4  -9  188.46   15.37   5
  -1   4  -9  187.87   14.39   2
  -3  -1  -9  231.39   13.55   5
   4  -3  -9  209.08   14.70   1
   4  -3  -9  205.41   14.43   2
   3  -3  -9    8.15    4.60   1
   3   0   9    7.38    4.62   1
   3  -3  -9   -0.47    5.34   4
   3  -3  -9   10.03    4.90   2
  -3   0  -9    4.94    5.71   3
   0   3  -9   -0.07    5.27   5
   0  -3   9   11.11    5.58   1
   3  -3  -9    7.55    3.64   1
   2  -3  -9  357.18   23.02   3
  -2   3   9  401.25   21.47   1
  -3   1  -9  339.32   23.03   3
   1   2  -9  338.86   21.76   5
   2  -3  -9  355.14   22.59   4
   2  -3  -9  356.13   21.16   1
   3  -1   9  428.06   24.13   1
  -2  -1   9  427.15   23.92   1
   1  -3  -9  345.10   23.98   3
   2   1  -9  357.51   22.16   2
  -1   3   9  402.54   22.08   1
  -3   2  -9  340.85   22.54   3
   1  -3  -9  343.29   21.69   1
  -1   3   9  423.84   19.36   5
   3  -2   9  429.02   24.59   1
   1  -3  -9  321.76   21.86   4
  -3   3  -9   14.76    4.95   3
   3   0  -9    6.88    6.01   2
   3   0  -9   12.11    5.74   4
  -3   3  -9   14.45    4.50   2
   0  -3  -9    1.25    4.22   4
   0  -3  -9    7.06    4.27   1
  -3   3  -9    4.78    5.16   5
   0  -3  -9   13.89    6.10   3
   3  -3   9   -2.57    5.08   1
  -3   4  -9  222.95   17.00   5
   4  -1  -9  244.41   16.30   2
  -1  -3  -9  236.28   16.58   1
  -1  -3  -9  218.72   14.43   4
   4  -1  -9  223.53   16.15   1
  -3   4  -9  215.43   13.27   2
   4  -1  -9  206.44   15.91   4
  -3   5  -9  141.30   14.71   5
  -2  -3  -9  167.45   14.62   1
   5  -2  -9  152.64   14.17   1
   5  -2  -9  161.82   14.00   2
   5  -2  -9  139.31   13.62   4
  -3   5  -9  161.94   11.00   2
  -3  -3  -9   -1.61    8.80   1
   6  -3  -9   13.05    9.29   1
   6  -3  -9    2.59    7.40   2
   6  -3  -9   10.66    8.52   4
  -3   6  -9  -12.11    9.60   5
  -3   6  -9   12.23    7.25   2
   3  -6   9    9.85   11.20   1
   7  -4  -9   76.42   14.97   1
  -3   7  -9  107.78   15.46   5
   7  -4  -9   88.39   14.75   4
   3  -7   9  130.41   19.23   1
  -4  -3  -9  123.07   17.39   1
  -2   6  -9  162.94   14.08   2
   6  -4  -9  160.21   13.29   2
  -4  -2  -9  170.64   18.00   1
  -2   6  -9  193.36   16.94   5
   6  -4  -9  161.92   17.42   4
   6  -4  -9  180.41   16.61   1
   1  -5   9    4.66    9.56   1
   4   1   9    1.09    7.99   1
  -1   5  -9    6.54    7.50   5
   5  -4  -9   -1.26    7.25   1
   5  -4  -9    6.62    8.68   4
   5  -4  -9    2.20    6.72   2
   4  -4  -9  292.01   19.40   1
   0   4  -9  286.31   19.52   5
   4  -4  -9  285.89   21.15   4
   1   3  -9  197.48   16.10   5
  -4   1  -9  223.08   17.55   3
   4  -1   9  284.57   19.37   1
   3  -4  -9  249.87   18.31   4
   3  -4  -9  213.60   15.65   1
   3  -4  -9  241.23   16.94   3
   4  -2   9    4.32    5.91   1
   2  -4  -9    2.88    6.20   3
   2  -4  -9  -11.07    5.99   4
   2  -4  -9    0.49    4.18   1
  -2  -2   9   -5.43    5.66   1
  -4   3  -9  219.09   15.42   3
   1  -4  -9  215.73   17.87   3
   1  -4  -9  224.85   16.36   4
   4  -3   9  277.95   19.21   1
   1  -4  -9  219.41   15.82   1
   0  -4  -9  268.48   21.23   3
   0  -4  -9  290.76   19.94   1
   0  -4  -9  264.09   18.05   4
   4   0  -9  298.75   20.16   2
   4   0  -9  298.81   20.57   1
   4   0  -9  302.64   18.93   4
   4  -5   9    6.18    9.49   1
  -4   5  -9    8.05    9.07   5
  -1  -4  -9   10.07    5.40   4
   5  -1  -9   16.02    7.94   4
   5  -1  -9   12.18    8.23   2
  -1  -4  -9   -7.87    7.70   1
   5  -1  -9    5.40    7.20   1
   6  -2  -9  158.65   14.86   4
   6  -2  -9  133.35   14.10   2
  -4   6  -9  152.92   16.99   5
   6  -2  -9  187.34   17.29   1
  -2  -4  -9  155.56   16.39   1
   7  -3  -9   98.87   13.37   2
  -3  -4  -9  127.58   17.64   1
   7  -3  -9  129.91   15.39   4
   4  -7   9  133.03   20.79   1
   7  -3  -9  129.19   16.92   1
  -4   7  -9  106.90   16.15   5
   8  -4  -9    2.36   16.15   1
  -4   8  -9  -10.69   14.71   5
   8  -4  -9   14.59   17.15   4
  -4  -4  -9    0.32   16.31   1
   4  -8   9  -19.20   18.92   1
   5   4   9   65.82   32.32   1
   3  -8   9   69.05   21.69   1
   8  -5  -9   77.68   19.96   1
  -3   8  -9   38.94   16.31   5
   5   3   9   75.64   20.03   1
   2  -7   9    9.57   15.72   1
   5   2   9    8.79   13.48   1
   7  -5  -9   -3.23   12.90   4
  -2   7  -9    0.35   11.07   2
   7  -5  -9   15.56   12.81   1
  -2   7  -9   15.22   12.03   5
   1  -6   9  158.40   19.01   1
  -1   6  -9  100.96   13.05   5
   6  -5  -9  112.33   16.18   4
   6  -5  -9  109.62   13.67   1
   0   5  -9  140.13   14.53   5
   5  -5  -9  182.68   15.11   1
   0  -5   9  209.07   19.71   1
   5  -5  -9  134.81   16.51   4
   4  -5  -9  -13.63    9.14   4
  -5   1  -9    8.37    7.74   3
   5  -1   9    1.51    8.43   1
   4  -5  -9    1.90    6.00   1
  -1  -4   9    6.33    9.36   1
   3  -5  -9  138.78   14.38   4
   3  -5  -9  142.67   12.68   3
  -5   2  -9  143.24   13.41   3
   3  -5  -9  141.13   12.42   1
   2  -5  -9  138.52   13.80   4
   2  -5  -9  134.82   13.52   3
  -5   3  -9  131.90   11.57   3
   2  -5  -9  148.29   12.55   1
  -4  -1   9  -12.72    8.97   1
   1  -5  -9    2.85    6.30   1
   1  -5  -9   10.83    8.88   3
   1  -5  -9    6.21    7.40   4
   5  -4   9    4.89    9.22   1
   5   0  -9  166.21   13.64   4
   0  -5  -9  176.34   17.70   3
   0  -5  -9  152.42   15.46   1
   5   0  -9  137.52   15.33   1
   5   0  -9  170.16   15.89   2
   0  -5  -9  147.19   13.11   4
   6  -1  -9   88.64   12.62   2
  -5   6  -9  104.14   15.81   5
   6  -1  -9  111.94   14.26   1
  -1  -5  -9  106.49   14.53   1
   6  -1  -9  113.26   12.63   4
   7  -2  -9   20.71   12.83   1
  -5   7  -9   11.28   12.97   5
   7  -2  -9   20.65   12.43   4
   7  -2  -9    0.40   10.87   2
   5  -7   9   21.70   15.43   1
  -2  -5  -9   19.83   12.39   1
  -3  -5  -9   74.45   19.08   1
   8  -3  -9   48.35   18.67   1
  -5   8  -9   60.83   16.55   5
   5  -8   9   48.89   20.18   1
   5  -9   9   41.91   38.88   1
  -4  -5  -9   24.61   24.20   1
   8  -6  -9   60.87   18.92   4
   6   2   9  120.43   23.29   1
   2  -8   9   90.68   22.40   1
   1  -7   9   93.00   19.69   1
  -1   7  -9   30.74   13.86   5
   7  -6  -9   55.01   14.82   1
   6   1   9   61.81   17.77   1
   7  -6  -9   65.69   16.10   4
   6  -6  -9    5.95   12.16   4
   6  -6  -9   -2.27    9.99   1
   0  -6   9    3.37   13.73   1
   6   0   9   -1.81   12.78   1
   5  -6  -9  109.93   16.39   4
  -1  -5   9  150.34   18.57   1
   6  -1   9  143.59   17.84   1
  -6   1  -9  103.61   15.04   3
   5  -6  -9  118.93   14.03   1
   4  -6  -9  146.57   14.82   1
   4  -6  -9  179.11   17.71   4
  -6   2  -9  135.25   14.82   3
  -6   3  -9   -0.23    6.95   3
   3  -6  -9   18.06    8.95   3
   6  -3   9    6.73   10.68   1
   3  -6  -9  -15.19    9.91   4
   3  -6  -9   15.83    8.81   1
  -3  -3   9   12.95   10.88   1
   2  -6  -9  142.54   15.75   4
   2  -6  -9  150.48   16.13   1
  -4  -2   9  208.23   18.92   1
   2  -6  -9  176.83   17.07   3
   1  -6  -9  110.84   14.10   1
   1  -6  -9  119.12   15.29   3
  -5  -1   9  146.41   17.01   1
   1  -6  -9   90.80   12.81   4
  -6   6  -9   -9.86   13.35   5
   6   0  -9  -18.96   12.57   1
   0  -6  -9  -12.73   12.28   3
   6  -6   9   21.45   14.00   1
   6   0  -9   12.31   11.20   2
   7  -1  -9   83.94   17.29   1
  -6   7  -9   88.75   17.40   5
  -1  -6  -9   49.32   16.06   1
   6  -7   9   78.43   18.96   1
  -1  -6  -9   76.97   17.50   3
   7  -1  -9   42.95   14.08   2
   8  -2  -9   64.86   21.18   1
   6  -8   9   78.33   21.98   1
  -6   8  -9   45.13   18.27   5
  -2  -6  -9   45.11   19.36   1
   1  -8   9  -15.39   21.15   1
   7   1   9   15.05   26.94   1
   8  -7  -9  -23.59   18.31   4
   7   0   9   53.44   19.39   1
   7  -7  -9   41.90   18.29   1
   7  -7  -9   18.41   16.09   4
   0  -7   9   51.09   20.34   1
   6  -7  -9   46.41   15.87   4
  -1  -6   9   62.11   19.18   1
   7  -1   9   80.52   18.14   1
   6  -7  -9   65.74   18.33   1
   5  -7  -9    3.99   13.50   4
   5  -7  -9   20.04   11.90   1
  -7   2  -9    3.61   11.49   3
  -2  -5   9   -5.08   14.54   1
   7  -2   9    8.22   14.04   1
   4  -7  -9   72.10   14.69   4
   4  -7  -9   90.24   13.31   1
   3  -7  -9   92.38   15.53   1
   7  -4   9  143.90   19.80   1
  -4  -3   9  111.97   18.17   1
   3  -7  -9  106.18   16.24   4
   3  -7  -9  133.78   15.49   3
   2  -7  -9   11.11   12.22   3
  -5  -2   9   11.58   12.99   1
   2  -7  -9   -1.92   11.81   1
   2  -7  -9  -14.04   11.26   4
   7  -5   9   25.69   15.64   1
   6   1  -9   44.83   15.14   1
   7  -6   9   54.68   17.68   1
   1  -7  -9   62.31   14.50   3
   1  -7  -9   44.42   14.29   1
   0  -7  -9   -0.34   16.77   3
   7   0  -9   59.59   16.46   2
   7  -7   9   24.04   18.96   1
   7   0  -9   77.83   18.41   1
  -7   7  -9   37.82   17.06   5
   0  -7  -9   42.06   17.90   1
  -1  -7  -9   16.87   21.21   3
  -7   8  -9  -33.22   24.97   5
   7  -8   9   26.42   21.76   1
   8  -1   9   14.39   24.67   1
   7  -8  -9   21.46   18.12   4
  -1  -7   9   -3.25   19.89   1
   8  -2   9  103.56   23.55   1
   6  -8  -9   56.34   18.83   4
  -2  -6   9   34.21   21.40   1
   8  -3   9   93.23   21.83   1
  -3  -5   9   81.08   22.15   1
   5  -8  -9   41.76   17.90   1
   5  -8  -9   16.13   16.66   4
   8  -4   9   11.71   16.91   1
   4  -8  -9   17.26   15.45   4
   4  -8  -9    5.79   16.04   1
  -4  -4   9  -15.04   18.21   1
   3  -8  -9   36.68   17.92   1
  -5  -3   9   72.27   19.17   1
   8  -5   9   70.92   20.96   1
   3  -8  -9   54.04   16.63   4
   6   2  -9   67.54   19.10   1
   8  -6   9   92.77   21.32   1
   7   1  -9    3.36   19.93   1
   7   1  -9    4.21   22.20   2
   8  -7   9   14.00   21.34   1
  -8   7  -9   -3.64   18.65   5
   5  -9  -9   -1.58   21.18   4
  -4  -5   9   33.98   30.05   1
   9  -4   9   81.96   26.13   1
  -5  -4   9   21.84   25.95   1
   4  -9  -9   75.24   36.52   4
   9  -5   9   26.17   23.37   1
   0   0 -10 2869.28  132.26   5
   0   0 -10 2919.47  144.74   3
   0   0 -10 2916.22  130.57   2
   0   0 -10 2856.37  135.46   4
   0  -1  10  994.49   49.89   1
   1  -1 -10  908.09   50.68   3
   0   1 -10  952.33   46.86   5
  -1   0 -10  890.40   45.61   2
   0   1 -10  922.77   45.64   2
  -1   0 -10  942.28   45.93   5
   0   1 -10  940.27   49.61   1
   1  -1 -10  952.99   47.96   4
   1  -1 -10  975.72   45.98   5
  -1   0 -10  934.93   50.89   3
   1  -1 -10  893.74   45.82   2
   1   0 -10  946.61   46.95   5
  -1   1 -10  868.50   50.68   3
  -1   1 -10  926.61   46.96   5
   1  -1  10  987.16   50.65   1
   0  -1 -10  932.24   51.36   3
   1  -1  10 1002.42   50.70   1
  -1   1 -10  966.87   45.99   2
   0  -1 -10  994.85   46.89   2
   0  -1 -10 1000.35   48.23   4
   0  -1 -10  906.71   45.50   5
   1   0 -10  950.62   48.10   4
   1   0 -10  884.52   46.06   2
  -1   2 -10  439.72   25.11   5
  -1  -1 -10  447.09   27.43   3
   1  -2  10  386.62   25.48   1
  -1   2 -10  487.01   24.00   2
   1   1  10  359.71   23.95   1
   2  -1 -10  450.83   24.44   2
  -1  -1 -10  473.42   23.07   5
  -1  -1 -10  459.24   24.70   4
   2  -1 -10  464.52   25.85   4
  -1   2 -10  410.39   25.09   1
   3  -2 -10  743.56   41.09   4
  -1   3 -10  761.22   38.51   2
  -2  -1 -10  777.01   44.49   3
  -2  -1 -10  765.58   37.73   5
   3  -2 -10  808.68   39.36   2
   1  -3  10  776.98   44.55   1
   3  -2 -10  720.91   41.34   1
   3  -2 -10  774.83   41.58   1
   2   1  10  798.39   43.69   1
  -1   3 -10  750.00   40.17   5
   2   0  10  521.23   31.98   1
  -2   0 -10  577.45   33.83   3
   2  -2 -10  587.47   30.58   2
   0   2 -10  532.57   32.38   1
   2  -2 -10  575.77   31.88   4
   2   0  10  564.64   32.46   1
   2  -2 -10  613.62   33.90   3
  -2   0 -10  593.08   29.92   5
   0   2 -10  545.60   30.89   5
   0   2 -10  578.08   30.30   2
   0  -2  10  601.30   33.17   1
   1  -2 -10  421.14   23.44   2
   2  -1  10  357.75   24.18   1
   1  -2 -10  439.11   24.52   4
   1   1 -10  426.38   24.15   5
   1   1 -10  448.17   23.96   2
  -2   1 -10  411.69   25.49   3
  -1  -1  10  359.29   23.64   1
   1   1 -10  427.66   23.57   1
   1  -2 -10  436.65   26.17   3
  -2   1 -10  462.63   24.10   5
   2   0 -10  566.73   31.63   1
   2   0 -10  588.10   31.81   4
   0  -2 -10  575.54   28.46   5
  -2   2 -10  587.58   33.13   3
   0  -2 -10  587.04   34.53   3
  -2   2 -10  589.17   29.81   2
   2  -2  10  575.28   33.53   1
   0  -2 -10  565.21   31.20   4
  -2   2 -10  550.30   31.12   5
   2   0 -10  576.28   31.73   1
   2   0 -10  589.18   30.97   2
   3  -1 -10  788.71   41.63   4
  -2   3 -10  759.15   38.25   2
  -1  -2 -10  778.19   37.01   5
  -1  -2 -10  780.44   39.94   4
   2  -3  10  799.39   45.17   1
   3  -1 -10  808.95   42.83   1
   3  -1 -10  774.26   40.02   2
  -1  -2 -10  800.97   43.15   1
  -2   3 -10  740.34   40.79   5
  -1  -2 -10  775.16   44.86   3
   3  -1 -10  743.23   42.54   1
   4  -2 -10 1277.02   66.99   1
  -2  -2 -10 1185.35   67.36   3
   2  -4  10 1177.60   69.50   1
  -2  -2 -10 1272.27   67.90   1
   4  -2 -10 1234.07   62.52   4
   4  -2 -10 1195.58   59.27   2
  -2  -2 -10 1198.01   56.59   5
  -2   4 -10 1259.44   58.33   2
  -2   4 -10 1201.38   61.41   5
  -3  -2 -10  364.75   18.69   5
  -2   5 -10  369.42   21.00   2
   5  -3 -10  326.85   22.76   1
  -3  -2 -10  335.89   24.24   1
   5  -3 -10  335.56   23.93   4
  -2   5 -10  337.33   23.19   5
   5  -3 -10  315.65   21.08   2
   2  -5  10  352.67   26.42   1
  -1   4 -10  492.74   29.73   5
  -3  -1 -10  497.86   26.84   5
   4  -3 -10  506.11   30.89   4
   3   1  10  537.80   32.60   1
  -3  -1 -10  473.58   32.79   3
   1  -4  10  527.80   32.89   1
   4  -3 -10  510.52   28.53   2
   4  -3 -10  530.31   30.24   1
  -1   4 -10  514.60   28.36   2
  -3   0 -10  326.53   19.90   5
   3   0  10  275.68   21.60   1
   0   3 -10  388.87   21.29   2
   0  -3  10  273.62   21.95   1
   3  -3 -10  339.36   20.29   2
   3  -3 -10  344.27   22.11   4
   0   3 -10  359.94   21.73   5
   3  -3 -10  342.72   19.53   1
  -3   0 -10  361.82   23.66   3
   2  -3 -10  820.39   41.95   4
   2  -3 -10  763.17   41.53   1
   3  -1  10  766.18   44.56   1
  -3   1 -10  776.10   39.85   5
  -3   1 -10  830.07   44.29   3
  -1  -2  10  766.07   44.16   1
  -2   3  10  714.56   41.50   1
   1   2 -10  768.06   40.14   2
   2  -3 -10  781.19   43.32   3
   1   2 -10  784.27   40.84   5
  -1   3  10  727.45   40.77   1
  -3   2 -10  701.10   39.42   5
   1  -3 -10  728.37   39.79   4
  -3   2 -10  764.38   41.83   3
   2   1 -10  752.55   39.41   2
  -2  -1  10  786.34   42.80   1
   3  -2  10  799.70   43.95   1
   1  -3 -10  763.42   40.80   1
   1  -3 -10  753.88   42.90   3
   3   0 -10  385.27   22.32   4
   3   0 -10  344.93   21.84   1
   0  -3 -10  354.61   21.30   1
   0  -3 -10  355.93   24.12   3
  -3   3 -10  349.59   22.52   5
   3   0 -10  355.70   22.03   2
  -3   3 -10  373.13   19.70   2
   0  -3 -10  344.94   21.13   4
   3  -3  10  295.80   23.09   1
  -3   4 -10  527.78   26.69   2
  -1  -3 -10  519.09   33.43   3
   4  -1 -10  521.99   30.22   4
  -1  -3 -10  508.36   28.39   4
  -3   4 -10  520.78   30.94   5
   3  -4  10  503.76   33.47   1
  -1  -3 -10  529.30   31.29   1
   4  -1 -10  532.79   31.38   1
   4  -1 -10  496.59   29.37   2
  -2  -3 -10  337.36   23.76   1
  -3   5 -10  351.10   24.49   5
  -3   5 -10  351.65   19.61   2
   5  -2 -10  337.89   23.12   1
   5  -2 -10  315.53   21.49   2
   3  -5  10  367.05   26.87   1
   5  -2 -10  323.14   22.79   4
  -3   6 -10  150.20   16.36   5
  -3  -3 -10  145.22   15.99   1
  -3   6 -10  159.64   12.75   2
   6  -3 -10  167.61   16.29   4
   6  -3 -10  145.24   15.29   1
   6  -3 -10  149.52   14.15   2
   4   3  10  218.47   24.22   1
   3  -7  10  207.42   24.94   1
  -3   7 -10  236.90   21.68   5
   7  -4 -10  280.26   22.96   4
  -4  -3 -10  253.95   23.68   1
   7  -4 -10  227.92   22.14   1
  -2   6 -10  208.92   16.07   2
   4   2  10  186.15   19.71   1
   6  -4 -10  210.95   15.97   2
   6  -4 -10  201.76   19.60   4
  -2   6 -10  191.12   18.20   5
   2  -6  10  205.35   21.05   1
   6  -4 -10  205.52   18.16   1
   5  -4 -10  197.61   15.49   1
  -1   5 -10  193.14   15.82   2
  -4  -1 -10  204.95   14.01   5
  -1   5 -10  177.63   16.76   5
   5  -4 -10  206.00   18.71   4
   5  -4 -10  193.28   14.66   2
   4   1  10  148.38   17.16   1
   4  -4 -10  309.08   22.92   4
   0  -4  10  331.90   24.00   1
   4  -4 -10  301.89   20.13   1
  -4   0 -10  292.54   23.22   3
   4   0  10  307.62   23.16   1
   0   4 -10  324.62   21.33   5
   1   3 -10  504.24   30.11   5
   3  -4 -10  532.72   31.87   4
   3  -4 -10  521.73   31.52   3
  -4   1 -10  531.17   32.50   3
   4  -1  10  532.60   33.50   1
  -1  -3  10  527.98   33.23   1
   3  -4 -10  502.31   30.13   1
   2  -4 -10 1168.14   63.65   3
  -4   2 -10 1163.85   62.98   3
  -2  -2  10 1180.11   66.77   1
   4  -2  10 1186.79   67.53   1
   2  -4 -10 1206.22   61.20   4
   2  -4 -10 1218.41   64.38   1
  -3  -1  10  504.67   31.45   1
   4  -3  10  499.38   32.72   1
   1  -4 -10  513.85   29.85   1
  -4   3 -10  467.80   28.95   3
   1  -4 -10  518.17   31.98   3
   3   1 -10  536.61   30.12   2
   1  -4 -10  495.14   29.20   4
   0  -4 -10  295.53   23.20   3
  -4   4 -10  307.49   22.64   5
   0  -4 -10  283.21   19.60   4
   4   0 -10  349.13   20.90   4
   4   0 -10  308.29   21.74   2
   0  -4 -10  316.45   21.04   1
   4  -4  10  304.68   23.75   1
   4   0 -10  341.84   22.06   1
  -1  -4 -10  185.56   18.46   3
   5  -1 -10  191.45   16.35   1
  -1  -4 -10  204.13   13.80   4
   5  -1 -10  185.26   15.60   4
   4  -5  10  145.57   17.87   1
  -4   5 -10  198.67   18.13   5
  -1  -4 -10  207.13   16.65   1
   5  -1 -10  173.40   16.10   2
  -2  -4 -10  200.59   18.68   1
  -4   6 -10  181.09   19.11   5
   6  -2 -10  226.15   19.13   1
   6  -2 -10  213.26   17.92   4
   4  -6  10  207.50   21.95   1
   6  -2 -10  205.53   17.87   2
   7  -3 -10  251.29   22.28   1
   7  -3 -10  200.67   18.09   2
   7  -3 -10  246.31   20.91   4
  -4   7 -10  202.35   21.63   5
  -3  -4 -10  223.20   22.16   1
   4  -7  10  218.47   25.11   1
   4  -8  10  226.36   27.97   1
  -4  -4 -10  261.65   26.69   1
  -4   8 -10  202.11   23.03   5
  -3   8 -10   99.49   19.57   5
   5   3  10  139.55   23.64   1
   8  -5 -10  158.09   21.62   4
   3  -8  10  114.10   24.07   1
   2  -7  10   77.18   18.44   1
  -2   7 -10  111.64   15.78   2
   5   2  10   89.45   17.81   1
  -2   7 -10   98.60   16.19   5
   7  -5 -10  125.92   17.51   4
   7  -5 -10  114.21   16.78   1
   1  -6  10  256.54   25.62   1
  -1   6 -10  293.87   21.72   5
   5   1  10  257.78   24.55   1
   6  -5 -10  301.94   22.53   1
  -1   6 -10  287.21   21.13   2
   6  -5 -10  255.61   23.78   4
   5  -5 -10  346.27   24.23   1
  -5   0 -10  356.45   27.36   3
   0  -5  10  372.00   28.90   1
   0   5 -10  354.68   24.24   5
   5  -5 -10  352.08   27.11   4
   5   0  10  365.51   28.37   1
   4  -5 -10  169.19   17.48   4
   4  -5 -10  196.41   14.35   1
   5  -1  10  140.40   16.79   1
  -5   1 -10  193.08   16.94   3
  -1  -4  10  136.65   16.19   1
  -5   2 -10  374.24   24.43   3
   3  -5 -10  337.90   23.09   3
  -2  -3  10  349.72   25.64   1
   3  -5 -10  350.60   24.66   4
   5  -2  10  364.81   26.52   1
   3  -5 -10  313.98   22.26   1
   2  -5 -10  340.67   23.39   4
   5  -3  10  353.66   25.74   1
  -5   3 -10  309.27   21.41   3
   2  -5 -10  342.22   22.32   1
   2  -5 -10  314.33   22.82   3
  -3  -2  10  346.89   24.83   1
   4   1 -10  205.71   17.22   2
   1  -5 -10  179.83   14.56   1
   1  -5 -10  191.76   17.46   3
  -4  -1  10  141.98   16.26   1
   1  -5 -10  173.27   15.18   4
   5  -4  10  147.56   17.53   1
   5  -5  10  353.85   28.46   1
   0  -5 -10  333.43   22.45   4
  -5   5 -10  376.36   26.60   5
   0  -5 -10  336.59   27.02   3
   5   0 -10  367.80   25.14   2
   5   0 -10  374.50   26.06   1
   0  -5 -10  367.61   25.28   1
  -5   6 -10  286.35   24.13   5
   5  -6  10  267.98   24.83   1
   6  -1 -10  264.53   23.00   1
   6  -1 -10  285.08   20.23   4
   6  -1 -10  244.95   20.58   2
  -1  -5 -10  285.61   22.99   1
  -1  -5 -10  259.90   23.94   3
   5  -7  10   71.87   19.37   1
   7  -2 -10  133.87   15.85   4
  -5   7 -10   97.82   16.94   5
  -2  -5 -10  101.38   16.99   1
   7  -2 -10  104.64   14.61   2
  -5   8 -10  101.16   19.39   5
   5  -8  10   98.49   23.22   1
  -3  -5 -10  158.26   23.02   1
   8  -3 -10  105.59   22.29   1
   2  -8  10   88.09   24.32   1
   8  -6 -10   88.90   20.76   4
   1  -7  10  146.52   22.88   1
   7  -6 -10  127.19   20.04   4
   6   1  10  125.54   21.00   1
  -1   7 -10  153.30   18.24   2
  -6   0 -10  441.00   32.06   3
   6  -6 -10  425.53   31.46   4
   0  -6  10  388.05   32.52   1
   6  -6 -10  427.68   29.50   1
   6   0  10  359.63   32.60   1
  -6   1 -10  275.84   23.20   3
   5  -6 -10  256.09   20.89   1
   5  -6 -10  244.79   23.40   4
   6  -1  10  284.48   26.12   1
  -1  -5  10  308.90   26.20   1
   4  -6 -10  192.08   16.85   1
   6  -2  10  187.82   21.06   1
   4  -6 -10  180.16   19.29   4
  -2  -4  10  199.98   20.41   1
  -6   2 -10  188.29   17.36   3
  -6   3 -10  138.49   13.21   3
   3  -6 -10  142.48   14.42   3
  -3  -3  10  110.55   16.11   1
   3  -6 -10  134.78   15.91   4
   3  -6 -10  149.55   14.25   1
   6  -3  10   97.05   16.62   1
   2  -6 -10  182.38   16.52   1
   2  -6 -10  198.13   18.07   3
  -4  -2  10  166.92   18.64   1
   6  -4  10  197.46   20.66   1
   2  -6 -10  181.79   17.72   4
   5   1 -10  247.47   22.23   1
   1  -6 -10  250.25   19.31   4
  -5  -1  10  292.14   23.92   1
   6  -5  10  246.09   24.05   1
   5   1 -10  235.03   21.22   2
   1  -6 -10  269.50   22.81   3
   1  -6 -10  255.72   20.97   1
   0  -6 -10  416.30   30.66   3
   6  -6  10  361.13   32.95   1
   6   0 -10  426.93   30.73   1
  -6   6 -10  397.62   30.46   5
   0  -6 -10  411.24   29.97   1
   6   0 -10  399.56   28.54   2
   7  -1 -10  121.98   17.96   1
  -1  -6 -10  147.56   21.05   3
  -1  -6 -10  118.28   19.29   1
  -6   7 -10  143.43   20.59   5
   7  -1 -10   95.51   16.80   2
   6  -7  10  134.81   22.31   1
   8  -2 -10   44.31   22.42   1
  -2  -6 -10   91.41   22.17   3
  -6   8 -10   39.41   19.31   5
   7   1  10   25.87   35.14   1
   8  -7 -10   77.74   21.10   4
   1  -8  10   26.98   28.46   1
  -7  -1 -10   22.84   22.90   3
   7  -7 -10   70.23   19.33   4
  -7   0 -10   72.28   19.10   3
   7   0  10   57.61   21.23   1
   0  -7  10   97.25   21.90   1
  -1  -6  10  144.21   21.18   1
   7  -1  10  134.69   21.87   1
  -7   1 -10   97.11   17.80   3
   6  -7 -10  127.53   19.85   4
  -7   2 -10  108.79   16.02   3
   7  -2  10   89.17   19.08   1
   5  -7 -10  101.09   18.96   4
   5  -7 -10  139.85   17.58   1
   4  -7 -10  206.12   22.22   4
  -3  -4  10  221.73   24.07   1
   7  -3  10  208.57   24.02   1
   4  -7 -10  230.15   20.64   1
  -4  -3  10  264.04   24.19   1
   3  -7 -10  221.92   21.39   1
   7  -4  10  219.93   24.99   1
   3  -7 -10  206.52   21.52   4
   2  -7 -10  110.85   15.38   4
   2  -7 -10  131.08   17.36   3
   2  -7 -10   92.48   16.41   1
   7  -5  10  101.23   19.37   1
  -5  -2  10   64.95   17.42   1
   6   1 -10  123.61   18.89   2
   1  -7 -10  121.90   18.54   3
   7  -6  10  155.18   22.59   1
   6   1 -10  143.58   19.17   1
   1  -7 -10   91.68   19.97   1
   0  -7 -10   57.64   23.47   3
   7   0 -10   60.64   17.28   2
  -7   7 -10   74.83   20.10   5
   7  -7  10   60.93   20.70   1
   7   0 -10  110.16   20.51   1
  -7   8 -10   50.80   27.44   5
   7  -8  10   37.48   21.46   1
  -1  -7 -10   59.69   24.70   3
  -1  -7  10   13.81   24.04   1
   7  -8 -10   60.70   20.50   4
   8  -1  10   62.94   23.44   1
   6  -8 -10   53.61   19.01   4
   8  -2  10    6.51   20.26   1
  -2  -6  10   55.78   21.83   1
   5  -8 -10   82.62   20.17   4
   8  -3  10  115.34   22.46   1
  -3  -5  10  130.73   24.27   1
   4  -8 -10  248.64   25.61   4
  -4  -4  10  219.51   27.46   1
   8  -4  10  217.17   28.03   1
   8  -5  10  126.76   24.77   1
  -5  -3  10  124.46   23.29   1
   3  -8 -10   94.49   19.33   4
   6   2 -10   65.04   18.33   2
   6   2 -10   74.67   20.88   1
   8  -6  10   46.96   21.35   1
   7   1 -10   15.98   24.36   2
   8  -7  10   22.58   20.71   1
   7   1 -10   32.96   21.92   1
  -8   7 -10   69.09   21.48   5
   0   0 -11    0.81    4.81   5
   0   0 -11    9.86    5.96   4
   0   0 -11   15.66    6.49   3
   0   0 -11   10.20    5.55   2
  -1   0 -11 1009.15   49.15   5
   0   1 -11  970.00   50.05   5
  -1   0 -11  999.09   54.69   3
   1  -1 -11  993.97   54.65   3
   1  -1 -11  984.80   49.06   5
   1  -1 -11 1016.85   51.42   4
  -1   0 -11 1029.10   49.38   2
   1  -1 -11 1050.96   49.78   2
   0   1 -11  972.75   49.01   2
   1   0 -11  941.30   48.63   2
  -1   1 -11  997.62   53.91   3
   0  -1 -11  958.75   54.05   3
   1   0 -11  966.31   50.72   4
  -1   1 -11  933.82   48.18   2
   1  -1  11 1028.52   52.74   1
   0  -1 -11  976.14   49.02   2
   1   0 -11  981.97   49.47   5
   0  -1 -11  981.37   48.22   5
   0  -1 -11  999.97   50.64   4
   1  -1  11 1085.09   52.94   1
  -1   1 -11 1045.84   49.83   5
  -1  -1 -11   -3.04    4.50   5
  -1  -1 -11    6.97    6.85   3
   2  -1 -11   -0.28    5.19   4
   1  -2  11   -1.61    3.28   1
  -1   2 -11   -1.56    5.33   5
   2  -1 -11    0.31    5.51   2
  -1   2 -11   -2.94    4.72   2
  -1  -1 -11    2.13    5.14   4
   3  -2 -11  867.80   44.96   4
   2   1  11  839.18   46.18   1
  -2  -1 -11  812.57   40.58   5
  -1   3 -11  753.33   43.11   5
  -1   3 -11  849.99   41.85   2
   3  -2 -11  852.84   42.52   2
   1  -3  11  828.06   47.29   1
  -2  -1 -11  794.12   47.67   3
  -2   0 -11  450.31   27.66   3
   0  -2  11  394.96   24.45   1
   2  -2 -11  434.67   26.79   3
  -2   0 -11  411.93   23.22   5
   0   2 -11  375.03   24.24   5
   2   0  11  403.18   24.13   1
   2  -2 -11  418.96   25.21   4
   0   2 -11  422.45   23.99   2
   2  -2 -11  394.22   23.69   2
   2  -1  11   -4.17    3.64   1
   1  -2 -11   -1.19    5.15   4
  -1  -1  11    0.99    2.89   1
  -2   1 -11   -6.17    5.34   5
   1   1 -11    5.48    5.81   5
  -2   1 -11    4.56    5.68   3
   1   1 -11   -2.63    3.36   1
   1  -2 -11    1.44    6.28   3
   2  -1  11    7.10    8.07   1
   1   1 -11   -1.97    4.56   2
  -2   2 -11  408.71   24.87   5
  -2   2 -11  428.96   23.29   2
   0  -2 -11  416.71   21.90   5
   2   0 -11  439.37   23.31   1
   2  -2  11  397.29   25.22   1
  -2   2 -11  412.90   26.07   3
   2   0 -11  402.73   24.60   2
   2   0 -11  448.39   25.36   4
   0  -2 -11  429.20   24.78   4
   0  -2 -11  438.27   27.71   3
   2   0 -11  391.54   23.02   1
   2  -3  11  842.91   48.07   1
   3  -1 -11  835.20   44.55   4
  -1  -2 -11  851.97   43.14   4
   3  -1 -11  840.16   45.15   1
  -1  -2 -11  842.66   40.01   5
   1   2  11  864.63   45.96   1
  -1  -2 -11  809.58   48.13   3
  -2   3 -11  819.54   44.14   5
   3  -1 -11  801.85   42.67   2
  -2   3 -11  812.03   41.05   2
  -2   4 -11   -6.71    8.02   5
   4  -2 -11   -2.79    6.92   4
  -2  -2 -11   -2.52    4.09   5
  -2  -2 -11   -0.71    8.77   3
   2  -4  11   14.69    8.03   1
   4  -2 -11   -6.56    5.02   1
  -2   4 -11   -1.97    6.00   2
   2   2  11    3.60    5.55   1
  -2   5 -11  392.07   22.77   2
   3   2  11  355.27   26.16   1
   5  -3 -11  370.04   23.46   2
   5  -3 -11  393.41   24.48   1
  -3  -2 -11  369.07   28.30   3
   2  -5  11  329.00   27.29   1
  -3  -2 -11  382.41   20.10   5
   5  -3 -11  372.08   25.48   4
  -2   5 -11  374.83   25.52   5
  -1   4 -11  529.26   32.26   5
   4  -3 -11  527.69   31.38   1
  -3  -1 -11  583.94   29.28   5
   3   1  11  595.07   34.76   1
  -1   4 -11  556.33   30.67   2
   4  -3 -11  540.21   33.31   4
   1  -4  11  541.18   35.04   1
   4  -3 -11  547.05   30.62   2
  -3  -1 -11  533.26   35.87   3
  -3   0 -11   14.33    8.33   3
   3  -3 -11    0.41    2.90   1
   3  -3 -11   -4.32    6.31   4
   3  -3 -11    8.23    6.65   2
   0  -3  11   -3.20    5.58   1
   0   3 -11   -4.10    6.85   2
   3   0  11   -0.50    4.72   1
  -3   0 -11    8.34    5.90   5
   0   3 -11   -2.72    6.83   5
  -1  -2  11  862.27   47.32   1
  -3   1 -11  821.97   47.15   3
   2  -3 -11  842.95   47.08   3
   1   2 -11  842.13   43.30   2
   3  -1  11  892.86   47.94   1
   2  -3 -11  769.02   44.34   4
  -3   1 -11  856.19   43.39   5
   1   2 -11  797.93   43.81   5
   1  -3 -11  782.05   46.11   3
   3  -2  11  871.86   47.44   1
  -2  -1  11  894.40   46.20   1
  -3   2 -11  757.03   42.66   5
   2   1 -11  829.51   42.88   2
   1  -3 -11  803.19   43.52   4
  -3   2 -11  780.76   45.08   3
   3   0 -11    0.44    4.02   1
   0  -3 -11   -4.07    6.07   4
   3  -3  11   -5.23    6.29   1
  -3   3 -11    1.31    7.33   5
   0  -3 -11   -1.24    3.38   1
   3   0 -11   -5.11    6.89   2
  -3   3 -11    7.43    5.38   2
   0  -3 -11   13.70    8.48   3
   3   0 -11    6.89    6.46   4
  -1  -3 -11  566.77   36.51   3
   4  -1 -11  606.15   33.58   4
  -1  -3 -11  565.60   33.46   1
   3  -4  11  557.15   36.24   1
  -3   4 -11  571.99   33.68   5
  -1  -3 -11  535.36   30.88   4
   4  -1 -11  561.08   32.44   2
  -3   4 -11  577.51   29.50   2
   4  -1 -11  572.98   33.58   1
   5  -2 -11  381.26   24.44   2
  -3   5 -11  369.14   21.26   2
   5  -2 -11  365.67   24.91   4
   5  -2 -11  396.97   25.39   1
  -3   5 -11  362.54   26.34   5
  -2  -3 -11  361.19   25.42   1
  -2  -3 -11  405.95   29.06   3
   3  -5  11  381.11   28.15   1
   6  -3 -11    8.53    9.33   2
   6  -3 -11   28.96   11.50   4
   3  -6  11  -17.00   12.19   1
  -3   6 -11    3.28   10.79   5
  -3  -3 -11   10.55   13.65   3
   6  -3 -11   -6.56    9.99   1
  -3  -3 -11   11.06    8.96   1
  -3   7 -11  265.03   23.26   5
   4   3  11  242.14   24.67   1
   3  -7  11  263.41   26.11   1
   7  -4 -11  247.26   23.10   4
   2  -6  11  154.05   19.13   1
   6  -4 -11  169.59   18.50   4
  -2   6 -11  163.39   14.72   2
   4   2  11  170.24   18.28   1
   6  -4 -11  149.39   14.47   2
   6  -4 -11  167.36   16.19   1
  -4  -2 -11  132.15   20.51   3
  -2   6 -11  168.93   17.56   5
  -4  -1 -11   12.09   11.00   3
   5  -4 -11    1.52   10.09   4
   5  -4 -11    4.23    6.16   1
   5  -4 -11   -3.74    8.30   2
  -4  -1 -11   -5.63    7.10   5
  -1   5 -11   -2.14    9.05   5
   1  -5  11   -8.48    9.86   1
   4   1  11   -1.93    7.80   1
  -1   5 -11    5.91    7.77   2
   4   0  11  221.51   19.05   1
   4  -4 -11  245.29   20.52   4
   0   4 -11  230.29   18.53   5
  -4   0 -11  239.71   17.01   5
   0   4 -11  262.31   18.63   2
   0  -4  11  197.68   19.37   1
  -4   0 -11  268.70   21.21   3
   4  -4 -11  238.23   15.95   1
  -4   1 -11  580.33   34.88   3
   1   3 -11  528.13   32.17   5
   4  -1  11  551.82   35.41   1
   3  -4 -11  557.33   31.51   1
  -1  -3  11  571.31   35.16   1
  -4   1 -11  558.32   31.99   5
   1   3 -11  579.88   32.67   2
   3  -4 -11  547.17   33.90   3
   3  -4 -11  557.59   33.71   4
  -2  -2  11    4.77    6.50   1
  -4   2 -11   12.28    8.08   5
   2   2 -11   -6.37    8.34   2
   2  -4 -11  -11.13    8.34   3
  -4   2 -11   -4.43    6.97   3
   2  -4 -11   -1.16    3.81   1
   2  -4 -11  -10.24    7.59   4
   1  -4 -11  536.59   34.49   3
   1  -4 -11  539.78   31.33   1
   4  -3  11  579.96   35.52   1
   3   1 -11  521.08   31.95   2
  -4   3 -11  575.47   32.20   3
   1  -4 -11  511.63   31.35   4
  -4   3 -11  574.24   33.31   5
  -3  -1  11  530.01   33.36   1
   0  -4 -11  262.93   21.61   3
   4   0 -11  251.03   18.59   1
   4   0 -11  254.95   20.03   2
   0  -4 -11  242.26   18.15   4
   4  -4  11  247.19   21.20   1
   4   0 -11  271.75   18.97   4
  -4   4 -11  266.88   20.49   5
   0  -4 -11  270.43   18.14   1
   5  -1 -11    3.18    9.23   2
   4  -5  11    0.84    9.60   1
   5  -1 -11   -1.45    8.77   4
  -1  -4 -11    1.81    7.28   1
  -1  -4 -11   -3.07   11.02   3
  -1  -4 -11   -4.24    6.91   4
   5  -1 -11   -2.58    8.00   1
  -4   5 -11    3.03   10.23   5
   6  -2 -11  153.82   16.14   2
  -4   6 -11  164.31   19.42   5
  -2  -4 -11  181.59   17.49   1
  -2  -4 -11  150.30   20.03   3
   6  -2 -11  202.96   18.05   1
   4  -6  11  159.08   20.23   1
   6  -2 -11  179.53   17.19   4
  -3  -4 -11  311.23   25.74   1
   4  -7  11  277.36   28.23   1
  -4   7 -11  277.66   24.87   5
  -3  -4 -11  253.30   27.30   3
   7  -3 -11  257.63   21.50   2
   7  -3 -11  297.95   25.30   1
   7  -3 -11  275.24   23.46   4
   8  -4 -11  -12.26   17.84   4
  -4   8 -11   13.93   16.69   5
   4  -8  11   -2.46   19.71   1
  -4  -4 -11   14.01   19.26   3
   4   4  11   -5.94   29.60   1
  -3   8 -11  126.14   23.09   5
  -5  -3 -11  155.46   25.14   3
   8  -5 -11  135.21   22.36   4
   5   3  11  118.57   24.12   1
   3  -8  11  151.17   25.47   1
  -2   7 -11   11.06   14.22   2
   7  -5 -11   16.14   14.70   4
  -5  -2 -11    6.09   16.32   3
   5   2  11   -6.94   15.15   1
  -2   7 -11    7.66   13.45   5
   2  -7  11    8.40   17.31   1
  -1   6 -11  275.98   23.48   5
  -1   6 -11  330.20   23.31   2
  -5  -1 -11  306.54   27.49   3
   6  -5 -11  275.86   25.19   4
   1  -6  11  333.35   28.79   1
   5   1  11  350.23   27.73   1
   5  -5 -11  430.63   27.35   1
   0  -5  11  405.88   31.39   1
   5   0  11  422.75   31.23   1
  -5   0 -11  442.85   31.66   3
   0   5 -11  394.88   27.47   5
   5  -5 -11  442.64   30.73   4
   0   5 -11  402.92   27.27   2
  -5   1 -11    5.28    9.16   3
  -1  -4  11  -10.27    9.86   1
   4  -5 -11   -1.96    6.28   1
   4  -5 -11   -3.10   10.51   4
   5  -1  11   -4.71    8.87   1
  -5   2 -11  354.08   25.00   3
   3  -5 -11  373.95   24.72   3
   3  -5 -11  338.24   25.23   4
   5  -2  11  372.08   27.32   1
  -2  -3  11  360.30   26.56   1
   3  -5 -11  377.07   23.15   1
   2  -5 -11  365.13   25.03   3
   3   2 -11  361.11   24.98   2
   2  -5 -11  316.43   24.05   4
   2  -5 -11  360.40   22.70   1
  -5   3 -11  345.61   23.04   3
  -3  -2  11  355.27   25.51   1
   5  -3  11  366.61   27.16   1
   1  -5 -11  -16.07    8.65   4
  -4  -1  11    3.40    8.20   1
   5  -4  11   -1.72    9.17   1
   1  -5 -11   -6.16   10.14   3
  -5   4 -11   -2.17    9.92   5
   4   1 -11    1.93   10.98   2
   1  -5 -11    7.27    6.54   1
   5   0 -11  362.02   26.73   2
  -5   5 -11  363.95   28.23   5
   0  -5 -11  425.58   30.25   3
   5   0 -11  426.90   28.37   1
   0  -5 -11  404.73   27.04   1
   0  -5 -11  392.04   24.96   4
   5  -5  11  422.80   31.35   1
   6  -1 -11  271.89   22.92   2
  -1  -5 -11  278.29   26.12   3
   6  -1 -11  299.87   21.73   4
  -1  -5 -11  323.06   24.23   1
   6  -1 -11  309.04   24.53   1
   5  -6  11  310.88   28.06   1
  -5   6 -11  320.98   26.05   5
  -2  -5 -11   14.73   14.93   1
   7  -2 -11   30.72   14.70   4
  -2  -5 -11    3.86   15.70   3
  -5   7 -11  -28.36   16.57   5
   5  -7  11   -5.43   15.01   1
   7  -2 -11   -1.49   12.39   2
   7  -2 -11   31.89   15.94   1
  -3  -5 -11  157.40   25.40   3
  -5   8 -11  109.12   21.54   5
   5  -8  11  112.87   24.81   1
  -6  -2 -11   98.55   23.73   3
   8  -6 -11   89.53   20.42   4
   6   2  11   23.20   27.98   1
   2  -8  11   69.66   24.48   1
   7  -6 -11  115.67   20.73   4
  -6  -1 -11  130.14   22.07   3
  -1   7 -11  117.35   18.55   5
  -1   7 -11  155.26   20.54   2
   1  -7  11  168.24   23.87   1
   6   1  11  159.08   23.22   1
   0   6 -11    5.64   11.72   2
   0  -6  11   -5.95   14.75   1
   6   0  11   -9.75   13.68   1
  -6   0 -11   -8.44   12.79   3
   6  -6 -11    2.32   13.86   4
  -6   1 -11  297.23   25.03   3
  -1  -5  11  285.19   26.23   1
   6  -1  11  314.18   27.29   1
   5  -6 -11  302.07   26.36   4
  -6   2 -11  171.82   17.45   3
   4  -6 -11  144.58   18.53   4
   6  -2  11  129.98   18.49   1
   4  -6 -11  162.38   14.52   1
  -2  -4  11  147.51   18.10   1
  -3  -3  11   -5.68   10.71   1
   3  -6 -11  -16.50    9.67   3
   3  -6 -11    9.57    9.31   1
   6  -3  11  -10.52   10.85   1
   3  -6 -11  -19.28   11.39   4
  -6   3 -11  -14.84    9.00   3
   2  -6 -11  149.15   16.55   3
   4   2 -11  130.57   17.51   2
  -4  -2  11  147.41   17.19   1
   2  -6 -11  159.04   15.09   1
   2  -6 -11  175.19   16.73   4
   6  -4  11  136.09   18.33   1
   5   1 -11  306.74   24.39   1
   1  -6 -11  306.56   25.36   3
   1  -6 -11  283.99   21.85   4
   6  -5  11  254.14   26.35   1
   5   1 -11  303.41   24.68   2
   1  -6 -11  324.96   23.29   1
  -6   5 -11  321.80   26.62   5
   6   0 -11   12.08   12.59   1
   6  -6  11   -6.51   15.40   1
  -6   6 -11  -10.79   14.06   5
   6   0 -11   16.76   13.41   2
   0  -6 -11    0.58   14.03   3
   7  -1 -11  136.03   19.47   2
   6  -7  11  151.54   23.76   1
  -1  -6 -11  150.35   21.61   3
   7  -1 -11  136.22   22.49   1
  -6   7 -11  153.24   22.03   5
  -6   8 -11   73.55   21.48   5
   6  -8  11   28.07   27.18   1
  -2  -6 -11  107.09   23.63   3
   0  -7  11   74.00   22.26   1
   7  -7 -11  120.05   22.13   4
   0   7 -11  122.17   21.71   2
  -7   0 -11  112.88   21.72   3
   7   0  11  112.41   26.21   1
   7  -1  11  102.69   20.89   1
  -1  -6  11  157.18   22.38   1
  -7   1 -11  170.86   20.78   3
   6  -7 -11  115.25   21.04   4
  -2  -5  11   11.79   16.63   1
   5  -7 -11   30.04   15.64   4
   7  -2  11   -2.57   16.11   1
   7  -3  11  301.58   28.51   1
   4  -7 -11  297.35   26.81   4
  -3  -4  11  245.02   26.61   1
   3  -7 -11  268.97   24.00   4
   7  -4  11  272.55   27.40   1
  -4  -3  11  255.45   25.01   1
   5   2 -11   -3.47   14.19   2
   7  -5  11    1.46   15.93   1
  -5  -2  11   -4.29   14.31   1
   2  -7 -11   15.32   12.60   4
   2  -7 -11    0.02   13.89   3
   6   1 -11  168.82   20.89   2
   1  -7 -11  180.17   22.71   3
   7  -6  11  167.76   24.10   1
  -7   6 -11  134.29   21.63   5
   6   1 -11  165.57   22.07   1
   7  -7  11   72.67   21.04   1
   0  -7 -11  121.98   23.91   3
   7   0 -11   63.09   17.56   2
  -7   7 -11   78.37   19.36   5
   8  -2  11   30.29   22.27   1
   6  -8 -11   86.55   21.13   4
  -2  -6  11   87.48   24.46   1
  -3  -5  11  134.46   27.58   1
   5  -8 -11  147.32   23.45   4
   8  -3  11  160.01   26.70   1
   4  -8 -11   11.52   17.51   4
  -4  -4  11   -3.34   18.04   1
   8  -4  11  -26.46   19.19   1
   5   3 -11  143.60   21.57   2
   3  -8 -11   98.47   22.01   4
  -5  -3  11  115.50   23.60   1
   8  -5  11  101.34   23.20   1
  -8   6 -11   57.46   19.80   5
   6   2 -11   50.88   23.26   1
   8  -6  11   81.04   26.23   1
   6   2 -11   27.38   18.35   2
   0   0 -12   70.20    8.46   5
   0   0 -12   60.20    8.47   2
   0   0 -12   69.89    9.79   3
  -1   0 -12   92.18   10.02   2
   1  -1 -12   93.56   10.10   4
   0   1 -12   93.39    9.98   2
  -1   0 -12   84.39    9.13   5
   1  -1 -12   91.11    9.06   5
  -1   0 -12   89.04   11.16   3
   0   1 -12   78.60    9.77   5
   1  -1 -12   99.99   10.65   2
   1  -1 -12   89.85   10.44   3
   1   0 -12   85.80   10.10   4
   0  -1 -12   91.72   11.18   3
  -1   1 -12   99.13    9.92   5
   1   0 -12   82.89    9.86   2
  -1   1 -12   89.23   10.67   3
   0  -1 -12   89.60    9.79   2
  -1   1 -12   63.40    8.69   2
   0  -1 -12   78.12    8.29   5
   0  -1 -12   94.54    9.93   4
   1   0 -12   68.91    8.94   5
  -1  -1 -12   60.78    7.41   5
  -1   2 -12   51.28    8.94   5
  -1   2 -12   57.69    8.22   2
   2  -1 -12   59.23    8.90   4
   2  -1 -12   56.35    8.08   2
  -1  -1 -12   64.18    9.95   3
  -1   3 -12   86.73   10.16   2
   3  -2 -12   96.08   11.11   2
  -2  -1 -12   81.09   12.76   3
  -2  -1 -12   93.42    9.12   5
   3  -2 -12   99.35   11.56   4
  -1   3 -12   83.24   11.20   5
   1  -3  12  124.50   10.75   1
   2   1  12  116.62    9.33   1
  -2   0 -12  355.91   22.33   5
   2  -2 -12  361.36   25.70   3
   0   2 -12  361.91   23.18   2
   0  -2  12  430.52   23.37   1
   2  -2 -12  371.84   23.25   2
   2   0  12  444.23   22.87   1
  -2   0 -12  356.64   25.61   3
   2  -2 -12  382.15   24.63   4
   0   2 -12  383.20   24.15   5
  -2   1 -12   42.57    8.51   3
  -1  -1  12   47.51    4.80   1
   1  -2 -12   42.38    9.28   3
   1   1 -12   60.80    8.78   5
  -2   1 -12   63.94    8.72   5
   1   1 -12   50.48    8.66   2
   2  -1  12   42.12    5.48   1
   1  -2 -12   48.13    8.56   4
  -2   2 -12  409.70   24.52   5
   2   0 -12  366.77   24.24   4
  -2   2 -12  355.42   24.86   3
   0  -2 -12  395.87   26.39   3
  -2   2 -12  366.65   22.29   2
   2  -2  12  456.78   24.21   1
   2   0 -12  386.09   23.72   2
   0  -2 -12  359.80   23.58   4
   0  -2 -12  385.95   21.10   5
   2  -3  12  101.82    9.97   1
  -2   3 -12  100.37   11.83   5
  -1  -2 -12   75.58    9.71   4
  -1  -2 -12   80.28   12.35   3
   3  -1 -12   85.16   11.29   4
  -2   3 -12   70.33    9.17   2
   3  -1 -12   99.12   11.41   2
  -1  -2 -12   97.86    8.14   5
   1   2  12  106.71    7.70   1
  -2   4 -12   40.28   10.29   5
   4  -2 -12   24.76    9.24   4
  -2  -2 -12   29.73   11.49   3
  -2   4 -12   22.39    7.83   2
  -2  -2 -12   42.69    5.63   5
   4  -2 -12   32.91    5.38   1
   4  -2 -12   30.89    8.69   2
  -2   5 -12    9.81    8.43   2
  -2   5 -12   21.36   10.47   5
   5  -3 -12   29.75   10.58   4
  -3  -2 -12   26.57   12.81   3
   5  -3 -12   29.53    9.59   2
   2  -5  12   30.43   11.05   1
   5  -3 -12   47.31    8.62   1
   3   1  12   61.21    9.04   1
  -1   4 -12   61.19   10.02   2
  -3  -1 -12   39.16   11.46   3
   4  -3 -12   40.29    9.61   2
   1  -4  12   60.69   10.19   1
  -3  -1 -12   53.35    7.69   5
   4  -3 -12   54.58    5.98   1
  -1   4 -12   41.00   10.18   5
   4  -3 -12   59.60   10.46   4
   3  -3 -12   41.15    9.01   2
   3   0  12   33.90    6.83   1
   0  -3  12   47.52    8.26   1
   0   3 -12   41.83    9.15   5
  -3   0 -12   24.35    9.61   3
   0   3 -12   38.31    9.02   2
  -3   0 -12   45.94    8.29   5
   3  -3 -12   31.97    8.60   4
   2  -3 -12   91.07   11.41   4
   2  -3 -12   92.96   11.71   3
  -1  -2  12  104.33    9.25   1
  -3   1 -12   77.35   10.50   5
  -3   1 -12   96.86   11.51   3
   1   2 -12   94.53   11.32   2
   1   2 -12   68.01   10.73   5
   1  -3 -12   79.66   12.11   3
   2   1 -12   90.63   11.57   2
  -3   2 -12   88.12   11.54   5
  -3   2 -12   96.97   11.34   3
   1  -3 -12  100.59   11.27   4
  -2  -1  12  113.35    9.30   1
   3  -2  12  115.49   10.69   1
   0  -3 -12   50.56   11.18   3
   3   0 -12   38.43    9.94   2
  -3   3 -12   42.61    8.10   2
   0  -3 -12   42.60    4.74   1
   3   0 -12   41.72    9.00   4
  -3   3 -12   62.26   10.80   5
   3   0 -12   41.21    5.86   1
   0  -3 -12   46.05    8.92   4
  -1  -3 -12   48.88    6.98   1
   3  -4  12   55.00    9.71   1
  -3   4 -12   43.69   11.52   5
   4  -1 -12   54.16    7.59   1
  -3   4 -12   55.76    8.11   2
   4  -1 -12   53.40   10.54   2
  -1  -3 -12   57.85    9.06   4
  -1  -3 -12   41.88   11.82   3
   4  -1 -12   43.25    9.81   4
  -2  -3 -12   36.37    8.50   1
  -2  -3 -12   36.43   13.14   3
   5  -2 -12   37.85    8.44   1
   5  -2 -12   54.99   11.16   2
  -3   5 -12   19.21   10.69   5
   5  -2 -12   30.79   10.32   4
   3  -5  12   41.28   11.71   1
  -3   5 -12   28.63    7.78   2
  -3  -3 -12   19.26   12.77   3
   6  -3 -12   13.59   11.22   4
  -3   6 -12   28.46   10.37   2
  -3   6 -12   10.03   11.07   5
   6  -3 -12   19.89   10.22   2
   3   3  12   -0.47   10.63   1
   3  -6  12    4.93   12.41   1
  -3   7 -12   34.10   15.00   5
   3  -7  12   57.11   17.88   1
   7  -4 -12   36.97   14.73   4
   4   3  12   41.43   16.84   1
  -4  -3 -12   65.85   19.10   3
  -2   6 -12  125.21   14.67   2
   6  -4 -12  120.51   16.76   4
   4   2  12  179.33   18.52   1
   2  -6  12  168.56   19.77   1
  -4  -2 -12  134.12   18.80   3
   6  -4 -12  133.29   14.49   2
  -2   6 -12  113.21   16.73   5
   1  -5  12    6.61   11.14   1
   4   1  12   13.64    9.51   1
  -1   5 -12   18.33   10.13   5
   5  -4 -12   42.64   10.33   2
  -1   5 -12   18.40    9.01   2
   5  -4 -12   15.77   10.57   4
  -4  -1 -12   34.20    8.41   5
  -4  -1 -12   24.03   12.91   3
  -4   0 -12  177.34   15.67   5
   0   4 -12  198.77   18.19   5
   4  -4 -12  197.32   19.06   4
   0  -4  12  230.00   18.77   1
   0   4 -12  183.64   16.82   2
  -4   0 -12  218.50   19.80   3
   4   0  12  252.59   18.69   1
   1   3 -12   45.29   10.91   2
   3  -4 -12   45.90   10.70   3
   1   3 -12   42.88   10.32   5
  -1  -3  12   72.32    9.67   1
   4  -1  12   66.45    9.98   1
  -4   1 -12   54.09   10.71   5
   3  -4 -12   62.07   11.19   4
  -4   1 -12   36.00   10.44   3
   4  -2  12   16.02    8.22   1
  -4   2 -12   23.19    9.36   5
  -4   2 -12   35.77    8.40   3
  -2  -2  12   16.78    7.02   1
   2  -4 -12   30.83    9.47   3
   2  -4 -12    9.52    8.51   4
   2   2 -12   23.30    8.94   2
  -4   3 -12   33.62   10.37   5
   4  -3  12   59.09   10.27   1
   1  -4 -12   70.88   10.46   4
  -3  -1  12   76.79    9.63   1
   1  -4 -12   45.43   11.05   3
  -4   3 -12   53.07    9.55   3
   1  -4 -12   55.51    6.30   1
   3   1 -12   52.07   11.34   2
  -4   4 -12  210.31   19.15   5
   0  -4 -12  216.29   14.93   1
   4   0 -12  204.07   17.27   4
   4   0 -12  210.06   15.93   1
   0  -4 -12  185.07   19.15   3
   0  -4 -12  176.64   15.81   4
   4   0 -12  200.54   18.26   2
  -1  -4 -12   32.96    8.85   4
   5  -1 -12   46.70   12.52   2
   4  -5  12    6.22   11.00   1
  -4   5 -12   15.48   11.88   5
   5  -1 -12   16.57    9.59   1
  -1  -4 -12   40.36    9.22   1
   5  -1 -12   15.64    9.23   4
  -1  -4 -12   20.94   12.26   3
  -4   6 -12   92.31   16.53   5
   6  -2 -12  113.96   15.16   4
   6  -2 -12  121.26   14.97   2
   6  -2 -12  128.41   15.53   1
  -2  -4 -12  115.14   15.17   1
  -2  -4 -12   98.09   18.47   3
   4  -7  12   36.61   16.94   1
   7  -3 -12   16.13   13.18   2
  -3  -4 -12   47.36   16.82   3
  -4   7 -12   50.65   16.17   5
   4  -8  12  -18.56   24.81   1
   8  -4 -12    9.09   20.51   4
  -4  -4 -12   -0.45   18.77   3
  -4   8 -12    7.17   26.58   5
   3  -8  12   40.59   23.22   1
  -3   8 -12   51.01   19.60   5
  -5  -3 -12   -7.28   20.39   3
  -5  -2 -12    4.74   16.03   3
   2  -7  12  -16.35   17.80   1
   5   2  12   -3.35   15.95   1
   7  -5 -12    0.12   14.77   4
  -2   7 -12   -9.50   13.95   5
   6  -5 -12   27.89   13.59   4
   1  -6  12   30.57   14.72   1
  -1   6 -12   36.64   12.81   2
   5   1  12   54.84   14.76   1
  -5  -1 -12   64.37   16.66   3
  -1   6 -12   24.09   13.12   5
   5  -5 -12   71.74   15.12   4
   0  -5  12   88.25   14.43   1
   0   5 -12   52.59   13.40   5
   0   5 -12   46.59   12.26   2
   5   0  12   73.32   13.52   1
  -5   0 -12   81.85   12.64   5
  -5   0 -12   40.21   13.81   3
  -5   1 -12   26.93   10.40   3
   4  -5 -12   42.02   12.63   4
  -1  -4  12   15.00    9.76   1
   1   4 -12   44.88   12.42   2
   5  -1  12   22.56   10.10   1
  -5   1 -12   29.67   10.05   5
  -2  -3  12   47.79   10.47   1
   3  -5 -12   31.52   10.39   3
   3  -5 -12   29.73   10.80   4
  -5   2 -12   26.67   10.85   5
   5  -2  12   43.58   11.29   1
   2   3 -12   34.78   11.80   2
   5  -3  12   50.90   11.63   1
   2  -5 -12   37.58   10.50   4
  -5   3 -12   37.64   11.79   5
  -5   3 -12   36.75    9.53   3
  -3  -2  12   32.63    9.40   1
   2  -5 -12   37.08   11.31   3
   3   2 -12   62.97   12.99   2
   4   1 -12   39.10    9.61   1
   5  -4  12    4.94    9.99   1
  -5   4 -12   33.56   11.01   5
   1  -5 -12    2.67    8.93   4
   4   1 -12   15.21   11.60   2
   1  -5 -12   16.46   11.20   3
  -4  -1  12   10.42    9.71   1
   0  -5 -12   38.78   10.30   4
   0  -5 -12   40.73   13.61   3
   5   0 -12   56.67   12.77   2
   5   0 -12   66.71   11.89   1
   5  -5  12   72.92   14.69   1
   5  -6  12   36.06   14.59   1
   6  -1 -12   26.16   12.98   2
   6  -1 -12   15.48   12.81   1
  -1  -5 -12   29.34   15.10   3
   6  -1 -12   21.34   11.30   4
  -5   6 -12   28.81   13.68   5
  -5   7 -12   21.99   17.10   5
   7  -2 -12   -4.27   12.24   2
   7  -2 -12   -6.36   15.83   4
  -2  -5 -12   -0.32   17.23   3
   5  -7  12   -9.20   18.19   1
   5  -8  12   36.53   27.41   1
  -3  -5 -12   67.91   23.49   3
  -5   8 -12   20.23   19.59   5
  -6  -2 -12   40.50   23.61   3
   8  -6 -12   65.23   23.26   4
   2  -8  12   60.16   30.25   1
  -6  -1 -12   -4.80   17.60   3
   6   1  12    1.23   17.48   1
   7  -6 -12  -17.01   16.70   4
  -1   7 -12   13.89   18.52   2
  -1   7 -12    4.71   15.38   5
  -6   0 -12   17.50   14.96   3
   0   6 -12    8.89   13.40   2
   6  -6 -12   16.55   13.41   4
  -6   0 -12   25.45   16.27   5
   0  -6  12    6.84   15.65   1
   6   0  12    9.05   14.21   1
   6  -1  12   40.64   14.66   1
  -6   1 -12   35.12   13.41   5
  -6   1 -12   35.40   12.80   3
   1   5 -12   45.49   14.01   2
  -1  -5  12   48.76   15.12   1
   2   4 -12  112.96   17.11   2
   4  -6 -12  134.30   18.81   4
  -2  -4  12  154.50   17.69   1
  -6   2 -12  114.38   15.88   3
   6  -2  12  167.68   19.04   1
   3  -6 -12   18.69   10.71   3
   3  -6 -12   39.64   13.58   4
  -3  -3  12   34.18   12.07   1
  -6   3 -12   32.24   10.77   3
   6  -3  12   21.87   12.81   1
   3   3 -12   25.40   13.19   2
   4   2 -12  134.75   17.38   2
   2  -6 -12  125.52   15.93   3
   6  -4  12  155.75   19.42   1
  -6   4 -12  115.37   17.83   5
  -4  -2  12  156.68   18.06   1
   2  -6 -12  115.73   16.64   4
  -6   5 -12   37.37   13.85   5
   5   1 -12   17.87   14.38   2
   5   1 -12   50.00   12.87   1
   1  -6 -12   17.93   11.31   4
   6  -5  12   36.55   15.27   1
   6   0 -12  -11.84   14.81   1
  -6   6 -12   29.23   15.71   5
   6  -6  12   13.28   16.17   1
   6   0 -12   -9.38   13.62   2
   0  -6 -12    4.84   13.59   3
  -6   7 -12   15.02   18.32   5
   7  -1 -12   29.19   15.67   2
  -1  -6 -12   12.85   17.80   3
   6  -7  12   58.64   20.06   1
   6  -8  12   39.03   26.49   1
  -2  -6 -12   14.81   23.50   3
  -6   8 -12   27.11   20.98   5
   7  -7 -12   -7.46   18.15   4
   0   7 -12   42.20   21.15   2
   7   0  12   -0.92   20.68   1
  -7   0 -12   21.68   29.13   3
   0  -7  12    6.19   24.08   1
   6  -7 -12   -6.99   17.25   4
  -7   1 -12   22.29   19.10   5
  -1  -6  12   14.54   18.34   1
   1   6 -12   26.59   17.16   2
   7  -1  12   41.67   19.68   1
  -7   1 -12   -6.25   15.65   3
  -2  -5  12   12.92   16.71   1
   7  -2  12   10.54   15.44   1
   2   5 -12   30.68   14.93   2
   5  -7 -12   26.33   16.38   4
   7  -3  12   42.19   16.47   1
   4  -7 -12   26.23   15.28   4
   3   4 -12   33.46   15.85   2
  -3  -4  12   49.62   16.42   1
   7  -4  12   69.18   17.50   1
   3  -7 -12   32.41   14.16   4
   4   3 -12   40.18   16.23   2
   5   2 -12   34.18   16.49   1
   7  -5  12   -6.11   16.09   1
  -7   5 -12   19.21   16.55   5
   2  -7 -12   24.25   17.94   3
   2  -7 -12    7.15   13.96   4
  -5  -2  12   -0.97   14.84   1
  -7   6 -12   19.46   18.19   5
   6   1 -12    0.53   15.61   2
   1  -7 -12   25.80   17.64   3
   7  -6  12   -1.71   17.83   1
   7  -7  12   46.09   23.24   1
   7   0 -12    5.47   17.46   2
  -7   7 -12   -4.53   18.02   5
   0  -7 -12   10.34   21.71   3
   8  -2  12   81.29   27.28   1
  -8   2 -12   77.25   26.79   5
   2   6 -12   64.92   21.78   2
   6  -8 -12   40.11   21.32   4
  -2  -6  12    7.14   36.57   1
  -3  -5  12   19.47   35.51   1
   5  -8 -12  -11.80   19.46   4
   8  -3  12   25.21   26.49   1
   3   5 -12   32.87   19.51   2
   8  -4  12  -10.45   19.23   1
  -4  -4  12   23.13   19.59   1
   4  -8 -12    2.32   17.82   4
   4   4 -12    5.59   17.70   2
   3  -8 -12    6.24   25.23   4
  -8   5 -12    4.64   19.04   5
   5   3 -12  -10.08   23.45   2
   8  -5  12   28.28   21.32   1
   6   2 -12   26.09   30.23   2
  -8   6 -12   66.87   23.11   5
   8  -6  12   28.66   23.35   1
   0   0 -13   -3.27    6.16   2
   0   0 -13    0.77    5.63   5
   0   0 -13    6.95    8.10   3
   1  -1 -13  696.47   36.44   2
   0   1 -13  657.91   35.42   2
  -1   0 -13  679.84   35.34   5
   0   1 -13  663.96   36.41   5
  -1   0 -13  623.67   39.46   3
   1  -1 -13  662.88   35.39   5
   1  -1 -13  686.16   40.45   3
   1  -1 -13  656.80   37.40   4
  -1   1 -13  672.52   35.72   2
   0  -1 -13  674.26   37.30   4
   1   0 -13  633.53   35.82   2
   0  -1 -13  677.87   35.05   5
   1   0 -13  691.48   38.43   4
   0  -1 -13  668.85   36.01   2
  -1   1 -13  673.11   36.44   5
   1   0 -13  660.83   36.29   5
  -1   1 -13  698.67   40.29   3
   0  -1 -13  656.89   39.92   3
  -1  -1 -13   -2.28    6.55   3
   2  -1 -13    1.89    6.76   4
  -1   2 -13    4.74    6.68   2
   2  -1 -13   -2.79    7.57   2
  -1   2 -13  -11.15    7.04   5
  -1  -1 -13    3.14    6.04   5
   1  -2  13   -6.16    3.83   1
   2   1  13  557.36   30.92   1
  -2  -1 -13  538.29   29.06   5
   3  -2 -13  533.88   31.39   2
   3  -2 -13  544.75   33.25   4
  -1   3 -13  533.12   30.49   2
  -1   3 -13  542.98   32.44   5
  -2  -1 -13  575.11   36.45   3
   1  -3  13  527.81   32.64   1
   2  -2 -13  616.25   34.97   4
  -2   0 -13  631.54   37.12   3
   2  -2 -13  594.69   33.31   2
   0  -2  13  521.17   32.84   1
   0   2 -13  584.48   32.63   2
   2   0  13  546.53   32.17   1
   2  -2 -13  633.34   37.03   3
   0   2 -13  576.51   33.44   5
  -2   0 -13  630.13   32.46   5
   1   1 -13    3.11    7.24   5
   1   1 -13   15.60    7.72   2
  -2   1 -13    8.04    6.47   3
  -2   1 -13   -1.21    6.85   5
   1  -2 -13   -0.71    8.31   3
   1  -2 -13    1.45    6.79   4
   2  -1  13    5.72    3.46   1
   2  -2  13  575.75   34.95   1
  -2   2 -13  601.52   34.65   5
   2   0 -13  621.47   35.66   4
   0  -2 -13  654.35   31.73   5
  -2   2 -13  615.25   36.86   3
   2   0 -13  596.04   34.42   2
  -2   2 -13  635.54   33.24   2
   0  -2 -13  609.85   34.74   4
   0  -2 -13  607.78   37.86   3
  -2   3 -13  509.27   31.42   5
  -2   3 -13  536.75   28.96   2
   3  -1 -13  533.44   32.10   4
  -1  -2 -13  539.38   30.84   4
  -1  -2 -13  531.66   26.85   5
   3  -1 -13  508.64   30.75   2
  -1  -2 -13  468.19   34.00   3
   2  -3  13  519.37   31.72   1
   2   2  13   -0.63    5.04   1
  -2   4 -13    4.64    7.31   2
   4  -2 -13   -1.07    8.81   2
  -2  -2 -13    6.00   10.63   3
   2  -4  13   -3.23    7.84   1
   4  -2 -13    7.37    8.96   4
  -2  -2 -13    0.32    4.76   5
  -2   4 -13    5.10    9.11   5
   5  -3 -13  267.08   22.65   4
   3   2  13  278.40   21.45   1
  -3  -2 -13  324.33   27.46   3
   2  -5  13  285.17   23.19   1
  -2   5 -13  296.54   23.06   5
  -2   5 -13  304.39   20.09   2
   5  -3 -13  270.49   21.27   2
   1  -4  13  394.46   27.47   1
  -1   4 -13  397.50   24.99   2
   4  -3 -13  378.47   25.16   2
  -3  -1 -13  389.32   22.90   5
   4  -3 -13  399.56   27.30   4
  -1   4 -13  410.23   27.35   5
   3   1  13  394.92   25.83   1
  -3  -1 -13  400.38   30.13   3
   0  -3  13    3.50    5.75   1
   3  -3 -13   -9.32    8.06   4
   0   3 -13   -9.58    7.95   2
  -3   0 -13    5.33    9.09   3
   3  -3 -13   -9.34    8.39   2
   0   3 -13   13.44    8.41   5
   3   0  13   -1.96    5.96   1
  -3   0 -13   11.46    7.58   5
   2  -3 -13  494.34   31.42   4
   2  -3 -13  507.63   32.81   3
  -3   1 -13  532.69   30.03   5
  -1  -2  13  531.13   30.39   1
   1   2 -13  527.31   31.29   5
   1   2 -13  511.99   30.54   2
  -3   1 -13  460.81   32.30   3
   3  -1  13  539.73   31.00   1
   1  -3 -13  546.04   34.76   3
  -2  -1  13  563.85   31.16   1
  -3   2 -13  554.20   33.67   3
  -3   2 -13  535.55   31.94   5
   2   1 -13  527.33   32.15   2
   3  -2  13  541.81   32.86   1
   1  -3 -13  531.61   32.47   4
   3   0 -13    8.72    4.60   1
   0  -3 -13   -5.30    7.87   4
   0  -3 -13   -8.93    9.55   3
   3   0 -13   12.17    9.81   2
   3   0 -13   -4.48    8.53   4
  -3   3 -13   -2.89    6.24   2
  -3   3 -13    3.59    8.56   5
   3  -3  13   -4.42    6.62   1
   3  -4  13  413.36   27.67   1
  -3   4 -13  360.13   26.78   5
  -1  -3 -13  383.86   24.60   4
   4  -1 -13  375.71   26.39   4
  -3   4 -13  396.58   22.87   2
   4  -1 -13  390.84   25.98   2
  -1  -3 -13  389.36   29.23   3
  -2  -3 -13  293.37   25.79   3
   5  -2 -13  288.89   21.64   2
  -3   5 -13  238.63   23.13   5
   5  -2 -13  294.33   23.04   4
   3  -5  13  260.43   23.08   1
  -3   5 -13  298.82   18.72   2
   3  -6  13   -0.25   12.88   1
  -3  -3 -13    0.19   13.39   3
   6  -3 -13   16.99   12.67   4
   6  -3 -13    8.07   11.63   2
  -3   6 -13    6.69   12.90   5
   7  -4 -13  160.61   20.68   4
  -4  -3 -13  170.16   24.87   3
   3  -7  13  186.85   24.52   1
  -3   7 -13  185.01   21.69   5
  -2   6 -13  246.50   22.82   5
  -2   6 -13  272.29   20.00   2
  -4  -2 -13  248.21   26.21   3
   2  -6  13  213.30   23.45   1
   6  -4 -13  219.99   19.36   2
   6  -4 -13  245.50   23.59   4
   4   1  13   10.47    9.75   1
  -1   5 -13    2.77    9.80   2
   1  -5  13   18.42   12.05   1
  -1   5 -13    4.56   10.50   5
  -4  -1 -13    6.18   13.19   3
  -4  -1 -13    8.37    9.72   5
   5  -4 -13   12.06   10.92   4
   4  -4 -13  358.58   26.48   4
  -4   0 -13  378.68   28.18   3
   0  -4  13  310.45   25.10   1
   4   0  13  342.37   25.15   1
  -4   0 -13  359.81   22.88   5
   0   4 -13  380.26   25.49   5
   0   4 -13  366.02   24.60   2
   3  -4 -13  406.94   27.56   4
  -4   1 -13  406.22   25.89   5
  -1  -3  13  375.87   25.90   1
  -4   1 -13  392.51   27.60   3
   3  -4 -13  400.17   27.69   3
   1   3 -13  366.68   26.31   2
   4  -1  13  417.87   27.00   1
   1   3 -13  360.35   25.94   5
   2  -4 -13   -0.08    8.64   4
  -2  -2  13    3.84    6.72   1
   2   2 -13   20.00   10.82   2
  -4   2 -13  -19.85   10.32   5
   2  -4 -13   -6.71    9.47   3
   4  -2  13   -2.01    7.76   1
  -4   2 -13   -1.51    7.92   3
   1  -4 -13  376.29   27.62   3
  -4   3 -13  354.31   25.26   3
   3   1 -13  402.05   24.37   1
   3   1 -13  380.65   26.33   2
  -4   3 -13  386.27   26.97   5
  -3  -1  13  392.99   25.05   1
   4  -3  13  378.75   26.71   1
   1  -4 -13  375.44   25.64   4
  -4   4 -13  350.59   26.51   5
   0  -4 -13  333.48   27.30   3
   4   0 -13  383.82   23.31   1
   0  -4 -13  343.13   23.55   4
   4  -4  13  334.04   26.14   1
   4   0 -13  359.70   25.83   2
   5  -1 -13   -1.53    9.83   4
   4  -5  13   -3.84   11.10   1
  -1  -4 -13    6.00    8.84   4
   5  -1 -13   -7.47   11.42   2
  -4   5 -13   -8.33   12.07   5
  -1  -4 -13  -11.27   13.12   3
   6  -2 -13  285.04   21.92   4
  -4   6 -13  224.03   22.99   5
   6  -2 -13  215.66   20.15   2
   4  -6  13  174.79   22.67   1
  -2  -4 -13  228.21   24.74   3
  -4   7 -13  159.48   21.20   5
  -3  -4 -13  127.55   22.91   3
   7  -3 -13  185.53   21.15   4
   4  -7  13  138.21   22.82   1
   7  -3 -13  204.58   20.30   2
  -4   8 -13   30.63   22.14   5
   4  -8  13  -25.63   29.16   1
  -4  -4 -13   19.51   21.74   3
   8  -4 -13  -38.46   24.92   4
  -5  -3 -13  108.04   26.61   3
  -3   8 -13   77.42   26.88   5
   3  -8  13   84.81   24.76   1
   8  -5 -13  154.02   25.62   4
  -2   7 -13  -15.60   15.87   5
   2  -7  13   23.92   19.20   1
  -5  -2 -13   -4.82   18.75   3
   7  -5 -13   22.12   16.36   4
  -1   6 -13  196.38   20.88   5
  -1   6 -13  237.72   20.43   2
   5   1  13  198.69   22.01   1
  -5  -1 -13  226.43   25.29   3
   1  -6  13  195.65   22.36   1
   6  -5 -13  187.28   21.73   4
   0  -5  13  253.74   23.03   1
   5  -5 -13  288.07   24.66   4
  -5   0 -13  244.14   23.86   3
   0   5 -13  227.90   21.06   2
  -5   0 -13  255.58   20.46   5
   0   5 -13  254.26   21.60   5
   5   0  13  265.02   23.37   1
   5  -1  13    9.81   10.53   1
   1   4 -13   -6.73   11.07   2
  -5   1 -13   -8.91   10.51   5
  -5   1 -13    8.97   10.98   3
  -1  -4  13    1.49    9.18   1
   4  -5 -13    8.43   11.38   4
   5  -2  13  269.83   23.20   1
  -5   2 -13  312.91   23.41   5
   2   3 -13  297.48   23.71   2
   3  -5 -13  316.32   23.51   3
   3  -5 -13  281.83   23.36   4
  -5   2 -13  265.07   22.47   3
  -2  -3  13  308.99   23.15   1
  -5   3 -13  268.28   22.86   5
   3   2 -13  266.59   22.99   2
  -3  -2  13  256.50   21.05   1
   5  -3  13  272.14   23.09   1
  -5   3 -13  301.06   21.27   3
   2  -5 -13  281.85   23.27   3
   2  -5 -13  297.84   22.55   4
   1  -5 -13   13.98    9.83   4
  -5   4 -13    6.43   11.76   5
   4   1 -13    3.20   11.24   2
   5  -4  13    3.26   10.64   1
   1  -5 -13   13.77   11.82   3
  -5   5 -13  251.11   22.91   5
   0  -5 -13  239.94   19.22   4
   5   0 -13  247.73   22.25   2
   0  -5 -13  248.20   24.08   3
   5  -5  13  255.93   24.25   1
   6  -1 -13  174.78   20.15   2
  -5   6 -13  217.79   23.26   5
  -1  -5 -13  222.58   24.54   3
   5  -6  13  190.51   23.13   1
   6  -1 -13  231.35   20.95   4
  -2  -5 -13   -9.19   18.21   3
   7  -2 -13    3.04   14.99   2
   7  -2 -13   24.29   17.66   4
  -5   7 -13  -10.80   16.89   5
   5  -7  13    1.54   19.28   1
  -5   8 -13   78.40   24.73   5
   5  -8  13   54.96   26.18   1
  -3  -5 -13  115.20   29.71   3
  -1   7 -13  148.00   24.28   5
   7  -6 -13  118.28   21.95   4
  -1   7 -13  146.73   23.94   2
  -6  -1 -13  107.78   23.14   3
  -6   0 -13  -17.85   17.23   3
   6   0  13  -19.64   16.12   1
   6  -6 -13   -9.34   16.13   4
   0   6 -13   15.00   13.86   2
   0  -6  13  -15.68   15.96   1
  -6   1 -13  265.80   22.19   5
  -6   1 -13  199.63   22.80   3
  -1  -5  13  193.80   22.10   1
   6  -1  13  174.41   22.16   1
   5  -6 -13  202.55   22.61   4
   1   5 -13  251.06   22.74   2
   2   4 -13  248.53   22.76   2
   4  -6 -13  252.85   23.37   4
   6  -2  13  205.02   24.15   1
  -6   2 -13  289.85   23.61   5
  -6   2 -13  240.92   21.92   3
  -2  -4  13  244.56   23.15   1
  -3  -3  13    4.03   12.37   1
   6  -3  13   -3.86   12.54   1
   3   3 -13   -3.51   13.53   2
  -6   3 -13   11.74   11.10   3
   3  -6 -13   25.19   12.65   4
   3  -6 -13   -0.98   11.78   3
  -6   3 -13  -12.50   13.73   5
   2  -6 -13  232.13   21.68   3
   4   2 -13  213.82   22.73   2
   2  -6 -13  230.31   20.46   4
   6  -4  13  197.63   22.56   1
  -4  -2  13  195.72   20.43   1
  -6   4 -13  275.69   23.76   5
   1  -6 -13  159.53   18.49   4
   5   1 -13  172.88   21.14   2
  -6   5 -13  227.21   22.66   5
   1  -6 -13  189.38   21.08   3
   6  -5  13  204.34   23.05   1
   6  -6  13    2.16   15.94   1
  -6   6 -13    1.79   15.36   5
   6   0 -13    1.81   14.65   2
   0  -6 -13   14.38   16.42   3
   7  -1 -13   72.74   18.80   2
   6  -7  13   88.69   23.19   1
  -6   7 -13  144.65   22.98   5
   0  -7  13   84.00   24.99   1
   0   7 -13   90.09   25.94   2
  -7   0 -13   52.54   21.95   3
   7  -7 -13   66.66   20.83   4
  -1  -6  13  107.99   22.47   1
   1   6 -13  170.68   22.90   2
  -7   1 -13  115.47   22.66   3
   6  -7 -13   88.84   21.21   4
   5  -7 -13    2.58   16.96   4
   7  -2  13   29.51   18.92   1
   2   5 -13   -3.19   17.09   2
  -7   2 -13    4.75   16.48   5
  -2  -5  13  -13.91   17.53   1
   3   4 -13  167.50   21.68   2
  -3  -4  13  155.28   20.99   1
   7  -3  13  162.97   23.43   1
  -7   3 -13  166.46   21.99   5
   4   3 -13  167.20   23.45   2
   3  -7 -13  150.11   19.76   4
  -7   4 -13  190.19   24.01   5
   7  -4  13  175.51   23.12   1
   7  -5  13   24.80   17.46   1
   2  -7 -13  -15.98   18.60   3
   2  -7 -13    6.80   14.47   4
  -7   5 -13   23.00   18.02   5
   5   2 -13   -6.59   16.19   2
   6   1 -13  114.69   19.37   2
  -7   6 -13   66.74   19.51   5
   1  -7 -13   76.17   21.25   3
   7  -6  13   85.83   25.63   1
   7  -7  13   78.28   25.04   1
  -7   7 -13  102.73   25.52   5
   7   0 -13   72.03   22.29   2
   0  -7 -13   89.53   26.95   3
   3   5 -13   67.39   37.09   2
  -8   3 -13  148.88   25.14   5
   5  -8 -13   94.24   22.83   4
  -8   4 -13   -8.19   23.19   5
   4   4 -13   -9.46   18.75   2
   4  -8 -13  -14.30   19.96   4
   8  -4  13    8.49   21.58   1
   5   3 -13  129.61   22.80   2
   3  -8 -13   78.18   25.84   4
   8  -5  13   76.01   34.36   1
  -8   5 -13  114.12   24.56   5
   0   0 -14  429.96   25.59   2
   0   0 -14  390.56   24.55   5
   0   0 -14  418.82   28.63   3
  -1   0 -14  154.91   15.29   3
   1  -1 -14  139.40   13.59   2
   0   1 -14  144.70   13.95   5
   1  -1 -14  163.02   16.31   3
   1  -1 -14  165.17   14.91   4
  -1   0 -14  149.98   13.53   5
   0   1 -14  150.34   14.22   2
  -1   1 -14  139.61   13.74   2
   0  -1 -14  152.71   14.72   4
   1   0 -14  146.00   13.93   2
   0  -1 -14  160.73   15.92   3
  -1   1 -14  133.54   15.10   3
   0  -1 -14  156.95   12.67   5
  -1   1 -14  146.78   13.58   5
   1   0 -14  141.46   13.26   5
  -1  -1 -14  777.94   39.93   5
   2  -1 -14  805.66   44.07   4
   1  -2  14  720.62   41.98   1
  -1   2 -14  827.47   41.33   2
   2  -1 -14  775.23   41.99   2
  -1   2 -14  777.18   42.65   5
  -1  -1 -14  775.48   46.69   3
  -1   3 -14  134.75   15.22   5
   1  -3  14  144.62   12.00   1
  -2  -1 -14  143.44   16.82   3
   3  -2 -14   97.78   13.71   2
   3  -2 -14  112.82   14.92   4
  -2  -1 -14  129.95   11.57   5
  -1   3 -14  120.91   12.79   2
   0  -2  14  426.61   22.66   1
   2  -2 -14  416.50   25.75   2
  -2   0 -14  382.10   27.93   3
   0   2 -14  384.34   24.76   2
  -2   0 -14  372.90   23.58   5
   0   2 -14  367.40   25.57   5
   2  -2 -14  370.39   25.91   4
  -2   1 -14  829.02   42.58   5
   1  -2 -14  777.81   46.77   3
   1   1 -14  787.45   42.42   2
   1  -2 -14  777.85   43.91   4
   1   1 -14  797.33   43.20   5
  -2   1 -14  761.46   46.26   3
   0  -2 -14  400.43   28.38   3
  -2   2 -14  373.08   26.88   3
   2   0 -14  367.53   25.13   2
  -2   2 -14  391.51   25.56   5
  -2   2 -14  417.79   24.51   2
   0  -2 -14  358.54   25.07   4
   2  -2  14  430.84   23.66   1
   2   0 -14  417.15   27.16   4
  -2   3 -14  140.31   13.15   2
   3  -1 -14  125.73   14.58   2
   3  -1 -14  120.91   14.54   4
  -1  -2 -14  162.85   16.94   3
  -2   3 -14  142.21   15.43   5
  -1  -2 -14  128.92   10.87   5
   2  -3  14  143.48   12.54   1
   2  -4  14  199.44   17.56   1
   4  -2 -14  209.74   19.07   2
   4  -2 -14  237.86   20.50   4
  -2  -2 -14  251.25   15.00   5
  -2   4 -14  234.79   17.36   2
  -2   4 -14  232.66   20.71   5
  -2  -2 -14  249.20   23.66   3
  -2   5 -14   78.92   15.02   5
  -2   5 -14   81.14   12.37   2
   2  -5  14   95.73   14.20   1
  -3  -2 -14   93.77   17.28   3
   5  -3 -14   80.31   14.33   4
   5  -3 -14   96.23   14.34   2
   4  -3 -14  102.91   14.50   4
  -1   4 -14  103.10   15.08   5
  -3  -1 -14  107.06   16.74   3
   4  -3 -14   85.29   12.88   2
  -3  -1 -14   94.88   10.80   5
   1  -4  14  117.83   13.38   1
  -1   4 -14  103.37   12.90   2
   0   3 -14  572.17   34.90   5
   3  -3 -14  629.40   36.59   4
   3  -3 -14  588.32   33.91   2
   0  -3  14  520.37   34.07   1
  -3   0 -14  586.08   38.07   3
  -3   0 -14  607.88   32.79   5
   0   3 -14  577.98   33.90   2
  -3   1 -14  100.70   14.06   3
  -3   1 -14  118.38   13.82   5
   1   2 -14  112.06   14.31   5
   1   2 -14  112.61   13.68   2
   3  -1  14  126.89   10.68   1
   2  -3 -14  118.18   14.89   3
   2  -3 -14  113.30   13.42   4
  -1  -2  14  136.19   10.35   1
  -3   2 -14  133.68   14.36   3
   1  -3 -14  134.14   15.90   3
   3  -2  14  142.47   11.65   1
  -3   2 -14  137.70   14.89   5
   2   1 -14  121.89   14.87   2
   1  -3 -14   92.06   13.75   4
  -3   3 -14  607.73   35.51   5
   0  -3 -14  527.09   37.00   3
   3   0 -14  561.47   34.26   2
   0  -3 -14  613.87   34.46   4
   3  -3  14  558.44   34.84   1
   4  -1 -14  114.94   14.67   2
   4  -1 -14   98.39   13.99   4
  -3   4 -14  100.97   11.20   2
   3  -4  14   96.71   13.17   1
  -1  -3 -14  107.46   16.86   3
  -3   4 -14   93.25   14.33   5
  -3   5 -14   76.29   14.63   5
   5  -2 -14   57.01   13.62   2
  -3   5 -14   97.54   12.56   2
   5  -2 -14   83.88   14.08   4
  -2  -3 -14   70.67   15.90   3
   3  -5  14   87.06   14.60   1
   3  -6  14  259.18   26.50   1
   6  -3 -14  342.63   26.85   4
  -3  -3 -14  366.97   31.51   3
   6  -3 -14  328.36   24.74   2
  -3   6 -14  313.04   26.75   5
  -4  -3 -14   10.54   19.43   3
   7  -4 -14   34.80   18.59   4
  -3   7 -14   39.09   17.07   5
   3  -7  14   36.51   19.76   1
   2  -6  14  193.35   22.12   1
  -4  -2 -14  147.68   22.45   3
  -2   6 -14  123.36   19.28   5
   6  -4 -14  133.85   16.69   2
  -2   6 -14  153.55   18.09   2
   6  -4 -14  142.81   19.21   4
  -4  -1 -14  334.93   29.65   3
  -1   5 -14  376.79   25.66   2
   5  -4 -14  369.51   28.03   4
   1  -5  14  356.34   27.52   1
  -1   5 -14  342.99   26.62   5
  -4   0 -14  234.87   18.70   5
   0   4 -14  193.90   19.68   5
   4   0  14  281.54   20.55   1
   0   4 -14  250.58   20.46   2
   4  -4 -14  235.80   21.92   4
  -4   0 -14  192.64   22.38   3
   0  -4  14  262.93   20.24   1
   1   3 -14   94.29   14.36   5
   3  -4 -14   86.05   13.91   4
  -4   1 -14   87.36   13.38   5
   4  -1  14  114.40   12.20   1
   1   3 -14   82.81   13.56   2
  -1  -3  14  117.47   12.53   1
  -4   1 -14   81.80   14.55   3
   2   2 -14  248.57   20.59   2
  -4   2 -14  223.28   19.66   3
  -4   2 -14  226.57   19.33   5
   2  -4 -14  235.18   21.15   3
   4  -2  14  225.51   18.89   1
   2  -4 -14  234.50   19.71   4
   4  -3  14   98.39   12.47   1
   1  -4 -14   55.75   12.23   4
   1  -4 -14   87.64   14.14   3
  -4   3 -14   65.94   11.48   3
   3   1 -14   89.38   14.80   2
  -4   3 -14  109.33   14.72   5
   4   0 -14  172.58   19.81   2
   4  -4  14  251.68   20.59   1
   0  -4 -14  222.51   22.21   3
  -4   4 -14  241.59   21.67   5
   0  -4 -14  219.41   18.68   4
  -4   5 -14  391.08   29.10   5
  -1  -4 -14  376.39   30.22   3
   5  -1 -14  377.79   26.67   4
   5  -1 -14  334.62   26.37   2
   4  -5  14  365.68   28.48   1
   6  -2 -14  125.62   17.32   2
  -2  -4 -14  130.00   21.62   3
  -4   6 -14  127.74   20.44   5
   4  -6  14  167.22   20.77   1
   6  -2 -14  164.46   18.56   4
   7  -3 -14   13.79   19.53   4
   4  -7  14   68.77   19.65   1
  -3  -4 -14   62.48   19.75   3
  -4   7 -14   45.33   18.61   5
  -5  -2 -14  168.17   25.83   3
  -2   7 -14  179.70   23.34   5
   7  -5 -14  158.34   22.86   4
   2  -7  14  187.73   24.82   1
   1  -6  14   45.54   15.73   1
   6  -5 -14   63.66   16.97   4
  -5  -1 -14   41.02   18.16   3
  -1   6 -14   63.96   15.16   2
  -1   6 -14   31.91   15.81   5
   0  -5  14   85.39   14.42   1
   0   5 -14   59.52   14.05   5
  -5   0 -14   61.23   13.66   5
  -5   0 -14   58.36   16.51   3
   5  -5 -14   54.66   16.33   4
   0   5 -14   80.84   14.83   2
   4  -5 -14  373.43   28.15   4
  -1  -4  14  311.91   25.70   1
   1   4 -14  354.71   26.55   2
  -5   1 -14  347.09   27.82   3
  -5   1 -14  391.01   26.05   5
   5  -1  14  324.88   26.77   1
   2   3 -14   54.96   15.15   2
   3  -5 -14  104.98   15.77   3
   3  -5 -14   81.11   14.71   4
  -5   2 -14   78.69   14.97   5
  -5   2 -14   63.78   13.52   3
   5  -2  14   99.25   13.99   1
  -2  -3  14   68.27   12.97   1
   2  -5 -14   43.45   13.06   4
   3   2 -14   76.81   15.36   2
   2  -5 -14   40.19   13.35   3
  -5   3 -14   65.28   13.78   5
   5  -3  14   74.89   13.28   1
  -5   3 -14   77.80   13.39   3
   1  -5 -14  373.03   28.77   3
   1  -5 -14  388.79   26.65   4
   5  -4  14  351.06   28.41   1
  -5   4 -14  370.38   28.39   5
   4   1 -14  371.17   27.64   2
   0  -5 -14   55.25   12.69   4
  -5   5 -14   76.30   16.20   5
   5  -5  14   63.56   15.57   1
   5   0 -14   47.22   15.28   2
   0  -5 -14   80.27   17.38   3
  -1  -5 -14   36.25   18.01   3
   5  -6  14   68.62   18.03   1
  -5   6 -14   41.01   18.42   5
   6  -1 -14   46.61   14.87   2
   7  -2 -14  194.36   21.33   2
  -2  -5 -14  192.23   26.70   3
  -5   7 -14  221.48   25.49   5
   5  -7  14  148.33   25.30   1
   7  -2 -14  197.84   25.80   4
  -6  -1 -14   24.27   22.47   3
   7  -6 -14   47.52   19.83   4
   0  -6  14   91.71   21.52   1
   6  -6 -14   79.52   18.65   4
   0   6 -14  107.89   23.65   2
  -6   0 -14   98.94   20.71   3
   1   5 -14   26.62   16.06   2
  -1  -5  14   39.84   16.41   1
  -6   1 -14   24.57   15.87   3
   5  -6 -14   28.69   15.20   4
  -6   1 -14   42.12   16.13   5
   2   4 -14  187.71   20.78   2
  -6   2 -14  121.45   18.07   3
  -6   2 -14  167.09   19.72   5
   6  -2  14  139.11   19.55   1
   4  -6 -14  157.44   20.22   4
   3  -6 -14  312.21   25.23   4
   3   3 -14  251.09   24.37   2
   6  -3  14  268.13   25.64   1
   3  -6 -14  309.20   25.38   3
  -6   3 -14  289.55   25.80   5
   2  -6 -14  135.48   19.15   3
   6  -4  14  154.21   20.64   1
  -6   4 -14  190.30   22.14   5
   2  -6 -14  136.14   18.03   4
   4   2 -14  160.64   20.73   2
   6  -5  14   59.61   17.03   1
   5   1 -14   33.37   16.68   2
   1  -6 -14   39.20   15.61   3
  -6   5 -14   83.77   18.73   5
   1  -6 -14   35.32   14.31   4
   6  -6  14  102.87   21.47   1
  -6   6 -14   84.77   19.89   5
   6   0 -14   89.98   18.64   2
   0  -6 -14   84.95   20.41   3
  -6   7 -14   18.31   20.85   5
   7  -1 -14   42.53   35.75   2
  -1  -6 -14    1.52   32.68   3
   6  -7  14   55.95   24.84   1
   6  -7 -14   28.51   21.32   4
   1   6 -14   23.11   19.87   2
   2   5 -14  153.36   22.63   2
  -7   2 -14  211.07   25.43   5
   5  -7 -14  143.46   22.72   4
   3   4 -14   50.14   18.56   2
  -7   3 -14   27.30   18.25   5
   4  -7 -14   20.45   16.35   4
   3  -7 -14   18.06   18.25   4
   4   3 -14   12.33   17.23   2
   7  -4  14   30.17   18.75   1
  -7   4 -14   48.03   18.54   5
   2  -7 -14  142.45   28.47   4
   5   2 -14  195.08   24.76   2
  -7   5 -14  210.12   25.39   5
   7  -5  14  171.16   25.50   1
   2  -7 -14  242.82   28.17   3
  -7   6 -14   38.94   19.17   5
   7  -6  14   39.87   22.25   1
   6   1 -14   18.99   31.37   2
   1  -7 -14    5.86   24.79   3
   0   0 -15   -1.28    7.62   5
   0   0 -15    0.70    8.15   2
   0   0 -15   -9.62    9.04   3
   1  -1 -15   25.43    9.42   4
   1  -1 -15   28.80   10.59   3
  -1   0 -15   33.55    8.85   5
   1  -1 -15   16.52    9.29   2
   0   1 -15   30.52    9.22   5
   0   1 -15   37.87    9.56   2
  -1   0 -15   36.21   11.42   3
  -1   1 -15   39.14   10.02   2
   0  -1 -15   23.73   10.29   3
   1   0 -15   43.04    9.27   5
  -1   1 -15   29.49    9.26   5
  -1   1 -15   34.22   11.13   3
   0  -1 -15   42.26    8.20   5
   1   0 -15   42.22   10.07   2
   2  -1 -15   -1.16    8.98   2
  -1   2 -15    8.99    8.43   2
  -1  -1 -15   -5.11    7.45   5
  -1   2 -15   -4.33    8.52   5
  -1  -1 -15    4.06    8.89   3
  -2  -1 -15   64.04   13.71   3
   3  -2 -15    7.93    9.48   4
  -1   3 -15   27.71   10.09   2
  -2  -1 -15   24.51    7.76   5
  -1   3 -15   37.45   12.41   5
   3  -2 -15   21.95   10.79   2
   0   2 -15  109.97   13.30   2
  -2   0 -15  103.31   11.92   5
  -2   0 -15  110.95   15.64   3
   0   2 -15  119.85   13.80   5
   2  -2 -15  121.52   14.87   4
   2  -2 -15  108.77   14.29   2
   1  -2 -15   -0.42    8.88   4
   1  -2 -15  -11.28   10.02   3
  -2   1 -15    4.96    8.01   5
  -2   1 -15   -4.71    9.02   3
   1   1 -15    0.38    8.83   2
   1   1 -15    6.91    8.64   5
   2   0 -15   95.41   13.86   2
  -2   2 -15  128.18   13.82   5
   0  -2 -15  124.32   14.08   4
  -2   2 -15  134.12   13.42   2
   0  -2 -15  112.75   15.57   3
   3  -1 -15   39.47   11.58   2
  -2   3 -15   36.54    9.67   2
  -1  -2 -15   25.27    7.19   5
  -1  -2 -15   22.78   11.81   3
  -2   3 -15   29.37   10.80   5
   3  -1 -15   32.24   10.47   4
  -2   4 -15   -6.23    9.23   2
   4  -2 -15  -10.29   10.52   2
   4  -2 -15   -5.93   10.69   4
  -2   4 -15  -14.36   11.74   5
   2  -4  15    6.51    8.17   1
  -2  -2 -15   -8.16   11.75   3
   5  -3 -15   31.60   13.04   4
   2  -5  15    7.99   12.04   1
  -3  -2 -15   28.77   15.65   3
  -2   5 -15    3.02   12.97   5
   5  -3 -15    3.25   11.94   2
  -1   4 -15   32.88   12.95   5
   4  -3 -15   19.54   10.03   4
   4  -3 -15   37.37   12.31   2
  -3  -1 -15   23.40    8.92   5
  -1   4 -15    2.84    9.46   2
  -3  -1 -15   -0.52   12.69   3
  -3   0 -15    0.59   10.13   3
  -3   0 -15    5.68    8.74   5
   3  -3 -15  -16.17   10.64   4
   0   3 -15  -12.19   10.34   2
   0   3 -15   18.46   10.77   5
  -3   1 -15   23.17    9.50   5
   1   2 -15   27.85   11.18   2
   1   2 -15   28.97   11.44   5
   2  -3 -15   32.49   11.38   4
   2  -3 -15   24.97   11.70   3
  -3   1 -15   28.73   10.99   3
   1  -3 -15   19.61   10.08   4
   2   1 -15   34.48   10.61   2
   1  -3 -15   44.66   12.88   3
  -3   2 -15   45.76   11.57   3
  -3   2 -15   29.14   10.31   5
  -3   3 -15    0.28   11.51   5
   0  -3 -15    9.55    9.99   4
   3   0 -15   12.77   11.75   2
   0  -3 -15   16.05   12.90   3
   3  -4  15    0.35    9.24   1
  -3   4 -15    6.80   11.47   5
  -1  -3 -15   22.30   13.25   3
   4  -1 -15   10.01   10.24   4
   4  -1 -15   21.02   12.04   2
  -3   4 -15   27.76   10.28   2
  -2  -3 -15   20.75   15.83   3
  -3   5 -15   -3.74   11.57   2
   5  -2 -15   17.26   12.97   4
   5  -2 -15   -3.68   13.44   2
  -3   5 -15   25.67   13.77   5
  -3   6 -15   -2.04   14.31   5
  -3  -3 -15   -0.03   17.49   3
   6  -3 -15   -3.00   14.16   4
   6  -3 -15   26.03   15.14   2
  -3   7 -15    0.30   21.76   5
   7  -4 -15    0.38   20.74   4
  -4  -3 -15   -0.91   21.08   3
   6  -4 -15   61.22   17.62   4
  -2   6 -15   29.95   15.79   2
  -2   6 -15   43.50   15.81   5
  -1   5 -15    1.26   11.03   2
  -1   5 -15   -6.59   12.67   5
   5  -4 -15   -5.60   13.51   4
  -4  -1 -15   15.71   15.52   3
  -4   0 -15   61.18   15.40   3
  -4   0 -15   64.87   11.91   5
   0   4 -15   93.11   14.52   2
   4  -4 -15   84.42   15.18   4
   0   4 -15   79.85   14.52   5
  -4   1 -15   27.04   12.12   3
   3  -4 -15   12.99   11.69   4
   1   3 -15   31.54   12.71   5
  -4   1 -15   37.38   12.28   5
   1   3 -15   32.39   11.95   2
   2  -4 -15   -5.08   11.15   4
  -4   2 -15    5.75   10.65   3
   2   2 -15  -13.21   11.31   2
  -4   2 -15   -9.58   11.27   5
   2  -4 -15   15.00   11.59   3
   1  -4 -15   50.53   14.27   3
   3   1 -15   33.35   14.06   2
  -4   3 -15   21.18   12.80   5
   1  -4 -15   58.55   12.68   4
   4  -3  15    3.97    9.52   1
   4   0 -15   54.99   14.10   2
   4  -4  15   37.93   11.47   1
   0  -4 -15   62.57   15.21   3
  -4   4 -15   90.35   15.71   5
   0  -4 -15   71.93   12.80   4
   5  -1 -15    1.01   11.67   4
   4  -5  15   -1.66   12.89   1
  -1  -4 -15    0.19   14.92   3
   5  -1 -15    2.07   13.34   2
  -4   5 -15    8.70   13.51   5
  -4   6 -15   39.10   16.10   5
   6  -2 -15   55.12   15.20   2
  -2  -4 -15   23.79   17.15   3
   6  -2 -15   60.07   16.03   4
  -4   7 -15   34.37   19.91   5
  -3  -4 -15  -33.82   20.15   3
   7  -3 -15   -8.77   22.95   4
   7  -5 -15   -0.18   18.05   4
  -2   7 -15   -5.93   29.49   5
  -5  -2 -15   -5.37   22.16   3
  -1   6 -15   40.53   17.03   5
   6  -5 -15   -4.43   16.30   4
  -1   6 -15  -12.07   16.18   2
  -5  -1 -15   13.74   18.17   3
  -5   0 -15    1.78   15.03   3
   0   5 -15   25.41   13.30   2
   0   5 -15   14.03   14.49   5
   5  -5 -15    7.80   13.60   4
  -5   0 -15   20.90   15.53   5
  -5   1 -15   -9.81   12.76   3
  -5   1 -15    4.57   12.48   5
   4  -5 -15   27.55   13.36   4
   1   4 -15   -5.40   13.03   2
  -5   2 -15   16.11   13.31   5
   3  -5 -15   21.52   13.68   3
   2   3 -15   15.77   12.74   2
  -5   2 -15   10.57   11.66   3
   3  -5 -15   25.08   12.75   4
   2  -5 -15   13.18   12.31   4
   2  -5 -15   16.98   12.76   3
  -5   3 -15    8.07   12.92   5
  -5   3 -15   24.37   11.70   3
   3   2 -15   -3.66   12.17   2
  -5   4 -15   12.57   14.46   5
   1  -5 -15   21.93   11.80   4
   1  -5 -15    2.53   13.68   3
   4   1 -15  -17.64   14.19   2
   5  -4  15   -0.23   13.29   1
   0  -5 -15   16.45   12.51   4
   0  -5 -15   18.23   15.30   3
   5   0 -15    9.86   14.75   2
   5  -5  15   -8.97   15.30   1
  -5   5 -15   23.88   15.58   5
  -5   6 -15   -2.32   16.45   5
  -1  -5 -15    1.66   17.26   3
  -2  -5 -15  -10.87   29.10   3
   7  -2 -15  -42.88   33.45   2
  -5   7 -15   33.19   21.15   5
   0   6 -15   -7.33   17.50   2
  -6   0 -15  -17.51   19.77   3
   6  -6 -15   -7.70   18.14   4
  -6   1 -15   16.39   16.25   3
   1   5 -15   12.66   15.23   2
   5  -6 -15   -2.59   15.60   4
  -6   1 -15   26.40   18.69   5
  -6   2 -15   24.36   15.00   3
   4  -6 -15   40.75   16.44   4
   2   4 -15   26.44   16.55   2
  -6   2 -15   69.76   18.06   5
   3   3 -15    7.98   15.04   2
   3  -6 -15   -8.82   14.80   4
  -6   3 -15    9.95   16.61   5
   3  -6 -15   16.41   15.36   3
   2  -6 -15   28.66   15.95   3
   2  -6 -15   34.01   14.47   4
   4   2 -15   27.26   14.99   2
  -6   4 -15   39.39   15.47   5
   1  -6 -15    6.24   14.13   4
  -6   5 -15    5.53   16.32   5
   1  -6 -15   -5.71   15.55   3
   5   1 -15   15.81   16.68   2
   0  -6 -15  -26.14   21.53   3
  -6   6 -15  -17.50   18.69   5
   6   0 -15   17.74   17.03   2
  -7   2 -15   47.89   23.97   5
   5  -7 -15   16.88   20.50   4
   2   5 -15  -25.95   20.55   2
   3   4 -15    5.92   16.96   2
   4  -7 -15   21.34   18.02   4
  -7   3 -15  -21.82   26.23   5
   3  -7 -15   16.35   16.90   4
  -7   4 -15   34.11   21.27   5
   4   3 -15   32.07   17.21   2
  -7   5 -15   36.82   20.27   5
   5   2 -15   -0.04   23.68   2
   0   0 -16  205.08   17.84   2
   0   0 -16  200.57   16.72   5
   0   0 -16  204.53   19.99   3
  -1   0 -16   74.43   11.01   5
   0   1 -16   75.91   12.49   2
   1  -1 -16   58.97   13.15   4
   1  -1 -16   78.27   13.54   2
  -1   0 -16   61.22   13.21   3
   0   1 -16   86.95   12.12   5
   1   0 -16   68.91   12.12   2
  -1   1 -16   84.27   11.56   5
  -1   1 -16   56.67   11.62   2
   0  -1 -16   72.51   14.08   3
   0  -1 -16   76.62   10.85   5
  -1   2 -16  789.00   43.48   5
   2  -1 -16  776.20   44.12   4
  -1   2 -16  709.56   41.16   2
  -1  -1 -16  761.26   47.35   3
   2  -1 -16  790.75   43.14   2
  -1  -1 -16  713.26   39.64   5
   3  -2 -16   28.89   12.41   2
  -2  -1 -16   59.98   10.24   5
  -1   3 -16   54.77   11.81   2
  -1   3 -16   39.09   12.01   5
  -2  -1 -16   52.20   13.95   3
   3  -2 -16   70.85   13.87   4
   0   2 -16   62.55   12.06   2
   2  -2 -16   46.68   12.50   4
   2  -2 -16   73.23   13.40   2
   0   2 -16   56.69   12.69   5
  -2   0 -16   78.06   11.50   5
  -2   0 -16   56.01   13.09   3
   1  -2 -16  754.68   43.50   4
   1   1 -16  767.57   42.59   5
   1   1 -16  744.69   41.66   2
  -2   1 -16  761.47   41.40   5
   1  -2 -16  710.29   46.27   3
  -2   1 -16  713.82   45.77   3
  -2   2 -16   52.55   11.59   5
   0  -2 -16   50.49   13.39   3
   2   0 -16   65.84   12.81   2
   0  -2 -16   58.64   12.82   4
  -2   2 -16   47.40   10.67   2
  -1  -2 -16   56.68   15.02   3
   3  -1 -16   30.88   12.11   2
  -2   3 -16   51.48   11.82   5
  -1  -2 -16   40.22    9.23   5
   3  -1 -16   47.35   12.79   4
  -2   3 -16   43.83   10.70   2
  -2   4 -16  173.80   16.72   2
   4  -2 -16  140.72   18.47   4
  -2  -2 -16  192.37   21.76   3
   4  -2 -16  158.85   18.37   2
  -2   4 -16  147.00   18.80   5
  -3  -2 -16   32.10   16.29   3
  -2   5 -16   36.19   15.50   5
  -2   5 -16   55.48   14.40   2
   5  -3 -16   40.60   14.00   2
   5  -3 -16   56.90   15.20   4
   4  -3 -16   49.40   13.38   2
   4  -3 -16   58.98   13.55   4
  -3  -1 -16   70.10   11.92   5
  -3  -1 -16   49.85   15.68   3
  -1   4 -16   49.86   12.14   2
  -1   4 -16   52.29   14.23   5
   0   3 -16  642.41   36.50   5
  -3   0 -16  580.28   39.09   3
  -3   0 -16  540.65   32.85   5
   3  -3 -16  551.20   36.80   4
   0   3 -16  562.37   34.59   2
   1   2 -16   64.50   12.80   2
   2  -3 -16   47.52   13.52   3
   2  -3 -16   42.38   13.08   4
  -3   1 -16   58.46   13.27   3
  -3   1 -16   73.27   12.33   5
   1   2 -16   44.16   11.48   5
  -3   2 -16   36.25   12.25   3
  -3   2 -16   50.07   12.57   5
   2   1 -16   38.05   12.25   2
   1  -3 -16   69.46   14.94   3
   1  -3 -16   48.06   12.38   4
   3   0 -16  548.81   35.77   2
   0  -3 -16  569.63   39.40   3
   0  -3 -16  583.20   35.20   4
  -3   3 -16  571.56   35.98   5
  -3   4 -16   48.20   14.84   5
   4  -1 -16   52.53   13.48   4
  -3   4 -16   41.75   11.70   2
   4  -1 -16   60.97   14.51   2
  -1  -3 -16   47.47   15.64   3
  -3   5 -16   44.89   15.77   5
   5  -2 -16   29.83   14.12   2
   5  -2 -16   33.86   15.01   4
  -2  -3 -16   26.64   16.86   3
  -3  -3 -16  318.03   31.61   3
   6  -3 -16  302.56   27.36   4
   6  -3 -16  314.99   26.78   2
  -3   6 -16  344.64   29.16   5
  -3   7 -16   32.66   25.18   5
   7  -4 -16  -14.65   21.10   4
  -4  -3 -16   23.10   23.78   3
   6  -4 -16   32.79   17.62   4
  -4  -2 -16   13.37   19.25   3
  -2   6 -16   22.00   16.38   5
   5  -4 -16  385.21   30.68   4
  -4  -1 -16  349.12   32.27   3
  -1   5 -16  415.48   28.21   2
  -1   5 -16  374.41   29.56   5
   0   4 -16   16.63   12.85   5
   4  -4 -16   45.62   14.20   4
  -4   0 -16   23.74   14.31   3
  -4   0 -16   37.69   12.56   5
   0   4 -16   35.95   13.23   2
  -4   1 -16   18.13   12.33   3
   1   3 -16   52.00   13.27   2
   3  -4 -16   34.66   12.97   4
  -4   1 -16   27.93   12.66   5
   2  -4 -16  156.95   18.97   3
  -4   2 -16  179.72   18.56   5
   2   2 -16  167.43   18.53   2
  -4   2 -16  144.19   17.19   3
   2  -4 -16  109.26   16.20   4
   1  -4 -16   25.36   13.73   3
   3   1 -16   35.51   14.30   2
  -4   3 -16   46.17   13.52   5
   1  -4 -16   36.21   13.19   4
  -4   4 -16   39.08   14.21   5
   0  -4 -16   27.21   14.90   3
   0  -4 -16   57.92   13.00   4
  -4   5 -16  382.47   30.14   5
   5  -1 -16  381.34   28.59   2
  -1  -4 -16  374.18   32.00   3
   6  -2 -16   31.88   14.97   4
  -4   6 -16   40.81   18.59   5
   6  -2 -16   26.74   16.88   2
  -2  -4 -16   -7.39   17.89   3
  -4   7 -16   -3.10   19.50   5
   7  -3 -16    4.18   21.69   4
  -3  -4 -16   -4.74   35.91   3
  -5  -1 -16   29.55   19.51   3
   6  -5 -16   -7.30   17.45   4
  -1   6 -16    7.67   18.33   2
   0   5 -16  -13.00   14.55   2
   0   5 -16   23.13   15.83   5
   5  -5 -16   20.85   15.86   4
  -5   0 -16   12.72   16.41   3
   4  -5 -16  380.33   31.04   4
  -5   1 -16  356.20   30.22   3
  -5   1 -16  413.09   29.04   5
   1   4 -16  388.15   29.54   2
  -5   2 -16   29.60   14.75   5
   2   3 -16   35.07   15.43   2
  -5   2 -16   52.20   14.47   3
   3  -5 -16   26.49   14.78   4
   3   2 -16   16.81   14.46   2
   2  -5 -16   35.85   14.80   4
  -5   3 -16   46.04   15.67   5
   2  -5 -16   40.86   14.70   3
  -5   3 -16   27.08   13.37   3
   1  -5 -16  381.10   29.14   4
   4   1 -16  386.17   30.45   2
   1  -5 -16  449.55   33.10   3
  -5   4 -16  415.43   32.49   5
   0  -5 -16   69.71   18.44   3
   5   0 -16   37.27   16.21   2
  -5   5 -16    5.82   16.25   5
  -5   6 -16   32.56   18.60   5
  -1  -5 -16    1.49   17.24   3
   6  -1 -16   28.59   17.05   2
   0   6 -16   81.45   23.48   2
   6  -6 -16   84.65   25.21   4
  -6   0 -16   94.48   23.22   3
   1   5 -16   35.78   18.06   2
  -6   1 -16   11.77   18.57   3
   5  -6 -16   12.65   17.19   4
  -6   2 -16   12.74   15.94   3
   4  -6 -16    8.39   16.11   4
  -6   2 -16   40.38   18.56   5
   2   4 -16   44.06   18.80   2
  -6   3 -16  394.22   30.89   5
   3   3 -16  370.76   30.18   2
   3  -6 -16  282.28   28.41   4
   3  -6 -16  317.42   30.23   3
   2  -6 -16  -12.77   15.92   4
   2  -6 -16    7.55   18.66   3
   4   2 -16   19.67   17.55   2
  -6   4 -16   15.83   18.20   5
   1  -6 -16   53.28   20.26   3
  -6   5 -16   28.80   19.84   5
   5   1 -16   37.49   19.02   2
   0  -6 -16  106.29   25.47   3
  -6   6 -16   83.33   21.90   5
   6   0 -16  121.49   21.49   2
   3   4 -16   27.74   46.89   2
   4  -7 -16   44.49   20.80   4
  -7   4 -16   10.93   23.89   5
   4   3 -16   25.67   30.60   2
   3  -7 -16    0.65   26.05   4
   0   0 -17   -5.73    8.89   5
   0   0 -17    8.26   10.99   2
  -1   0 -17  176.58   16.00   5
  -1   0 -17  181.15   20.50   3
   1  -1 -17  132.60   16.63   2
   0   1 -17  192.88   17.46   2
   0   1 -17  158.58   16.99   5
   0  -1 -17  186.33   20.52   3
  -1   1 -17  182.37   16.84   5
  -1   1 -17  186.21   17.29   2
   0  -1 -17  155.45   14.96   5
   1   0 -17  163.99   17.92   2
  -1   2 -17    2.82    9.97   2
  -1   2 -17   -0.15   10.31   5
   2  -1 -17   -8.36   10.79   2
   2  -1 -17  -19.65   13.11   4
  -2  -1 -17  115.05   13.13   5
   3  -2 -17   96.90   15.05   4
  -2  -1 -17   89.94   16.54   3
   3  -2 -17  116.63   16.67   2
  -1   3 -17  106.15   15.24   5
  -1   3 -17  109.72   14.33   2
  -2   0 -17  288.12   21.14   5
   0   2 -17  282.68   22.77   2
   2  -2 -17  308.13   23.95   2
   2  -2 -17  302.24   24.10   4
   0   2 -17  277.58   22.69   5
  -2   0 -17  283.50   25.58   3
  -2   1 -17   15.90   10.85   5
  -2   1 -17   10.82   12.12   3
   1   1 -17   -5.02   10.87   2
   1  -2 -17   16.17   13.83   3
   1  -2 -17   -7.02   11.17   4
   0  -2 -17  313.82   26.79   3
   2   0 -17  304.52   23.83   2
  -2   2 -17  270.63   22.59   5
  -1  -2 -17  115.89   18.83   3
  -2   3 -17   79.24   13.33   2
   3  -1 -17  107.64   16.60   4
   3  -1 -17  119.14   16.44   2
  -2   3 -17  153.59   17.24   5
   4  -2 -17   17.42   14.29   2
  -2   4 -17    2.66   12.11   5
   4  -2 -17   22.11   13.41   4
  -2  -2 -17    1.73   15.16   3
  -2   4 -17   10.28   11.71   2
   5  -3 -17   80.50   17.30   2
  -2   5 -17   83.39   18.05   5
   5  -3 -17  101.60   17.89   4
  -3  -2 -17   85.56   19.71   3
  -2   5 -17   96.21   16.47   2
  -1   4 -17  108.05   15.29   2
  -3  -1 -17   83.01   17.76   3
   4  -3 -17  108.00   17.02   4
   4  -3 -17  114.80   16.52   2
  -1   4 -17   75.64   16.24   5
   3  -3 -17   -3.67   12.22   4
   0   3 -17    5.82   11.34   5
  -3   0 -17   10.60   10.36   5
   0   3 -17    2.13   11.59   2
  -3   0 -17    1.82   12.58   3
   1   2 -17   81.48   15.39   2
   2  -3 -17   85.64   15.96   3
   2  -3 -17  131.89   17.31   4
  -3   1 -17  123.63   17.27   3
  -3   1 -17  106.98   14.94   5
   1  -3 -17   88.77   15.16   4
   1  -3 -17  105.14   16.98   3
  -3   2 -17  122.74   16.83   3
   2   1 -17  108.92   16.62   2
  -3   2 -17   82.03   14.28   5
   0  -3 -17   -2.91   13.34   3
  -3   3 -17   -6.27   12.60   5
   3   0 -17   -3.59   11.84   2
  -3   4 -17   73.66   16.74   5
  -1  -3 -17   91.11   17.77   3
   5  -2 -17   91.25   17.53   2
  -2  -3 -17   66.74   17.59   3
   5  -2 -17   89.74   17.26   4
  -3   5 -17  101.69   18.70   5
   6  -3 -17   10.73   19.24   2
  -3  -3 -17   -4.48   20.89   3
   6  -3 -17    7.36   17.20   4
  -3   6 -17   10.00   17.01   5
  -2   6 -17  133.61   22.82   5
  -4  -2 -17  118.43   24.74   3
   5  -4 -17    4.79   15.01   4
  -4  -1 -17   12.68   16.08   3
  -1   5 -17   23.51   17.09   5
  -1   5 -17  -13.83   15.58   2
  -4   0 -17  159.08   22.29   3
  -4   0 -17  223.20   20.57   5
   0   4 -17  159.49   19.77   2
   0   4 -17  180.40   21.23   5
   4  -4 -17  162.32   21.20   4
  -4   1 -17   83.87   16.77   3
  -4   1 -17  111.13   16.62   5
   3  -4 -17  119.85   18.14   4
   1   3 -17   96.14   16.57   2
   2  -4 -17   -6.03   13.24   4
  -4   2 -17  -18.52   13.43   5
  -4   2 -17   15.52   12.83   3
   2  -4 -17  -11.85   14.27   3
  -4   3 -17   89.80   17.69   5
   3   1 -17   95.98   17.57   2
   1  -4 -17  124.00   18.83   3
   1  -4 -17   87.75   15.65   4
   0  -4 -17  130.46   19.09   4
   4   0 -17  183.33   21.29   2
   0  -4 -17  158.97   22.46   3
  -4   4 -17  170.04   20.85   5
  -1  -4 -17   16.68   15.55   3
   5  -1 -17    1.23   14.77   2
  -4   5 -17   -6.56   15.24   5
  -2  -4 -17   93.74   23.49   3
   6  -2 -17  113.25   20.04   2
   6  -2 -17  117.84   22.04   4
  -4   6 -17   71.74   19.56   5
  -1   6 -17   38.40   20.49   5
  -5  -1 -17   51.48   21.32   3
  -1   6 -17   24.93   23.24   2
   6  -5 -17   32.40   18.71   4
   0   5 -17   56.60   17.92   2
  -5   0 -17   20.29   18.14   3
   5  -5 -17   53.01   18.61   4
  -5   1 -17    5.05   16.68   5
   4  -5 -17  -11.60   16.89   4
   1   4 -17   27.30   16.50   2
  -5   1 -17   -9.28   15.53   3
  -5   2 -17   77.55   16.70   3
  -5   2 -17  125.56   18.63   5
   3  -5 -17   59.95   17.70   4
   2   3 -17  127.36   19.27   2
   3   2 -17   80.40   18.51   2
   2  -5 -17  100.19   18.07   4
   2  -5 -17   76.45   18.27   3
   1  -5 -17   14.58   16.55   3
  -5   4 -17   30.25   16.40   5
   1  -5 -17  -11.59   14.02   4
   4   1 -17   42.12   16.42   2
  -5   5 -17   76.53   20.80   5
   0  -5 -17   13.82   18.05   3
   5   0 -17   20.01   16.80   2
  -5   6 -17  102.04   20.63   5
  -1  -5 -17   74.24   23.63   3
   6  -1 -17   66.06   20.22   2
  -6   1 -17    2.54   18.97   3
   1   5 -17   -5.07   20.31   2
   5  -6 -17   72.67   20.94   4
   2   4 -17   91.12   20.57   2
   4  -6 -17   74.55   19.73   4
  -6   2 -17  106.72   24.50   5
  -6   3 -17    9.24   26.77   5
   3  -6 -17    6.77   17.21   4
   3   3 -17   -6.78   17.81   2
   4   2 -17  120.32   22.30   2
  -6   4 -17  156.94   23.71   5
   2  -6 -17  103.70   24.21   3
   2  -6 -17   81.69   18.88   4
   5   1 -17   37.20   19.97   2
   1  -6 -17   27.43   22.39   3
  -6   5 -17   33.03   19.25   5
   0   0 -18  298.71   24.01   2
   0   0 -18  313.57   22.88   5
  -1   0 -18    2.36    9.87   5
   0   1 -18   18.96   11.80   2
   0   1 -18   18.86   10.96   5
   1  -1 -18   -0.96   11.25   2
  -1   0 -18    5.06   13.52   3
  -1   1 -18   25.80   11.52   5
   0  -1 -18   12.37   13.92   3
  -1   1 -18   -2.12   11.62   2
   1   0 -18   -8.79   12.32   2
  -1  -1 -18  293.61   20.77   5
  -1   2 -18  246.19   22.10   2
  -1   2 -18  259.45   22.50   5
  -1  -1 -18  299.17   27.00   3
   2  -1 -18  292.69   24.15   2
  -1   3 -18    7.29   12.39   2
  -2  -1 -18   15.52   14.61   3
   3  -2 -18    1.10   14.39   2
   3  -2 -18    0.02   11.72   4
  -2  -1 -18   28.00   11.92   5
  -1   3 -18   10.18   12.47   5
  -2   0 -18  111.29   18.06   3
  -2   0 -18  109.45   14.51   5
   0   2 -18  109.61   15.83   2
   0   2 -18  109.56   16.66   5
   2  -2 -18   87.57   15.80   4
  -2   1 -18  287.79   22.53   5
   1   1 -18  249.35   22.42   2
   1  -2 -18  262.38   26.24   3
  -2   1 -18  285.45   25.56   3
   2   0 -18   83.88   15.76   2
  -2   2 -18   77.90   15.29   5
   0  -2 -18  116.49   18.31   3
  -2   3 -18   38.16   14.38   5
  -1  -2 -18   15.32   15.02   3
  -2   3 -18   25.43   12.18   2
   3  -1 -18   14.22   14.93   2
   4  -2 -18  170.75   21.59   2
  -2   4 -18  198.44   21.24   5
  -2  -2 -18  191.22   23.61   3
  -2   4 -18  227.51   20.66   2
   4  -2 -18  188.25   21.28   4
  -2   5 -18   25.84   18.69   2
  -3  -2 -18    5.92   18.71   3
   5  -3 -18    4.51   15.81   4
  -2   5 -18    0.41   15.86   5
   5  -3 -18    8.70   15.76   2
  -3  -1 -18    5.73   15.25   3
  -1   4 -18   10.60   13.57   2
  -1   4 -18   -5.15   14.19   5
   4  -3 -18   22.40   14.22   4
  -3   0 -18  218.08   23.44   3
   3  -3 -18  218.46   23.20   4
  -3   0 -18  202.70   19.07   5
   0   3 -18  229.55   21.83   2
   0   3 -18  220.32   22.09   5
   2  -3 -18   31.18   13.48   4
  -3   1 -18    5.37   13.21   3
   1   2 -18   35.20   14.35   2
  -3   1 -18   24.24   12.66   5
   2   1 -18   18.25   12.44   2
   1  -3 -18   11.65   13.41   4
   1  -3 -18   37.49   16.02   3
  -3   2 -18    8.16   12.28   5
   3   0 -18  228.85   22.57   2
  -3   3 -18  224.76   22.11   5
   0  -3 -18  168.49   22.34   3
  -1  -3 -18  -14.98   15.99   3
  -3   4 -18   14.65   14.95   5
   4  -1 -18  -17.03   15.89   2
   5  -2 -18   11.70   16.64   2
   5  -2 -18   42.47   17.81   4
  -3   5 -18   -5.30   17.28   5
  -2  -3 -18  -25.57   17.17   3
  -3  -3 -18  120.31   24.66   3
   6  -3 -18  122.76   23.10   4
   6  -3 -18  118.50   40.56   2
  -2   6 -18    8.35   21.19   5
   6  -4 -18   72.62   43.98   4
  -1   5 -18   95.29   21.48   2
  -4  -1 -18  173.54   25.04   3
   5  -4 -18  124.46   20.87   4
  -1   5 -18  119.93   20.58   5
  -4   0 -18   40.00   17.63   3
   0   4 -18   64.10   16.10   2
   0   4 -18   51.39   16.41   5
   4  -4 -18   47.02   16.28   4
  -4   1 -18    8.18   15.05   3
  -4   1 -18    6.59   14.02   5
   1   3 -18   36.06   15.79   2
   3  -4 -18   36.82   16.00   4
  -4   2 -18  181.65   21.89   3
   2   2 -18  194.27   21.89   2
  -4   2 -18  190.28   20.17   5
   2  -4 -18  198.09   23.08   3
   2  -4 -18  204.30   22.08   4
   3   1 -18   13.49   16.07   2
  -4   3 -18    2.26   14.74   5
   1  -4 -18    0.06   14.96   3
   0  -4 -18   65.02   19.21   3
  -4   4 -18   43.96   16.54   5
   4   0 -18   44.68   17.57   2
  -1  -4 -18  137.73   23.50   3
   5  -1 -18  145.01   22.49   2
  -4   5 -18  160.50   23.07   5
   6  -2 -18  -17.49   22.00   2
  -4   6 -18   32.55   30.25   5
  -2  -4 -18   43.98   41.28   3
  -5   0 -18  -10.03   18.79   3
   0   5 -18    9.28   18.44   2
   5  -5 -18    7.56   18.40   4
   4  -5 -18  125.08   21.80   4
  -5   1 -18  140.64   23.01   3
  -5   1 -18  132.79   22.34   5
   1   4 -18  132.97   21.40   2
   2   3 -18  -24.95   16.19   2
   3  -5 -18   23.27   16.52   4
  -5   2 -18    9.50   16.39   3
  -5   2 -18   43.72   18.50   5
   2  -5 -18    7.17   16.46   4
   3   2 -18   12.85   17.23   2
   2  -5 -18  -15.68   17.65   3
  -5   3 -18    3.00   17.09   5
  -5   4 -18  141.68   23.32   5
   1  -5 -18  166.35   20.38   4
   4   1 -18  161.96   21.61   2
   1  -5 -18  151.48   23.41   3
  -5   5 -18   23.37   19.24   5
   5   0 -18   -6.14   19.04   2
   0  -5 -18   24.86   23.32   3
  -6   2 -18    7.67   36.84   5
   2   4 -18   -5.75   56.17   2
   4  -6 -18   -9.30   23.67   4
  -6   3 -18   70.13   24.24   5
   3  -6 -18  153.64   23.57   4
   3   3 -18  107.04   23.50   2
   4   2 -18   63.53   30.29   2
   2  -6 -18   36.43   28.11   3
   2  -6 -18   39.18   34.27   4
  -6   4 -18   45.02   37.07   5
   0   0 -19   -1.30   10.29   5
  -1   0 -19  112.45   14.83   5
  -1   0 -19  118.76   18.80   3
   0   1 -19   98.59   15.13   2
   0   1 -19   62.61   14.51   5
   1   0 -19  117.71   16.74   2
   0  -1 -19  136.20   19.71   3
  -1   1 -19   86.69   15.14   5
  -1  -1 -19   12.02   10.91   5
  -1  -1 -19   -3.97   13.35   3
  -1   2 -19   24.73   13.75   5
   2  -1 -19   -7.04   13.98   2
  -1   2 -19   -5.99   12.65   2
  -1   3 -19   82.71   16.29   2
   3  -2 -19   90.33   18.31   2
  -1   3 -19   87.05   17.61   5
  -2  -1 -19   67.09   18.48   3
   3  -2 -19   85.79   18.10   4
   2  -2 -19   90.90   16.82   4
   0   2 -19  108.99   16.99   5
   0   2 -19  103.18   17.42   2
  -2   0 -19  104.80   14.81   5
  -2   0 -19   94.16   19.87   3
   1   1 -19   14.88   14.10   2
  -2   1 -19  -14.10   12.17   5
   2   0 -19  106.86   18.09   2
   0  -2 -19  115.65   19.66   3
  -2   2 -19   89.43   16.54   5
  -2   3 -19  107.86   17.45   5
  -1  -2 -19   78.92   19.82   3
   3  -1 -19  114.78   17.74   2
  -2   3 -19   62.21   15.30   2
  -2   4 -19  -28.01   15.73   5
   4  -2 -19   -3.58   15.04   2
   4  -2 -19  -31.91   18.22   4
  -2   4 -19   -0.75   15.49   2
  -2  -2 -19  -20.62   16.16   3
  -3  -2 -19   53.44   19.47   3
  -2   5 -19   63.32   19.11   5
   5  -3 -19   66.60   18.71   4
  -1   4 -19   93.31   18.79   5
   4  -3 -19   89.24   17.86   4
  -3  -1 -19   53.12   19.56   3
  -1   4 -19   38.14   21.49   2
   0   3 -19    2.10   14.27   5
   3  -3 -19    9.50   14.84   4
  -3   0 -19  -16.71   14.79   5
  -3   0 -19   16.21   16.44   3
   0   3 -19   -8.96   13.88   2
   1   2 -19   89.12   17.96   2
  -3   1 -19   64.09   18.81   3
   2  -3 -19   52.91   16.31   4
  -3   1 -19   87.93   16.47   5
   2   1 -19   89.29   17.50   2
   1  -3 -19  112.69   20.75   3
  -3   2 -19   74.07   16.62   5
   0  -3 -19    2.03   14.30   3
   3   0 -19    1.27   15.13   2
  -3   3 -19   32.22   16.29   5
  -3   4 -19   59.33   17.73   5
  -1  -3 -19   58.14   19.15   3
   4  -1 -19   73.18   20.63   2
   5  -2 -19   26.56   20.11   2
  -2  -3 -19   90.33   23.67   3
  -3   5 -19   63.37   19.33   5
   5  -4 -19    1.65   18.24   4
  -4  -1 -19    9.67   20.03   3
  -1   5 -19  -23.77   17.47   5
  -1   5 -19   -9.38   20.11   2
   0   4 -19   75.00   18.56   2
  -4   0 -19   57.82   20.35   3
   4  -4 -19   59.83   20.04   4
   1   3 -19   51.77   17.19   2
  -4   1 -19   84.85   19.40   5
   3  -4 -19   63.49   18.19   4
  -4   1 -19   62.87   18.18   3
  -4   2 -19   -1.80   15.57   3
   2   2 -19  -12.61   15.88   2
  -4   2 -19   25.29   20.36   5
   2  -4 -19   -2.61   16.25   4
  -4   3 -19   78.50   19.56   5
   1  -4 -19  107.19   21.63   3
   3   1 -19   51.23   18.05   2
   1  -4 -19   85.56   19.66   4
   4   0 -19   80.11   19.79   2
  -4   4 -19   69.92   19.58   5
   0  -4 -19   88.62   21.97   3
   5  -1 -19   14.08   30.56   2
  -1  -4 -19   20.52   20.96   3
  -4   5 -19    6.66   19.69   5
   1   4 -19   19.86   21.93   2
  -5   1 -19   29.96   30.06   3
   4  -5 -19    6.47   19.18   4
  -5   2 -19   12.79   23.57   3
  -5   2 -19   81.15   22.82   5
   2   3 -19   42.12   18.70   2
   3  -5 -19   58.40   20.03   4
   2  -5 -19   36.96   18.47   4
   2  -5 -19   52.28   22.33   3
  -5   3 -19   53.47   19.46   5
   3   2 -19   20.70   18.62   2
  -5   4 -19  -18.28   20.11   5
   4   1 -19  -12.36   19.72   2
   1  -5 -19  -28.44   26.34   3
   1  -5 -19   18.90   19.46   4
   0   1 -20  -20.04   14.98   2
   0   1 -20    8.94   13.16   5
   1   0 -20    7.35   14.75   2
  -1   2 -20  146.55   18.72   2
   2  -1 -20  143.70   19.55   2
  -1  -1 -20  105.28   21.42   3
  -1   2 -20   78.75   16.63   5
  -2  -1 -20  -27.81   17.68   3
  -1   3 -20   16.79   15.39   5
  -1   3 -20   23.59   15.75   2
  -2   0 -20   25.34   16.38   3
   0   2 -20   -5.86   14.26   5
  -2   0 -20   -5.86   14.22   5
   0   2 -20   11.91   15.25   2
   1   1 -20   90.90   18.07   2
  -2   1 -20  114.43   17.67   5
  -2   2 -20   46.12   15.85   5
   0  -2 -20   -0.87   16.81   3
   2   0 -20    9.15   15.41   2
  -2   3 -20    6.07   15.12   5
  -1  -2 -20  -19.51   16.40   3
   3  -1 -20    1.60   16.94   2
  -2  -2 -20  185.04   25.54   3
   4  -2 -20  159.61   24.20   2
  -2   4 -20  230.88   24.86   5
  -2   4 -20  245.10   25.13   2
  -1   4 -20   32.52   18.79   2
  -3  -1 -20  -14.60   19.70   3
   4  -3 -20   12.59   19.19   4
  -1   4 -20   10.91   17.30   5
  -3   0 -20   72.20   20.60   3
   0   3 -20   77.44   17.79   5
   0   3 -20   67.56   17.44   2
   3  -3 -20   83.06   20.41   4
  -3   1 -20   -5.42   16.47   3
  -3   1 -20   11.56   16.00   5
   1   2 -20   -7.73   16.07   2
   2  -3 -20   44.91   18.39   4
  -3   2 -20   -0.14   15.88   5
   1  -3 -20   15.91   16.90   3
   2   1 -20   -7.51   15.01   2
   3   0 -20   71.32   20.66   2
  -3   3 -20  101.65   19.79   5
   0  -3 -20  101.51   20.94   3
   4  -1 -20    8.68   18.41   2
  -3   4 -20   13.92   17.33   5
  -1  -3 -20   26.11   19.55   3
   4  -4 -20   13.89   16.50   4
   0   4 -20    3.15   19.46   2
  -4   0 -20   -9.96   21.17   3
  -4   1 -20  -14.78   19.39   3
   1   3 -20   -8.44   20.03   2
  -4   1 -20  -14.54   22.90   5
   3  -4 -20    6.09   16.66   4
   2  -4 -20  192.11   24.98   4
  -4   2 -20  205.23   25.51   5
   2   2 -20  223.33   25.24   2
   1  -4 -20  -13.32   20.48   3
   3   1 -20    7.23   18.14   2
  -4   3 -20   17.02   19.98   5
   0  -4 -20   27.11   28.14   3
   4   0 -20  -12.38   19.15   2
  -4   4 -20   18.57   19.23   5
   0   1 -21  149.55   20.30   2
  -1   0 -21  116.88   18.98   5
  -1   1 -21  160.99   20.31   5
   1   0 -21  153.16   20.83   2
  -1  -1 -21   -8.78   19.24   3
  -1   2 -21   -0.96   15.60   5
  -1   3 -21   73.71   19.84   5
  -1   3 -21  134.90   20.93   2
  -2  -1 -21  133.48   24.67   3
  -2   0 -21   69.61   21.49   3
  -2   0 -21   82.57   20.60   5
   0   2 -21  100.93   18.91   2
  -2   1 -21   -6.83   14.60   5
   1   1 -21    3.45   15.21   2
  -2   2 -21  117.12   19.79   5
   2   0 -21   79.10   18.91   2
   0  -2 -21   94.95   22.33   3
  -1  -2 -21  155.85   25.13   3
  -2   3 -21  117.40   21.42   5
   3  -1 -21  104.26   22.14   2
  -2  -2 -21    7.96   36.43   3
   4  -2 -21  -42.56   24.01   2
  -3   0 -21    8.23   23.06   3
   0   3 -21   -4.29   17.00   2
   1   2 -21  137.50   22.50   2
  -3   1 -21  127.29   26.39   5
  -3   2 -21   90.23   21.98   5
   2   1 -21  137.51   22.10   2
   0  -3 -21  -39.68   22.62   3
   3   0 -21   -6.79   19.41   2
  -3   3 -21   -8.16   18.76   5
  -4   2 -21   22.67   22.77   5
  -1   1 -22   40.86   20.42   5
  -1   2 -22   19.15   17.72   5
   0   2 -22   10.22   19.35   2
   1   1 -22   52.49   19.54   2
  -2   1 -22   77.53   21.70   5
  -2   2 -22  -28.42   18.68   5
   2   0 -22   45.67   21.05   2
   0   0   0    0.00    0.00
;
_shelx_hkl_checksum              73304
loop_
_space_group_symop_operation_xyz
'x, y, z'
'-x, -y, z+1/2'
'-y, x-y, z'
'-x+y, -x, z'
'x-y, x, z+1/2'
'y, -x+y, z+1/2'
'-x+y, y, z'
'x, x-y, z'
'-y, -x, z'
'y, x, z+1/2'
'-x, -x+y, z+1/2'
'x-y, -y, z+1/2'
loop_
_atom_site_label
_atom_site_type_symbol
_atom_site_fract_x
_atom_site_fract_y
_atom_site_fract_z
_atom_site_U_iso_or_equiv
_atom_site_adp_type
_atom_site_occupancy
_atom_site_site_symmetry_order
_atom_site_calc_flag
_atom_site_refinement_flags_posn
_atom_site_refinement_flags_adp
_atom_site_refinement_flags_occupancy
_atom_site_disorder_assembly
_atom_site_disorder_group
K1 K -0.6667 -0.3333 -0.44386(10) 0.0184(3) Uani 1 6 d S T P . .
Ga Ga -1.3333 -0.6667 -0.64783(5) 0.00888(10) Uani 1 6 d S T P . .
P1 P -1.0000 0.0000 -0.59374(12) 0.0085(2) Uani 1 6 d S T P . .
H1 H -1.0000 0.0000 -0.716(8) 0.010 Uiso 1 6 d S U P . .
P2 P -0.6667 -0.3333 -0.77606(9) 0.0076(2) Uani 1 6 d S T P . .
H2 H -0.6667 -0.3333 -0.875(8) 0.009 Uiso 1 6 d S U P . .
O1 O -1.1590(2) 0.1590(2) -0.55294(18) 0.0138(4) Uani 1 2 d S T P . .
O2 O -0.9883(6) -0.4941(3) -0.7444(2) 0.0164(4) Uani 1 2 d S T P . .
loop_
_atom_site_aniso_label
_atom_site_aniso_U_11
_atom_site_aniso_U_22
_atom_site_aniso_U_33
_atom_site_aniso_U_23
_atom_site_aniso_U_13
_atom_site_aniso_U_12
K1 0.0187(3) 0.0187(3) 0.0177(6) 0.000 0.000 0.00936(16)
Ga 0.00651(12) 0.00651(12) 0.0136(2) 0.000 0.000 0.00326(6)
P1 0.0065(3) 0.0065(3) 0.0123(6) 0.000 0.000 0.00326(14)
P2 0.0064(3) 0.0064(3) 0.0101(5) 0.000 0.000 0.00318(13)
O1 0.0166(8) 0.0166(8) 0.0144(9) 0.0005(4) -0.0005(4) 0.0131(8)
O2 0.0081(9) 0.0148(7) 0.0242(10) 0.0021(5) 0.0043(10) 0.0041(4)
loop_
_atom_type_symbol
_atom_type_description
_atom_type_scat_dispersion_real
_atom_type_scat_dispersion_imag
_atom_type_scat_source
O O 0.0106 0.0060 'International Tables Vol C Tables 4.2.6.8 and 6.1.1.4'
P P 0.1023 0.0942 'International Tables Vol C Tables 4.2.6.8 and 6.1.1.4'
K K 0.2009 0.2494 'International Tables Vol C Tables 4.2.6.8 and 6.1.1.4'
Ga Ga 0.2307 1.6083 'International Tables Vol C Tables 4.2.6.8 and 6.1.1.4'
H H 0.0000 0.0000 'International Tables Vol C Tables 4.2.6.8 and 6.1.1.4'
loop_
_geom_angle_atom_site_label_1
_geom_angle_atom_site_label_2
_geom_angle_atom_site_label_3
_geom_angle
_geom_angle_site_symmetry_1
_geom_angle_site_symmetry_3
O2 K1 O2 55.83(9) 5_565 2_345
O2 K1 O2 55.83(8) 5_565 6_545
O2 K1 O2 55.83(8) 2_345 6_545
O2 K1 O1 111.63(4) 5_565 3_465
O2 K1 O1 88.32(6) 2_345 3_465
O2 K1 O1 143.60(6) 6_545 3_465
O2 K1 O1 88.32(6) 5_565 4_345
O2 K1 O1 111.63(4) 2_345 4_345
O2 K1 O1 143.60(6) 6_545 4_345
O1 K1 O1 50.31(9) 3_465 4_345
O2 K1 O1 143.60(6) 5_565 1_545
O2 K1 O1 88.32(6) 2_345 1_545
O2 K1 O1 111.63(4) 6_545 1_545
O1 K1 O1 55.55(9) 3_465 1_545
O1 K1 O1 101.06(5) 4_345 1_545
O2 K1 O1 88.32(6) 5_565 1_655
O2 K1 O1 143.60(6) 2_345 1_655
O2 K1 O1 111.63(4) 6_545 1_655
O1 K1 O1 101.06(5) 3_465 1_655
O1 K1 O1 55.55(9) 4_345 1_655
O1 K1 O1 126.01(9) 1_545 1_655
O2 K1 O1 143.60(6) 5_565 4_335
O2 K1 O1 111.63(4) 2_345 4_335
O2 K1 O1 88.31(6) 6_545 4_335
O1 K1 O1 101.06(5) 3_465 4_335
O1 K1 O1 126.01(9) 4_345 4_335
O1 K1 O1 50.31(9) 1_545 4_335
O1 K1 O1 101.06(5) 1_655 4_335
O2 K1 O1 111.63(4) 5_565 3_565
O2 K1 O1 143.60(6) 2_345 3_565
O2 K1 O1 88.31(6) 6_545 3_565
O1 K1 O1 126.01(9) 3_465 3_565
O1 K1 O1 101.06(5) 4_345 3_565
O1 K1 O1 101.06(5) 1_545 3_565
O1 K1 O1 50.31(9) 1_655 3_565
O1 K1 O1 55.55(9) 4_335 3_565
O2 K1 P1 101.80(4) 5_565 .
O2 K1 P1 101.80(4) 2_345 .
O2 K1 P1 153.91(6) 6_545 .
O1 K1 P1 25.18(4) 3_465 .
O1 K1 P1 25.18(4) 4_345 .
O1 K1 P1 77.61(5) 1_545 .
O1 K1 P1 77.61(5) 1_655 .
O1 K1 P1 114.54(5) 4_335 .
O1 K1 P1 114.54(5) 3_565 .
O2 K1 P1 153.91(6) 5_565 1_545
O2 K1 P1 101.80(4) 2_345 1_545
O2 K1 P1 101.80(4) 6_545 1_545
O1 K1 P1 77.61(5) 3_465 1_545
O1 K1 P1 114.54(5) 4_345 1_545
O1 K1 P1 25.18(4) 1_545 1_545
O1 K1 P1 114.54(5) 1_655 1_545
O1 K1 P1 25.18(4) 4_335 1_545
O1 K1 P1 77.61(5) 3_565 1_545
P1 K1 P1 95.61(3) . 1_545
O2 K1 P1 101.80(4) 5_565 1_655
O2 K1 P1 153.91(6) 2_345 1_655
O2 K1 P1 101.80(4) 6_545 1_655
O1 K1 P1 114.54(5) 3_465 1_655
O1 K1 P1 77.61(5) 4_345 1_655
O1 K1 P1 114.54(5) 1_545 1_655
O1 K1 P1 25.18(4) 1_655 1_655
O1 K1 P1 77.61(5) 4_335 1_655
O1 K1 P1 25.18(4) 3_565 1_655
P1 K1 P1 95.61(3) . 1_655
P1 K1 P1 95.61(3) 1_545 1_655
O2 Ga O2 87.51(12) . 4_335
O2 Ga O2 87.51(12) . 3_355
O2 Ga O2 87.51(12) 4_335 3_355
O2 Ga O1 91.94(6) . 3_465
O2 Ga O1 179.23(12) 4_335 3_465
O2 Ga O1 91.94(6) 3_355 3_465
O2 Ga O1 179.23(13) . 4_235
O2 Ga O1 91.94(6) 4_335 4_235
O2 Ga O1 91.94(6) 3_355 4_235
O1 Ga O1 88.61(10) 3_465 4_235
O2 Ga O1 91.94(6) . 1_545
O2 Ga O1 91.94(6) 4_335 1_545
O2 Ga O1 179.23(12) 3_355 1_545
O1 Ga O1 88.61(10) 3_465 1_545
O1 Ga O1 88.61(10) 4_235 1_545
O2 Ga K1 52.99(8) . 2_344
O2 Ga K1 52.99(8) 4_335 2_344
O2 Ga K1 52.99(8) 3_355 2_344
O1 Ga K1 126.24(7) 3_465 2_344
O1 Ga K1 126.24(7) 4_235 2_344
O1 Ga K1 126.24(7) 1_545 2_344
O2 Ga K1 133.70(3) . 1_455
O2 Ga K1 133.70(3) 4_335 1_455
O2 Ga K1 76.49(8) 3_355 1_455
O1 Ga K1 46.60(3) 3_465 1_455
O1 Ga K1 46.60(3) 4_235 1_455
O1 Ga K1 104.28(7) 1_545 1_455
K1 Ga K1 129.482(15) 2_344 1_455
O2 Ga K1 133.70(3) . 1_445
O2 Ga K1 76.49(8) 4_335 1_445
O2 Ga K1 133.70(3) 3_355 1_445
O1 Ga K1 104.28(7) 3_465 1_445
O1 Ga K1 46.60(3) 4_235 1_445
O1 Ga K1 46.60(3) 1_545 1_445
K1 Ga K1 129.483(15) 2_344 1_445
K1 Ga K1 83.89(2) 1_455 1_445
O2 Ga K1 76.49(8) . .
O2 Ga K1 133.70(3) 4_335 .
O2 Ga K1 133.70(3) 3_355 .
O1 Ga K1 46.59(3) 3_465 .
O1 Ga K1 104.28(7) 4_235 .
O1 Ga K1 46.60(3) 1_545 .
K1 Ga K1 129.483(15) 2_344 .
K1 Ga K1 83.89(2) 1_455 .
K1 Ga K1 83.89(2) 1_445 .
O1 P1 O1 109.88(10) . 4_345
O1 P1 O1 109.88(10) . 3_465
O1 P1 O1 109.88(10) 4_345 3_465
O1 P1 K1 55.01(4) . 1_565
O1 P1 K1 55.01(4) 4_345 1_565
O1 P1 K1 129.75(11) 3_465 1_565
O1 P1 K1 55.01(4) . 1_455
O1 P1 K1 129.75(11) 4_345 1_455
O1 P1 K1 55.01(4) 3_465 1_455
K1 P1 K1 95.61(3) 1_565 1_455
O1 P1 K1 129.75(11) . .
O1 P1 K1 55.01(4) 4_345 .
O1 P1 K1 55.01(4) 3_465 .
K1 P1 K1 95.61(3) 1_565 .
K1 P1 K1 95.61(3) 1_455 .
O2 P2 O2 113.68(10) 4_445 3_455
O2 P2 O2 113.68(9) 4_445 .
O2 P2 O2 113.68(10) 3_455 .
O2 P2 K1 122.94(6) 4_445 2_444
O2 P2 K1 48.96(11) 3_455 2_444
O2 P2 K1 122.94(6) . 2_444
O2 P2 K1 122.94(6) 4_445 2_344
O2 P2 K1 122.94(6) 3_455 2_344
O2 P2 K1 48.96(11) . 2_344
K1 P2 K1 91.60(3) 2_444 2_344
O2 P2 K1 48.96(11) 4_445 2_454
O2 P2 K1 122.94(6) 3_455 2_454
O2 P2 K1 122.94(6) . 2_454
K1 P2 K1 91.60(3) 2_444 2_454
K1 P2 K1 91.59(3) 2_344 2_454
P1 O1 Ga 124.70(14) . 1_565
P1 O1 K1 99.81(6) . 1_565
Ga O1 K1 104.41(5) 1_565 1_565
P1 O1 K1 99.81(6) . 1_455
Ga O1 K1 104.41(5) 1_565 1_455
K1 O1 K1 126.01(9) 1_565 1_455
P2 O2 Ga 157.82(19) . .
P2 O2 K1 107.89(14) . 2_344
Ga O2 K1 94.29(10) . 2_344
loop_
_geom_bond_atom_site_label_1
_geom_bond_atom_site_label_2
_geom_bond_distance
_geom_bond_site_symmetry_2
K1 O2 2.906(3) 5_565
K1 O2 2.906(3) 2_345
K1 O2 2.906(3) 6_545
K1 O1 2.9497(12) 3_465
K1 O1 2.9497(11) 4_345
K1 O1 2.9497(12) 1_545
K1 O1 2.9497(12) 1_655
K1 O1 2.9497(12) 4_335
K1 O1 2.9497(12) 3_565
K1 P1 3.5477(10) .
K1 P1 3.5477(10) 1_545
K1 P1 3.5477(10) 1_655
Ga O2 1.967(3) .
Ga O2 1.967(3) 4_335
Ga O2 1.967(3) 3_355
Ga O1 1.968(2) 3_465
Ga O1 1.968(2) 4_235
Ga O1 1.968(2) 1_545
Ga K1 3.6288(13) 2_344
Ga K1 3.9322(8) 1_455
Ga K1 3.9322(8) 1_445
P1 O1 1.532(2) .
P1 O1 1.532(2) 4_345
P1 O1 1.532(2) 3_465
P1 K1 3.5477(10) 1_565
P1 K1 3.5477(10) 1_455
P2 O2 1.515(3) 4_445
P2 O2 1.515(3) 3_455
P2 O2 1.515(3) .
P2 K1 3.6664(9) 2_444
P2 K1 3.6664(10) 2_344
P2 K1 3.6664(10) 2_454
O1 Ga 1.968(2) 1_565
O1 K1 2.9497(12) 1_565
O1 K1 2.9497(12) 1_455
O2 K1 2.906(3) 2_344
