#------------------------------------------------------------------------------
#$Date: 2021-02-26 11:23:13 +0200 (Fri, 26 Feb 2021) $
#$Revision: 262255 $
#$URL: file:///home/coder/svn-repositories/cod/cif/1/56/06/1560656.cif $
#------------------------------------------------------------------------------
#
# This file is available in the Crystallography Open Database (COD),
# http://www.crystallography.net/
#
# All data on this site have been placed in the public domain by the
# contributors.
#
data_1560656
loop_
_publ_author_name
'M\;aczka, Miros\/law'
'G\;agor, Anna'
'Hanuza, Jerzy'
'Pikul, Adam'
'Drozd, Marek'
_publ_section_title
;
 Synthesis and characterization of two novel chiral-type formate
 frameworks templated by protonated diethylamine and ammonium cations
;
_journal_name_full               'Journal of Solid State Chemistry'
_journal_page_first              23
_journal_page_last               29
_journal_paper_doi               10.1016/j.jssc.2016.10.005
_journal_volume                  245
_journal_year                    2017
_chemical_formula_sum            'C9.52 H19.2 Cr0.46 N1.54 Ni1.54 O12'
_chemical_formula_weight         461.6
_space_group_IT_number           182
_space_group_name_Hall           'P 6c 2c'
_space_group_name_H-M_alt        'P 63 2 2'
_symmetry_cell_setting           hexagonal
_symmetry_Int_Tables_number      182
_symmetry_space_group_name_H-M   'P 63 2 2'
_cell_angle_alpha                90
_cell_angle_beta                 90
_cell_angle_gamma                120
_cell_formula_units_Z            1
_cell_length_a                   8.1266(6)
_cell_length_b                   8.1266(6)
_cell_length_c                   6.9236(7)
_cell_measurement_reflns_used    70
_cell_measurement_temperature    296
_cell_measurement_theta_max      40
_cell_measurement_theta_min      5
_cell_volume                     395.99(6)
_diffrn_ambient_temperature      296
_diffrn_measurement_device       'powder diffractometer'
_diffrn_measurement_device_type  PanAlytical
_diffrn_radiation_probe          x-ray
_diffrn_radiation_wavelength     1.54051
_exptl_absorpt_coefficient_mu    5.523
_exptl_crystal_density_diffrn    1.9355
_exptl_crystal_F_000             224
_pd_instr_location               ' ?'
_pd_meas_2theta_range_inc        0.026
_pd_meas_2theta_range_max        79.981
_pd_meas_2theta_range_min        10.015
_pd_meas_number_of_points        2692
_pd_proc_2theta_range_inc        0.026
_pd_proc_2theta_range_max        79.981
_pd_proc_2theta_range_min        10.015
_pd_proc_ls_background_function  '7 Legendre polynoms'
_pd_proc_ls_pref_orient_corr     'March & Dollase'
_pd_proc_ls_profile_function     Pseudo-Voigt
_pd_proc_ls_prof_R_factor        0.0338
_pd_proc_ls_prof_wR_expected     0.0135
_pd_proc_ls_prof_wR_factor       0.0490
_refine_diff_density_max         0.35
_refine_diff_density_min         -0.86
_refine_ls_goodness_of_fit_all   3.63
_refine_ls_hydrogen_treatment    constr
_refine_ls_number_constraints    1
_refine_ls_number_parameters     21
_refine_ls_number_restraints     1
_refine_ls_R_factor_all          0.0603
_refine_ls_R_factor_gt           0.0540
_refine_ls_shift/su_max          0.0436
_refine_ls_shift/su_mean         0.0120
_refine_ls_weighting_scheme      sigma
_refine_ls_wR_factor_all         0.0635
_refine_ls_wR_factor_gt          0.0631
_cod_data_source_file            JSSC-2017-245-23.cif
_cod_data_source_block           CrNi
_cod_depositor_comments
;
The following automatic conversions were performed:

data item '_diffrn_radiation_probe' value 'X-ray' was changed to
'x-ray' in accordance with the built-in table derived from the CIF
Core dictionary named 'cif_core.dic' version 2.4.5 last updated on
2014-11-21.

Automatic conversion script
Id: cif_fix_values 8369 2020-08-20 11:38:08Z andrius 
;
_cod_original_cell_volume        395.98(6)
_cod_database_code               1560656
loop_
_space_group_symop_id
_space_group_symop_operation_xyz
1 x,y,z
2 -y,x-y,z
3 -x+y,-x,z
4 -x,-y,z+1/2
5 y,-x+y,z+1/2
6 x-y,x,z+1/2
7 y,x,-z
8 x-y,-y,-z
9 -x,-x+y,-z
10 -y,-x,-z+1/2
11 -x+y,y,-z+1/2
12 x,x-y,-z+1/2
loop_
_atom_site_label
_atom_site_type_symbol
_atom_site_fract_x
_atom_site_fract_y
_atom_site_fract_z
_atom_site_adp_type
_atom_site_U_iso_or_equiv
_atom_site_site_symmetry_multiplicity
_atom_site_occupancy
_atom_site_calc_flag
_atom_site_refinement_flags
_atom_site_disorder_assembly
_atom_site_disorder_group
Ni1 Ni 0.333333 0.666667 0.25 Uiso 0.031(9) 2 0.77 d . . .
Cr1 Cr 0.333333 0.666667 0.25 Uiso 0.031(9) 2 0.23 d . . .
O1 O 0.136(2) 0.446(2) 0.084(3) Uiso 0.0426 12 1 d . . .
C1 C 0 0.442(4) 0 Uiso 0.0366 6 1 d . . .
H1c1 H 0 0.55968 0 Uiso 0.044 6 1 d . . .
C2a C -0.011927 0.036465 0.169(9) Uiso 0.1732 12 0.2933 d . . .
N1a N 0.041973 -0.044575 0.016(9) Uiso 0.0676 12 0.0733 d . . .
N2a N 0 0 0.016(9) Uiso 0.038 4 0.165 d . . .
loop_
_atom_type_symbol
_atom_type_scat_dispersion_real
_atom_type_scat_dispersion_imag
_atom_type_scat_source
C 0.0191 0.0095 'International Tables Vol C tables 4.2.6.8 and 6.1.1.1'
H 0.0000 0.0000 'International Tables Vol C tables 4.2.6.8 and 6.1.1.1'
Cr -0.1449 2.4364 'International Tables Vol C tables 4.2.6.8 and 6.1.1.1'
N 0.0329 0.0188 'International Tables Vol C tables 4.2.6.8 and 6.1.1.1'
Ni -3.1205 0.5234 'International Tables Vol C tables 4.2.6.8 and 6.1.1.1'
O 0.0516 0.0335 'International Tables Vol C tables 4.2.6.8 and 6.1.1.1'
loop_
_geom_angle_atom_site_label_1
_geom_angle_atom_site_label_2
_geom_angle_atom_site_label_3
_geom_angle_site_symmetry_1
_geom_angle_site_symmetry_2
_geom_angle_site_symmetry_3
_geom_angle
Cr1 Ni1 O1 . . . 0
Cr1 Ni1 O1 . . 2_665 0
Cr1 Ni1 O1 . . 3_565 0
Cr1 Ni1 O1 . . 10_665 0
Cr1 Ni1 O1 . . 11_555 0
Cr1 Ni1 O1 . . 12_565 0
O1 Ni1 O1 . . 2_665 91.8(7)
O1 Ni1 O1 . . 3_565 91.8(7)
O1 Ni1 O1 . . 10_665 170.8(9)
O1 Ni1 O1 . . 11_555 82.0(7)
O1 Ni1 O1 . . 12_565 95.2(7)
O1 Ni1 O1 2_665 . 3_565 91.8(9)
O1 Ni1 O1 2_665 . 10_665 82.0(7)
O1 Ni1 O1 2_665 . 11_555 95.2(10)
O1 Ni1 O1 2_665 . 12_565 170.8(9)
O1 Ni1 O1 3_565 . 10_665 95.2(7)
O1 Ni1 O1 3_565 . 11_555 170.8(9)
O1 Ni1 O1 3_565 . 12_565 82.0(9)
O1 Ni1 O1 10_665 . 11_555 91.8(7)
O1 Ni1 O1 10_665 . 12_565 91.8(7)
O1 Ni1 O1 11_555 . 12_565 91.8(9)
Ni1 Cr1 O1 . . . 0
Ni1 Cr1 O1 . . 2_665 0
Ni1 Cr1 O1 . . 3_565 0
Ni1 Cr1 O1 . . 10_665 0
Ni1 Cr1 O1 . . 11_555 0
Ni1 Cr1 O1 . . 12_565 0
O1 Cr1 O1 . . 2_665 91.8(7)
O1 Cr1 O1 . . 3_565 91.8(7)
O1 Cr1 O1 . . 10_665 170.8(9)
O1 Cr1 O1 . . 11_555 82.0(7)
O1 Cr1 O1 . . 12_565 95.2(7)
O1 Cr1 O1 2_665 . 3_565 91.8(9)
O1 Cr1 O1 2_665 . 10_665 82.0(7)
O1 Cr1 O1 2_665 . 11_555 95.2(10)
O1 Cr1 O1 2_665 . 12_565 170.8(9)
O1 Cr1 O1 3_565 . 10_665 95.2(7)
O1 Cr1 O1 3_565 . 11_555 170.8(9)
O1 Cr1 O1 3_565 . 12_565 82.0(9)
O1 Cr1 O1 10_665 . 11_555 91.8(7)
O1 Cr1 O1 10_665 . 12_565 91.8(7)
O1 Cr1 O1 11_555 . 12_565 91.8(9)
Ni1 O1 Cr1 . . . 0.0(5)
Ni1 O1 C1 . . . 125.9(19)
Cr1 O1 C1 . . . 125.9(19)
O1 C1 O1 . . 9_555 131(3)
O1 C1 H1c1 . . . 114.71
O1 C1 H1c1 9_555 . . 114.71
loop_
_geom_bond_atom_site_label_1
_geom_bond_atom_site_label_2
_geom_bond_site_symmetry_1
_geom_bond_site_symmetry_2
_geom_bond_distance
Ni1 Cr1 . . 0
Ni1 O1 . . 2.056(14)
Ni1 O1 . 2_665 2.056(19)
Ni1 O1 . 3_565 2.06(2)
Ni1 O1 . 10_665 2.056(14)
Ni1 O1 . 11_555 2.056(19)
Ni1 O1 . 12_565 2.06(2)
Cr1 O1 . . 2.056(14)
Cr1 O1 . 2_665 2.056(19)
Cr1 O1 . 3_565 2.06(2)
Cr1 O1 . 10_665 2.056(14)
Cr1 O1 . 11_555 2.056(19)
Cr1 O1 . 12_565 2.06(2)
O1 C1 . . 1.24(2)
C1 H1c1 . . 0.96
loop_
_pd_proc_point_id
_pd_proc_2theta_corrected
_pd_proc_intensity_net
_pd_calc_intensity_net
_pd_proc_ls_weight
1 9.9645 6506.00 6122.70 80.66
2 9.9905 6589.00 6125.36 81.17
3 10.0165 6413.00 6127.99 80.08
4 10.0425 6540.00 6130.60 80.87
5 10.0685 6621.00 6133.17 81.37
6 10.0945 6524.00 6135.72 80.77
7 10.1205 6442.00 6138.24 80.26
8 10.1465 6486.00 6140.73 80.54
9 10.1725 6728.00 6143.20 82.02
10 10.1985 6550.00 6145.64 80.93
11 10.2245 6522.00 6148.05 80.76
12 10.2505 6404.00 6150.43 80.03
13 10.2765 6493.00 6152.78 80.58
14 10.3025 6425.00 6155.11 80.16
15 10.3285 6435.00 6157.41 80.22
16 10.3545 6589.00 6159.69 81.17
17 10.3805 6459.00 6161.94 80.37
18 10.4065 6490.00 6164.16 80.56
19 10.4325 6417.00 6166.35 80.11
20 10.4585 6346.00 6168.52 79.66
21 10.4845 6394.00 6170.66 79.96
22 10.5105 6413.00 6172.77 80.08
23 10.5365 6417.00 6174.86 80.11
24 10.5625 6369.00 6176.92 79.81
25 10.5885 6363.00 6178.96 79.77
26 10.6145 6426.00 6180.97 80.16
27 10.6405 6403.00 6182.96 80.02
28 10.6665 6346.00 6184.92 79.66
29 10.6925 6390.00 6186.85 79.94
30 10.7185 6329.00 6188.76 79.56
31 10.7445 6391.00 6190.64 79.94
32 10.7705 6300.00 6192.50 79.37
33 10.7965 6373.00 6194.33 79.83
34 10.8225 6443.00 6196.14 80.27
35 10.8485 6348.00 6197.92 79.67
36 10.8745 6319.00 6199.68 79.49
37 10.9005 6344.00 6201.41 79.65
38 10.9265 6393.00 6203.12 79.96
39 10.9525 6266.00 6204.80 79.16
40 10.9785 6276.00 6206.46 79.22
41 11.0045 6278.00 6208.09 79.23
42 11.0305 6292.00 6209.70 79.32
43 11.0565 6330.00 6211.29 79.56
44 11.0825 6370.00 6212.85 79.81
45 11.1085 6375.00 6214.39 79.84
46 11.1345 6354.00 6215.90 79.71
47 11.1605 6373.00 6217.39 79.83
48 11.1865 6291.00 6218.86 79.32
49 11.2125 6313.00 6220.30 79.45
50 11.2385 6367.00 6221.72 79.79
51 11.2645 6322.00 6223.12 79.51
52 11.2905 6386.00 6224.49 79.91
53 11.3165 6324.00 6225.84 79.52
54 11.3425 6237.00 6227.17 78.97
55 11.3685 6342.00 6228.47 79.64
56 11.3945 6324.00 6229.75 79.52
57 11.4205 6256.00 6231.01 79.09
58 11.4465 6249.00 6232.24 79.05
59 11.4725 6170.00 6233.46 78.55
60 11.4985 6201.00 6234.65 78.75
61 11.5245 6359.00 6235.81 79.74
62 11.5505 6321.00 6236.96 79.50
63 11.5765 6228.00 6238.08 78.92
64 11.6025 6337.00 6239.18 79.61
65 11.6285 6383.00 6240.26 79.89
66 11.6545 6255.00 6251.10 79.09
67 11.6805 6133.00 6252.82 78.31
68 11.7065 6267.00 6254.60 79.16
69 11.7325 6219.00 6256.44 78.86
70 11.7585 6242.00 6258.37 79.01
71 11.7845 6293.00 6260.40 79.33
72 11.8105 6210.00 6262.56 78.80
73 11.8365 6278.00 6264.88 79.23
74 11.8625 6230.00 6267.40 78.93
75 11.8885 6216.00 6270.18 78.84
76 11.9145 6279.00 6273.29 79.24
77 11.9405 6214.00 6276.85 78.83
78 11.9665 6292.00 6281.01 79.32
79 11.9925 6439.00 6286.07 80.24
80 12.0185 6472.00 6293.06 80.45
81 12.0445 6547.00 6308.21 80.91
82 12.0705 6641.00 6355.37 81.49
83 12.0965 6661.00 6472.60 81.61
84 12.1225 6919.00 6667.84 83.18
85 12.1485 7046.00 6914.32 83.94
86 12.1745 7233.00 7193.83 85.05
87 12.2005 7358.00 7504.93 85.78
88 12.2265 7582.00 7852.45 87.07
89 12.2525 7813.00 8243.60 88.39
90 12.2785 8190.00 8688.06 90.50
91 12.3045 8604.00 9199.00 92.76
92 12.3305 9123.00 9794.79 95.51
93 12.3565 9617.00 10501.90 98.07
94 12.3825 10535.00 11360.50 102.64
95 12.4085 11449.00 12435.20 107.00
96 12.4345 12722.00 13840.90 112.79
97 12.4605 14664.00 15819.20 121.10
98 12.4865 17575.00 19013.30 132.57
99 12.5125 22205.00 24741.80 149.01
100 12.5385 29495.00 31720.30 171.74
101 12.5645 27320.00 30460.40 165.29
102 12.5905 16613.00 18532.60 128.89
103 12.6165 8669.00 9576.64 93.11
104 12.6425 6965.00 6994.35 83.46
105 12.6685 6763.00 6579.99 82.24
106 12.6945 6692.00 6478.19 81.80
107 12.7205 6438.00 6423.47 80.24
108 12.7465 6371.00 6388.00 79.82
109 12.7725 6269.00 6363.61 79.18
110 12.7985 6321.00 6346.11 79.50
111 12.8245 6160.00 6333.10 78.49
112 12.8505 6166.00 6323.17 78.52
113 12.8765 6080.00 6315.40 77.97
114 12.9025 6182.00 6309.20 78.63
115 12.9285 6213.00 6304.18 78.82
116 12.9545 6265.00 6300.04 79.15
117 12.9805 6211.00 6296.59 78.81
118 13.0065 6245.00 6293.67 79.03
119 13.0325 5995.00 6291.17 77.43
120 13.0585 6179.00 6289.01 78.61
121 13.0845 6025.00 6287.13 77.62
122 13.1105 6098.00 6285.47 78.09
123 13.1365 6090.00 6284.00 78.04
124 13.1625 6187.00 6282.68 78.66
125 13.1885 6132.00 6281.48 78.31
126 13.2145 6087.00 6280.39 78.02
127 13.2405 6191.00 6279.39 78.68
128 13.2665 6129.00 6278.46 78.29
129 13.2925 6174.00 6277.59 78.57
130 13.3185 6071.00 6276.77 77.92
131 13.3445 6049.00 6276.00 77.78
132 13.3705 6087.00 6275.26 78.02
133 13.3965 6016.00 6274.55 77.56
134 13.4225 6085.00 6273.87 78.01
135 13.4485 6107.00 6273.21 78.15
136 13.4745 6029.00 6272.56 77.65
137 13.5005 6031.00 6265.55 77.66
138 13.5265 6016.00 6265.25 77.56
139 13.5525 6129.00 6264.93 78.29
140 13.5785 6066.00 6264.60 77.88
141 13.6045 5980.00 6264.25 77.33
142 13.6305 5924.00 6263.89 76.97
143 13.6565 5976.00 6263.51 77.30
144 13.6825 6124.00 6263.12 78.26
145 13.7085 6106.00 6262.71 78.14
146 13.7345 6046.00 6262.28 77.76
147 13.7605 5931.00 6261.84 77.01
148 13.7865 5961.00 6261.39 77.21
149 13.8125 6015.00 6260.92 77.56
150 13.8385 6001.00 6260.43 77.47
151 13.8645 6001.00 6259.93 77.47
152 13.8905 5947.00 6259.42 77.12
153 13.9165 5907.00 6258.89 76.86
154 13.9425 5911.00 6258.35 76.88
155 13.9685 5970.00 6257.79 77.27
156 13.9945 5947.00 6257.21 77.12
157 14.0205 5850.00 6256.62 76.49
158 14.0465 5876.00 6256.02 76.66
159 14.0725 5881.00 6255.40 76.69
160 14.0985 5848.00 6254.77 76.47
161 14.1245 5909.00 6254.13 76.87
162 14.1505 5945.00 6253.47 77.10
163 14.1765 5965.00 6252.79 77.23
164 14.2025 5907.00 6252.11 76.86
165 14.2285 5949.00 6251.40 77.13
166 14.2545 6018.00 6250.69 77.58
167 14.2805 5964.00 6249.96 77.23
168 14.3065 5939.00 6249.22 77.06
169 14.3325 5970.00 6248.46 77.27
170 14.3585 5947.00 6247.69 77.12
171 14.3845 5912.00 6246.90 76.89
172 14.4105 5998.00 6246.11 77.45
173 14.4365 5993.00 6245.30 77.41
174 14.4625 5985.00 6244.47 77.36
175 14.4885 5952.00 6243.63 77.15
176 14.5145 5853.00 6242.78 76.50
177 14.5405 5866.00 6241.92 76.59
178 14.5665 5886.00 6241.04 76.72
179 14.5925 5921.00 6240.15 76.95
180 14.6185 5904.00 6239.25 76.84
181 14.6445 5811.00 6238.34 76.23
182 14.6705 5855.00 6237.41 76.52
183 14.6965 5914.00 6236.47 76.90
184 14.7225 5944.00 6235.51 77.10
185 14.7485 5888.00 6234.55 76.73
186 14.7745 5829.00 6233.57 76.35
187 14.8005 5888.00 6232.58 76.73
188 14.8265 5960.00 6231.57 77.20
189 14.8525 5842.00 6230.56 76.43
190 14.8785 6006.00 6229.53 77.50
191 14.9045 6038.00 6228.49 77.70
192 14.9305 5884.00 6227.44 76.71
193 14.9565 6015.00 6226.37 77.56
194 14.9825 5902.00 6225.30 76.82
195 15.0085 6050.00 6224.21 77.78
196 15.0345 5914.00 6223.11 76.90
197 15.0605 5883.00 6222.00 76.70
198 15.0865 5867.00 6220.87 76.60
199 15.1125 5890.00 6219.74 76.75
200 15.1385 6007.00 6218.59 77.50
201 15.1645 5908.00 6217.43 76.86
202 15.1905 5859.00 6216.26 76.54
203 15.2165 5829.00 6215.08 76.35
204 15.2425 6042.00 6213.89 77.73
205 15.2685 5927.00 6212.69 76.99
206 15.2945 6053.00 6211.47 77.80
207 15.3205 5932.00 6210.25 77.02
208 15.3465 5965.00 6209.01 77.23
209 15.3725 5845.00 6207.76 76.45
210 15.3985 5979.00 6206.50 77.32
211 15.4245 6037.00 6205.23 77.70
212 15.4505 6199.00 6203.95 78.73
213 15.4765 5980.00 6202.66 77.33
214 15.5025 5870.00 6201.36 76.62
215 15.5285 6028.00 6200.04 77.64
216 15.5545 6085.00 6198.72 78.01
217 15.5805 5942.00 6197.39 77.08
218 15.6065 5876.00 6196.04 76.66
219 15.6325 5873.00 6194.69 76.64
220 15.6585 5884.00 6193.32 76.71
221 15.6845 5866.00 6191.95 76.59
222 15.7105 5943.00 6190.56 77.09
223 15.7365 5906.00 6189.17 76.85
224 15.7625 5897.00 6187.76 76.79
225 15.7885 5995.00 6186.34 77.43
226 15.8145 6127.00 6184.92 78.28
227 15.8405 6028.00 6183.48 77.64
228 15.8665 5957.00 6182.04 77.18
229 15.8925 6007.00 6180.58 77.50
230 15.9185 6024.00 6179.12 77.61
231 15.9445 6016.00 6177.64 77.56
232 15.9705 6010.00 6176.16 77.52
233 15.9965 5980.00 6174.66 77.33
234 16.0225 6120.00 6173.16 78.23
235 16.0485 6040.00 6171.65 77.72
236 16.0745 6098.00 6170.12 78.09
237 16.1005 6181.00 6168.59 78.62
238 16.1265 6290.00 6167.05 79.31
239 16.1525 6198.00 6165.50 78.73
240 16.1785 6152.00 6163.94 78.43
241 16.2045 6192.00 6162.37 78.69
242 16.2305 6135.00 6160.80 78.33
243 16.2565 6147.00 6159.21 78.40
244 16.2825 6191.00 6157.61 78.68
245 16.3085 6211.00 6156.01 78.81
246 16.3345 6263.00 6154.40 79.14
247 16.3605 6259.00 6152.77 79.11
248 16.3865 6205.00 6151.14 78.77
249 16.4125 6218.00 6149.50 78.85
250 16.4385 6265.00 6147.86 79.15
251 16.4645 6232.00 6146.20 78.94
252 16.4905 6256.00 6144.53 79.09
253 16.5165 6327.00 6142.86 79.54
254 16.5425 6352.00 6141.18 79.70
255 16.5685 6344.00 6139.49 79.65
256 16.5945 6392.00 6137.79 79.95
257 16.6205 6409.00 6136.08 80.06
258 16.6465 6433.00 6134.37 80.21
259 16.6725 6474.00 6132.65 80.46
260 16.6985 6318.00 6130.92 79.49
261 16.7245 6307.00 6129.18 79.42
262 16.7505 6390.00 6127.43 79.94
263 16.7765 6475.00 6125.68 80.47
264 16.8025 6497.00 6123.91 80.60
265 16.8285 6455.00 6122.14 80.34
266 16.8545 6523.00 6120.36 80.77
267 16.8805 6533.00 6118.58 80.83
268 16.9065 6569.00 6223.51 81.05
269 16.9325 6605.00 6227.60 81.27
270 16.9585 6567.00 6232.18 81.04
271 16.9845 6450.00 6237.33 80.31
272 17.0105 6615.00 6243.10 81.33
273 17.0365 6542.00 6249.57 80.88
274 17.0625 6616.00 6256.85 81.34
275 17.0885 6585.00 6265.04 81.15
276 17.1145 6666.00 6274.26 81.65
277 17.1405 6712.00 6284.68 81.93
278 17.1665 6700.00 6296.47 81.85
279 17.1925 6771.00 6309.85 82.29
280 17.2185 6778.00 6325.09 82.33
281 17.2445 6956.00 6342.51 83.40
282 17.2705 7065.00 6362.51 84.05
283 17.2965 7233.00 6385.58 85.05
284 17.3225 7317.00 6412.36 85.54
285 17.3485 7339.00 6443.64 85.67
286 17.3745 7499.00 6480.47 86.60
287 17.4005 7630.00 6524.21 87.35
288 17.4265 7536.00 6576.74 86.81
289 17.4525 7803.00 6640.63 88.33
290 17.4785 7878.00 6719.59 88.76
291 17.5045 8090.00 6819.22 89.94
292 17.5305 8348.00 6948.91 91.37
293 17.5565 8670.00 7130.63 93.11
294 17.5825 9462.00 7435.35 97.27
295 17.6085 10326.00 8058.82 101.62
296 17.6345 11283.00 9320.85 106.22
297 17.6605 12548.00 11409.80 112.02
298 17.6865 14429.00 14237.80 120.12
299 17.7125 16913.00 17704.10 130.05
300 17.7385 19971.00 21857.50 141.32
301 17.7645 24130.00 26884.70 155.34
302 17.7905 29855.00 33113.60 172.79
303 17.8165 37955.00 41119.00 194.82
304 17.8425 49110.00 52056.40 221.61
305 17.8685 67019.00 68563.20 258.88
306 17.8945 95974.00 94728.10 309.80
307 17.9205 137813.00 126721.00 371.23
308 17.9465 137297.00 135871.00 370.54
309 17.9725 89089.00 95546.40 298.48
310 17.9985 50059.00 46170.30 223.74
311 18.0245 20140.00 20873.10 141.91
312 18.0505 11882.00 12770.90 109.00
313 18.0765 9896.00 10262.60 99.48
314 18.1025 9352.00 9083.44 96.71
315 18.1285 8544.00 8351.44 92.43
316 18.1545 8106.00 7854.77 90.03
317 18.1805 7753.00 7501.48 88.05
318 18.2065 7461.00 7240.95 86.38
319 18.2325 7311.00 7043.04 85.50
320 18.2585 7060.00 6888.98 84.02
321 18.2845 7109.00 6766.52 84.31
322 18.3105 7095.00 6667.44 84.23
323 18.3365 6912.00 6586.02 83.14
324 18.3625 6811.00 6518.20 82.53
325 18.3885 6882.00 6461.03 82.96
326 18.4145 6854.00 6412.31 82.79
327 18.4405 6828.00 6370.38 82.63
328 18.4665 6861.00 6333.98 82.83
329 18.4925 6898.00 6302.13 83.05
330 18.5185 6931.00 6274.04 83.25
331 18.5445 6784.00 6249.11 82.36
332 18.5705 6758.00 6226.84 82.21
333 18.5965 6789.00 6206.83 82.40
334 18.6225 6733.00 6188.75 82.05
335 18.6485 6632.00 6172.32 81.44
336 18.6745 6520.00 6157.33 80.75
337 18.7005 6542.00 6143.59 80.88
338 18.7265 6412.00 6130.93 80.07
339 18.7525 6392.00 6119.23 79.95
340 18.7785 6456.00 6108.36 80.35
341 18.8045 6471.00 6098.24 80.44
342 18.8305 6394.00 6088.78 79.96
343 18.8565 6429.00 6079.91 80.18
344 18.8825 6421.00 6071.55 80.13
345 18.9085 6394.00 6063.67 79.96
346 18.9345 6360.00 6056.21 79.75
347 18.9605 6314.00 6049.13 79.46
348 18.9865 6356.00 6042.39 79.72
349 19.0125 6374.00 6035.96 79.84
350 19.0385 6266.00 5948.37 79.16
351 19.0645 6176.00 5946.11 78.59
352 19.0905 6155.00 5943.84 78.45
353 19.1165 6247.00 5941.57 79.04
354 19.1425 6294.00 5939.30 79.33
355 19.1685 6189.00 5937.03 78.67
356 19.1945 6120.00 5934.75 78.23
357 19.2205 6132.00 5932.46 78.31
358 19.2465 6114.00 5930.17 78.19
359 19.2725 6160.00 5927.88 78.49
360 19.2985 6232.00 5925.59 78.94
361 19.3245 6181.00 5923.29 78.62
362 19.3505 6233.00 5920.99 78.95
363 19.3765 6220.00 5918.68 78.87
364 19.4025 6122.00 5916.38 78.24
365 19.4285 6129.00 5914.06 78.29
366 19.4545 6158.00 5911.75 78.47
367 19.4805 6160.00 5909.43 78.49
368 19.5065 6210.00 5907.11 78.80
369 19.5325 6225.00 5904.79 78.90
370 19.5585 6151.00 5902.46 78.43
371 19.5845 6063.00 5900.13 77.87
372 19.6105 5984.00 5897.79 77.36
373 19.6365 5977.00 5895.46 77.31
374 19.6625 5962.00 5893.12 77.21
375 19.6885 5937.00 5890.78 77.05
376 19.7145 5989.00 5888.43 77.39
377 19.7405 5892.00 5886.08 76.76
378 19.7665 5889.00 5883.73 76.74
379 19.7925 5929.00 5881.38 77.00
380 19.8185 5982.00 5879.02 77.34
381 19.8445 5940.00 5876.66 77.07
382 19.8705 5751.00 5874.30 75.84
383 19.8965 5864.00 5871.93 76.58
384 19.9225 5981.00 5869.56 77.34
385 19.9485 5744.00 5867.19 75.79
386 19.9745 5813.00 5864.82 76.24
387 20.0005 5763.00 5862.45 75.91
388 20.0265 5782.00 5860.07 76.04
389 20.0525 5788.00 5857.69 76.08
390 20.0785 5813.00 5855.30 76.24
391 20.1045 5788.00 5852.92 76.08
392 20.1305 5821.00 5850.53 76.30
393 20.1565 5879.00 5848.14 76.67
394 20.1825 5754.00 5845.75 75.86
395 20.2085 5826.00 5843.35 76.33
396 20.2345 5832.00 5840.96 76.37
397 20.2605 5849.00 5838.56 76.48
398 20.2865 5604.00 5836.16 74.86
399 20.3125 5637.00 5833.75 75.08
400 20.3385 5739.00 5831.35 75.76
401 20.3645 5862.00 5828.94 76.56
402 20.3905 5892.00 5826.53 76.76
403 20.4165 5658.00 5824.12 75.22
404 20.4425 5845.00 5821.71 76.45
405 20.4685 5888.00 5819.29 76.73
406 20.4945 5751.00 5816.87 75.84
407 20.5205 5792.00 5814.45 76.11
408 20.5465 5664.00 5812.03 75.26
409 20.5725 5727.00 5809.61 75.68
410 20.5985 5823.00 5807.19 76.31
411 20.6245 5689.00 5804.76 75.43
412 20.6505 5728.00 5802.33 75.68
413 20.6765 5654.00 5817.05 75.19
414 20.7025 5627.00 5815.43 75.01
415 20.7285 5728.00 5813.88 75.68
416 20.7545 5744.00 5812.39 75.79
417 20.7805 5666.00 5810.98 75.27
418 20.8065 5726.00 5809.64 75.67
419 20.8325 5664.00 5808.39 75.26
420 20.8585 5607.00 5807.24 74.88
421 20.8845 5688.00 5806.20 75.42
422 20.9105 5751.00 5805.28 75.84
423 20.9365 5735.00 5804.51 75.73
424 20.9625 5783.00 5803.89 76.05
425 20.9885 5694.00 5803.44 75.46
426 21.0145 5763.00 5803.20 75.91
427 21.0405 5775.00 5803.19 75.99
428 21.0665 5833.00 5803.45 76.37
429 21.0925 5870.00 5804.01 76.62
430 21.1185 5770.00 5804.93 75.96
431 21.1445 5766.00 5806.25 75.93
432 21.1705 5755.00 5808.07 75.86
433 21.1965 5735.00 5810.45 75.73
434 21.2225 5751.00 5813.51 75.84
435 21.2485 5812.00 5817.40 76.24
436 21.2745 5756.00 5822.27 75.87
437 21.3005 5730.00 5828.36 75.70
438 21.3265 5734.00 5835.95 75.72
439 21.3525 5803.00 5845.44 76.18
440 21.3785 5849.00 5857.34 76.48
441 21.4045 5780.00 5872.40 76.03
442 21.4305 5851.00 5891.64 76.49
443 21.4565 5967.00 5916.65 77.25
444 21.4825 5914.00 5949.95 76.90
445 21.5085 5922.00 5996.66 76.95
446 21.5345 6123.00 6069.78 78.25
447 21.5605 6346.00 6201.06 79.66
448 21.5865 6580.00 6447.59 81.12
449 21.6125 6937.00 6866.38 83.29
450 21.6385 7461.00 7473.45 86.38
451 21.6645 8176.00 8268.31 90.42
452 21.6905 9142.00 9280.37 95.61
453 21.7165 10530.00 10595.20 102.62
454 21.7425 12704.00 12401.90 112.71
455 21.7685 15941.00 15057.10 126.26
456 21.7945 21234.00 18834.30 145.72
457 21.8205 27189.00 22731.50 164.89
458 21.8465 26420.00 23261.70 162.54
459 21.8725 20141.00 18058.40 141.92
460 21.8985 14758.00 11982.90 121.48
461 21.9245 9575.00 8504.61 97.85
462 21.9505 6675.00 7106.11 81.70
463 21.9765 6161.00 6579.95 78.49
464 22.0025 6021.00 6325.66 77.60
465 22.0285 5968.00 6168.74 77.25
466 22.0545 5827.00 6061.33 76.33
467 22.0805 5766.00 5984.04 75.93
468 22.1065 5662.00 5926.35 75.25
469 22.1325 5588.00 5881.97 74.75
470 22.1585 5701.00 5846.92 75.50
471 22.1845 5700.00 5818.63 75.50
472 22.2105 5625.00 5795.35 75.00
473 22.2365 5527.00 5775.85 74.34
474 22.2625 5547.00 5759.27 74.48
475 22.2885 5604.00 5744.98 74.86
476 22.3145 5577.00 5732.51 74.68
477 22.3405 5528.00 5721.49 74.35
478 22.3665 5590.00 5711.67 74.77
479 22.3925 5559.00 5702.82 74.56
480 22.4185 5415.00 5694.79 73.59
481 22.4445 5398.00 5687.43 73.47
482 22.4705 5564.00 5680.65 74.59
483 22.4965 5526.00 5674.35 74.34
484 22.5225 5581.00 5668.47 74.71
485 22.5485 5490.00 5662.94 74.09
486 22.5745 5499.00 5657.73 74.16
487 22.6005 5513.00 5652.78 74.25
488 22.6265 5394.00 5648.07 73.44
489 22.6525 5322.00 5643.56 72.95
490 22.6785 5583.00 5639.24 74.72
491 22.7045 5550.00 5635.07 74.50
492 22.7305 5528.00 5631.05 74.35
493 22.7565 5580.00 5627.16 74.70
494 22.7825 5504.00 5623.37 74.19
495 22.8085 5470.00 5619.69 73.96
496 22.8345 5521.00 5616.11 74.30
497 22.8605 5444.00 5612.60 73.78
498 22.8865 5545.00 5609.17 74.46
499 22.9125 5682.00 5605.81 75.38
500 22.9385 5499.00 5602.51 74.16
501 22.9645 5453.00 5599.26 73.84
502 22.9905 5326.00 5596.07 72.98
503 23.0165 5465.00 5592.92 73.93
504 23.0425 5392.00 5589.82 73.43
505 23.0685 5518.00 5572.87 74.28
506 23.0945 5390.00 5570.40 73.42
507 23.1205 5521.00 5567.93 74.30
508 23.1465 5389.00 5565.46 73.41
509 23.1725 5516.00 5562.99 74.27
510 23.1985 5601.00 5560.53 74.84
511 23.2245 5443.00 5558.06 73.78
512 23.2505 5427.00 5555.60 73.67
513 23.2765 5445.00 5553.14 73.79
514 23.3025 5279.00 5550.67 72.66
515 23.3285 5298.00 5548.21 72.79
516 23.3545 5439.00 5545.75 73.75
517 23.3805 5389.00 5543.29 73.41
518 23.4065 5405.00 5540.83 73.52
519 23.4325 5486.00 5538.37 74.07
520 23.4585 5453.00 5535.91 73.84
521 23.4845 5562.00 5533.46 74.58
522 23.5105 5660.00 5531.00 75.23
523 23.5365 5716.00 5528.55 75.60
524 23.5625 5655.00 5526.09 75.20
525 23.5885 5608.00 5523.64 74.89
526 23.6145 5542.00 5521.19 74.44
527 23.6405 5521.00 5518.74 74.30
528 23.6665 5522.00 5516.29 74.31
529 23.6925 5445.00 5513.84 73.79
530 23.7185 5389.00 5511.40 73.41
531 23.7445 5361.00 5508.95 73.22
532 23.7705 5375.00 5506.51 73.31
533 23.7965 5432.00 5504.06 73.70
534 23.8225 5454.00 5501.62 73.85
535 23.8485 5445.00 5499.18 73.79
536 23.8745 5392.00 5496.74 73.43
537 23.9005 5362.00 5494.30 73.23
538 23.9265 5291.00 5491.86 72.74
539 23.9525 5329.00 5489.43 73.00
540 23.9785 5426.00 5490.04 73.66
541 24.0045 5433.00 5487.73 73.71
542 24.0305 5386.00 5485.44 73.39
543 24.0565 5404.00 5483.16 73.51
544 24.0825 5332.00 5508.04 73.02
545 24.1085 5378.00 5506.92 73.33
546 24.1345 5399.00 5505.90 73.48
547 24.1605 5365.00 5504.96 73.25
548 24.1865 5316.00 5504.14 72.91
549 24.2125 5369.00 5503.42 73.27
550 24.2385 5436.00 5502.83 73.73
551 24.2645 5362.00 5502.38 73.23
552 24.2905 5320.00 5502.07 72.94
553 24.3165 5399.00 5501.93 73.48
554 24.3425 5444.00 5501.98 73.78
555 24.3685 5499.00 5502.23 74.16
556 24.3945 5498.00 5505.03 74.15
557 24.4205 5503.00 5505.85 74.18
558 24.4465 5533.00 5506.96 74.38
559 24.4725 5594.00 5508.39 74.79
560 24.4985 5684.00 5510.18 75.39
561 24.5245 5687.00 5512.39 75.41
562 24.5505 5720.00 5515.06 75.63
563 24.5765 5699.00 5518.26 75.49
564 24.6025 5686.00 5522.07 75.41
565 24.6285 5590.00 5526.58 74.77
566 24.6545 5608.00 5531.91 74.89
567 24.6805 5607.00 5538.17 74.88
568 24.7065 5538.00 5545.54 74.42
569 24.7325 5620.00 5554.22 74.97
570 24.7585 5607.00 5564.44 74.88
571 24.7845 5613.00 5576.53 74.92
572 24.8105 5670.00 5590.88 75.30
573 24.8365 5712.00 5607.99 75.58
574 24.8625 5631.00 5628.53 75.04
575 24.8885 5562.00 5653.38 74.58
576 24.9145 5646.00 5683.76 75.14
577 24.9405 5659.00 5721.37 75.23
578 24.9665 5788.00 5768.82 76.08
579 24.9925 5848.00 5830.55 76.47
580 25.0185 5944.00 5914.86 77.10
581 25.0445 6108.00 6036.73 78.15
582 25.0705 6387.00 6218.98 79.92
583 25.0965 6915.00 6491.17 83.16
584 25.1225 7441.00 6900.40 86.26
585 25.1485 8130.00 7540.98 90.17
586 25.1745 9265.00 8566.81 96.25
587 25.2005 11047.00 10138.20 105.11
588 25.2265 13625.00 12329.10 116.73
589 25.2525 17000.00 15059.30 130.38
590 25.2785 19665.00 18072.00 140.23
591 25.3045 21588.00 21436.20 146.93
592 25.3305 27216.00 26010.90 164.97
593 25.3565 34919.00 31064.30 186.87
594 25.3825 34895.00 32469.70 186.80
595 25.4085 23473.00 26327.30 153.21
596 25.4345 20125.00 17594.60 141.86
597 25.4605 14078.00 11679.50 118.65
598 25.4865 8198.00 8817.74 90.54
599 25.5125 6754.00 7645.87 82.18
600 25.5385 6550.00 7167.81 80.93
601 25.5645 6548.00 6981.75 80.92
602 25.5905 6704.00 6973.86 81.88
603 25.6165 6929.00 7128.71 83.24
604 25.6425 7051.00 7448.53 83.97
605 25.6685 7478.00 7848.86 86.48
606 25.6945 7560.00 8029.58 86.95
607 25.7205 7183.00 7598.66 84.75
608 25.7465 6658.00 6813.39 81.60
609 25.7725 6391.00 6210.73 79.94
610 25.7985 5950.00 5883.26 77.14
611 25.8245 5899.00 5726.04 76.80
612 25.8505 5619.00 5642.56 74.96
613 25.8765 5538.00 5588.32 74.42
614 25.9025 5538.00 5548.15 74.42
615 25.9285 5663.00 5516.59 75.25
616 25.9545 5514.00 5490.89 74.26
617 25.9805 5557.00 5469.44 74.55
618 26.0065 5598.00 5451.16 74.82
619 26.0325 5393.00 5435.34 73.44
620 26.0585 5447.00 5421.43 73.80
621 26.0845 5473.00 5409.08 73.98
622 26.1105 5474.00 5398.00 73.99
623 26.1365 5497.00 5387.96 74.14
624 26.1625 5475.00 5378.81 73.99
625 26.1885 5368.00 5370.40 73.27
626 26.2145 5281.00 5362.62 72.67
627 26.2405 5357.00 5355.39 73.19
628 26.2665 5520.00 5348.64 74.30
629 26.2925 5339.00 5342.30 73.07
630 26.3185 5329.00 5336.32 73.00
631 26.3445 5310.00 5330.67 72.87
632 26.3705 5316.00 5325.30 72.91
633 26.3965 5311.00 5320.18 72.88
634 26.4225 5374.00 5315.29 73.31
635 26.4485 5392.00 5310.60 73.43
636 26.4745 5249.00 5306.10 72.45
637 26.5005 5264.00 5301.76 72.55
638 26.5265 5321.00 5297.57 72.95
639 26.5525 5309.00 5293.51 72.86
640 26.5785 5280.00 5289.58 72.66
641 26.6045 5312.00 5285.77 72.88
642 26.6305 5432.00 5279.47 73.70
643 26.6565 5402.00 5275.95 73.50
644 26.6825 5301.00 5272.51 72.81
645 26.7085 5256.00 5269.14 72.50
646 26.7345 5308.00 5242.63 72.86
647 26.7605 5272.00 5240.26 72.61
648 26.7865 5219.00 5237.89 72.24
649 26.8125 5272.00 5235.54 72.61
650 26.8385 5295.00 5233.20 72.77
651 26.8645 5310.00 5230.87 72.87
652 26.8905 5330.00 5228.56 73.01
653 26.9165 5323.00 5226.25 72.96
654 26.9425 5353.00 5223.95 73.16
655 26.9685 5337.00 5221.66 73.05
656 26.9945 5287.00 5225.93 72.71
657 27.0205 5290.00 5223.91 72.73
658 27.0465 5318.00 5221.91 72.92
659 27.0725 5340.00 5217.97 73.08
660 27.0985 5367.00 5216.09 73.26
661 27.1245 5293.00 5214.23 72.75
662 27.1505 5198.00 5212.39 72.10
663 27.1765 5247.00 5210.57 72.44
664 27.2025 5238.00 5208.79 72.37
665 27.2285 5294.00 5207.03 72.76
666 27.2545 5306.00 5205.30 72.84
667 27.2805 5198.00 5204.03 72.10
668 27.3065 5233.00 5202.39 72.34
669 27.3325 5226.00 5200.79 72.29
670 27.3585 5194.00 5199.24 72.07
671 27.3845 5065.00 5197.73 71.17
672 27.4105 5147.00 5196.28 71.74
673 27.4365 5181.00 5194.89 71.98
674 27.4625 5189.00 5193.56 72.03
675 27.4885 5177.00 5192.31 71.95
676 27.5145 5202.00 5191.14 72.12
677 27.5405 5260.00 5190.07 72.53
678 27.5665 5242.00 5189.09 72.40
679 27.5925 5258.00 5188.24 72.51
680 27.6185 5249.00 5187.52 72.45
681 27.6445 5196.00 5186.95 72.08
682 27.6705 5147.00 5186.55 71.74
683 27.6965 5081.00 5186.35 71.28
684 27.7225 5170.00 5186.38 71.90
685 27.7485 5260.00 5186.68 72.53
686 27.7745 5180.00 5187.29 71.97
687 27.8005 5111.00 5188.27 71.49
688 27.8265 5166.00 5189.69 71.87
689 27.8525 5083.00 5191.64 71.30
690 27.8785 5175.00 5194.22 71.94
691 27.9045 5237.00 5197.58 72.37
692 27.9305 5218.00 5201.89 72.24
693 27.9565 5180.00 5207.40 71.97
694 27.9825 5285.00 5214.43 72.70
695 28.0085 5117.00 5223.41 71.53
696 28.0345 5147.00 5234.97 71.74
697 28.0605 5172.00 5249.97 71.92
698 28.0865 5160.00 5269.73 71.83
699 28.1125 5235.00 5296.40 72.35
700 28.1385 5216.00 5333.92 72.22
701 28.1645 5454.00 5390.44 73.85
702 28.1905 5452.00 5482.70 73.84
703 28.2165 5594.00 5640.30 74.79
704 28.2425 5893.00 5903.15 76.77
705 28.2685 6327.00 6307.76 79.54
706 28.2945 6906.00 6891.27 83.10
707 28.3205 7434.00 7716.29 86.22
708 28.3465 9011.00 8849.52 94.93
709 28.3725 11190.00 10213.50 105.78
710 28.3985 13597.00 11316.50 116.61
711 28.4245 11736.00 11153.50 108.33
712 28.4505 9217.00 9480.69 96.01
713 28.4765 8972.00 7680.87 94.72
714 28.5025 7047.00 6525.57 83.95
715 28.5285 5713.00 5946.06 75.58
716 28.5545 5461.00 5689.39 73.90
717 28.5805 5482.00 5580.00 74.04
718 28.6065 5310.00 5543.16 72.87
719 28.6325 5328.00 5554.39 72.99
720 28.6585 5410.00 5597.24 73.55
721 28.6845 5464.00 5634.76 73.92
722 28.7105 5326.00 5599.70 72.98
723 28.7365 5362.00 5472.52 73.23
724 28.7625 5145.00 5338.97 71.73
725 28.7885 5172.00 5248.72 71.92
726 28.8145 5184.00 5197.39 72.00
727 28.8405 5150.00 5168.36 71.76
728 28.8665 5009.00 5149.72 70.77
729 28.8925 5026.00 5135.96 70.89
730 28.9185 5151.00 5124.96 71.77
731 28.9445 5070.00 5115.78 71.20
732 28.9705 5156.00 5107.92 71.81
733 28.9965 5020.00 5101.04 70.85
734 29.0225 5128.00 5094.92 71.61
735 29.0485 4954.00 5089.41 70.38
736 29.0745 4889.00 5084.37 69.92
737 29.1005 4926.00 5079.74 70.19
738 29.1265 4932.00 5075.43 70.23
739 29.1525 4935.00 5071.39 70.25
740 29.1785 4962.00 5067.59 70.44
741 29.2045 4968.00 5063.99 70.48
742 29.2305 5041.00 5060.56 71.00
743 29.2565 5080.00 5057.28 71.27
744 29.2825 4982.00 5054.12 70.58
745 29.3085 4866.00 5051.09 69.76
746 29.3345 4919.00 5048.15 70.14
747 29.3605 5010.00 5045.30 70.78
748 29.3865 5025.00 5042.53 70.89
749 29.4125 4927.00 5039.83 70.19
750 29.4385 4929.00 5037.20 70.21
751 29.4645 4989.00 5034.62 70.63
752 29.4905 4940.00 5032.10 70.29
753 29.5165 4959.00 5029.62 70.42
754 29.5425 5027.00 5027.19 70.90
755 29.5685 5011.00 5024.80 70.79
756 29.5945 4999.00 5022.44 70.70
757 29.6205 4913.00 5020.11 70.09
758 29.6465 4871.00 5017.82 69.79
759 29.6725 4936.00 5015.56 70.26
760 29.6985 4945.00 5013.32 70.32
761 29.7245 4972.00 5011.10 70.51
762 29.7505 4947.00 5008.91 70.33
763 29.7765 4939.00 5006.74 70.28
764 29.8025 4998.00 5004.59 70.70
765 29.8285 4943.00 5002.46 70.31
766 29.8545 4868.00 5000.34 69.77
767 29.8805 4891.00 4992.43 69.94
768 29.9065 4992.00 4990.55 70.65
769 29.9325 5038.00 4988.67 70.98
770 29.9585 4934.00 4986.79 70.24
771 29.9845 4845.00 4984.92 69.61
772 30.0105 4926.00 4983.06 70.19
773 30.0365 4862.00 4981.19 69.73
774 30.0625 4901.00 4979.34 70.01
775 30.0885 4914.00 4977.48 70.10
776 30.1145 4904.00 4975.63 70.03
777 30.1405 4857.00 4973.79 69.69
778 30.1665 4857.00 4971.56 69.69
779 30.1925 5076.00 4969.74 71.25
780 30.2185 4873.00 4967.92 69.81
781 30.2445 4804.00 4966.10 69.31
782 30.2705 4956.00 4964.28 70.40
783 30.2965 5002.00 4962.47 70.72
784 30.3225 4863.00 4960.66 69.74
785 30.3485 4929.00 4958.85 70.21
786 30.3745 4957.00 4957.05 70.41
787 30.4005 4936.00 4955.25 70.26
788 30.4265 4905.00 4953.46 70.04
789 30.4525 5006.00 4951.66 70.75
790 30.4785 4879.00 4949.87 69.85
791 30.5045 4889.00 4948.08 69.92
792 30.5305 4907.00 4946.30 70.05
793 30.5565 4920.00 4944.52 70.14
794 30.5825 4938.00 4942.74 70.27
795 30.6085 4949.00 4940.97 70.35
796 30.6345 4962.00 4939.20 70.44
797 30.6605 4921.00 4937.43 70.15
798 30.6865 4896.00 4935.66 69.97
799 30.7125 4862.00 4933.90 69.73
800 30.7385 4848.00 4932.14 69.63
801 30.7645 4734.00 4930.39 68.80
802 30.7905 4763.00 4928.63 69.01
803 30.8165 4678.00 4926.89 68.40
804 30.8425 4841.00 4925.14 69.58
805 30.8685 4954.00 4923.40 70.38
806 30.8945 4919.00 4921.66 70.14
807 30.9205 4802.00 4919.92 69.30
808 30.9465 4809.00 4918.19 69.35
809 30.9725 4760.00 4916.46 68.99
810 30.9985 4806.00 4914.73 69.33
811 31.0245 4798.00 4913.00 69.27
812 31.0505 4793.00 4911.28 69.23
813 31.0765 4882.00 4909.57 69.87
814 31.1025 4929.00 4907.85 70.21
815 31.1285 4837.00 4906.14 69.55
816 31.1545 4700.00 4904.43 68.56
817 31.1805 4852.00 4902.73 69.66
818 31.2065 4878.00 4901.02 69.84
819 31.2325 4743.00 4899.33 68.87
820 31.2585 4845.00 4897.63 69.61
821 31.2845 4796.00 4895.94 69.25
822 31.3105 4871.00 4894.25 69.79
823 31.3365 4885.00 4892.56 69.89
824 31.3625 4920.00 4890.88 70.14
825 31.3885 4887.00 4889.20 69.91
826 31.4145 4788.00 4887.52 69.20
827 31.4405 4807.00 4885.85 69.33
828 31.4665 4789.00 4884.17 69.20
829 31.4925 4799.00 4882.51 69.27
830 31.5185 4892.00 4880.84 69.94
831 31.5445 4948.00 4879.18 70.34
832 31.5705 4836.00 4877.52 69.54
833 31.5965 4828.00 4875.87 69.48
834 31.6225 4769.00 4874.21 69.06
835 31.6485 4820.00 4872.57 69.43
836 31.6745 4878.00 4870.92 69.84
837 31.7005 4854.00 4869.28 69.67
838 31.7265 4880.00 4867.64 69.86
839 31.7525 4973.00 4866.00 70.52
840 31.7785 4874.00 4864.37 69.81
841 31.8045 4810.00 4862.74 69.35
842 31.8305 4741.00 4861.11 68.85
843 31.8565 4852.00 4859.49 69.66
844 31.8825 4869.00 4857.86 69.78
845 31.9085 4942.00 4856.25 70.30
846 31.9345 4959.00 4854.63 70.42
847 31.9605 4843.00 4853.02 69.59
848 31.9865 4763.00 4851.41 69.01
849 32.0125 4806.00 4849.80 69.33
850 32.0385 4779.00 4848.99 69.13
851 32.0645 4776.00 4847.42 69.11
852 32.0905 4739.00 4845.85 68.84
853 32.1165 4747.00 4844.28 68.90
854 32.1425 4808.00 4842.72 69.34
855 32.1685 4812.00 4841.17 69.37
856 32.1945 4764.00 4839.62 69.02
857 32.2205 4772.00 4838.07 69.08
858 32.2465 4847.00 4836.53 69.62
859 32.2725 4900.00 4835.00 70.00
860 32.2985 4884.00 4833.47 69.89
861 32.3245 4877.00 4831.95 69.84
862 32.3505 4875.00 4851.38 69.82
863 32.3765 4843.00 4850.56 69.59
864 32.4025 4838.00 4849.78 69.56
865 32.4285 4791.00 4849.04 69.22
866 32.4545 4807.00 4848.35 69.33
867 32.4805 4792.00 4847.71 69.22
868 32.5065 4787.00 4847.12 69.19
869 32.5325 4885.00 4846.59 69.89
870 32.5585 4939.00 4846.13 70.28
871 32.5845 4879.00 4845.72 69.85
872 32.6105 4853.00 4845.39 69.66
873 32.6365 4811.00 4845.14 69.36
874 32.6625 4842.00 4844.96 69.58
875 32.6885 4931.00 4844.88 70.22
876 32.7145 4838.00 4844.89 69.56
877 32.7405 4965.00 4845.00 70.46
878 32.7665 5023.00 4845.23 70.87
879 32.7925 4893.00 4845.59 69.95
880 32.8185 4886.00 4846.08 69.90
881 32.8445 4947.00 4846.72 70.33
882 32.8705 4972.00 4847.53 70.51
883 32.8965 4946.00 4848.51 70.33
884 32.9225 4966.00 4849.70 70.47
885 32.9485 4951.00 4851.11 70.36
886 32.9745 4957.00 4852.76 70.41
887 33.0005 4957.00 4854.69 70.41
888 33.0265 4875.00 4856.93 69.82
889 33.0525 4837.00 4859.51 69.55
890 33.0785 4901.00 4862.49 70.01
891 33.1045 4958.00 4865.92 70.41
892 33.1305 4970.00 4869.85 70.50
893 33.1565 4876.00 4874.37 69.83
894 33.1825 5032.00 4879.56 70.94
895 33.2085 4895.00 4885.54 69.96
896 33.2345 4976.00 4892.44 70.54
897 33.2605 5039.00 4900.44 70.99
898 33.2865 5063.00 4909.75 71.15
899 33.3125 5032.00 4920.65 70.94
900 33.3385 5045.00 4933.54 71.03
901 33.3645 4993.00 4948.95 70.66
902 33.3905 5054.00 4967.68 71.09
903 33.4165 5098.00 4991.08 71.40
904 33.4425 4987.00 5021.54 70.62
905 33.4685 4979.00 5063.20 70.56
906 33.4945 5104.00 5122.68 71.44
907 33.5205 5204.00 5208.75 72.14
908 33.5465 5134.00 5330.28 71.65
909 33.5725 5084.00 5493.06 71.30
910 33.5985 5169.00 5691.97 71.90
911 33.6245 5431.00 5894.01 73.70
912 33.6505 5394.00 6021.85 73.44
913 33.6765 5285.00 6012.56 72.70
914 33.7025 5509.00 5956.69 74.22
915 33.7285 5634.00 5985.10 75.06
916 33.7545 5894.00 6158.25 76.77
917 33.7805 6234.00 6527.42 78.96
918 33.8065 6898.00 7190.92 83.05
919 33.8325 7820.00 8318.03 88.43
920 33.8585 9451.00 10124.20 97.22
921 33.8845 12304.00 12791.20 110.92
922 33.9105 16327.00 16344.90 127.78
923 33.9365 21034.00 20359.80 145.03
924 33.9625 24008.00 23444.50 154.95
925 33.9885 21699.00 23169.50 147.31
926 34.0145 16931.00 18985.70 130.12
927 34.0405 14991.00 14024.00 122.44
928 34.0665 13151.00 10396.80 114.68
929 34.0925 9382.00 8228.33 96.86
930 34.1185 6739.00 7042.92 82.09
931 34.1445 5750.00 6388.58 75.83
932 34.1705 5371.00 5993.52 73.29
933 34.1965 5188.00 5729.43 72.03
934 34.2225 5150.00 5540.34 71.76
935 34.2485 5093.00 5399.27 71.37
936 34.2745 5181.00 5291.07 71.98
937 34.3005 5086.00 5206.22 71.32
938 34.3265 4992.00 5138.43 70.65
939 34.3525 4985.00 5083.36 70.60
940 34.3785 5035.00 5037.97 70.96
941 34.4045 4963.00 5013.57 70.45
942 34.4305 4986.00 4981.99 70.61
943 34.4565 4923.00 4955.12 70.16
944 34.4825 4927.00 4932.06 70.19
945 34.5085 4927.00 4912.10 70.19
946 34.5345 4989.00 4894.71 70.63
947 34.5605 4958.00 4879.45 70.41
948 34.5865 4909.00 4865.99 70.06
949 34.6125 4990.00 4854.06 70.64
950 34.6385 5000.00 4853.96 70.71
951 34.6645 4989.00 4844.77 70.63
952 34.6905 4980.00 4836.56 70.57
953 34.7165 4940.00 4829.21 70.29
954 34.7425 4951.00 4822.63 70.36
955 34.7685 4988.00 4816.72 70.63
956 34.7945 5009.00 4811.42 70.77
957 34.8205 5011.00 4806.67 70.79
958 34.8465 4999.00 4802.41 70.70
959 34.8725 5083.00 4798.62 71.30
960 34.8985 5107.00 4795.25 71.46
961 34.9245 5068.00 4792.28 71.19
962 34.9505 5050.00 4789.69 71.06
963 34.9765 4960.00 4787.45 70.43
964 35.0025 4929.00 4785.56 70.21
965 35.0285 4961.00 4784.01 70.43
966 35.0545 5005.00 4782.79 70.75
967 35.0805 5045.00 4781.91 71.03
968 35.1065 5041.00 4781.36 71.00
969 35.1325 5014.00 4781.14 70.81
970 35.1585 5092.00 4781.28 71.36
971 35.1845 5064.00 4781.78 71.16
972 35.2105 5061.00 4782.67 71.14
973 35.2365 5076.00 4783.96 71.25
974 35.2625 5040.00 4785.69 70.99
975 35.2885 5007.00 4787.89 70.76
976 35.3145 4936.00 4789.88 70.26
977 35.3405 5018.00 4793.17 70.84
978 35.3665 5108.00 4797.09 71.47
979 35.3925 5073.00 4801.70 71.22
980 35.4185 4988.00 4807.10 70.63
981 35.4445 5063.00 4813.37 71.15
982 35.4705 5072.00 4820.66 71.22
983 35.4965 5014.00 4829.12 70.81
984 35.5225 4926.00 4838.92 70.19
985 35.5485 5035.00 4850.29 70.96
986 35.5745 5054.00 4863.52 71.09
987 35.6005 4871.00 4878.96 69.79
988 35.6265 4999.00 4897.04 70.70
989 35.6525 5065.00 4918.34 71.17
990 35.6785 4976.00 4924.96 70.54
991 35.7045 5134.00 4955.64 71.65
992 35.7305 5056.00 4992.46 71.11
993 35.7565 5027.00 5037.14 70.90
994 35.7825 5074.00 5092.08 71.23
995 35.8085 5068.00 5160.69 71.19
996 35.8345 5211.00 5248.00 72.19
997 35.8605 5313.00 5362.04 72.89
998 35.8865 5382.00 5516.65 73.36
999 35.9125 5499.00 5737.34 74.16
1000 35.9385 5708.00 6071.57 75.55
1001 35.9645 6185.00 6603.60 78.64
1002 35.9905 6875.00 7465.12 82.92
1003 36.0165 7876.00 8814.05 88.75
1004 36.0425 9798.00 10757.10 98.98
1005 36.0685 12893.00 13234.00 113.55
1006 36.0945 17078.00 15820.40 130.68
1007 36.1205 19769.00 17446.00 140.60
1008 36.1465 15296.00 16739.80 123.68
1009 36.1725 11994.00 14123.00 109.52
1010 36.1985 13070.00 11603.40 114.32
1011 36.2245 12783.00 10195.40 113.06
1012 36.2505 10270.00 9984.96 101.34
1013 36.2765 10416.00 10771.70 102.06
1014 36.3025 12357.00 12244.90 111.16
1015 36.3285 14605.00 13888.70 120.85
1016 36.3545 15297.00 14750.60 123.68
1017 36.3805 12533.00 13781.60 111.95
1018 36.4065 10489.00 11430.40 102.42
1019 36.4325 10112.00 9155.68 100.56
1020 36.4585 9041.00 7560.96 95.08
1021 36.4845 7037.00 6587.46 83.89
1022 36.5105 5742.00 6025.91 75.78
1023 36.5365 5288.00 5688.87 72.72
1024 36.5625 5111.00 5470.81 71.49
1025 36.5885 5040.00 5317.62 70.99
1026 36.6145 5045.00 5203.65 71.03
1027 36.6405 5023.00 5115.84 70.87
1028 36.6665 4922.00 5046.48 70.16
1029 36.6925 4965.00 4990.61 70.46
1030 36.7185 4821.00 4944.84 69.43
1031 36.7445 4758.00 4906.81 68.98
1032 36.7705 4814.00 4874.80 69.38
1033 36.7965 4868.00 4847.57 69.77
1034 36.8225 4768.00 4824.15 69.05
1035 36.8485 4770.00 4803.86 69.07
1036 36.8745 4748.00 4786.12 68.91
1037 36.9005 4806.00 4770.50 69.33
1038 36.9265 4815.00 4756.66 69.39
1039 36.9525 4718.00 4744.33 68.69
1040 36.9785 4771.00 4733.29 69.07
1041 37.0045 4771.00 4723.34 69.07
1042 37.0305 4821.00 4714.35 69.43
1043 37.0565 4852.00 4706.18 69.66
1044 37.0825 4713.00 4698.74 68.65
1045 37.1085 4678.00 4691.94 68.40
1046 37.1345 4757.00 4685.71 68.97
1047 37.1605 4772.00 4679.98 69.08
1048 37.1865 4673.00 4674.71 68.36
1049 37.2125 4671.00 4669.84 68.34
1050 37.2385 4660.00 4665.34 68.26
1051 37.2645 4629.00 4661.19 68.04
1052 37.2905 4651.00 4657.34 68.20
1053 37.3165 4650.00 4653.79 68.19
1054 37.3425 4632.00 4650.50 68.06
1055 37.3685 4697.00 4647.47 68.53
1056 37.3945 4723.00 4644.68 68.72
1057 37.4205 4683.00 4642.13 68.43
1058 37.4465 4645.00 4639.80 68.15
1059 37.4725 4643.00 4637.70 68.14
1060 37.4985 4667.00 4635.82 68.32
1061 37.5245 4722.00 4634.16 68.72
1062 37.5505 4652.00 4632.74 68.21
1063 37.5765 4597.00 4631.55 67.80
1064 37.6025 4703.00 4630.62 68.58
1065 37.6285 4639.00 4629.95 68.11
1066 37.6545 4663.00 4629.58 68.29
1067 37.6805 4739.00 4629.53 68.84
1068 37.7065 4618.00 4629.85 67.96
1069 37.7325 4549.00 4630.57 67.45
1070 37.7585 4560.00 4631.76 67.53
1071 37.7845 4638.00 4633.50 68.10
1072 37.8105 4565.00 4635.89 67.56
1073 37.8365 4517.00 4639.06 67.21
1074 37.8625 4630.00 4643.16 68.04
1075 37.8885 4662.00 4648.44 68.28
1076 37.9145 4587.00 4642.89 67.73
1077 37.9405 4684.00 4651.83 68.44
1078 37.9665 4697.00 4663.16 68.53
1079 37.9925 4700.00 4677.66 68.56
1080 38.0185 4587.00 4696.48 67.73
1081 38.0445 4599.00 4721.36 67.82
1082 38.0705 4631.00 4755.20 68.05
1083 38.0965 4752.00 4803.18 68.93
1084 38.1225 4768.00 4874.83 69.05
1085 38.1485 4824.00 4978.01 69.46
1086 38.1745 4919.00 5161.22 70.14
1087 38.2005 5157.00 5454.92 71.81
1088 38.2265 5480.00 5895.77 74.03
1089 38.2525 6146.00 6484.15 78.40
1090 38.2785 6895.00 7143.02 83.04
1091 38.3045 7654.00 7656.92 87.49
1092 38.3305 7320.00 7675.66 85.56
1093 38.3565 6299.00 7094.80 79.37
1094 38.3825 6051.00 6322.20 77.79
1095 38.4085 6084.00 5700.86 78.00
1096 38.4345 5594.00 5291.26 74.79
1097 38.4605 4946.00 5044.76 70.33
1098 38.4865 4639.00 4899.60 68.11
1099 38.5125 4633.00 4810.52 68.07
1100 38.5385 4767.00 4751.46 69.04
1101 38.5645 4515.00 4709.46 67.19
1102 38.5905 4522.00 4678.09 67.25
1103 38.6165 4590.00 4653.91 67.75
1104 38.6425 4566.00 4635.05 67.57
1105 38.6685 4411.00 4619.67 66.42
1106 38.6945 4509.00 4607.05 67.15
1107 38.7205 4517.00 4596.55 67.21
1108 38.7465 4410.00 4587.68 66.41
1109 38.7725 4444.00 4580.10 66.66
1110 38.7985 4598.00 4573.54 67.81
1111 38.8245 4445.00 4567.81 66.67
1112 38.8505 4406.00 4562.74 66.38
1113 38.8765 4478.00 4558.23 66.92
1114 38.9025 4480.00 4554.18 66.93
1115 38.9285 4582.00 4550.52 67.69
1116 38.9545 4409.00 4547.18 66.40
1117 38.9805 4380.00 4544.12 66.18
1118 39.0065 4482.00 4541.29 66.95
1119 39.0325 4510.00 4538.67 67.16
1120 39.0585 4525.00 4536.22 67.27
1121 39.0845 4524.00 4533.93 67.26
1122 39.1105 4519.00 4531.77 67.22
1123 39.1365 4381.00 4529.73 66.19
1124 39.1625 4580.00 4527.88 67.68
1125 39.1885 4520.00 4526.04 67.23
1126 39.2145 4498.00 4524.28 67.07
1127 39.2405 4429.00 4522.59 66.55
1128 39.2665 4439.00 4520.97 66.63
1129 39.2925 4527.00 4519.42 67.28
1130 39.3185 4385.00 4517.91 66.22
1131 39.3445 4461.00 4516.46 66.79
1132 39.3705 4599.00 4515.05 67.82
1133 39.3965 4476.00 4513.68 66.90
1134 39.4225 4426.00 4512.34 66.53
1135 39.4485 4418.00 4511.05 66.47
1136 39.4745 4505.00 4509.79 67.12
1137 39.5005 4463.00 4508.55 66.81
1138 39.5265 4476.00 4507.35 66.90
1139 39.5525 4410.00 4506.17 66.41
1140 39.5785 4410.00 4505.02 66.41
1141 39.6045 4520.00 4503.89 67.23
1142 39.6305 4506.00 4502.79 67.13
1143 39.6565 4431.00 4501.70 66.57
1144 39.6825 4420.00 4500.64 66.48
1145 39.7085 4493.00 4499.61 67.03
1146 39.7345 4496.00 4498.59 67.05
1147 39.7605 4438.00 4497.60 66.62
1148 39.7865 4455.00 4496.62 66.75
1149 39.8125 4490.00 4495.67 67.01
1150 39.8385 4515.00 4494.75 67.19
1151 39.8645 4462.00 4493.85 66.80
1152 39.8905 4485.00 4492.97 66.97
1153 39.9165 4448.00 4492.13 66.69
1154 39.9425 4410.00 4491.32 66.41
1155 39.9685 4417.00 4490.54 66.46
1156 39.9945 4431.00 4489.81 66.57
1157 40.0205 4386.00 4489.12 66.23
1158 40.0465 4450.00 4488.48 66.71
1159 40.0725 4445.00 4487.91 66.67
1160 40.0985 4381.00 4487.42 66.19
1161 40.1245 4441.00 4487.02 66.64
1162 40.1505 4432.00 4486.74 66.57
1163 40.1765 4343.00 4486.61 65.90
1164 40.2025 4315.00 4483.40 65.69
1165 40.2285 4351.00 4483.80 65.96
1166 40.2545 4343.00 4484.54 65.90
1167 40.2805 4358.00 4485.75 66.02
1168 40.3065 4403.00 4487.65 66.36
1169 40.3325 4462.00 4490.64 66.80
1170 40.3585 4458.00 4495.42 66.77
1171 40.3845 4431.00 4503.26 66.57
1172 40.4105 4368.00 4516.23 66.09
1173 40.4365 4502.00 4537.07 67.10
1174 40.4625 4540.00 4568.13 67.38
1175 40.4885 4527.00 4608.83 67.28
1176 40.5145 4542.00 4652.64 67.39
1177 40.5405 4549.00 4683.35 67.45
1178 40.5665 4486.00 4678.56 66.98
1179 40.5925 4470.00 4636.80 66.86
1180 40.6185 4502.00 4585.45 67.10
1181 40.6445 4465.00 4544.22 66.82
1182 40.6705 4536.00 4516.29 67.35
1183 40.6965 4480.00 4498.73 66.93
1184 40.7225 4394.00 4487.87 66.29
1185 40.7485 4503.00 4480.92 67.10
1186 40.7745 4518.00 4476.18 67.22
1187 40.8005 4504.00 4485.37 67.11
1188 40.8265 4527.00 4483.23 67.28
1189 40.8525 4497.00 4481.84 67.06
1190 40.8785 4452.00 4481.13 66.72
1191 40.9045 4341.00 4481.21 65.89
1192 40.9305 4408.00 4482.33 66.39
1193 40.9565 4528.00 4485.00 67.29
1194 40.9825 4475.00 4490.04 66.90
1195 41.0085 4508.00 4498.38 67.14
1196 41.0345 4687.00 4510.39 68.46
1197 41.0605 4568.00 4524.96 67.59
1198 41.0865 4493.00 4538.24 67.03
1199 41.1125 4612.00 4542.99 67.91
1200 41.1385 4574.00 4533.89 67.63
1201 41.1645 4575.00 4516.53 67.64
1202 41.1905 4575.00 4500.15 67.64
1203 41.2165 4571.00 4488.21 67.61
1204 41.2425 4588.00 4480.42 67.73
1205 41.2685 4486.00 4475.57 66.98
1206 41.2945 4553.00 4472.53 67.48
1207 41.3205 4504.00 4470.55 67.11
1208 41.3465 4487.00 4469.19 66.99
1209 41.3725 4597.00 4468.23 67.80
1210 41.3985 4631.00 4467.55 68.05
1211 41.4245 4573.00 4467.09 67.62
1212 41.4505 4456.00 4466.80 66.75
1213 41.4765 4489.00 4466.66 67.00
1214 41.5025 4418.00 4466.66 66.47
1215 41.5285 4578.00 4466.78 67.66
1216 41.5545 4647.00 4467.02 68.17
1217 41.5805 4570.00 4467.37 67.60
1218 41.6065 4528.00 4467.84 67.29
1219 41.6325 4567.00 4468.43 67.58
1220 41.6585 4644.00 4469.15 68.15
1221 41.6845 4597.00 4469.99 67.80
1222 41.7105 4561.00 4470.98 67.54
1223 41.7365 4473.00 4472.11 66.88
1224 41.7625 4612.00 4473.41 67.91
1225 41.7885 4699.00 4474.88 68.55
1226 41.8145 4652.00 4476.54 68.21
1227 41.8405 4752.00 4478.42 68.93
1228 41.8665 4680.00 4480.52 68.41
1229 41.8925 4605.00 4482.88 67.86
1230 41.9185 4599.00 4485.53 67.82
1231 41.9445 4643.00 4488.50 68.14
1232 41.9705 4602.00 4491.82 67.84
1233 41.9965 4541.00 4495.55 67.39
1234 42.0225 4594.00 4499.72 67.78
1235 42.0485 4568.00 4504.42 67.59
1236 42.0745 4586.00 4509.69 67.72
1237 42.1005 4627.00 4515.64 68.02
1238 42.1265 4604.00 4522.36 67.85
1239 42.1525 4552.00 4529.97 67.47
1240 42.1785 4618.00 4538.62 67.96
1241 42.2045 4646.00 4548.49 68.16
1242 42.2305 4602.00 4559.78 67.84
1243 42.2565 4560.00 4572.77 67.53
1244 42.2825 4681.00 4587.78 68.42
1245 42.3085 4687.00 4605.23 68.46
1246 42.3345 4626.00 4625.65 68.01
1247 42.3605 4580.00 4649.71 67.68
1248 42.3865 4636.00 4678.28 68.09
1249 42.4125 4663.00 4712.51 68.29
1250 42.4385 4711.00 4755.61 68.64
1251 42.4645 4716.00 4806.40 68.67
1252 42.4905 4757.00 4869.44 68.97
1253 42.5165 4819.00 4948.69 69.42
1254 42.5425 4886.00 5050.91 69.90
1255 42.5685 4979.00 5185.89 70.56
1256 42.5945 5116.00 5370.74 71.53
1257 42.6205 5293.00 5635.83 72.75
1258 42.6465 5639.00 6034.48 75.09
1259 42.6725 6156.00 6654.35 78.46
1260 42.6985 7048.00 7619.30 83.95
1261 42.7245 8628.00 9056.16 92.89
1262 42.7505 11167.00 10993.90 105.67
1263 42.7765 14495.00 13209.60 120.39
1264 42.8025 16861.00 15052.30 129.85
1265 42.8285 15784.00 15465.40 125.63
1266 42.8545 12327.00 13959.70 111.03
1267 42.8805 10558.00 11531.20 102.75
1268 42.9065 10785.00 9339.76 103.85
1269 42.9325 10270.00 7755.77 101.34
1270 42.9585 8136.00 6717.99 90.20
1271 42.9845 6089.00 6065.20 78.03
1272 43.0105 5298.00 5652.74 72.79
1273 43.0365 4938.00 5380.69 70.27
1274 43.0625 4792.00 5190.76 69.22
1275 43.0885 4789.00 5051.28 69.20
1276 43.1145 4715.00 4944.99 68.67
1277 43.1405 4591.00 4862.01 67.76
1278 43.1665 4654.00 4795.95 68.22
1279 43.1925 4582.00 4742.50 67.69
1280 43.2185 4604.00 4698.65 67.85
1281 43.2445 4659.00 4662.23 68.26
1282 43.2705 4562.00 4631.66 67.54
1283 43.2965 4483.00 4605.73 66.96
1284 43.3225 4534.00 4583.55 67.33
1285 43.3485 4617.00 4564.43 67.95
1286 43.3745 4630.00 4547.83 68.04
1287 43.4005 4556.00 4533.31 67.50
1288 43.4265 4585.00 4520.54 67.71
1289 43.4525 4626.00 4509.26 68.01
1290 43.4785 4656.00 4499.23 68.23
1291 43.5045 4627.00 4490.29 68.02
1292 43.5305 4542.00 4482.28 67.39
1293 43.5565 4513.00 4475.09 67.18
1294 43.5825 4595.00 4468.61 67.79
1295 43.6085 4479.00 4462.75 66.93
1296 43.6345 4600.00 4457.46 67.82
1297 43.6605 4585.00 4452.67 67.71
1298 43.6865 4602.00 4448.34 67.84
1299 43.7125 4530.00 4444.42 67.31
1300 43.7385 4548.00 4440.88 67.44
1301 43.7645 4466.00 4437.69 66.83
1302 43.7905 4603.00 4434.84 67.85
1303 43.8165 4476.00 4432.32 66.90
1304 43.8425 4552.00 4430.10 67.47
1305 43.8685 4497.00 4428.20 67.06
1306 43.8945 4381.00 4426.60 66.19
1307 43.9205 4523.00 4425.33 67.25
1308 43.9465 4563.00 4424.38 67.55
1309 43.9725 4605.00 4423.80 67.86
1310 43.9985 4515.00 4423.60 67.19
1311 44.0245 4303.00 4423.84 65.60
1312 44.0505 4416.00 4424.58 66.45
1313 44.0765 4488.00 4425.89 66.99
1314 44.1025 4406.00 4427.88 66.38
1315 44.1285 4483.00 4430.70 66.96
1316 44.1545 4565.00 4434.54 67.56
1317 44.1805 4398.00 4439.65 66.32
1318 44.2065 4483.00 4446.42 66.96
1319 44.2325 4554.00 4455.35 67.48
1320 44.2585 4531.00 4467.23 67.31
1321 44.2845 4488.00 4484.84 66.99
1322 44.3105 4613.00 4507.05 67.92
1323 44.3365 4476.00 4540.74 66.90
1324 44.3625 4451.00 4588.34 66.72
1325 44.3885 4608.00 4661.57 67.88
1326 44.4145 4630.00 4774.85 68.04
1327 44.4405 4946.00 4944.51 70.33
1328 44.4665 5158.00 5178.93 71.82
1329 44.4925 5367.00 5459.86 73.26
1330 44.5185 5940.00 5722.91 77.07
1331 44.5445 5848.00 5835.02 76.47
1332 44.5705 5514.00 5705.08 74.26
1333 44.5965 5085.00 5413.03 71.31
1334 44.6225 5189.00 5115.79 72.03
1335 44.6485 5215.00 4886.62 72.21
1336 44.6745 4941.00 4729.68 70.29
1337 44.7005 4769.00 4627.80 69.06
1338 44.7265 4671.00 4562.45 68.34
1339 44.7525 4536.00 4519.54 67.35
1340 44.7785 4445.00 4490.08 66.67
1341 44.8045 4490.00 4475.40 67.01
1342 44.8305 4550.00 4459.91 67.45
1343 44.8565 4503.00 4448.39 67.10
1344 44.8825 4475.00 4439.96 66.90
1345 44.9085 4504.00 4422.54 67.11
1346 44.9345 4530.00 4419.76 67.31
1347 44.9605 4541.00 4420.04 67.39
1348 44.9865 4478.00 4424.29 66.92
1349 45.0125 4428.00 4433.75 66.54
1350 45.0385 4428.00 4449.51 66.54
1351 45.0645 4384.00 4471.07 66.21
1352 45.0905 4359.00 4494.31 66.02
1353 45.1165 4430.00 4509.71 66.56
1354 45.1425 4497.00 4505.78 67.06
1355 45.1685 4446.00 4482.50 66.68
1356 45.1945 4397.00 4453.35 66.31
1357 45.2205 4462.00 4428.66 66.80
1358 45.2465 4465.00 4410.85 66.82
1359 45.2725 4483.00 4398.91 66.96
1360 45.2985 4428.00 4391.13 66.54
1361 45.3245 4395.00 4386.05 66.29
1362 45.3505 4463.00 4382.66 66.81
1363 45.3765 4495.00 4380.35 67.04
1364 45.4025 4471.00 4378.76 66.87
1365 45.4285 4399.00 4377.71 66.32
1366 45.4545 4390.00 4377.09 66.26
1367 45.4805 4438.00 4376.81 66.62
1368 45.5065 4504.00 4376.84 67.11
1369 45.5325 4458.00 4377.15 66.77
1370 45.5585 4414.00 4377.72 66.44
1371 45.5845 4490.00 4378.54 67.01
1372 45.6105 4493.00 4379.62 67.03
1373 45.6365 4412.00 4380.95 66.42
1374 45.6625 4432.00 4382.55 66.57
1375 45.6885 4465.00 4384.43 66.82
1376 45.7145 4500.00 4386.61 67.08
1377 45.7405 4514.00 4389.11 67.19
1378 45.7665 4492.00 4391.98 67.02
1379 45.7925 4451.00 4395.24 66.72
1380 45.8185 4589.00 4398.95 67.74
1381 45.8445 4497.00 4403.16 67.06
1382 45.8705 4477.00 4407.94 66.91
1383 45.8965 4484.00 4413.37 66.96
1384 45.9225 4507.00 4419.55 67.13
1385 45.9485 4492.00 4426.60 67.02
1386 45.9745 4426.00 4434.67 66.53
1387 46.0005 4496.00 4443.96 67.05
1388 46.0265 4511.00 4454.69 67.16
1389 46.0525 4479.00 4467.17 66.93
1390 46.0785 4493.00 4481.78 67.03
1391 46.1045 4508.00 4503.00 67.14
1392 46.1305 4599.00 4523.64 67.82
1393 46.1565 4632.00 4548.52 68.06
1394 46.1825 4588.00 4578.92 67.73
1395 46.2085 4621.00 4616.75 67.98
1396 46.2345 4526.00 4664.95 67.28
1397 46.2605 4597.00 4728.37 67.80
1398 46.2865 4675.00 4814.93 68.37
1399 46.3125 4654.00 4937.36 68.22
1400 46.3385 4873.00 5114.38 69.81
1401 46.3645 5010.00 5369.99 70.78
1402 46.3905 5378.00 5725.75 73.33
1403 46.4165 6025.00 6183.12 77.62
1404 46.4425 6569.00 6694.75 81.05
1405 46.4685 7256.00 7145.87 85.18
1406 46.4945 7482.00 7411.11 86.50
1407 46.5205 7753.00 7457.45 88.05
1408 46.5465 7313.00 7307.04 85.52
1409 46.5725 6580.00 7053.38 81.12
1410 46.5985 7013.00 6889.46 83.74
1411 46.6245 7446.00 6955.71 86.29
1412 46.6505 8384.00 7273.17 91.56
1413 46.6765 9214.00 7749.80 95.99
1414 46.7025 9666.00 8162.81 98.32
1415 46.7285 9383.00 8214.45 96.87
1416 46.7545 7199.00 7797.67 84.85
1417 46.7805 6865.00 7171.91 82.86
1418 46.8065 7166.00 6632.35 84.65
1419 46.8325 7509.00 6296.43 86.65
1420 46.8585 6878.00 6182.75 82.93
1421 46.8845 6264.00 6295.38 79.15
1422 46.9105 6370.00 6652.50 79.81
1423 46.9365 7106.00 7279.95 84.30
1424 46.9625 7942.00 8169.11 89.12
1425 46.9885 8931.00 9193.04 94.50
1426 47.0145 9284.00 10018.80 96.35
1427 47.0405 9381.00 10163.00 96.86
1428 47.0665 8449.00 9444.80 91.92
1429 47.0925 7527.00 8293.98 86.76
1430 47.1185 7161.00 7211.71 84.62
1431 47.1445 6959.00 6386.55 83.42
1432 47.1705 6621.00 5811.88 81.37
1433 47.1965 5787.00 5427.32 76.07
1434 47.2225 5087.00 5171.24 71.32
1435 47.2485 4753.00 4996.71 68.94
1436 47.2745 4681.00 4872.68 68.42
1437 47.3005 4649.00 4780.55 68.18
1438 47.3265 4546.00 4709.85 67.42
1439 47.3525 4540.00 4654.11 67.38
1440 47.3785 4487.00 4609.29 66.99
1441 47.4045 4519.00 4572.74 67.22
1442 47.4305 4457.00 4542.58 66.76
1443 47.4565 4449.00 4517.44 66.70
1444 47.4825 4497.00 4496.33 67.06
1445 47.5085 4458.00 4478.48 66.77
1446 47.5345 4437.00 4463.32 66.61
1447 47.5605 4473.00 4450.43 66.88
1448 47.5865 4534.00 4439.46 67.33
1449 47.6125 4480.00 4430.14 66.93
1450 47.6385 4383.00 4422.28 66.20
1451 47.6645 4333.00 4415.72 65.83
1452 47.6905 4385.00 4410.35 66.22
1453 47.7165 4425.00 4406.08 66.52
1454 47.7425 4344.00 4402.88 65.91
1455 47.7685 4315.00 4400.72 65.69
1456 47.7945 4400.00 4399.59 66.33
1457 47.8205 4473.00 4399.54 66.88
1458 47.8465 4407.00 4400.63 66.39
1459 47.8725 4401.00 4402.97 66.34
1460 47.8985 4433.00 4406.70 66.58
1461 47.9245 4400.00 4412.02 66.33
1462 47.9505 4388.00 4419.21 66.24
1463 47.9765 4455.00 4428.63 66.75
1464 48.0025 4480.00 4440.80 66.93
1465 48.0285 4485.00 4456.38 66.97
1466 48.0545 4522.00 4476.33 67.25
1467 48.0805 4475.00 4501.98 66.90
1468 48.1065 4498.00 4535.32 67.07
1469 48.1325 4510.00 4579.40 67.16
1470 48.1585 4523.00 4639.21 67.25
1471 48.1845 4604.00 4723.15 67.85
1472 48.2105 4676.00 4844.96 68.38
1473 48.2365 4931.00 5026.01 70.22
1474 48.2625 5176.00 5295.63 71.94
1475 48.2885 5547.00 5686.62 74.48
1476 48.3145 6371.00 6217.19 79.82
1477 48.3405 7566.00 6851.81 86.98
1478 48.3665 8808.00 7444.98 93.85
1479 48.3925 8912.00 7730.49 94.40
1480 48.4185 7632.00 7502.36 87.36
1481 48.4445 6343.00 6893.33 79.64
1482 48.4705 6298.00 6222.67 79.36
1483 48.4965 6667.00 5672.05 81.65
1484 48.5225 6639.00 5273.16 81.48
1485 48.5485 5802.00 5000.14 76.17
1486 48.5745 4970.00 4817.04 70.50
1487 48.6005 4703.00 4693.22 68.58
1488 48.6265 4551.00 4606.87 67.46
1489 48.6525 4474.00 4544.13 66.89
1490 48.6785 4342.00 4496.73 65.89
1491 48.7045 4415.00 4458.26 66.45
1492 48.7305 4384.00 4428.80 66.21
1493 48.7565 4309.00 4404.88 65.64
1494 48.7825 4292.00 4383.39 65.51
1495 48.8085 4351.00 4366.94 65.96
1496 48.8345 4338.00 4353.02 65.86
1497 48.8605 4317.00 4341.13 65.70
1498 48.8865 4287.00 4330.86 65.48
1499 48.9125 4257.00 4321.93 65.25
1500 48.9385 4318.00 4314.07 65.71
1501 48.9645 4236.00 4307.13 65.08
1502 48.9905 4178.00 4297.38 64.64
1503 49.0165 4272.00 4291.91 65.36
1504 49.0425 4289.00 4286.98 65.49
1505 49.0685 4229.00 4282.50 65.03
1506 49.0945 4359.00 4278.42 66.02
1507 49.1205 4266.00 4274.68 65.31
1508 49.1465 4292.00 4271.24 65.51
1509 49.1725 4239.00 4268.06 65.11
1510 49.1985 4355.00 4265.10 65.99
1511 49.2245 4314.00 4262.35 65.68
1512 49.2505 4237.00 4259.77 65.09
1513 49.2765 4183.00 4257.35 64.68
1514 49.3025 4305.00 4248.86 65.61
1515 49.3285 4301.00 4246.84 65.58
1516 49.3545 4285.00 4244.93 65.46
1517 49.3805 4287.00 4243.12 65.48
1518 49.4065 4215.00 4241.39 64.92
1519 49.4325 4300.00 4239.96 65.57
1520 49.4585 4417.00 4238.38 66.46
1521 49.4845 4234.00 4236.88 65.07
1522 49.5105 4220.00 4235.43 64.96
1523 49.5365 4194.00 4234.03 64.76
1524 49.5625 4214.00 4232.68 64.92
1525 49.5885 4303.00 4231.38 65.60
1526 49.6145 4351.00 4230.11 65.96
1527 49.6405 4283.00 4228.89 65.44
1528 49.6665 4262.00 4229.50 65.28
1529 49.6925 4282.00 4228.38 65.44
1530 49.7185 4250.00 4227.29 65.19
1531 49.7445 4197.00 4226.22 64.78
1532 49.7705 4284.00 4225.19 65.45
1533 49.7965 4325.00 4224.18 65.76
1534 49.8225 4328.00 4223.19 65.79
1535 49.8485 4481.00 4222.23 66.94
1536 49.8745 4319.00 4221.28 65.72
1537 49.9005 4315.00 4220.36 65.69
1538 49.9265 4344.00 4227.07 65.91
1539 49.9525 4239.00 4226.34 65.11
1540 49.9785 4212.00 4225.64 64.90
1541 50.0045 4272.00 4224.95 65.36
1542 50.0305 4291.00 4224.28 65.51
1543 50.0565 4208.00 4223.64 64.87
1544 50.0825 4243.00 4223.01 65.14
1545 50.1085 4369.00 4222.40 66.10
1546 50.1345 4393.00 4221.82 66.28
1547 50.1605 4293.00 4221.25 65.52
1548 50.1865 4320.00 4220.70 65.73
1549 50.2125 4365.00 4220.17 66.07
1550 50.2385 4292.00 4219.66 65.51
1551 50.2645 4331.00 4219.17 65.81
1552 50.2905 4410.00 4218.70 66.41
1553 50.3165 4358.00 4218.50 66.02
1554 50.3425 4297.00 4218.07 65.55
1555 50.3685 4244.00 4217.67 65.15
1556 50.3945 4334.00 4217.28 65.83
1557 50.4205 4342.00 4216.93 65.89
1558 50.4465 4276.00 4216.59 65.39
1559 50.4725 4333.00 4216.28 65.83
1560 50.4985 4338.00 4215.99 65.86
1561 50.5245 4355.00 4215.73 65.99
1562 50.5505 4319.00 4215.49 65.72
1563 50.5765 4309.00 4215.28 65.64
1564 50.6025 4339.00 4215.11 65.87
1565 50.6285 4291.00 4214.96 65.51
1566 50.6545 4382.00 4214.84 66.20
1567 50.6805 4372.00 4214.76 66.12
1568 50.7065 4233.00 4214.72 65.06
1569 50.7325 4247.00 4210.92 65.17
1570 50.7585 4275.00 4211.03 65.38
1571 50.7845 4280.00 4211.19 65.42
1572 50.8105 4281.00 4211.39 65.43
1573 50.8365 4267.00 4211.63 65.32
1574 50.8625 4326.00 4211.93 65.77
1575 50.8885 4400.00 4212.27 66.33
1576 50.9145 4376.00 4212.68 66.15
1577 50.9405 4411.00 4213.14 66.42
1578 50.9665 4339.00 4213.68 65.87
1579 50.9925 4367.00 4214.28 66.08
1580 51.0185 4389.00 4214.96 66.25
1581 51.0445 4339.00 4215.73 65.87
1582 51.0705 4344.00 4216.59 65.91
1583 51.0965 4334.00 4217.54 65.83
1584 51.1225 4297.00 4221.40 65.55
1585 51.1485 4215.00 4222.65 64.92
1586 51.1745 4318.00 4224.03 65.71
1587 51.2005 4345.00 4225.56 65.92
1588 51.2265 4364.00 4227.25 66.06
1589 51.2525 4229.00 4229.11 65.03
1590 51.2785 4310.00 4231.61 65.65
1591 51.3045 4311.00 4233.91 65.66
1592 51.3305 4356.00 4236.45 66.00
1593 51.3565 4258.00 4239.28 65.25
1594 51.3825 4311.00 4242.41 65.66
1595 51.4085 4347.00 4245.90 65.93
1596 51.4345 4347.00 4249.80 65.93
1597 51.4605 4366.00 4254.16 66.08
1598 51.4865 4409.00 4259.05 66.40
1599 51.5125 4368.00 4264.56 66.09
1600 51.5385 4354.00 4270.80 65.98
1601 51.5645 4374.00 4277.90 66.14
1602 51.5905 4322.00 4286.04 65.74
1603 51.6165 4369.00 4295.42 66.10
1604 51.6425 4435.00 4306.38 66.60
1605 51.6685 4458.00 4319.33 66.77
1606 51.6945 4470.00 4334.91 66.86
1607 51.7205 4431.00 4354.07 66.57
1608 51.7465 4506.00 4378.13 67.13
1609 51.7725 4474.00 4408.88 66.89
1610 51.7985 4452.00 4448.40 66.72
1611 51.8245 4445.00 4498.57 66.67
1612 51.8505 4522.00 4559.53 67.25
1613 51.8765 4677.00 4627.12 68.39
1614 51.9025 4753.00 4691.79 68.94
1615 51.9285 4710.00 4745.88 68.63
1616 51.9545 4727.00 4796.73 68.75
1617 51.9805 4700.00 4867.81 68.56
1618 52.0065 4840.00 4982.46 69.57
1619 52.0325 4942.00 5157.62 70.30
1620 52.0585 5440.00 5402.23 73.76
1621 52.0845 5753.00 5705.82 75.85
1622 52.1105 6184.00 6017.21 78.64
1623 52.1365 6368.00 6236.34 79.80
1624 52.1625 5970.00 6276.51 77.27
1625 52.1885 5519.00 6172.81 74.29
1626 52.2145 5358.00 6058.67 73.20
1627 52.2405 5683.00 6045.20 75.39
1628 52.2665 6322.00 6193.06 79.51
1629 52.2925 6732.00 6543.71 82.05
1630 52.3185 7168.00 7136.38 84.66
1631 52.3445 8273.00 7995.12 90.96
1632 52.3705 9486.00 9075.99 97.40
1633 52.3965 10653.00 10170.90 103.21
1634 52.4225 11296.00 10856.60 106.28
1635 52.4485 10396.00 10714.80 101.96
1636 52.4745 8890.00 9795.10 94.29
1637 52.5005 7953.00 8584.23 89.18
1638 52.5265 7903.00 7483.34 88.90
1639 52.5525 7960.00 6628.28 89.22
1640 52.5785 7512.00 6010.22 86.67
1641 52.6045 6533.00 5578.67 80.83
1642 52.6305 5515.00 5281.24 74.26
1643 52.6565 5022.00 5076.18 70.87
1644 52.6825 4727.00 4934.37 68.75
1645 52.7085 4627.00 4837.48 68.02
1646 52.7345 4608.00 4774.45 67.88
1647 52.7605 4591.00 4737.72 67.76
1648 52.7865 4499.00 4718.76 67.07
1649 52.8125 4595.00 4703.90 67.79
1650 52.8385 4571.00 4675.77 67.61
1651 52.8645 4466.00 4625.82 66.83
1652 52.8905 4404.00 4563.50 66.36
1653 52.9165 4430.00 4503.68 66.56
1654 52.9425 4418.00 4453.87 66.47
1655 52.9685 4442.00 4414.93 66.65
1656 52.9945 4408.00 4385.25 66.39
1657 53.0205 4346.00 4362.78 65.92
1658 53.0465 4287.00 4345.75 65.48
1659 53.0725 4307.00 4332.82 65.63
1660 53.0985 4369.00 4323.09 66.10
1661 53.1245 4431.00 4315.96 66.57
1662 53.1505 4383.00 4311.32 66.20
1663 53.1765 4296.00 4308.57 65.54
1664 53.2025 4311.00 4307.86 65.66
1665 53.2285 4396.00 4309.25 66.30
1666 53.2545 4367.00 4312.88 66.08
1667 53.2805 4264.00 4319.01 65.30
1668 53.3065 4340.00 4328.03 65.88
1669 53.3325 4384.00 4340.53 66.21
1670 53.3585 4306.00 4357.31 65.62
1671 53.3845 4297.00 4379.60 65.55
1672 53.4105 4351.00 4409.19 65.96
1673 53.4365 4373.00 4448.92 66.13
1674 53.4625 4351.00 4503.23 65.96
1675 53.4885 4342.00 4579.09 65.89
1676 53.5145 4468.00 4686.86 66.84
1677 53.5405 4685.00 4840.87 68.45
1678 53.5665 4911.00 5058.68 70.08
1679 53.5925 5184.00 5356.78 72.00
1680 53.6185 5719.00 5737.81 75.62
1681 53.6445 6357.00 6162.86 79.73
1682 53.6705 6973.00 6519.70 83.50
1683 53.6965 6932.00 6646.15 83.26
1684 53.7225 5946.00 6470.62 77.11
1685 53.7485 5439.00 6110.93 73.75
1686 53.7745 5634.00 5741.03 75.06
1687 53.8005 5923.00 5450.90 76.96
1688 53.8265 6283.00 5247.17 79.27
1689 53.8525 6158.00 5095.10 78.47
1690 53.8785 5316.00 4953.98 72.91
1691 53.9045 4736.00 4809.69 68.82
1692 53.9305 4530.00 4675.11 67.31
1693 53.9565 4600.00 4563.34 67.82
1694 53.9825 4588.00 4476.50 67.73
1695 54.0085 4544.00 4410.94 67.41
1696 54.0345 4436.00 4361.75 66.60
1697 54.0605 4413.00 4324.63 66.43
1698 54.0865 4241.00 4296.21 65.12
1699 54.1125 4272.00 4274.09 65.36
1700 54.1385 4089.00 4256.59 63.95
1701 54.1645 4177.00 4242.64 64.63
1702 54.1905 4150.00 4231.52 64.42
1703 54.2165 4182.00 4222.81 64.67
1704 54.2425 4093.00 4216.36 63.98
1705 54.2685 4278.00 4211.94 65.41
1706 54.2945 4265.00 4209.80 65.31
1707 54.3205 4163.00 4210.37 64.52
1708 54.3465 4195.00 4214.42 64.77
1709 54.3725 4245.00 4223.11 65.15
1710 54.3985 4222.00 4238.04 64.98
1711 54.4245 4338.00 4260.73 65.86
1712 54.4505 4341.00 4292.75 65.89
1713 54.4765 4306.00 4332.30 65.62
1714 54.5025 4231.00 4371.63 65.05
1715 54.5285 4405.00 4395.11 66.37
1716 54.5545 4216.00 4387.79 64.93
1717 54.5805 4356.00 4351.59 66.00
1718 54.6065 4325.00 4303.82 65.76
1719 54.6325 4230.00 4259.32 65.04
1720 54.6585 4194.00 4223.61 64.76
1721 54.6845 4152.00 4195.03 64.44
1722 54.7105 4215.00 4175.36 64.92
1723 54.7365 4048.00 4160.96 63.62
1724 54.7625 4189.00 4150.25 64.72
1725 54.7885 4227.00 4142.05 65.02
1726 54.8145 4083.00 4135.56 63.90
1727 54.8405 4043.00 4130.26 63.58
1728 54.8665 4057.00 4125.82 63.69
1729 54.8925 3984.00 4122.02 63.12
1730 54.9185 3966.00 4118.71 62.98
1731 54.9445 3968.00 4115.78 62.99
1732 54.9705 4014.00 4105.76 63.36
1733 54.9965 4035.00 4103.56 63.52
1734 55.0225 4053.00 4101.57 63.66
1735 55.0485 4051.00 4101.06 63.65
1736 55.0745 3989.00 4099.42 63.16
1737 55.1005 4000.00 4097.93 63.25
1738 55.1265 4070.00 4096.56 63.80
1739 55.1525 4082.00 4095.30 63.89
1740 55.1785 4015.00 4094.15 63.36
1741 55.2045 3985.00 4093.09 63.13
1742 55.2305 4073.00 4092.14 63.82
1743 55.2565 4036.00 4091.28 63.53
1744 55.2825 4015.00 4090.52 63.36
1745 55.3085 4055.00 4089.87 63.68
1746 55.3345 3973.00 4089.33 63.03
1747 55.3605 4017.00 4088.92 63.38
1748 55.3865 4028.00 4088.66 63.47
1749 55.4125 3982.00 4088.34 63.10
1750 55.4385 4019.00 4088.47 63.40
1751 55.4645 4021.00 4088.85 63.41
1752 55.4905 3967.00 4089.56 62.98
1753 55.5165 4052.00 4090.70 63.66
1754 55.5425 4051.00 4092.40 63.65
1755 55.5685 4075.00 4094.90 63.84
1756 55.5945 4081.00 4098.55 63.88
1757 55.6205 4030.00 4103.87 63.48
1758 55.6465 3974.00 4111.63 63.04
1759 55.6725 4040.00 4122.80 63.56
1760 55.6985 4150.00 4138.55 64.42
1761 55.7245 4092.00 4159.80 63.97
1762 55.7505 4011.00 4186.29 63.33
1763 55.7765 4069.00 4214.51 63.79
1764 55.8025 4042.00 4235.90 63.58
1765 55.8285 4071.00 4241.09 63.80
1766 55.8545 4054.00 4224.20 63.67
1767 55.8805 3972.00 4195.40 63.02
1768 55.9065 4059.00 4165.69 63.71
1769 55.9325 4067.00 4140.71 63.77
1770 55.9585 4101.00 4121.92 64.04
1771 55.9845 4086.00 4107.77 63.92
1772 56.0105 4021.00 4097.47 63.41
1773 56.0365 4081.00 4089.94 63.88
1774 56.0625 4038.00 4084.32 63.55
1775 56.0885 3991.00 4080.01 63.17
1776 56.1145 3997.00 4076.60 63.22
1777 56.1405 3988.00 4073.82 63.15
1778 56.1665 4013.00 4071.51 63.35
1779 56.1925 4003.00 4069.55 63.27
1780 56.2185 3961.00 4067.86 62.94
1781 56.2445 3962.00 4066.39 62.94
1782 56.2705 4008.00 4065.10 63.31
1783 56.2965 4000.00 4061.24 63.25
1784 56.3225 4022.00 4060.28 63.42
1785 56.3485 4035.00 4059.42 63.52
1786 56.3745 4057.00 4058.67 63.69
1787 56.4005 4023.00 4058.00 63.43
1788 56.4265 3958.00 4057.42 62.91
1789 56.4525 4066.00 4056.93 63.77
1790 56.4785 4075.00 4056.09 63.84
1791 56.5045 4007.00 4055.78 63.30
1792 56.5305 3978.00 4055.55 63.07
1793 56.5565 4081.00 4055.44 63.88
1794 56.5825 3977.00 4055.44 63.06
1795 56.6085 4001.00 4055.58 63.25
1796 56.6345 3949.00 4055.88 62.84
1797 56.6605 4000.00 4056.40 63.25
1798 56.6865 3944.00 4057.19 62.80
1799 56.7125 3936.00 4058.34 62.74
1800 56.7385 4012.00 4060.01 63.34
1801 56.7645 3966.00 4062.39 62.98
1802 56.7905 4019.00 4065.79 63.40
1803 56.8165 4109.00 4070.64 64.10
1804 56.8425 4086.00 4077.42 63.92
1805 56.8685 4049.00 4086.61 63.63
1806 56.8945 4122.00 4098.38 64.20
1807 56.9205 4133.00 4111.83 64.29
1808 56.9465 4162.00 4124.01 64.51
1809 56.9725 4131.00 4130.06 64.27
1810 56.9985 4186.00 4126.66 64.70
1811 57.0245 4054.00 4115.79 63.67
1812 57.0505 3971.00 4102.60 63.02
1813 57.0765 4147.00 4090.81 64.40
1814 57.1025 4093.00 4081.69 63.98
1815 57.1285 3999.00 4075.18 63.24
1816 57.1545 3991.00 4070.84 63.17
1817 57.1805 4027.00 4068.17 63.46
1818 57.2065 4010.00 4066.49 63.32
1819 57.2325 4083.00 4066.07 63.90
1820 57.2585 3985.00 4069.43 63.13
1821 57.2845 3985.00 4070.55 63.13
1822 57.3105 3985.00 4072.33 63.13
1823 57.3365 4055.00 4074.77 63.68
1824 57.3625 3871.00 4077.92 62.22
1825 57.3885 4091.00 4081.89 63.96
1826 57.4145 3972.00 4086.79 63.02
1827 57.4405 4062.00 4092.83 63.73
1828 57.4665 4052.00 4100.26 63.66
1829 57.4925 3986.00 4109.44 63.13
1830 57.5185 4083.00 4120.87 63.90
1831 57.5445 4151.00 4135.30 64.43
1832 57.5705 4233.00 4153.82 65.06
1833 57.5965 4130.00 4178.09 64.27
1834 57.6225 4165.00 4210.60 64.54
1835 57.6485 4133.00 4254.96 64.29
1836 57.6745 4363.00 4316.07 66.05
1837 57.7005 4489.00 4400.07 67.00
1838 57.7265 4611.00 4513.50 67.90
1839 57.7525 4721.00 4660.37 68.71
1840 57.7785 4877.00 4834.84 69.84
1841 57.8045 4936.00 5008.60 70.26
1842 57.8305 5024.00 5123.97 70.88
1843 57.8565 5065.00 5123.03 71.17
1844 57.8825 4994.00 5004.83 70.67
1845 57.9085 4842.00 4828.94 69.58
1846 57.9345 4796.00 4655.14 69.25
1847 57.9605 4652.00 4511.15 68.21
1848 57.9865 4594.00 4401.31 67.78
1849 58.0125 4519.00 4320.92 67.22
1850 58.0385 4461.00 4263.26 66.79
1851 58.0645 4266.00 4222.30 65.31
1852 58.0905 4204.00 4193.21 64.84
1853 58.1165 4139.00 4172.56 64.34
1854 58.1425 4105.00 4158.00 64.07
1855 58.1685 4102.00 4148.04 64.05
1856 58.1945 4133.00 4141.76 64.29
1857 58.2205 4135.00 4138.61 64.30
1858 58.2465 4100.00 4138.33 64.03
1859 58.2725 4065.00 4140.86 63.76
1860 58.2985 4101.00 4146.37 64.04
1861 58.3245 4072.00 4155.22 63.81
1862 58.3505 4015.00 4168.08 63.36
1863 58.3765 4045.00 4186.04 63.60
1864 58.4025 4073.00 4210.80 63.82
1865 58.4285 4105.00 4244.93 64.07
1866 58.4545 4131.00 4292.20 64.27
1867 58.4805 4165.00 4357.72 64.54
1868 58.5065 4280.00 4447.97 65.42
1869 58.5325 4364.00 4569.94 66.06
1870 58.5585 4493.00 4728.38 67.03
1871 58.5845 4719.00 4919.43 68.69
1872 58.6105 4965.00 5116.65 70.46
1873 58.6365 5117.00 5263.53 71.53
1874 58.6625 4930.00 5298.90 70.21
1875 58.6885 4679.00 5215.66 68.40
1876 58.7145 4610.00 5072.54 67.90
1877 58.7405 4745.00 4933.88 68.88
1878 58.7665 4990.00 4826.47 70.64
1879 58.7925 5198.00 4742.62 72.10
1880 58.8185 4952.00 4659.48 70.37
1881 58.8445 4617.00 4564.42 67.95
1882 58.8705 4411.00 4464.78 66.42
1883 58.8965 4386.00 4374.32 66.23
1884 58.9225 4427.00 4300.08 66.54
1885 58.9485 4415.00 4242.21 66.45
1886 58.9745 4305.00 4198.07 65.61
1887 59.0005 4150.00 4164.55 64.42
1888 59.0265 4090.00 4138.99 63.95
1889 59.0525 4064.00 4119.25 63.75
1890 59.0785 4073.00 4103.78 63.82
1891 59.1045 4133.00 4091.45 64.29
1892 59.1305 4133.00 4081.50 64.29
1893 59.1565 3991.00 4073.37 63.17
1894 59.1825 4006.00 4068.39 63.29
1895 59.2085 3997.00 4062.92 63.22
1896 59.2345 4084.00 4058.43 63.91
1897 59.2605 4044.00 4054.78 63.59
1898 59.2865 4086.00 4051.86 63.92
1899 59.3125 3907.00 4049.59 62.51
1900 59.3385 4081.00 4047.90 63.88
1901 59.3645 4088.00 4046.76 63.94
1902 59.3905 4151.00 4046.14 64.43
1903 59.4165 4062.00 4046.01 63.73
1904 59.4425 4133.00 4046.36 64.29
1905 59.4685 4031.00 4047.18 63.49
1906 59.4945 4086.00 4048.49 63.92
1907 59.5205 4058.00 4050.34 63.70
1908 59.5465 4026.00 4052.80 63.45
1909 59.5725 4035.00 4055.93 63.52
1910 59.5985 3938.00 4059.82 62.75
1911 59.6245 4068.00 4064.57 63.78
1912 59.6505 4168.00 4070.30 64.56
1913 59.6765 4151.00 4077.17 64.43
1914 59.7025 4093.00 4085.41 63.98
1915 59.7285 4080.00 4095.26 63.87
1916 59.7545 4176.00 4106.99 64.62
1917 59.7805 4067.00 4121.22 63.77
1918 59.8065 3983.00 4138.45 63.11
1919 59.8325 4062.00 4159.47 63.73
1920 59.8585 4270.00 4185.39 65.35
1921 59.8845 4158.00 4217.76 64.48
1922 59.9105 4142.00 4258.88 64.36
1923 59.9365 4160.00 4312.11 64.50
1924 59.9625 4136.00 4382.44 64.31
1925 59.9885 4223.00 4476.89 64.98
1926 60.0145 4278.00 4605.04 65.41
1927 60.0405 4543.00 4778.86 67.40
1928 60.0665 4650.00 5011.78 68.19
1929 60.0925 5048.00 5314.12 71.05
1930 60.1185 5674.00 5682.15 75.33
1931 60.1445 6163.00 6074.56 78.50
1932 60.1705 6891.00 6390.38 83.01
1933 60.1965 6867.00 6495.83 82.87
1934 60.2225 5840.00 6332.26 76.42
1935 60.2485 5024.00 5982.45 70.88
1936 60.2745 4808.00 5584.11 69.34
1937 60.3005 5302.00 5226.93 72.81
1938 60.3265 5468.00 4940.01 73.95
1939 60.3525 5439.00 4721.40 73.75
1940 60.3785 4979.00 4558.75 70.56
1941 60.4045 4624.00 4439.34 68.00
1942 60.4305 4388.00 4350.40 66.24
1943 60.4565 4219.00 4283.63 64.95
1944 60.4825 4109.00 4232.51 64.10
1945 60.5085 4207.00 4192.58 64.86
1946 60.5345 4104.00 4160.77 64.06
1947 60.5605 4097.00 4135.04 64.01
1948 60.5865 4153.00 4113.94 64.44
1949 60.6125 3994.00 4096.42 63.20
1950 60.6385 3948.00 4081.63 62.83
1951 60.6645 4004.00 4068.85 63.28
1952 60.6905 3920.00 4056.31 62.61
1953 60.7165 4046.00 4046.26 63.61
1954 60.7425 4037.00 4037.37 63.54
1955 60.7685 4026.00 4029.56 63.45
1956 60.7945 3962.00 4022.71 62.94
1957 60.8205 3945.00 4016.71 62.81
1958 60.8465 4027.00 4011.42 63.46
1959 60.8725 4061.00 4006.75 63.73
1960 60.8985 4055.00 4002.61 63.68
1961 60.9245 4067.00 3998.92 63.77
1962 60.9505 4061.00 3995.64 63.73
1963 60.9765 4044.00 3994.63 63.59
1964 61.0025 4069.00 3992.05 63.79
1965 61.0285 4102.00 3989.75 64.05
1966 61.0545 4086.00 3987.71 63.92
1967 61.0805 4037.00 3985.91 63.54
1968 61.1065 3980.00 3984.34 63.09
1969 61.1325 3930.00 3982.99 62.69
1970 61.1585 3965.00 3981.84 62.97
1971 61.1845 4033.00 3980.90 63.51
1972 61.2105 4000.00 3980.16 63.25
1973 61.2365 3986.00 3979.62 63.13
1974 61.2625 3962.00 3979.30 62.94
1975 61.2885 3878.00 3979.20 62.27
1976 61.3145 3936.00 3979.33 62.74
1977 61.3405 4017.00 3979.71 63.38
1978 61.3665 3978.00 3980.37 63.07
1979 61.3925 3882.00 3981.35 62.31
1980 61.4185 3960.00 3982.69 62.93
1981 61.4445 4019.00 3984.45 63.40
1982 61.4705 4013.00 3986.70 63.35
1983 61.4965 4044.00 3989.57 63.59
1984 61.5225 3988.00 3991.83 63.15
1985 61.5485 3974.00 3996.48 63.04
1986 61.5745 4049.00 4002.41 63.63
1987 61.6005 4004.00 4010.08 63.28
1988 61.6265 3932.00 4020.06 62.71
1989 61.6525 3989.00 4033.09 63.16
1990 61.6785 4006.00 4050.03 63.29
1991 61.7045 4054.00 4071.27 63.67
1992 61.7305 4109.00 4097.86 64.10
1993 61.7565 4125.00 4127.98 64.23
1994 61.7825 4211.00 4157.02 64.89
1995 61.8085 4211.00 4177.44 64.89
1996 61.8345 4052.00 4183.61 63.66
1997 61.8605 4104.00 4177.78 64.06
1998 61.8865 4166.00 4168.34 64.54
1999 61.9125 4043.00 4163.04 63.58
2000 61.9385 4209.00 4166.27 64.88
2001 61.9645 4255.00 4180.37 65.23
2002 61.9905 4107.00 4207.33 64.09
2003 62.0165 4107.00 4249.97 64.09
2004 62.0425 4188.00 4312.31 64.71
2005 62.0685 4171.00 4399.73 64.58
2006 62.0945 4364.00 4518.59 66.06
2007 62.1205 4481.00 4674.30 66.94
2008 62.1465 4771.00 4866.75 69.07
2009 62.1725 5197.00 5079.64 72.09
2010 62.1985 5555.00 5268.05 74.53
2011 62.2245 5387.00 5362.79 73.40
2012 62.2505 4974.00 5316.33 70.53
2013 62.2765 4598.00 5150.71 67.81
2014 62.3025 4532.00 4935.11 67.32
2015 62.3285 4576.00 4727.50 67.65
2016 62.3545 4709.00 4553.54 68.62
2017 62.3805 4687.00 4417.09 68.46
2018 62.4065 4532.00 4313.48 67.32
2019 62.4325 4372.00 4235.82 66.12
2020 62.4585 4225.00 4177.70 65.00
2021 62.4845 4201.00 4133.88 64.82
2022 62.5105 4163.00 4100.35 64.52
2023 62.5365 3925.00 4074.23 62.65
2024 62.5625 4174.00 4053.50 64.61
2025 62.5885 4114.00 4036.78 64.14
2026 62.6145 4134.00 4023.10 64.30
2027 62.6405 4065.00 4011.78 63.76
2028 62.6665 4057.00 4002.35 63.69
2029 62.6925 3987.00 3994.45 63.14
2030 62.7185 3978.00 3987.79 63.07
2031 62.7445 4006.00 3982.18 63.29
2032 62.7705 4078.00 3977.46 63.86
2033 62.7965 4051.00 3973.50 63.65
2034 62.8225 4132.00 3970.22 64.28
2035 62.8485 4062.00 3967.53 63.73
2036 62.8745 4043.00 3965.39 63.58
2037 62.9005 4052.00 3963.77 63.66
2038 62.9265 3943.00 3962.63 62.79
2039 62.9525 4105.00 3961.97 64.07
2040 62.9785 4052.00 3961.79 63.66
2041 63.0045 3994.00 3962.12 63.20
2042 63.0305 4066.00 3962.98 63.77
2043 63.0565 3971.00 3964.58 63.02
2044 63.0825 4037.00 3966.69 63.54
2045 63.1085 3946.00 3969.56 62.82
2046 63.1345 4052.00 3973.34 63.66
2047 63.1605 4125.00 3975.30 64.23
2048 63.1865 4118.00 3981.60 64.17
2049 63.2125 4008.00 3989.67 63.31
2050 63.2385 4014.00 4000.87 63.36
2051 63.2645 4071.00 4014.43 63.80
2052 63.2905 3993.00 4032.28 63.19
2053 63.3165 3957.00 4055.94 62.90
2054 63.3425 4027.00 4087.39 63.46
2055 63.3685 4019.00 4128.93 63.40
2056 63.3945 4046.00 4182.82 63.61
2057 63.4205 4188.00 4250.19 64.71
2058 63.4465 4294.00 4328.25 65.53
2059 63.4725 4410.00 4405.90 66.41
2060 63.4985 4468.00 4461.63 66.84
2061 63.5245 4393.00 4472.84 66.28
2062 63.5505 4243.00 4435.32 65.14
2063 63.5765 4102.00 4368.04 64.05
2064 63.6025 4114.00 4295.26 64.14
2065 63.6285 4135.00 4231.72 64.30
2066 63.6545 4190.00 4182.35 64.73
2067 63.6805 4246.00 4147.01 65.16
2068 63.7065 4143.00 4123.87 64.37
2069 63.7325 4120.00 4110.98 64.19
2070 63.7585 4114.00 4106.78 64.14
2071 63.7845 4053.00 4111.29 63.66
2072 63.8105 4016.00 4122.46 63.37
2073 63.8365 3978.00 4141.78 63.07
2074 63.8625 4085.00 4170.68 63.91
2075 63.8885 4203.00 4211.64 64.83
2076 63.9145 4251.00 4268.37 65.20
2077 63.9405 4301.00 4345.85 65.58
2078 63.9665 4340.00 4450.35 65.88
2079 63.9925 4439.00 4588.62 66.63
2080 64.0185 4697.00 4766.01 68.53
2081 64.0445 4965.00 4980.71 70.46
2082 64.0705 5125.00 5212.87 71.59
2083 64.0965 5246.00 5412.34 72.43
2084 64.1225 5436.00 5507.01 73.73
2085 64.1485 5318.00 5451.19 72.92
2086 64.1745 4993.00 5270.40 70.66
2087 64.2005 4743.00 5036.13 68.87
2088 64.2265 4557.00 4808.62 67.51
2089 64.2525 4742.00 4615.46 68.86
2090 64.2785 4785.00 4461.94 69.17
2091 64.3045 4619.00 4343.75 67.96
2092 64.3305 4434.00 4253.99 66.59
2093 64.3565 4310.00 4185.96 65.65
2094 64.3825 4183.00 4134.06 64.68
2095 64.4085 4080.00 4093.96 63.87
2096 64.4345 4032.00 4062.46 63.50
2097 64.4605 4070.00 4037.26 63.80
2098 64.4865 3999.00 4017.74 63.24
2099 64.5125 4035.00 4000.80 63.52
2100 64.5385 4014.00 3986.62 63.36
2101 64.5645 3993.00 3974.62 63.19
2102 64.5905 4026.00 3964.36 63.45
2103 64.6165 3909.00 3955.52 62.52
2104 64.6425 3923.00 3947.84 62.63
2105 64.6685 3937.00 3941.12 62.75
2106 64.6945 3846.00 3935.21 62.02
2107 64.7205 3880.00 3929.97 62.29
2108 64.7465 3918.00 3925.32 62.59
2109 64.7725 4025.00 3921.15 63.44
2110 64.7985 3890.00 3917.41 62.37
2111 64.8245 4027.00 3914.03 63.46
2112 64.8505 3984.00 3910.98 63.12
2113 64.8765 4039.00 3908.02 63.55
2114 64.9025 4051.00 3905.49 63.65
2115 64.9285 3988.00 3903.18 63.15
2116 64.9545 4060.00 3901.06 63.72
2117 64.9805 3955.00 3899.12 62.89
2118 65.0065 4014.00 3897.33 63.36
2119 65.0325 4004.00 3895.69 63.28
2120 65.0585 3862.00 3894.17 62.15
2121 65.0845 3911.00 3892.77 62.54
2122 65.1105 3976.00 3891.47 63.06
2123 65.1365 4016.00 3890.28 63.37
2124 65.1625 3944.00 3889.18 62.80
2125 65.1885 3817.00 3888.16 61.78
2126 65.2145 3953.00 3887.23 62.87
2127 65.2405 3899.00 3886.38 62.44
2128 65.2665 3926.00 3885.59 62.66
2129 65.2925 3950.00 3884.88 62.85
2130 65.3185 3956.00 3882.59 62.90
2131 65.3445 3993.00 3882.05 63.19
2132 65.3705 3955.00 3881.57 62.89
2133 65.3965 3993.00 3881.15 63.19
2134 65.4225 4009.00 3880.80 63.32
2135 65.4485 3856.00 3880.52 62.10
2136 65.4745 3894.00 3880.31 62.40
2137 65.5005 3897.00 3880.16 62.43
2138 65.5265 3965.00 3880.09 62.97
2139 65.5525 3958.00 3880.10 62.91
2140 65.5785 4011.00 3880.18 63.33
2141 65.6045 3952.00 3881.12 62.86
2142 65.6305 3968.00 3881.39 62.99
2143 65.6565 3907.00 3881.77 62.51
2144 65.6825 3934.00 3882.25 62.72
2145 65.7085 3917.00 3882.85 62.59
2146 65.7345 3910.00 3883.58 62.53
2147 65.7605 3890.00 3884.46 62.37
2148 65.7865 3889.00 3885.51 62.36
2149 65.8125 3975.00 3886.75 63.05
2150 65.8385 4018.00 3888.23 63.39
2151 65.8645 3902.00 3889.92 62.47
2152 65.8905 3871.00 3891.91 62.22
2153 65.9165 3894.00 3894.23 62.40
2154 65.9425 3838.00 3896.95 61.95
2155 65.9685 3914.00 3900.15 62.56
2156 65.9945 3963.00 3903.92 62.95
2157 66.0205 3974.00 3908.40 63.04
2158 66.0465 4001.00 3913.78 63.25
2159 66.0725 4048.00 3920.28 63.62
2160 66.0985 4069.00 3928.23 63.79
2161 66.1245 3958.00 3938.05 62.91
2162 66.1505 3938.00 3950.30 62.75
2163 66.1765 4019.00 3965.69 63.40
2164 66.2025 4030.00 3985.02 63.48
2165 66.2285 3988.00 4009.20 63.15
2166 66.2545 4028.00 4038.89 63.47
2167 66.2805 4100.00 4073.91 64.03
2168 66.3065 4218.00 4112.42 64.95
2169 66.3325 4266.00 4150.91 65.31
2170 66.3585 4187.00 4186.90 64.71
2171 66.3845 4206.00 4222.81 64.85
2172 66.4105 4201.00 4265.64 64.82
2173 66.4365 4222.00 4322.31 64.98
2174 66.4625 4393.00 4394.67 66.28
2175 66.4885 4571.00 4475.55 67.61
2176 66.5145 4791.00 4545.58 69.22
2177 66.5405 4751.00 4577.55 68.93
2178 66.5665 4429.00 4554.19 66.55
2179 66.5925 4305.00 4483.86 65.61
2180 66.6185 4215.00 4392.27 64.92
2181 66.6445 4128.00 4302.45 64.25
2182 66.6705 4171.00 4225.42 64.58
2183 66.6965 4324.00 4165.35 65.76
2184 66.7225 4337.00 4120.49 65.86
2185 66.7485 4132.00 4088.45 64.28
2186 66.7745 4020.00 4066.75 63.40
2187 66.8005 3989.00 4053.34 63.16
2188 66.8265 3970.00 4046.93 63.01
2189 66.8525 3980.00 4047.07 63.09
2190 66.8785 3932.00 4054.04 62.71
2191 66.9045 4146.00 4068.70 64.39
2192 66.9305 4011.00 4092.44 63.33
2193 66.9565 4008.00 4127.23 63.31
2194 66.9825 4069.00 4175.51 63.79
2195 67.0085 4111.00 4239.77 64.12
2196 67.0345 4210.00 4321.60 64.88
2197 67.0605 4289.00 4418.89 65.49
2198 67.0865 4305.00 4521.26 65.61
2199 67.1125 4378.00 4605.96 66.17
2200 67.1385 4412.00 4643.18 66.42
2201 67.1645 4344.00 4615.85 65.91
2202 67.1905 4268.00 4535.56 65.33
2203 67.2165 4180.00 4431.73 64.65
2204 67.2425 4081.00 4329.55 63.88
2205 67.2685 4103.00 4241.43 64.05
2206 67.2945 4223.00 4170.58 64.98
2207 67.3205 4238.00 4113.85 65.10
2208 67.3465 4253.00 4072.37 65.21
2209 67.3725 4011.00 4041.52 63.33
2210 67.3985 4012.00 4018.98 63.34
2211 67.4245 3958.00 4002.94 62.91
2212 67.4505 3822.00 3992.04 61.82
2213 67.4765 3967.00 3985.40 62.98
2214 67.5025 3973.00 3982.47 63.03
2215 67.5285 3916.00 3983.05 62.58
2216 67.5545 4017.00 3987.18 63.38
2217 67.5805 3942.00 3995.25 62.79
2218 67.6065 3933.00 4008.96 62.71
2219 67.6325 3852.00 4027.37 62.06
2220 67.6585 4005.00 4053.02 63.29
2221 67.6845 4031.00 4088.00 63.49
2222 67.7105 3955.00 4134.85 62.89
2223 67.7365 4095.00 4196.44 63.99
2224 67.7625 4194.00 4275.30 64.76
2225 67.7885 4394.00 4372.03 66.29
2226 67.8145 4618.00 4481.56 67.96
2227 67.8405 4810.00 4588.12 69.35
2228 67.8665 5188.00 4663.30 72.03
2229 67.8925 4912.00 4677.98 70.09
2230 67.9185 4518.00 4625.93 67.22
2231 67.9445 4207.00 4526.53 64.86
2232 67.9705 4221.00 4412.38 64.97
2233 67.9965 4359.00 4305.48 66.02
2234 68.0225 4380.00 4215.13 66.18
2235 68.0485 4533.00 4142.57 67.33
2236 68.0745 4467.00 4085.79 66.84
2237 68.1005 4320.00 4041.84 65.73
2238 68.1265 4136.00 4007.92 64.31
2239 68.1525 3984.00 3981.63 63.12
2240 68.1785 3979.00 3961.10 63.08
2241 68.2045 3951.00 3944.87 62.86
2242 68.2305 3901.00 3931.90 62.46
2243 68.2565 3874.00 3921.41 62.24
2244 68.2825 3913.00 3912.88 62.55
2245 68.3085 3965.00 3905.95 62.97
2246 68.3345 3926.00 3900.23 62.66
2247 68.3605 3895.00 3895.57 62.41
2248 68.3865 3899.00 3891.82 62.44
2249 68.4125 3873.00 3888.87 62.23
2250 68.4385 3984.00 3886.63 63.12
2251 68.4645 3955.00 3885.06 62.89
2252 68.4905 3881.00 3884.12 62.30
2253 68.5165 3914.00 3883.80 62.56
2254 68.5425 3969.00 3884.11 63.00
2255 68.5685 3976.00 3885.09 63.06
2256 68.5945 3927.00 3887.46 62.67
2257 68.6205 3959.00 3889.98 62.92
2258 68.6465 3983.00 3893.42 63.11
2259 68.6725 3929.00 3897.95 62.68
2260 68.6985 3925.00 3903.81 62.65
2261 68.7245 3993.00 3911.44 63.19
2262 68.7505 4000.00 3921.08 63.25
2263 68.7765 3980.00 3933.46 63.09
2264 68.8025 3982.00 3949.47 63.10
2265 68.8285 3995.00 3970.23 63.21
2266 68.8545 4073.00 3997.28 63.82
2267 68.8805 4135.00 4032.44 64.30
2268 68.9065 4168.00 4077.82 64.56
2269 68.9325 4137.00 4135.40 64.32
2270 68.9585 4193.00 4206.17 64.75
2271 68.9845 4349.00 4287.86 65.95
2272 69.0105 4322.00 4371.51 65.74
2273 69.0365 4303.00 4438.82 65.60
2274 69.0625 4311.00 4467.29 65.66
2275 69.0885 4292.00 4445.01 65.51
2276 69.1145 4320.00 4381.47 65.73
2277 69.1405 4243.00 4299.16 65.14
2278 69.1665 4192.00 4217.49 64.75
2279 69.1925 4191.00 4146.58 64.74
2280 69.2185 4150.00 4089.21 64.42
2281 69.2445 4127.00 4044.81 64.24
2282 69.2705 4180.00 4010.24 64.65
2283 69.2965 4153.00 3982.98 64.44
2284 69.3225 3995.00 3960.49 63.21
2285 69.3485 3998.00 3941.17 63.23
2286 69.3745 4026.00 3924.43 63.45
2287 69.4005 3969.00 3910.15 63.00
2288 69.4265 3840.00 3898.17 61.97
2289 69.4525 3886.00 3888.23 62.34
2290 69.4785 3923.00 3879.98 62.63
2291 69.5045 3901.00 3873.11 62.46
2292 69.5305 3830.00 3867.37 61.89
2293 69.5565 3812.00 3862.54 61.74
2294 69.5825 3925.00 3858.45 62.65
2295 69.6085 3939.00 3854.95 62.76
2296 69.6345 3883.00 3851.95 62.31
2297 69.6605 3928.00 3849.55 62.67
2298 69.6865 3979.00 3847.15 63.08
2299 69.7125 3870.00 3845.19 62.21
2300 69.7385 3841.00 3843.49 61.98
2301 69.7645 3818.00 3842.01 61.79
2302 69.7905 3967.00 3840.73 62.98
2303 69.8165 3849.00 3839.61 62.04
2304 69.8425 3834.00 3838.65 61.92
2305 69.8685 3919.00 3837.83 62.60
2306 69.8945 3860.00 3836.36 62.13
2307 69.9205 3889.00 3835.80 62.36
2308 69.9465 3958.00 3835.36 62.91
2309 69.9725 3885.00 3835.02 62.33
2310 69.9985 3965.00 3834.78 62.97
2311 70.0245 3904.00 3834.65 62.48
2312 70.0505 3921.00 3834.62 62.62
2313 70.0765 3774.00 3834.68 61.43
2314 70.1025 3936.00 3834.85 62.74
2315 70.1285 4007.00 3835.12 63.30
2316 70.1545 3942.00 3835.49 62.79
2317 70.1805 3865.00 3835.98 62.17
2318 70.2065 3873.00 3836.59 62.23
2319 70.2325 4054.00 3837.32 63.67
2320 70.2585 3938.00 3838.19 62.75
2321 70.2845 3947.00 3839.26 62.83
2322 70.3105 3966.00 3840.44 62.98
2323 70.3365 3959.00 3841.81 62.92
2324 70.3625 3967.00 3843.38 62.98
2325 70.3885 4020.00 3845.18 63.40
2326 70.4145 3890.00 3847.25 62.37
2327 70.4405 4019.00 3849.63 63.40
2328 70.4665 3847.00 3852.38 62.02
2329 70.4925 3883.00 3855.56 62.31
2330 70.5185 3850.00 3858.38 62.05
2331 70.5445 3958.00 3862.75 62.91
2332 70.5705 3930.00 3867.93 62.69
2333 70.5965 3906.00 3874.12 62.50
2334 70.6225 3832.00 3881.55 61.90
2335 70.6485 3923.00 3890.51 62.63
2336 70.6745 3964.00 3901.31 62.96
2337 70.7005 4001.00 3914.22 63.25
2338 70.7265 3980.00 3929.28 63.09
2339 70.7525 3979.00 3946.05 63.08
2340 70.7785 4026.00 3963.21 63.45
2341 70.8045 4121.00 3978.66 64.19
2342 70.8305 4145.00 3990.61 64.38
2343 70.8565 4042.00 3999.25 63.58
2344 70.8825 4061.00 4007.04 63.73
2345 70.9085 4010.00 4017.24 63.32
2346 70.9345 4013.00 4032.66 63.35
2347 70.9605 4097.00 4055.46 64.01
2348 70.9865 4083.00 4087.58 63.90
2349 71.0125 4089.00 4131.13 63.95
2350 71.0385 4148.00 4188.44 64.40
2351 71.0645 4185.00 4261.81 64.69
2352 71.0905 4255.00 4352.88 65.23
2353 71.1165 4465.00 4460.29 66.82
2354 71.1425 4773.00 4576.23 69.09
2355 71.1685 4894.00 4682.63 69.96
2356 71.1945 4939.00 4753.31 70.28
2357 71.2205 4702.00 4766.71 68.57
2358 71.2465 4455.00 4724.57 66.75
2359 71.2725 4283.00 4650.42 65.44
2360 71.2985 4282.00 4572.49 65.44
2361 71.3245 4439.00 4509.47 66.63
2362 71.3505 4543.00 4473.11 67.40
2363 71.3765 4633.00 4466.85 68.07
2364 71.4025 4761.00 4490.34 69.00
2365 71.4285 4800.00 4543.35 69.28
2366 71.4545 4823.00 4621.76 69.45
2367 71.4805 4842.00 4714.39 69.58
2368 71.5065 4886.00 4799.23 69.90
2369 71.5325 4950.00 4845.69 70.36
2370 71.5585 4883.00 4829.75 69.88
2371 71.5845 4651.00 4751.99 68.20
2372 71.6105 4435.00 4636.49 66.60
2373 71.6365 4334.00 4511.82 65.83
2374 71.6625 4315.00 4396.98 65.69
2375 71.6885 4376.00 4299.92 66.15
2376 71.7145 4423.00 4221.73 66.51
2377 71.7405 4376.00 4160.57 66.15
2378 71.7665 4258.00 4113.85 65.25
2379 71.7925 4151.00 4079.01 64.43
2380 71.8185 4094.00 4053.92 63.98
2381 71.8445 4096.00 4036.90 64.00
2382 71.8705 4029.00 4026.63 63.47
2383 71.8965 3983.00 4022.02 63.11
2384 71.9225 3950.00 4021.88 62.85
2385 71.9485 3977.00 4024.79 63.06
2386 71.9745 4042.00 4029.40 63.58
2387 72.0005 3959.00 4035.33 62.92
2388 72.0265 3948.00 4043.78 62.83
2389 72.0525 3971.00 4057.15 63.02
2390 72.0785 4015.00 4078.04 63.36
2391 72.1045 4019.00 4108.69 63.40
2392 72.1305 4095.00 4150.84 63.99
2393 72.1565 4119.00 4205.13 64.18
2394 72.1825 4145.00 4269.89 64.38
2395 72.2085 4352.00 4338.68 65.97
2396 72.2345 4484.00 4398.46 66.96
2397 72.2605 4504.00 4432.23 67.11
2398 72.2865 4355.00 4428.69 65.99
2399 72.3125 4232.00 4391.18 65.05
2400 72.3385 4124.00 4334.44 64.22
2401 72.3645 4102.00 4273.18 64.05
2402 72.3905 4114.00 4215.02 64.14
2403 72.4165 4099.00 4161.46 64.02
2404 72.4425 4189.00 4112.13 64.72
2405 72.4685 4339.00 4067.51 65.87
2406 72.4945 4164.00 4028.74 64.53
2407 72.5205 3987.00 3996.43 63.14
2408 72.5465 3941.00 3970.46 62.78
2409 72.5725 3858.00 3950.17 62.11
2410 72.5985 3982.00 3934.69 63.10
2411 72.6245 3922.00 3923.28 62.63
2412 72.6505 3870.00 3915.40 62.21
2413 72.6765 4005.00 3910.69 63.29
2414 72.7025 3912.00 3909.54 62.55
2415 72.7285 3827.00 3910.90 61.86
2416 72.7545 3886.00 3915.55 62.34
2417 72.7805 3900.00 3923.91 62.45
2418 72.8065 3920.00 3936.53 62.61
2419 72.8325 4023.00 3954.03 63.43
2420 72.8585 4056.00 3976.94 63.69
2421 72.8845 4026.00 4005.10 63.45
2422 72.9105 4199.00 4036.83 64.80
2423 72.9365 4119.00 4067.78 64.18
2424 72.9625 4243.00 4090.55 65.14
2425 72.9885 4197.00 4097.39 64.78
2426 73.0145 4094.00 4085.42 63.98
2427 73.0405 4137.00 4058.96 64.32
2428 73.0665 4110.00 4026.15 64.11
2429 73.0925 4003.00 3993.94 63.27
2430 73.1185 4014.00 3966.18 63.36
2431 73.1445 4109.00 3944.22 64.10
2432 73.1705 4108.00 3928.18 64.09
2433 73.1965 3996.00 3917.74 63.21
2434 73.2225 4043.00 3912.50 63.58
2435 73.2485 3976.00 3912.17 63.06
2436 73.2745 3955.00 3916.55 62.89
2437 73.3005 3908.00 3925.32 62.51
2438 73.3265 3986.00 3937.72 63.13
2439 73.3525 3923.00 3951.87 62.63
2440 73.3785 3987.00 3964.22 63.14
2441 73.4045 3997.00 3970.12 63.22
2442 73.4305 4010.00 3966.09 63.32
2443 73.4565 4056.00 3952.39 63.69
2444 73.4825 4076.00 3932.74 63.84
2445 73.5085 3992.00 3911.52 63.18
2446 73.5345 3899.00 3891.71 62.44
2447 73.5605 3891.00 3874.60 62.38
2448 73.5865 4040.00 3860.44 63.56
2449 73.6125 3941.00 3849.29 62.78
2450 73.6385 3854.00 3840.12 62.08
2451 73.6645 3838.00 3832.83 61.95
2452 73.6905 3786.00 3827.04 61.53
2453 73.7165 3863.00 3822.47 62.15
2454 73.7425 3734.00 3818.88 61.11
2455 73.7685 3748.00 3816.12 61.22
2456 73.7945 3789.00 3814.09 61.55
2457 73.8205 3789.00 3812.71 61.55
2458 73.8465 3814.00 3811.98 61.76
2459 73.8725 3780.00 3811.91 61.48
2460 73.8985 3827.00 3812.55 61.86
2461 73.9245 3897.00 3813.96 62.43
2462 73.9505 3879.00 3816.20 62.28
2463 73.9765 3859.00 3819.25 62.12
2464 74.0025 3812.00 3822.92 61.74
2465 74.0285 3868.00 3826.69 62.19
2466 74.0545 3891.00 3829.66 62.38
2467 74.0805 3779.00 3830.73 61.47
2468 74.1065 3779.00 3829.32 61.47
2469 74.1325 3826.00 3825.76 61.85
2470 74.1585 3762.00 3821.06 61.34
2471 74.1845 3777.00 3816.23 61.46
2472 74.2105 3842.00 3811.87 61.98
2473 74.2365 3869.00 3808.25 62.20
2474 74.2625 3875.00 3805.38 62.25
2475 74.2885 3824.00 3803.20 61.84
2476 74.3145 3813.00 3801.62 61.75
2477 74.3405 3826.00 3800.55 61.85
2478 74.3665 3846.00 3799.92 62.02
2479 74.3925 3816.00 3799.67 61.77
2480 74.4185 3797.00 3799.75 61.62
2481 74.4445 3884.00 3800.07 62.32
2482 74.4705 3911.00 3800.77 62.54
2483 74.4965 3843.00 3801.78 61.99
2484 74.5225 3867.00 3803.10 62.19
2485 74.5485 3805.00 3804.76 61.68
2486 74.5745 3746.00 3806.79 61.20
2487 74.6005 3818.00 3809.23 61.79
2488 74.6265 3829.00 3812.15 61.88
2489 74.6525 3864.00 3815.63 62.16
2490 74.6785 3818.00 3819.77 61.79
2491 74.7045 3903.00 3824.70 62.47
2492 74.7305 3982.00 3830.59 63.10
2493 74.7565 3937.00 3837.67 62.75
2494 74.7825 3810.00 3846.25 61.73
2495 74.8085 3803.00 3856.69 61.67
2496 74.8345 3790.00 3869.49 61.56
2497 74.8605 3807.00 3884.27 61.70
2498 74.8865 3885.00 3903.77 62.33
2499 74.9125 3961.00 3927.83 62.94
2500 74.9385 3950.00 3957.34 62.85
2501 74.9645 3878.00 3993.03 62.27
2502 74.9905 3908.00 4034.90 62.51
2503 75.0165 3956.00 4081.48 62.90
2504 75.0425 4050.00 4129.11 63.64
2505 75.0685 4082.00 4172.62 63.89
2506 75.0945 4082.00 4208.31 63.89
2507 75.1205 4054.00 4237.37 63.67
2508 75.1465 4102.00 4265.49 64.05
2509 75.1725 4025.00 4298.34 63.44
2510 75.1985 4351.00 4336.63 65.96
2511 75.2245 4558.00 4372.43 67.51
2512 75.2505 4531.00 4394.58 67.31
2513 75.2765 4492.00 4388.51 67.02
2514 75.3025 4391.00 4349.95 66.26
2515 75.3285 4154.00 4287.05 64.45
2516 75.3545 4038.00 4213.96 63.55
2517 75.3805 4128.00 4142.41 64.25
2518 75.4065 3981.00 4078.87 63.10
2519 75.4325 4023.00 4025.38 63.43
2520 75.4585 4147.00 3981.64 64.40
2521 75.4845 4164.00 3946.40 64.53
2522 75.5105 4113.00 3918.19 64.13
2523 75.5365 3868.00 3895.64 62.19
2524 75.5625 3976.00 3877.58 63.06
2525 75.5885 3865.00 3863.06 62.17
2526 75.6145 3842.00 3851.32 61.98
2527 75.6405 3852.00 3841.78 62.06
2528 75.6665 3812.00 3833.95 61.74
2529 75.6925 3725.00 3827.61 61.03
2530 75.7185 3875.00 3822.45 62.25
2531 75.7445 3757.00 3818.29 61.29
2532 75.7705 3716.00 3814.99 60.96
2533 75.7965 3748.00 3812.46 61.22
2534 75.8225 3750.00 3810.60 61.24
2535 75.8485 3821.00 3809.39 61.81
2536 75.8745 3673.00 3808.78 60.61
2537 75.9005 3709.00 3808.76 60.90
2538 75.9265 3779.00 3809.34 61.47
2539 75.9525 3764.00 3810.53 61.35
2540 75.9785 3688.00 3811.70 60.73
2541 76.0045 3736.00 3814.24 61.12
2542 76.0305 3744.00 3817.54 61.19
2543 76.0565 3842.00 3821.71 61.98
2544 76.0825 3776.00 3826.87 61.45
2545 76.1085 3722.00 3833.19 61.01
2546 76.1345 3775.00 3840.78 61.44
2547 76.1605 3772.00 3850.15 61.42
2548 76.1865 3671.00 3861.56 60.59
2549 76.2125 3838.00 3875.51 61.95
2550 76.2385 3830.00 3892.64 61.89
2551 76.2645 3789.00 3913.80 61.55
2552 76.2905 3780.00 3940.04 61.48
2553 76.3165 3797.00 3972.70 61.62
2554 76.3425 3849.00 4013.36 62.04
2555 76.3685 3908.00 4063.86 62.51
2556 76.3945 3863.00 4126.03 62.15
2557 76.4205 3892.00 4201.20 62.39
2558 76.4465 4010.00 4289.02 63.32
2559 76.4725 4186.00 4385.66 64.70
2560 76.4985 4364.00 4481.70 66.06
2561 76.5245 4544.00 4562.66 67.41
2562 76.5505 4491.00 4614.77 67.01
2563 76.5765 4395.00 4633.76 66.29
2564 76.6025 4364.00 4626.80 66.06
2565 76.6285 4359.00 4604.39 66.02
2566 76.6545 4375.00 4570.72 66.14
2567 76.6805 4340.00 4522.48 65.88
2568 76.7065 4259.00 4456.03 65.26
2569 76.7325 4255.00 4374.28 65.23
2570 76.7585 4231.00 4285.99 65.05
2571 76.7845 4130.00 4201.18 64.27
2572 76.8105 4098.00 4125.55 64.02
2573 76.8365 4085.00 4061.26 63.91
2574 76.8625 4102.00 4008.07 64.05
2575 76.8885 4119.00 3964.64 64.18
2576 76.9145 4018.00 3929.37 63.39
2577 76.9405 3923.00 3900.73 62.63
2578 76.9665 3870.00 3877.43 62.21
2579 76.9925 3814.00 3858.36 61.76
2580 77.0185 3769.00 3842.70 61.39
2581 77.0445 3750.00 3829.76 61.24
2582 77.0705 3776.00 3819.05 61.45
2583 77.0965 3807.00 3810.25 61.70
2584 77.1225 3763.00 3802.94 61.34
2585 77.1485 3666.00 3796.96 60.55
2586 77.1745 3726.00 3792.12 61.04
2587 77.2005 3819.00 3788.10 61.80
2588 77.2265 3744.00 3785.12 61.19
2589 77.2525 3704.00 3782.91 60.86
2590 77.2785 3730.00 3781.45 61.07
2591 77.3045 3721.00 3780.84 61.00
2592 77.3305 3806.00 3781.26 61.69
2593 77.3565 3806.00 3782.94 61.69
2594 77.3825 3740.00 3786.15 61.16
2595 77.4085 3719.00 3791.19 60.98
2596 77.4345 3751.00 3798.47 61.25
2597 77.4605 3790.00 3808.44 61.56
2598 77.4865 3818.00 3821.62 61.79
2599 77.5125 3779.00 3838.50 61.47
2600 77.5385 3872.00 3859.40 62.23
2601 77.5645 3985.00 3884.05 63.13
2602 77.5905 3949.00 3910.98 62.84
2603 77.6165 3922.00 3936.75 62.63
2604 77.6425 3876.00 3955.88 62.26
2605 77.6685 3905.00 3962.56 62.49
2606 77.6945 3965.00 3954.14 62.97
2607 77.7205 3960.00 3932.53 62.93
2608 77.7465 3964.00 3903.55 62.96
2609 77.7725 3825.00 3872.82 61.85
2610 77.7985 3717.00 3844.02 60.97
2611 77.8245 3814.00 3818.81 61.76
2612 77.8505 3839.00 3797.50 61.96
2613 77.8765 3890.00 3779.83 62.37
2614 77.9025 3872.00 3765.26 62.23
2615 77.9285 3772.00 3753.21 61.42
2616 77.9545 3656.00 3743.26 60.46
2617 77.9805 3702.00 3734.96 60.84
2618 78.0065 3807.00 3727.95 61.70
2619 78.0325 3606.00 3721.95 60.05
2620 78.0585 3806.00 3716.76 61.69
2621 78.0845 3733.00 3712.24 61.10
2622 78.1105 3765.00 3708.20 61.36
2623 78.1365 3656.00 3704.57 60.46
2624 78.1625 3671.00 3701.29 60.59
2625 78.1885 3743.00 3698.28 61.18
2626 78.2145 3788.00 3695.51 61.55
2627 78.2405 3774.00 3692.93 61.43
2628 78.2665 3789.00 3690.52 61.55
2629 78.2925 3727.00 3688.24 61.05
2630 78.3185 3699.00 3686.09 60.82
2631 78.3445 3799.00 3684.05 61.64
2632 78.3705 3674.00 3682.09 60.61
2633 78.3965 3608.00 3680.21 60.07
2634 78.4225 3711.00 3678.40 60.92
2635 78.4485 3744.00 3676.65 61.19
2636 78.4745 3707.00 3674.95 60.89
2637 78.5005 3594.00 3673.29 59.95
2638 78.5265 3665.00 3671.68 60.54
2639 78.5525 3684.00 3670.10 60.70
2640 78.5785 3660.00 3668.55 60.50
2641 78.6045 3668.00 3667.03 60.56
2642 78.6305 3618.00 3665.53 60.15
2643 78.6565 3677.00 3664.06 60.64
2644 78.6825 3666.00 3662.60 60.55
2645 78.7085 3623.00 3661.16 60.19
2646 78.7345 3755.00 3659.73 61.28
2647 78.7605 3749.00 3658.32 61.23
2648 78.7865 3694.00 3656.92 60.78
2649 78.8125 3750.00 3655.53 61.24
2650 78.8385 3663.00 3654.15 60.52
2651 78.8645 3703.00 3652.77 60.85
2652 78.8905 3748.00 3651.40 61.22
2653 78.9165 3637.00 3650.04 60.31
2654 78.9425 3580.00 3648.68 59.83
2655 78.9685 3670.00 3647.36 60.58
2656 78.9945 3669.00 3645.73 60.57
2657 79.0205 3650.00 3644.39 60.42
2658 79.0465 3614.00 3643.05 60.12
2659 79.0725 3644.00 3641.70 60.37
2660 79.0985 3775.00 3640.36 61.44
2661 79.1245 3767.00 3639.02 61.38
2662 79.1505 3725.00 3637.68 61.03
2663 79.1765 3746.00 3636.34 61.20
2664 79.2025 3777.00 3634.35 61.46
2665 79.2285 3733.00 3633.11 61.10
2666 79.2545 3635.00 3631.78 60.29
2667 79.2805 3613.00 3630.45 60.11
2668 79.3065 3599.00 3629.12 59.99
2669 79.3325 3646.00 3627.79 60.38
2670 79.3585 3656.00 3626.69 60.46
2671 79.3845 3633.00 3625.37 60.27
2672 79.4105 3627.00 3624.04 60.22
2673 79.4365 3561.00 3622.72 59.67
2674 79.4625 3640.00 3621.40 60.33
2675 79.4885 3726.00 3620.08 61.04
2676 79.5145 3708.00 3618.78 60.89
2677 79.5405 3696.00 3617.49 60.79
2678 79.5665 3644.00 3616.20 60.37
2679 79.5925 3636.00 3614.94 60.30
2680 79.6185 3645.00 3613.69 60.37
2681 79.6445 3682.00 3612.64 60.68
2682 79.6705 3659.00 3611.39 60.49
2683 79.6965 3635.00 3610.09 60.29
2684 79.7225 3675.00 3608.74 60.62
2685 79.7485 3610.00 3607.30 60.08
2686 79.7745 3564.00 3605.80 59.70
2687 79.8005 3606.00 3604.25 60.05
2688 79.8265 3627.00 3602.69 60.22
2689 79.8525 3606.00 3601.14 60.05
2690 79.8785 3676.00 3599.59 60.63
2691 79.9045 3654.00 3598.07 60.45
2692 79.9305 3512.00 3596.56 59.26
loop_
_refln_index_h
_refln_index_k
_refln_index_l
_refln_F_squared_calc
_refln_F_squared_meas
_refln_F_squared_sigma
_refln_observed_status
_refln_d_spacing
1 0 0 839.09 729.31 13.91 o 7.037848
1 0 1 3718.67 3675.64 69.95 o 4.935626
2 -1 0 2001.02 2336.56 44.23 o 4.063303
2 0 0 288.27 318.24 7.68 o 3.518924
2 -1 1 1541.60 1641.98 34.62 o 3.504380
0 0 2 496.50 393.14 14.35 o 3.461807
2 0 1 681.43 761.23 15.19 o 3.137002
1 0 2 57.38 36.27 2.37 o 3.106352
3 -1 0 49.71 34.48 1.81 o 2.660056
2 -1 2 2549.77 2494.97 49.22 o 2.635125
3 -2 1 1055.02 1025.08 21.41 o 2.483097
3 -1 1 1055.02 1025.08 20.03 o 2.483097
2 0 2 1418.84 1400.96 29.26 o 2.467813
3 0 0 1450.60 1237.51 32.21 o 2.345949
3 0 1 43.26 13.46 8.53 < 2.221870
1 0 3 54.98 65.36 15.55 < 2.192972
3 -2 2 1241.66 1243.35 26.84 o 2.109270
3 -1 2 1290.96 1292.72 28.94 o 2.109270
4 -2 0 1037.42 984.09 35.71 o 2.031652
2 -1 3 30.74 22.15 6.60 o 2.006768
4 -1 0 503.62 519.76 12.12 o 1.951948
4 -2 1 464.47 490.63 12.19 o 1.949455
3 0 2 1178.20 1269.78 27.08 o 1.942033
2 0 3 1772.22 1635.10 36.41 o 1.929849
4 -1 1 743.99 825.24 19.68 o 1.878713
4 -3 1 743.99 825.24 19.38 o 1.878713
4 0 0 206.27 199.13 6.03 o 1.759462
4 -2 2 799.75 789.74 17.38 o 1.752190
3 -1 3 1438.61 1422.39 31.47 o 1.743225
3 -2 3 1438.61 1422.39 31.18 o 1.743225
0 0 4 655.92 683.31 24.24 o 1.730903
4 0 1 1289.71 1234.97 33.80 o 1.705261
4 -1 2 101.06 99.95 2.46 o 1.700286
4 -3 2 109.69 108.49 3.04 o 1.700286
1 0 4 148.55 122.24 15.50 o 1.680815
3 0 3 74.42 9.25 17.14 < 1.645209
5 -2 0 73.12 61.13 23.38 < 1.614593
2 -1 4 702.53 709.52 27.94 o 1.592439
5 -2 1 465.18 360.24 13.70 o 1.572403
5 -3 1 465.18 360.24 13.23 o 1.572403
4 0 2 237.01 188.46 7.23 o 1.568501
2 0 4 2.87 2.50 0.17 o 1.553176
5 -1 0 1874.59 1611.54 46.75 o 1.535784
4 -2 3 1.83 1.86 0.20 o 1.524951
5 -4 1 52.26 38.30 3.58 o 1.499341
5 -1 1 52.26 38.30 3.58 o 1.499341
4 -1 3 566.84 480.48 17.73 o 1.490366
4 -3 3 566.83 480.48 17.10 o 1.490366
5 -2 2 230.98 177.47 12.55 o 1.463265
5 -3 2 231.79 178.10 12.67 o 1.463265
3 -2 4 545.85 489.27 17.68 o 1.450799
3 -1 4 577.35 517.50 18.08 o 1.450799
5 0 0 266.76 248.93 13.59 o 1.407570
5 -4 2 375.55 348.26 16.46 o 1.403838
5 -1 2 367.69 340.97 17.29 o 1.403838
4 0 3 26.08 21.51 0.48 o 1.399215
3 0 4 719.40 497.49 28.63 o 1.392819
5 0 1 871.63 846.52 42.77 o 1.379353
1 0 5 622.04 571.72 34.41 o 1.358674
6 -3 0 98.01 87.47 4.07 o 1.354434
6 -2 0 3.73 3.80 0.09 o 1.330028
6 -3 1 68.80 72.96 4.96 o 1.329239
5 -2 3 493.09 489.82 16.95 o 1.322973
5 -3 3 493.09 489.82 16.75 o 1.322973
4 -2 4 988.76 959.15 33.33 o 1.317562
2 -1 5 37.82 33.13 1.88 o 1.310703
6 -2 1 383.68 325.25 18.05 o 1.306147
6 -4 1 383.68 325.25 17.63 o 1.306147
5 0 2 119.57 101.69 5.63 o 1.303907
4 -1 4 157.69 184.47 16.05 o 1.295063
4 -3 4 164.03 191.88 16.24 o 1.295063
2 0 5 215.64 264.88 26.41 o 1.288547
5 -1 3 18.40 14.39 7.47 < 1.278564
5 -4 3 18.40 14.39 7.50 < 1.278564
6 -1 0 320.64 271.30 15.91 o 1.264035
6 -3 2 761.06 651.27 36.56 o 1.261330
6 -1 1 473.19 354.86 16.70 o 1.243481
6 -5 1 473.19 354.86 15.87 o 1.243481
6 -2 2 298.92 225.25 11.07 o 1.241549
6 -4 2 291.20 219.43 10.30 o 1.241549
4 0 4 12.42 11.24 0.75 o 1.233907
3 -2 5 199.32 173.72 20.26 o 1.228267
3 -1 5 199.32 173.72 21.07 o 1.228267
5 0 3 4.71 9.50 5.99 < 1.201701
loop_
_restr_distance_atom_site_label_1
_restr_distance_site_symmetry_1
_restr_distance_atom_site_label_2
_restr_distance_site_symmetry_2
_restr_distance_target
_restr_distance_target_weight_param
O1 . C1 . 1.236 0.001
