#------------------------------------------------------------------------------
#$Date: 2021-02-27 12:48:36 +0200 (Sat, 27 Feb 2021) $
#$Revision: 262306 $
#$URL: file:///home/coder/svn-repositories/cod/cif/1/56/07/1560711.cif $
#------------------------------------------------------------------------------
#
# This file is available in the Crystallography Open Database (COD),
# http://www.crystallography.net/
#
# All data on this site have been placed in the public domain by the
# contributors.
#
data_1560711
loop_
_publ_author_name
'Mesbah, Adel'
'Prakash, Jai'
'Beard, Jessica C.'
'Malliakas, Christos D.'
'Leb\`egue, S\'ebastien'
'Ibers, James A.'
_publ_section_title
;
 Syntheses, modulated crystal structures of Ba6&#x2212;2xU2+xAg4Se12
 (x&#x202F;=&#x202F;0 and 0.5), and crystal structure and spectroscopy of
 Sr4Th2.78Cu4S12
;
_journal_name_full               'Journal of Solid State Chemistry'
_journal_page_first              30
_journal_page_last               35
_journal_paper_doi               10.1016/j.jssc.2018.08.025
_journal_volume                  268
_journal_year                    2018
_chemical_formula_sum            'Ag4 Ba5 Se12 U2.5'
_chemical_formula_weight         2660.8
_space_group_IT_number           5
_space_group_name_Hall           'C 2y'
_space_group_name_H-M_alt        'C 1 2 1'
_space_group_ssg_name            C2(\a0\g)0
_symmetry_cell_setting           monoclinic
_cell_angle_alpha                90
_cell_angle_beta                 90
_cell_angle_gamma                90
_cell_formula_units_Z            1
_cell_length_a                   4.3496(2)
_cell_length_b                   13.9735(7)
_cell_length_c                   10.5620(5)
_cell_measurement_temperature    100
_cell_modulation_dimension       1
_cell_volume                     641.95(5)
_computing_cell_refinement       'SAINT V8.34A (Bruker, 2013)'
_computing_data_collection       'APEX2 V2014.11-0 (Bruker, 2014)'
_computing_data_reduction        'Bruker SAINT'
_diffrn_ambient_temperature      100
_diffrn_detector_area_resol_mean 8
_diffrn_measured_fraction_theta_full 1
_diffrn_measured_fraction_theta_max 1
_diffrn_measurement_device_type  'Bruker Kappa APEX CCD area detector'
_diffrn_measurement_method       '\w and \f scans'
_diffrn_radiation_monochromator  Triumph
_diffrn_radiation_probe          x-ray
_diffrn_radiation_type           MoK\a
_diffrn_radiation_wavelength     0.71073
_diffrn_reflns_av_R_equivalents  0.0457
_diffrn_reflns_av_unetI/netI     0.0151
_diffrn_reflns_limit_h_max       2
_diffrn_reflns_limit_h_min       -5
_diffrn_reflns_limit_index_m_1_max 1
_diffrn_reflns_limit_index_m_1_min -1
_diffrn_reflns_limit_k_max       15
_diffrn_reflns_limit_k_min       -15
_diffrn_reflns_limit_l_max       11
_diffrn_reflns_limit_l_min       -11
_diffrn_reflns_number            12456
_diffrn_reflns_theta_full        23.24
_diffrn_reflns_theta_max         23.24
_diffrn_reflns_theta_min         1.42
_diffrn_source                   'sealed tube'
_diffrn_standards_interval_count .
_diffrn_standards_interval_time  .
_diffrn_standards_number         .
_exptl_absorpt_coefficient_mu    43.958
_exptl_absorpt_correction_T_max  0.4932
_exptl_absorpt_correction_T_min  0.2415
_exptl_absorpt_correction_type   gaussian
_exptl_absorpt_process_details   Jana2006
_exptl_crystal_colour            Black
_exptl_crystal_density_diffrn    6.8827
_exptl_crystal_description       Plate
_exptl_crystal_F_000             1134
_exptl_crystal_size_max          0.053
_exptl_crystal_size_mid          0.033
_exptl_crystal_size_min          0.016
_refine_diff_density_max         5.73
_refine_diff_density_min         -4.09
_refine_ls_abs_structure_details
'  1302 of Friedel pairs used in the refinement'
_refine_ls_abs_structure_Flack   0.25(5)
_refine_ls_extinction_coef       1100(200)
_refine_ls_extinction_method
'B-C type 1 Gaussian isotropic (Becker & Coppens, 1974)'
_refine_ls_goodness_of_fit_gt    4.32
_refine_ls_goodness_of_fit_ref   3.88
_refine_ls_number_constraints    31
_refine_ls_number_parameters     159
_refine_ls_number_reflns         2744
_refine_ls_number_restraints     0
_refine_ls_R_factor_all          0.0848
_refine_ls_R_factor_gt           0.0612
_refine_ls_shift/su_max          0.0445
_refine_ls_shift/su_mean         0.0048
_refine_ls_structure_factor_coef Fsqd
_refine_ls_weighting_details     w=1/(\s^2^(I)+0.0004I^2^)
_refine_ls_weighting_scheme      sigma
_refine_ls_wR_factor_gt          0.1613
_refine_ls_wR_factor_ref         0.1708
_reflns_number_gt                2015
_reflns_number_total             2744
_reflns_threshold_expression     I>2\s(I)
_cod_data_source_file            Ba5U25Ag4Se12_Final.cif
_cod_data_source_block           I
_cod_depositor_comments
;
The following automatic conversions were performed:

data item '_diffrn_radiation_probe' value 'X-ray' was changed to
'x-ray' in accordance with the built-in table derived from the CIF
Core dictionary named 'cif_core.dic' version 2.4.5 last updated on
2014-11-21.

data item '_exptl_absorpt_correction_type' value 'Gaussian' was
changed to 'gaussian' in accordance with the built-in table derived
from the CIF Core dictionary named 'cif_core.dic' version 2.4.5 last
updated on 2014-11-21.

Automatic conversion script
Id: cif_fix_values 8369 2020-08-20 11:38:08Z andrius 
;
_cod_database_code               1560711
loop_
_space_group_symop_id
_space_group_symop_operation_xyz
1 x,y,z
2 -x,y,-z
3 x+0.5,y+0.5,z
4 -x+0.5,y+0.5,-z
loop_
_space_group_symop_ssg_id
_space_group_symop_ssg_operation_algebraic
1 x1,x2,x3,x4
2 -x1,x2,-x3,-x4
3 x1+1/2,x2+1/2,x3,x4
4 -x1+1/2,x2+1/2,-x3,-x4
loop_
_atom_site_label
_atom_site_type_symbol
_atom_site_fract_x
_atom_site_fract_y
_atom_site_fract_z
_atom_site_adp_type
_atom_site_U_iso_or_equiv
_atom_site_site_symmetry_multiplicity
_atom_site_occupancy
_atom_site_calc_flag
_atom_site_refinement_flags
_atom_site_disorder_assembly
_atom_site_disorder_group
U1 U -0.0042(8) 0.243(2) 0.2499(5) Uani 0.0228(4) 4 0.625 d . . .
Ba1 Ba 0.034(2) 0.244(2) 0.2515(9) Uani 0.0228(4) 4 0.25 d . . .
Ba2 Ba 0.5 -0.006(2) 0.5 Uani 0.0228(4) 2 1 d . . .
Ba3 Ba 0 -0.009(2) 0 Uani 0.0228(4) 2 1 d . . .
Ag1 Ag 0.5 0.273(2) 0.5 Uani 0.0304(7) 2 1 d . . .
Ag2 Ag 0.5 0.215(2) 0 Uani 0.0304(7) 2 1 d . . .
Se1 Se 0 0.172(2) 0.5 Uani 0.0157(7) 2 1 d . . .
Se2 Se 0 0.323(2) 0 Uani 0.0157(7) 2 1 d . . .
Se3 Se 0.4979(19) 0.382(2) 0.3010(5) Uani 0.0299(7) 4 1 d . . .
Se4 Se 0.4892(16) 0.104(2) 0.1958(5) Uani 0.0299(7) 4 1 d . . .
loop_
_atom_site_aniso_label
_atom_site_aniso_type_symbol
_atom_site_aniso_U_11
_atom_site_aniso_U_22
_atom_site_aniso_U_33
_atom_site_aniso_U_12
_atom_site_aniso_U_13
_atom_site_aniso_U_23
U1 U 0.0094(7) 0.0184(7) 0.0408(9) -0.0001(18) 0.0111(19) -0.0004(5)
Ba1 Ba 0.0094(7) 0.0184(7) 0.0408(9) -0.0001(18) 0.0111(19) -0.0004(5)
Ba2 Ba 0.0094(7) 0.0184(7) 0.0408(9) -0.0001(18) 0.0111(19) -0.0004(5)
Ba3 Ba 0.0094(7) 0.0184(7) 0.0408(9) -0.0001(18) 0.0111(19) -0.0004(5)
Ag1 Ag 0.0290(12) 0.0277(12) 0.0344(12) 0 0.016(3) 0
Ag2 Ag 0.0290(12) 0.0277(12) 0.0344(12) 0 0.016(3) 0
Se1 Se 0.0115(10) 0.0159(15) 0.0197(11) 0 0.007(4) 0
Se2 Se 0.0115(10) 0.0159(15) 0.0197(11) 0 0.007(4) 0
Se3 Se 0.0614(16) 0.0159(9) 0.0125(8) 0.007(3) -0.001(4) -0.0008(6)
Se4 Se 0.0614(16) 0.0159(9) 0.0125(8) 0.007(3) -0.001(4) -0.0008(6)
loop_
_atom_site_displace_Fourier_atom_site_label
_atom_site_displace_Fourier_axis
_atom_site_displace_Fourier_wave_vector_seq_id
_atom_site_displace_Fourier_param_cos
_atom_site_displace_Fourier_param_sin
Ba2 x 1 0 0.0009(15)
Ba2 y 1 -0.0001(7) 0
Ba2 z 1 0 0.0133(9)
Ba3 x 1 0 -0.0025(15)
Ba3 y 1 -0.0001(7) 0
Ba3 z 1 0 -0.0136(9)
Ag1 x 1 0 0.013(2)
Ag1 y 1 0.0028(11) 0
Ag1 z 1 0 0.0052(11)
Ag2 x 1 0 -0.012(2)
Ag2 y 1 0.0028(11) 0
Ag2 z 1 0 -0.0053(11)
Se1 x 1 0 -0.002(3)
Se1 y 1 -0.0003(11) 0
Se1 z 1 0 0.0015(12)
Se2 x 1 0 0.000(3)
Se2 y 1 0.0002(11) 0
Se2 z 1 0 0.0000(13)
Se3 x 1 0.050(3) 0.002(2)
Se3 y 1 0.0007(8) -0.0025(13)
Se3 z 1 -0.0002(12) -0.0023(7)
Se4 x 1 0.032(3) 0.004(2)
Se4 y 1 0.0000(8) 0.0030(12)
Se4 z 1 0.0005(12) -0.0014(8)
loop_
_atom_site_Fourier_wave_vector_seq_id
_jana_atom_site_fourier_wave_vector_q1_coeff
1 1
loop_
_atom_site_occ_Fourier_atom_site_label
_atom_site_occ_Fourier_wave_vector_seq_id
_atom_site_occ_Fourier_param_cos
_atom_site_occ_Fourier_param_sin
U1 1 -0.099(11) 0.257(4)
Ba1 1 0.117(11) -0.250(4)
loop_
_atom_site_U_Fourier_atom_site_label
_atom_site_U_Fourier_tens_elem
_atom_site_U_Fourier_wave_vector_seq_id
_atom_site_U_Fourier_param_cos
_atom_site_U_Fourier_param_sin
U1 U11 1 -0.017(2) -0.0036(13)
U1 U22 1 0.012(4) -0.017(2)
U1 U33 1 0.028(3) -0.033(2)
U1 U12 1 0.000(5) 0.000(4)
U1 U13 1 -0.001(3) -0.011(3)
U1 U23 1 0.001(6) 0.000(2)
Ba1 U11 1 0.079(11) -0.211(10)
Ba1 U22 1 -0.061(8) 0.013(11)
Ba1 U33 1 -0.097(6) 0.039(8)
Ba1 U12 1 -0.008(13) 0.01(2)
Ba1 U13 1 0.001(9) -0.003(15)
Ba1 U23 1 -0.004(7) -0.002(8)
Ba2 U11 1 0.001(3) 0
Ba2 U22 1 -0.002(5) 0
Ba2 U33 1 0.006(5) 0
Ba2 U12 1 0 -0.001(4)
Ba2 U13 1 0.004(4) 0
Ba2 U23 1 0 -0.014(5)
Ba3 U11 1 -0.002(3) 0
Ba3 U22 1 -0.001(5) 0
Ba3 U33 1 -0.005(5) 0
Ba3 U12 1 0 -0.001(5)
Ba3 U13 1 -0.006(4) 0
Ba3 U23 1 0 -0.017(5)
Ag1 U11 1 0.010(5) 0
Ag1 U22 1 0.002(11) 0
Ag1 U33 1 0.012(6) 0
Ag1 U12 1 0 -0.026(6)
Ag1 U13 1 0.005(5) 0
Ag1 U23 1 0 -0.002(6)
Ag2 U11 1 -0.007(5) 0
Ag2 U22 1 0.007(10) 0
Ag2 U33 1 -0.019(6) 0
Ag2 U12 1 0 -0.024(6)
Ag2 U13 1 -0.006(5) 0
Ag2 U23 1 0 -0.001(6)
Se1 U11 1 -0.003(6) 0
Se1 U22 1 -0.002(8) 0
Se1 U33 1 0.004(7) 0
Se1 U12 1 0 -0.002(6)
Se1 U13 1 0.003(4) 0
Se1 U23 1 0 0.003(5)
Se2 U11 1 0.000(6) 0
Se2 U22 1 0.004(9) 0
Se2 U33 1 -0.002(8) 0
Se2 U12 1 0 -0.002(6)
Se2 U13 1 0.002(5) 0
Se2 U23 1 0 0.006(5)
Se3 U11 1 0.012(7) -0.066(6)
Se3 U22 1 0.002(6) -0.005(7)
Se3 U33 1 0.000(6) 0.006(4)
Se3 U12 1 0.020(6) -0.005(5)
Se3 U13 1 -0.010(4) -0.004(6)
Se3 U23 1 -0.002(5) -0.002(5)
Se4 U11 1 0.027(6) -0.037(6)
Se4 U22 1 -0.003(6) 0.003(7)
Se4 U33 1 0.000(6) -0.002(4)
Se4 U12 1 -0.010(6) 0.000(6)
Se4 U13 1 -0.008(4) -0.004(6)
Se4 U23 1 0.001(5) 0.002(5)
loop_
_atom_type_symbol
_atom_type_scat_dispersion_real
_atom_type_scat_dispersion_imag
_atom_type_scat_source
Ag -0.8971 1.1015 'International Tables Vol C tables 4.2.6.8 and 6.1.1.1'
Ba -0.3244 2.2819 'International Tables Vol C tables 4.2.6.8 and 6.1.1.1'
Se -0.0929 2.2259 'International Tables Vol C tables 4.2.6.8 and 6.1.1.1'
U -9.6767 9.6646 'International Tables Vol C tables 4.2.6.8 and 6.1.1.1'
loop_
_cell_wave_vector_seq_id
_cell_wave_vector_x
_cell_wave_vector_y
_cell_wave_vector_z
1 0.3032(2) 0.000000 0.000000
loop_
_geom_angle_atom_site_label_1
_geom_angle_atom_site_label_2
_geom_angle_atom_site_label_3
_geom_angle_site_symmetry_1
_geom_angle_site_symmetry_2
_geom_angle_site_symmetry_3
_geom_angle_av
_geom_angle_min
_geom_angle_max
Ag1 U1 Ag1 1_4555 . . 78.3(3) 76.9(3) 79.6(3)
Ag1 U1 Ag2 1_4555 . 1_4555 102.1(2) 101.0(3) 103.4(3)
Ag1 U1 Ag2 1_4555 . . 178.4(6) 177.3(3) 179.5(11)
Ag1 U1 Se1 1_4555 . . 47.6(5) 46.4(5) 48.9(5)
Ag1 U1 Se2 1_4555 . . 131.7(8) 130.6(8) 132.9(8)
Ag1 U1 Se3 1_4555 . 1_4555 47.3(6) 46.2(5) 48.3(5)
Ag1 U1 Se3 1_4555 . . 104.1(7) 101.1(7) 107.1(7)
Ag1 U1 Se4 1_4555 . 1_4555 76.3(5) 74.3(5) 78.3(5)
Ag1 U1 Se4 1_4555 . . 133.2(8) 131.4(9) 134.9(8)
Ag1 U1 Ag2 . . 1_4555 179.4(7) 179.0(9) 179.7(5)
Ag1 U1 Ag2 . . . 101.2(2) 100.1(3) 102.3(3)
Ag1 U1 Se1 . . . 47.3(5) 47.0(5) 47.7(5)
Ag1 U1 Se2 . . . 130.8(8) 130.4(8) 131.2(8)
Ag1 U1 Se3 . . 1_4555 104.3(7) 102.4(7) 106.1(7)
Ag1 U1 Se3 . . . 47.0(5) 45.9(5) 48.2(6)
Ag1 U1 Se4 . . 1_4555 133.6(8) 132.8(9) 134.3(8)
Ag1 U1 Se4 . . . 76.4(5) 75.4(5) 77.4(5)
Ag2 U1 Ag2 1_4555 . . 78.4(3) 77.1(2) 79.6(2)
Ag2 U1 Se1 1_4555 . . 133.1(8) 132.8(8) 133.5(7)
Ag2 U1 Se2 1_4555 . . 48.7(5) 48.3(5) 49.1(5)
Ag2 U1 Se3 1_4555 . 1_4555 75.9(5) 74.2(5) 77.6(5)
Ag2 U1 Se3 1_4555 . . 132.6(8) 131.5(9) 133.6(8)
Ag2 U1 Se4 1_4555 . 1_4555 46.9(5) 45.7(5) 48.1(6)
Ag2 U1 Se4 1_4555 . . 103.4(7) 102.2(7) 104.6(7)
Ag2 U1 Se1 . . . 132.2(7) 131.0(7) 133.3(7)
Ag2 U1 Se2 . . . 48.4(5) 47.4(5) 49.5(5)
Ag2 U1 Se3 . . 1_4555 132.8(8) 131.2(9) 134.4(8)
Ag2 U1 Se3 . . . 75.3(5) 73.0(5) 77.8(5)
Ag2 U1 Se4 . . 1_4555 104.3(7) 102.1(7) 106.5(7)
Ag2 U1 Se4 . . . 46.8(6) 46.7(6) 47.0(5)
Se1 U1 Se2 . . . 177.6(13) 177.5(13) 177.6(13)
Se1 U1 Se3 . . 1_4555 93.7(5) 93.5(5) 93.9(6)
Se1 U1 Se3 . . . 93.1(5) 92.8(5) 93.4(5)
Se1 U1 Se4 . . 1_4555 87.4(8) 86.8(8) 88.0(8)
Se1 U1 Se4 . . . 86.9(8) 86.2(7) 87.5(8)
Se2 U1 Se3 . . 1_4555 85.3(7) 84.8(8) 85.7(7)
Se2 U1 Se3 . . . 84.8(7) 84.5(8) 85.0(7)
Se2 U1 Se4 . . 1_4555 94.7(5) 94.1(5) 95.3(6)
Se2 U1 Se4 . . . 94.2(5) 93.7(5) 94.7(5)
Se3 U1 Se3 1_4555 . . 94.4(11) 90.3(11) 98.4(10)
Se3 U1 Se4 1_4555 . 1_4555 85.6(7) 80.8(7) 90.6(7)
Se3 U1 Se4 1_4555 . . 177.3(10) 175.6(10) 179.9(11)
Se3 U1 Se4 . . 1_4555 177.7(10) 176.4(11) 179.7(5)
Se3 U1 Se4 . . . 86.0(7) 81.3(7) 91.0(7)
Se4 U1 Se4 1_4555 . . 94.0(10) 91.5(11) 96.4(10)
Ag1 Ba1 Ag2 . . 1_4555 176.5(5) 176.3(4) 176.7(5)
Ag1 Ba1 Ag2 . . . 105.5(4) 104.5(4) 106.7(4)
Ag1 Ba1 Se1 . . . 48.9(5) 48.4(5) 49.2(5)
Ag1 Ba1 Se2 . . . 135.1(10) 134.7(10) 135.6(10)
Ag1 Ba1 Se3 . . 1_4555 104.5(8) 102.9(8) 106.1(7)
Ag1 Ba1 Se3 . . . 48.8(6) 47.8(6) 50.2(7)
Ag1 Ba1 Se4 . . 1_4555 133.1(9) 132.5(9) 133.6(8)
Ag1 Ba1 Se4 . . . 79.6(6) 78.7(6) 80.9(6)
Ag2 Ba1 Ag2 1_4555 . . 77.9(3) 76.6(3) 79.1(3)
Ag2 Ba1 Se1 1_4555 . . 128.6(8) 128.3(8) 128.9(8)
Ag2 Ba1 Se2 1_4555 . . 47.2(5) 46.8(5) 47.6(5)
Ag2 Ba1 Se3 1_4555 . 1_4555 72.7(5) 71.2(5) 74.3(6)
Ag2 Ba1 Se3 1_4555 . . 132.9(10) 131.5(10) 133.9(9)
Ag2 Ba1 Se4 1_4555 . 1_4555 45.0(5) 43.9(5) 46.2(6)
Ag2 Ba1 Se4 1_4555 . . 103.0(8) 101.5(8) 104.2(8)
Ag2 Ba1 Se1 . . . 136.5(9) 135.4(9) 137.6(10)
Ag2 Ba1 Se2 . . . 49.3(5) 48.3(5) 50.5(5)
Ag2 Ba1 Se3 . . 1_4555 131.8(9) 130.3(9) 133.2(8)
Ag2 Ba1 Se3 . . . 78.0(6) 75.9(6) 80.9(6)
Ag2 Ba1 Se4 . . 1_4555 103.7(7) 101.4(7) 105.6(7)
Ag2 Ba1 Se4 . . . 48.4(6) 48.2(6) 48.5(6)
Se1 Ba1 Se2 . . . 173.9(6) 173.7(7) 174.0(7)
Se1 Ba1 Se3 . . 1_4555 91.4(6) 91.2(6) 91.7(6)
Se1 Ba1 Se3 . . . 96.1(6) 95.8(6) 96.4(6)
Se1 Ba1 Se4 . . 1_4555 85.0(8) 84.5(8) 85.6(8)
Se1 Ba1 Se4 . . . 89.1(9) 88.5(9) 89.8(9)
Se2 Ba1 Se3 . . 1_4555 83.0(8) 82.6(8) 83.3(7)
Se2 Ba1 Se3 . . . 86.9(9) 86.5(9) 87.2(8)
Se2 Ba1 Se4 . . 1_4555 91.6(6) 91.0(6) 92.2(6)
Se2 Ba1 Se4 . . . 96.2(6) 95.7(6) 96.7(6)
Se3 Ba1 Se3 1_4555 . . 95.1(12) 90.5(12) 98.6(11)
Se3 Ba1 Se4 1_4555 . 1_4555 81.2(7) 77.0(7) 86.0(7)
Se3 Ba1 Se4 1_4555 . . 174.7(10) 170.9(11) 178.1(6)
Se3 Ba1 Se4 . . 1_4555 176.1(12) 172.2(12) 179.0(10)
Se3 Ba1 Se4 . . . 89.9(8) 85.5(7) 96.0(8)
Se4 Ba1 Se4 1_4555 . . 93.8(11) 91.0(11) 95.9(11)
Se1 Ba2 Se1 . . 1_6555 82.0(8) 81.9(9) 82.2(9)
Se1 Ba2 Se3 . . 3_4455 85.7(6) 84.8(6) 86.6(6)
Se1 Ba2 Se3 . . 3_5455 139.7(6) 135.2(6) 144.2(7)
Se1 Ba2 Se3 . . 4_5465 85.8(6) 84.5(6) 87.2(6)
Se1 Ba2 Se3 . . 4_6465 139.9(6) 135.0(6) 144.6(7)
Se1 Ba2 Se4 . . . 70.3(6) 68.3(6) 72.4(6)
Se1 Ba2 Se4 . . 2_6565 71.4(6) 68.9(6) 73.9(6)
Se1 Ba2 Se3 1_6555 . 3_4455 139.8(6) 135.0(6) 144.6(7)
Se1 Ba2 Se3 1_6555 . 3_5455 85.8(6) 84.5(6) 87.2(6)
Se1 Ba2 Se3 1_6555 . 4_5465 139.8(6) 135.2(6) 144.2(7)
Se1 Ba2 Se3 1_6555 . 4_6465 85.6(6) 84.8(6) 86.6(6)
Se1 Ba2 Se4 1_6555 . . 71.4(6) 68.9(6) 73.9(6)
Se1 Ba2 Se4 1_6555 . 2_6565 70.4(6) 68.3(6) 72.4(6)
Se3 Ba2 Se3 3_4455 . 3_5455 79.3(6) 71.9(5) 87.0(6)
Se3 Ba2 Se3 3_4455 . 4_5465 76.4(5) 76.1(5) 76.6(5)
Se3 Ba2 Se3 3_4455 . 4_6465 125.3(11) 124.9(11) 126.0(11)
Se3 Ba2 Se4 3_4455 . . 68.5(6) 65.9(6) 71.4(6)
Se3 Ba2 Se4 3_4455 . 2_6565 139.7(3) 135.2(4) 144.2(4)
Se3 Ba2 Se3 3_5455 . 4_5465 125.1(11) 124.3(12) 126.4(11)
Se3 Ba2 Se3 3_5455 . 4_6465 76.4(5) 76.1(5) 76.6(5)
Se3 Ba2 Se4 3_5455 . . 69.5(6) 66.6(6) 72.7(6)
Se3 Ba2 Se4 3_5455 . 2_6565 138.5(3) 134.6(4) 142.3(4)
Se3 Ba2 Se3 4_5465 . 4_6465 79.5(6) 71.9(5) 87.0(6)
Se3 Ba2 Se4 4_5465 . . 138.4(3) 134.6(4) 142.3(4)
Se3 Ba2 Se4 4_5465 . 2_6565 69.5(6) 66.6(6) 72.7(6)
Se3 Ba2 Se4 4_6465 . . 139.7(3) 135.2(4) 144.2(4)
Se3 Ba2 Se4 4_6465 . 2_6565 68.6(6) 65.9(6) 71.4(6)
Se4 Ba2 Se4 . . 2_6565 128.5(11) 128.5(11) 128.7(11)
Se2 Ba3 Se2 3_4455 . 3_5455 85.8(9) 85.8(9) 86.0(9)
Se2 Ba3 Se3 3_4455 . 3_4455 71.6(6) 68.2(6) 74.9(7)
Se2 Ba3 Se3 3_4455 . 4_5455 71.7(6) 68.3(6) 75.2(7)
Se2 Ba3 Se4 3_4455 . 1_4555 84.1(6) 83.6(6) 84.5(6)
Se2 Ba3 Se4 3_4455 . . 140.9(6) 136.4(6) 145.4(6)
Se2 Ba3 Se4 3_4455 . 2_5555 85.1(6) 84.5(6) 85.8(6)
Se2 Ba3 Se4 3_4455 . 2_6555 141.3(6) 136.6(6) 146.0(7)
Se2 Ba3 Se3 3_5455 . 3_4455 71.7(6) 68.3(6) 75.2(7)
Se2 Ba3 Se3 3_5455 . 4_5455 71.6(6) 68.2(6) 74.9(7)
Se2 Ba3 Se4 3_5455 . 1_4555 141.3(6) 136.6(6) 146.0(7)
Se2 Ba3 Se4 3_5455 . . 85.1(6) 84.5(6) 85.8(6)
Se2 Ba3 Se4 3_5455 . 2_5555 140.9(6) 136.4(6) 145.4(6)
Se2 Ba3 Se4 3_5455 . 2_6555 84.1(6) 83.6(6) 84.5(6)
Se3 Ba3 Se3 3_4455 . 4_5455 129.0(11) 128.8(11) 129.4(11)
Se3 Ba3 Se4 3_4455 . 1_4555 69.8(5) 67.3(6) 72.4(5)
Se3 Ba3 Se4 3_4455 . . 69.5(6) 66.9(6) 72.4(6)
Se3 Ba3 Se4 3_4455 . 2_5555 139.1(3) 135.9(3) 142.4(3)
Se3 Ba3 Se4 3_4455 . 2_6555 138.2(3) 133.8(3) 142.8(4)
Se3 Ba3 Se4 4_5455 . 1_4555 138.2(3) 133.8(3) 142.8(4)
Se3 Ba3 Se4 4_5455 . . 139.1(3) 135.9(3) 142.4(3)
Se3 Ba3 Se4 4_5455 . 2_5555 69.5(6) 66.9(6) 72.4(6)
Se3 Ba3 Se4 4_5455 . 2_6555 69.8(5) 67.3(6) 72.4(5)
Se4 Ba3 Se4 1_4555 . . 79.6(6) 74.0(5) 85.2(6)
Se4 Ba3 Se4 1_4555 . 2_5555 75.0(5) 74.5(5) 75.5(5)
Se4 Ba3 Se4 1_4555 . 2_6555 124.5(11) 124.2(11) 125.1(12)
Se4 Ba3 Se4 . . 2_5555 123.5(11) 123.4(11) 123.6(11)
Se4 Ba3 Se4 . . 2_6555 75.0(5) 74.5(5) 75.5(5)
Se4 Ba3 Se4 2_5555 . 2_6555 79.6(6) 74.0(5) 85.2(6)
U1 Ag1 U1 . . 1_6555 78.2(2) 77.1(3) 79.4(3)
U1 Ag1 U1 . . 2_5565 100.1(2) 98.7(3) 101.5(3)
U1 Ag1 U1 . . 2_6565 166.4(12) 165.1(13) 167.7(13)
U1 Ag1 Ba1 . . . 1.99(19) 1.94(19) 2.0(2)
U1 Ag1 Ba1 . . 2_6565 165.9(13) 164.8(13) 167.4(13)
U1 Ag1 Se1 . . . 53.3(5) 52.1(5) 54.6(5)
U1 Ag1 Se1 . . 1_6555 117.9(8) 116.8(8) 119.1(8)
U1 Ag1 Se3 . . . 56.6(6) 52.4(6) 60.9(6)
U1 Ag1 Se3 . . 2_6565 133.5(8) 129.5(8) 137.5(9)
U1 Ag1 U1 1_6555 . 2_5565 166.2(12) 165.0(13) 167.6(13)
U1 Ag1 U1 1_6555 . 2_6565 100.1(2) 98.7(3) 101.5(3)
U1 Ag1 Ba1 1_6555 . . 76.3(3) 75.2(3) 77.4(3)
U1 Ag1 Ba1 1_6555 . 2_6565 102.1(3) 100.6(4) 103.5(4)
U1 Ag1 Se1 1_6555 . . 117.6(8) 115.7(8) 119.5(8)
U1 Ag1 Se1 1_6555 . 1_6555 53.7(5) 53.3(5) 54.0(5)
U1 Ag1 Se3 1_6555 . . 56.6(6) 53.0(6) 60.3(6)
U1 Ag1 Se3 1_6555 . 2_6565 133.7(8) 128.6(8) 138.7(9)
U1 Ag1 U1 2_5565 . 2_6565 78.3(2) 77.1(3) 79.4(3)
U1 Ag1 Ba1 2_5565 . . 102.1(3) 100.6(4) 103.5(4)
U1 Ag1 Ba1 2_5565 . 2_6565 76.3(3) 75.2(3) 77.4(3)
U1 Ag1 Se1 2_5565 . . 53.7(5) 53.3(5) 54.0(5)
U1 Ag1 Se1 2_5565 . 1_6555 117.6(8) 115.7(8) 119.5(8)
U1 Ag1 Se3 2_5565 . . 133.6(8) 128.6(8) 138.7(9)
U1 Ag1 Se3 2_5565 . 2_6565 56.6(6) 53.0(6) 60.3(6)
U1 Ag1 Ba1 2_6565 . . 166.0(13) 164.8(13) 167.4(13)
U1 Ag1 Ba1 2_6565 . 2_6565 1.99(19) 1.94(19) 2.0(2)
U1 Ag1 Se1 2_6565 . . 117.9(8) 116.8(8) 119.1(8)
U1 Ag1 Se1 2_6565 . 1_6555 53.3(5) 52.1(5) 54.6(5)
U1 Ag1 Se3 2_6565 . . 133.6(8) 129.5(8) 137.5(9)
U1 Ag1 Se3 2_6565 . 2_6565 56.7(6) 52.4(6) 60.9(6)
Ba1 Ag1 Ba1 . . 2_6565 165.8(13) 164.9(14) 167.2(13)
Ba1 Ag1 Se1 . . . 54.9(5) 53.6(5) 56.2(5)
Ba1 Ag1 Se1 . . 1_6555 116.3(9) 115.3(8) 117.5(8)
Ba1 Ag1 Se3 . . . 56.1(7) 51.4(7) 59.7(6)
Ba1 Ag1 Se3 . . 2_6565 134.6(9) 131.1(8) 138.9(10)
Ba1 Ag1 Se1 2_6565 . . 116.4(9) 115.3(8) 117.5(8)
Ba1 Ag1 Se1 2_6565 . 1_6555 54.9(5) 53.6(5) 56.2(5)
Ba1 Ag1 Se3 2_6565 . . 134.6(9) 131.1(8) 138.9(10)
Ba1 Ag1 Se3 2_6565 . 2_6565 56.2(7) 51.5(7) 59.7(6)
Se1 Ag1 Se1 . . 1_6555 114.4(14) 112.7(14) 116.1(15)
Se1 Ag1 Se3 . . . 108.4(6) 103.3(6) 113.6(6)
Se1 Ag1 Se3 . . 2_6565 108.7(6) 104.9(5) 112.6(5)
Se1 Ag1 Se3 1_6555 . . 108.7(6) 104.9(5) 112.6(5)
Se1 Ag1 Se3 1_6555 . 2_6565 108.4(6) 103.3(6) 113.6(6)
Se3 Ag1 Se3 . . 2_6565 108.2(14) 107.3(14) 109.4(15)
U1 Ag2 U1 . . 1_6555 78.4(2) 77.2(3) 79.5(3)
U1 Ag2 U1 . . 2_5555 100.1(2) 98.7(3) 101.5(3)
U1 Ag2 U1 . . 2_6555 166.8(12) 165.6(13) 168.2(13)
U1 Ag2 Ba1 . . . 2.4(2) 2.3(2) 2.4(2)
U1 Ag2 Ba1 . . 1_6555 80.4(3) 79.0(3) 81.5(3)
U1 Ag2 Ba1 . . 2_5555 98.4(3) 96.9(3) 99.6(3)
U1 Ag2 Ba1 . . 2_6555 166.5(12) 165.1(12) 167.8(13)
U1 Ag2 Se2 . . . 54.1(5) 53.9(5) 54.3(5)
U1 Ag2 Se2 . . 1_6555 117.2(8) 115.4(8) 119.0(9)
U1 Ag2 Se4 . . . 56.3(6) 54.0(6) 58.6(6)
U1 Ag2 Se4 . . 2_6555 133.7(9) 129.8(8) 137.6(9)
U1 Ag2 U1 1_6555 . 2_5555 166.9(12) 165.5(13) 168.2(13)
U1 Ag2 U1 1_6555 . 2_6555 100.1(2) 98.7(3) 101.5(3)
U1 Ag2 Ba1 1_6555 . . 76.0(3) 74.8(3) 77.2(3)
U1 Ag2 Ba1 1_6555 . 1_6555 1.89(18) 1.84(18) 1.93(18)
U1 Ag2 Ba1 1_6555 . 2_5555 166.7(12) 165.5(13) 168.1(13)
U1 Ag2 Ba1 1_6555 . 2_6555 102.4(3) 101.0(3) 103.8(4)
U1 Ag2 Se2 1_6555 . . 116.8(8) 115.4(8) 118.3(8)
U1 Ag2 Se2 1_6555 . 1_6555 54.4(5) 53.1(5) 55.8(5)
U1 Ag2 Se4 1_6555 . . 57.6(6) 54.4(6) 60.9(6)
U1 Ag2 Se4 1_6555 . 2_6555 132.2(8) 129.2(8) 135.2(9)
U1 Ag2 U1 2_5555 . 2_6555 78.4(2) 77.2(3) 79.5(3)
U1 Ag2 Ba1 2_5555 . . 102.4(3) 101.0(3) 103.8(4)
U1 Ag2 Ba1 2_5555 . 1_6555 166.7(12) 165.5(13) 168.1(13)
U1 Ag2 Ba1 2_5555 . 2_5555 1.89(18) 1.84(18) 1.93(18)
U1 Ag2 Ba1 2_5555 . 2_6555 76.1(3) 74.8(3) 77.2(3)
U1 Ag2 Se2 2_5555 . . 54.4(5) 53.1(5) 55.8(5)
U1 Ag2 Se2 2_5555 . 1_6555 116.8(8) 115.4(8) 118.3(8)
U1 Ag2 Se4 2_5555 . . 132.2(8) 129.2(8) 135.2(9)
U1 Ag2 Se4 2_5555 . 2_6555 57.7(6) 54.4(6) 60.9(6)
U1 Ag2 Ba1 2_6555 . . 166.5(12) 165.1(12) 167.8(13)
U1 Ag2 Ba1 2_6555 . 1_6555 98.4(3) 96.9(3) 99.6(3)
U1 Ag2 Ba1 2_6555 . 2_5555 80.4(3) 79.0(3) 81.5(3)
U1 Ag2 Ba1 2_6555 . 2_6555 2.4(2) 2.3(2) 2.4(2)
U1 Ag2 Se2 2_6555 . . 117.2(8) 115.4(8) 119.0(9)
U1 Ag2 Se2 2_6555 . 1_6555 54.1(5) 53.9(5) 54.3(5)
U1 Ag2 Se4 2_6555 . . 133.6(9) 129.8(8) 137.6(9)
U1 Ag2 Se4 2_6555 . 2_6555 56.3(6) 54.0(6) 58.6(6)
Ba1 Ag2 Ba1 . . 1_6555 78.1(3) 76.7(3) 79.1(4)
Ba1 Ag2 Ba1 . . 2_5555 100.7(3) 99.2(4) 101.9(4)
Ba1 Ag2 Ba1 . . 2_6555 166.5(13) 165.2(13) 167.7(14)
Ba1 Ag2 Se2 . . . 55.8(5) 55.5(5) 56.0(5)
Ba1 Ag2 Se2 . . 1_6555 115.4(9) 113.5(8) 117.1(9)
Ba1 Ag2 Se4 . . . 55.5(7) 53.2(7) 57.4(6)
Ba1 Ag2 Se4 . . 2_6555 134.9(9) 131.7(9) 139.2(10)
Ba1 Ag2 Ba1 1_6555 . 2_5555 166.8(13) 165.8(13) 168.3(13)
Ba1 Ag2 Ba1 1_6555 . 2_6555 100.7(3) 99.2(4) 101.9(4)
Ba1 Ag2 Se2 1_6555 . . 118.3(9) 116.7(8) 119.7(9)
Ba1 Ag2 Se2 1_6555 . 1_6555 53.2(5) 51.7(5) 54.4(5)
Ba1 Ag2 Se4 1_6555 . . 59.3(6) 55.5(6) 62.1(6)
Ba1 Ag2 Se4 1_6555 . 2_6555 130.9(8) 127.8(8) 133.8(9)
Ba1 Ag2 Ba1 2_5555 . 2_6555 78.1(3) 76.7(3) 79.1(4)
Ba1 Ag2 Se2 2_5555 . . 53.2(5) 51.7(5) 54.4(5)
Ba1 Ag2 Se2 2_5555 . 1_6555 118.3(9) 116.7(8) 119.7(9)
Ba1 Ag2 Se4 2_5555 . . 131.0(8) 127.8(8) 133.8(9)
Ba1 Ag2 Se4 2_5555 . 2_6555 59.2(6) 55.5(6) 62.1(6)
Ba1 Ag2 Se2 2_6555 . . 115.5(9) 113.5(8) 117.1(9)
Ba1 Ag2 Se2 2_6555 . 1_6555 55.8(5) 55.5(5) 56.0(5)
Ba1 Ag2 Se4 2_6555 . . 134.9(9) 131.7(9) 139.1(10)
Ba1 Ag2 Se4 2_6555 . 2_6555 55.6(7) 53.2(7) 57.4(6)
Se2 Ag2 Se2 . . 1_6555 110.5(13) 109.2(14) 111.9(14)
Se2 Ag2 Se4 . . . 109.1(6) 106.4(5) 111.7(5)
Se2 Ag2 Se4 . . 2_6555 110.9(6) 106.5(6) 115.4(6)
Se2 Ag2 Se4 1_6555 . . 110.9(6) 106.5(6) 115.4(6)
Se2 Ag2 Se4 1_6555 . 2_6555 109.0(6) 106.4(5) 111.7(5)
Se4 Ag2 Se4 . . 2_6555 106.3(14) 105.0(14) 107.8(15)
U1 Se1 U1 . . 2_5565 138.8(14) 138.7(15) 139.0(15)
U1 Se1 Ba1 . . . 3.4(2) 3.4(2) 3.4(2)
U1 Se1 Ba1 . . 2_5565 138.4(15) 138.3(15) 138.6(15)
U1 Se1 Ba2 . . 1_4555 105.1(6) 102.9(6) 107.3(6)
U1 Se1 Ba2 . . . 105.7(6) 103.5(6) 107.8(6)
U1 Se1 Ag1 . . 1_4555 78.7(7) 77.7(6) 79.7(7)
U1 Se1 Ag1 . . . 79.3(7) 78.2(7) 80.4(6)
U1 Se1 Ba1 2_5565 . . 138.4(15) 138.3(15) 138.6(15)
U1 Se1 Ba1 2_5565 . 2_5565 3.4(2) 3.4(2) 3.4(2)
U1 Se1 Ba2 2_5565 . 1_4555 105.7(6) 103.5(6) 107.8(6)
U1 Se1 Ba2 2_5565 . . 105.1(6) 102.9(6) 107.3(6)
U1 Se1 Ag1 2_5565 . 1_4555 79.3(7) 78.2(7) 80.4(6)
U1 Se1 Ag1 2_5565 . . 78.7(7) 77.7(6) 79.7(7)
Ba1 Se1 Ba1 . . 2_5565 138.3(15) 138.2(16) 138.5(16)
Ba1 Se1 Ba2 . . 1_4555 107.3(7) 105.4(6) 109.8(6)
Ba1 Se1 Ba2 . . . 103.5(7) 101.4(6) 105.7(6)
Ba1 Se1 Ag1 . . 1_4555 81.4(7) 80.5(7) 82.4(8)
Ba1 Se1 Ag1 . . . 76.3(7) 75.2(7) 77.4(7)
Ba1 Se1 Ba2 2_5565 . 1_4555 103.5(7) 101.4(6) 105.7(6)
Ba1 Se1 Ba2 2_5565 . . 107.3(7) 105.4(6) 109.8(6)
Ba1 Se1 Ag1 2_5565 . 1_4555 76.3(7) 75.2(7) 77.4(7)
Ba1 Se1 Ag1 2_5565 . . 81.4(7) 80.5(7) 82.4(8)
Ba2 Se1 Ba2 1_4555 . . 82.1(9) 82.0(8) 82.3(9)
Ba2 Se1 Ag1 1_4555 . 1_4555 81.8(7) 80.6(7) 83.0(7)
Ba2 Se1 Ag1 1_4555 . . 163.8(12) 162.5(11) 165.0(11)
Ba2 Se1 Ag1 . . 1_4555 163.8(12) 162.5(11) 165.0(11)
Ba2 Se1 Ag1 . . . 81.8(7) 80.6(7) 83.0(7)
Ag1 Se1 Ag1 1_4555 . . 114.4(14) 114.3(15) 114.5(15)
U1 Se2 U1 . . 2_5555 134.2(14) 134.1(14) 134.3(15)
U1 Se2 Ba1 . . . 3.3(2) 3.3(2) 3.3(2)
U1 Se2 Ba1 . . 2_5555 134.4(14) 134.3(15) 134.5(15)
U1 Se2 Ba3 . . 3_4555 106.3(6) 103.9(5) 108.7(5)
U1 Se2 Ba3 . . 3_5555 106.8(6) 104.3(5) 109.4(5)
U1 Se2 Ag2 . . 1_4555 76.9(7) 75.5(6) 78.3(7)
U1 Se2 Ag2 . . . 77.5(7) 76.6(6) 78.4(7)
U1 Se2 Ba1 2_5555 . . 134.4(14) 134.3(15) 134.5(15)
U1 Se2 Ba1 2_5555 . 2_5555 3.3(2) 3.3(2) 3.3(2)
U1 Se2 Ba3 2_5555 . 3_4555 106.8(6) 104.3(5) 109.4(5)
U1 Se2 Ba3 2_5555 . 3_5555 106.3(6) 103.9(5) 108.7(5)
U1 Se2 Ag2 2_5555 . 1_4555 77.5(7) 76.6(6) 78.4(7)
U1 Se2 Ag2 2_5555 . . 76.9(7) 75.5(6) 78.3(7)
Ba1 Se2 Ba1 . . 2_5555 134.8(15) 134.7(15) 134.9(15)
Ba1 Se2 Ba3 . . 3_4555 108.1(6) 106.0(6) 110.9(6)
Ba1 Se2 Ba3 . . 3_5555 104.2(6) 101.8(6) 106.8(6)
Ba1 Se2 Ag2 . . 1_4555 79.6(7) 78.4(7) 81.2(7)
Ba1 Se2 Ag2 . . . 74.9(7) 74.0(7) 75.8(7)
Ba1 Se2 Ba3 2_5555 . 3_4555 104.2(6) 101.8(6) 106.8(6)
Ba1 Se2 Ba3 2_5555 . 3_5555 108.1(6) 106.0(6) 110.9(6)
Ba1 Se2 Ag2 2_5555 . 1_4555 74.9(7) 74.0(7) 75.8(7)
Ba1 Se2 Ag2 2_5555 . . 79.6(7) 78.4(7) 81.2(7)
Ba3 Se2 Ba3 3_4555 . 3_5555 85.9(9) 85.8(9) 86.1(10)
Ba3 Se2 Ag2 3_4555 . 1_4555 81.8(7) 80.7(7) 82.9(7)
Ba3 Se2 Ag2 3_4555 . . 167.6(11) 166.5(11) 168.6(11)
Ba3 Se2 Ag2 3_5555 . 1_4555 167.6(11) 166.5(11) 168.6(11)
Ba3 Se2 Ag2 3_5555 . . 81.8(7) 80.7(7) 82.9(7)
Ag2 Se2 Ag2 1_4555 . . 110.5(14) 110.2(14) 110.9(14)
U1 Se3 U1 . . 1_6555 94.4(11) 93.3(11) 95.7(11)
U1 Se3 Ba1 . . . 2.1(7) 1.9(6) 2.3(7)
U1 Se3 Ba1 . . 1_6555 96.5(11) 95.6(11) 98.0(12)
U1 Se3 Ba2 . . 3_4555 86.7(6) 81.3(6) 92.5(6)
U1 Se3 Ba2 . . 3_5555 151.6(7) 148.0(6) 154.6(8)
U1 Se3 Ba3 . . 3_5555 96.7(5) 93.7(5) 99.7(6)
U1 Se3 Ag1 . . . 76.4(8) 73.2(8) 79.6(9)
U1 Se3 Ba1 1_6555 . . 92.3(11) 91.3(11) 93.6(12)
U1 Se3 Ba1 1_6555 . 1_6555 2.3(6) 2.1(6) 2.5(6)
U1 Se3 Ba2 1_6555 . 3_4555 151.4(7) 148.2(6) 154.1(8)
U1 Se3 Ba2 1_6555 . 3_5555 86.8(6) 81.4(6) 92.3(6)
U1 Se3 Ba3 1_6555 . 3_5555 96.6(5) 93.5(5) 99.5(6)
U1 Se3 Ag1 1_6555 . . 76.1(8) 72.9(8) 79.1(9)
Ba1 Se3 Ba1 . . 1_6555 94.4(11) 93.5(11) 95.9(12)
Ba1 Se3 Ba2 . . 3_4555 87.6(6) 82.8(6) 94.2(6)
Ba1 Se3 Ba2 . . 3_5555 150.9(7) 148.1(7) 153.8(9)
Ba1 Se3 Ba3 . . 3_5555 96.9(5) 94.3(6) 100.2(6)
Ba1 Se3 Ag1 . . . 75.2(9) 72.5(8) 78.6(9)
Ba1 Se3 Ba2 1_6555 . 3_4555 151.0(6) 147.5(6) 154.2(8)
Ba1 Se3 Ba2 1_6555 . 3_5555 84.1(6) 79.4(6) 90.0(6)
Ba1 Se3 Ba3 1_6555 . 3_5555 96.2(5) 93.4(5) 99.6(6)
Ba1 Se3 Ag1 1_6555 . . 76.1(8) 73.1(7) 79.6(9)
Ba2 Se3 Ba2 3_4555 . 3_5555 79.4(6) 77.2(5) 81.8(6)
Ba2 Se3 Ba3 3_4555 . 3_5555 111.1(9) 106.5(8) 115.6(9)
Ba2 Se3 Ag1 3_4555 . . 76.6(6) 74.4(6) 79.0(7)
Ba2 Se3 Ba3 3_5555 . 3_5555 110.9(9) 105.6(8) 116.0(9)
Ba2 Se3 Ag1 3_5555 . . 76.5(6) 73.8(6) 79.4(6)
Ba3 Se3 Ag1 3_5555 . . 168.0(12) 166.0(10) 170.9(13)
U1 Se4 U1 . . 1_6555 94.0(10) 93.0(11) 95.1(11)
U1 Se4 Ba1 . . . 2.5(6) 2.3(6) 2.6(6)
U1 Se4 Ba1 . . 1_6555 95.7(11) 94.9(11) 97.0(11)
U1 Se4 Ba2 . . . 96.9(5) 94.9(5) 99.0(5)
U1 Se4 Ba3 . . . 88.3(6) 84.6(6) 92.1(6)
U1 Se4 Ba3 . . 1_6555 153.2(7) 150.6(6) 155.6(8)
U1 Se4 Ag2 . . . 76.8(9) 74.5(8) 79.2(9)
U1 Se4 Ba1 1_6555 . . 91.5(11) 90.5(11) 92.6(11)
U1 Se4 Ba1 1_6555 . 1_6555 1.9(6) 1.8(6) 2.0(6)
U1 Se4 Ba2 1_6555 . . 95.7(5) 93.6(5) 97.9(5)
U1 Se4 Ba3 1_6555 . . 152.7(7) 150.2(6) 154.9(8)
U1 Se4 Ba3 1_6555 . 1_6555 86.6(5) 82.7(6) 90.5(6)
U1 Se4 Ag2 1_6555 . . 75.5(8) 72.5(8) 78.5(9)
Ba1 Se4 Ba1 . . 1_6555 93.2(11) 92.3(11) 94.6(11)
Ba1 Se4 Ba2 . . . 96.7(5) 94.9(5) 98.9(6)
Ba1 Se4 Ba3 . . . 90.1(6) 86.8(6) 94.5(6)
Ba1 Se4 Ba3 . . 1_6555 153.1(8) 151.1(7) 155.2(9)
Ba1 Se4 Ag2 . . . 76.1(9) 74.2(8) 78.6(9)
Ba1 Se4 Ba2 1_6555 . . 95.1(5) 93.1(5) 97.4(5)
Ba1 Se4 Ba3 1_6555 . . 152.5(6) 150.1(6) 155.2(7)
Ba1 Se4 Ba3 1_6555 . 1_6555 84.5(6) 81.2(6) 88.8(6)
Ba1 Se4 Ag2 1_6555 . . 75.7(8) 73.2(8) 79.0(9)
Ba2 Se4 Ba3 . . . 110.8(9) 107.3(8) 114.2(9)
Ba2 Se4 Ba3 . . 1_6555 109.4(8) 105.5(8) 113.2(9)
Ba2 Se4 Ag2 . . . 168.0(12) 166.6(11) 169.8(13)
Ba3 Se4 Ba3 . . 1_6555 79.6(6) 77.9(5) 81.4(6)
Ba3 Se4 Ag2 . . . 78.6(6) 76.4(6) 81.0(6)
Ba3 Se4 Ag2 1_6555 . . 77.5(6) 76.6(7) 78.3(7)
loop_
_geom_bond_atom_site_label_1
_geom_bond_atom_site_label_2
_geom_bond_site_symmetry_1
_geom_bond_site_symmetry_2
_geom_bond_distance_av
_geom_bond_distance_min
_geom_bond_distance_max
U1 Ag1 . 1_4555 3.435(9) 3.427(13) 3.444(13)
U1 Ag1 . . 3.459(9) 3.379(13) 3.536(13)
U1 Ag2 . 1_4555 3.430(9) 3.354(13) 3.508(13)
U1 Ag2 . . 3.454(9) 3.445(13) 3.464(13)
U1 Se1 . . 2.822(17) 2.81(2) 2.84(2)
U1 Se2 . . 2.865(19) 2.86(2) 2.87(2)
U1 Se3 . 1_4555 2.96(3) 2.80(3) 3.12(3)
U1 Se3 . . 2.97(3) 2.80(3) 3.14(3)
U1 Se4 . 1_4555 2.99(3) 2.88(3) 3.11(3)
U1 Se4 . . 2.95(3) 2.85(3) 3.05(3)
Ba1 Ag1 . . 3.340(13) 3.263(16) 3.419(16)
Ba1 Ag2 . 1_4555 3.541(13) 3.473(15) 3.628(15)
Ba1 Ag2 . . 3.366(13) 3.354(16) 3.379(16)
Ba1 Se1 . . 2.81(2) 2.80(2) 2.83(2)
Ba1 Se2 . . 2.88(2) 2.88(2) 2.88(2)
Ba1 Se3 . 1_4555 3.09(3) 2.91(3) 3.24(3)
Ba1 Se3 . . 2.87(3) 2.69(4) 3.01(4)
Ba1 Se4 . 1_4555 3.14(3) 3.01(3) 3.24(3)
Ba1 Se4 . . 2.86(3) 2.75(4) 2.94(4)
Ba2 Se1 . . 3.31(3) 3.31(3) 3.32(3)
Ba2 Se1 . 1_6555 3.31(3) 3.31(3) 3.32(3)
Ba2 Se3 . 3_4455 3.41(2) 3.30(2) 3.52(2)
Ba2 Se3 . 3_5455 3.40(2) 3.29(2) 3.51(2)
Ba2 Se3 . 4_5465 3.40(2) 3.29(2) 3.51(2)
Ba2 Se3 . 4_6465 3.41(2) 3.30(2) 3.52(2)
Ba2 Se4 . . 3.57(2) 3.41(2) 3.72(2)
Ba2 Se4 . 2_6565 3.57(2) 3.41(2) 3.72(2)
Ba3 Se2 . 3_4455 3.19(3) 3.19(3) 3.20(3)
Ba3 Se2 . 3_5455 3.19(3) 3.19(3) 3.20(3)
Ba3 Se3 . 3_4455 3.53(2) 3.40(2) 3.65(2)
Ba3 Se3 . 4_5455 3.53(2) 3.40(2) 3.65(2)
Ba3 Se4 . 1_4555 3.43(2) 3.38(2) 3.48(2)
Ba3 Se4 . . 3.37(2) 3.29(2) 3.45(2)
Ba3 Se4 . 2_5555 3.37(2) 3.29(2) 3.45(2)
Ba3 Se4 . 2_6555 3.43(2) 3.38(2) 3.48(2)
Ag1 Se1 . . 2.59(3) 2.53(3) 2.64(3)
Ag1 Se1 . 1_6555 2.59(3) 2.53(3) 2.64(3)
Ag1 Se3 . . 2.60(3) 2.55(3) 2.65(3)
Ag1 Se3 . 2_6565 2.60(3) 2.55(3) 2.65(3)
Ag2 Se2 . . 2.65(3) 2.60(3) 2.70(3)
Ag2 Se2 . 1_6555 2.65(3) 2.60(3) 2.70(3)
Ag2 Se4 . . 2.59(3) 2.56(3) 2.62(3)
Ag2 Se4 . 2_6555 2.59(3) 2.56(3) 2.62(3)
loop_
_refln_index_h
_refln_index_k
_refln_index_l
_refln_index_m_1
_refln_F_squared_calc
_refln_F_squared_meas
_refln_F_squared_sigma
_refln_observed_status
0 0 0 1 18.88 0.90 9.03 <
2 0 0 -1 111.93 5.64 25.72 <
2 0 0 0 513898.00 564068.00 1750.96 o
2 0 0 1 2.56 -7.90 28.88 <
4 0 0 -1 0.07 22.34 48.29 <
4 0 0 0 152954.00 160872.00 810.31 o
4 0 0 1 264.33 183.00 74.91 o
1 1 0 -1 108.46 -13.31 16.25 <
1 -1 0 -1 108.39 7.90 14.67 <
1 1 0 0 1142.69 4193.31 87.43 o
1 -1 0 0 1132.67 4210.81 85.14 o
1 1 0 1 44.00 2.03 25.05 <
1 -1 0 1 43.47 12.64 25.27 <
3 1 0 -1 1.86 -9.93 34.75 <
3 -1 0 -1 1.90 20.76 32.72 <
3 1 0 0 4651.83 4460.83 145.50 o
3 -1 0 0 4643.78 4314.63 112.96 o
3 1 0 1 112.10 20.76 42.42 <
3 -1 0 1 112.43 16.02 43.55 <
5 1 0 -1 204.10 41.97 72.88 <
5 -1 0 -1 204.00 -50.99 71.98 <
0 2 0 1 28.53 5.42 32.72 <
0 -2 0 1 29.14 -13.31 28.88 <
2 2 0 -1 96.19 48.51 23.92 o
2 -2 0 -1 96.53 24.37 20.99 <
2 2 0 0 27200.60 20404.30 199.10 o
2 -2 0 0 27188.60 21710.10 150.11 o
2 2 0 1 7.16 2.48 32.27 <
2 -2 0 1 7.27 -30.91 20.53 <
4 2 0 -1 33.31 -29.11 49.87 <
4 -2 0 -1 33.33 -13.99 41.52 <
4 2 0 0 8802.25 13137.30 267.58 o
4 -2 0 0 8794.04 13360.90 205.24 o
4 2 0 1 115.01 24.59 68.59 <
4 -2 0 1 115.13 -2.93 49.19 <
1 3 0 -1 72.32 24.37 31.14 <
1 -3 0 -1 71.56 23.92 34.98 <
1 3 0 0 83958.80 87776.50 441.65 o
1 -3 0 0 83969.00 114179.00 611.82 o
1 3 0 1 8.82 6.32 26.17 <
1 -3 0 1 8.45 26.62 29.56 <
3 3 0 -1 38.00 5.42 39.03 <
3 -3 0 -1 37.76 -2.48 26.62 <
3 3 0 0 23549.10 21903.30 285.89 o
3 -3 0 0 23550.90 23338.10 211.61 o
3 3 0 1 15.18 85.97 53.48 <
3 -3 0 1 15.08 18.05 34.30 <
5 3 0 -1 52.68 29.33 74.46 <
5 -3 0 -1 52.76 18.50 62.28 <
0 4 0 0 76872.10 81339.40 454.95 o
0 -4 0 0 76876.70 80787.40 807.05 o
0 4 0 1 11.59 33.85 39.71 <
0 -4 0 1 12.13 11.73 33.85 <
2 4 0 -1 104.89 -17.37 23.69 <
2 -4 0 -1 105.62 14.44 23.47 <
2 4 0 0 57999.80 51456.60 272.42 o
2 -4 0 0 58005.40 52779.90 304.02 o
2 4 0 1 51.26 -17.15 22.34 <
2 -4 0 1 51.21 1.35 24.14 <
4 4 0 -1 81.58 41.97 72.20 <
4 -4 0 -1 81.62 -21.21 41.52 <
4 4 0 0 34816.60 44310.20 594.27 o
4 -4 0 0 34819.70 43778.60 360.93 o
4 4 0 1 180.20 43.55 86.65 <
4 -4 0 1 180.54 -12.18 60.47 <
1 5 0 -1 79.91 -12.86 35.65 <
1 -5 0 -1 78.95 -6.77 34.97 <
1 5 0 0 10902.20 14697.90 176.27 o
1 -5 0 0 10930.90 15667.50 192.08 o
1 5 0 1 12.73 -14.89 30.91 <
1 -5 0 1 12.16 -27.30 26.40 <
3 5 0 -1 24.29 4.29 32.72 <
3 -5 0 -1 24.30 32.04 35.20 <
3 5 0 0 4117.55 4031.21 105.92 o
3 -5 0 0 4135.51 4079.84 118.61 o
3 5 0 1 5.01 3.61 46.03 <
3 -5 0 1 5.01 23.01 47.16 <
0 6 0 0 11663.30 13339.70 220.24 o
0 -6 0 0 11666.40 13614.00 270.71 o
0 6 0 1 25.74 20.08 34.97 <
0 -6 0 1 26.74 26.85 38.81 <
2 6 0 -1 86.19 -0.23 31.14 <
2 -6 0 -1 87.32 -44.45 26.85 <
2 6 0 0 2141.96 1606.39 82.19 o
2 -6 0 0 2145.31 1655.88 63.23 o
2 6 0 1 27.06 -2.03 38.81 <
2 -6 0 1 26.64 4.29 30.24 <
4 6 0 -1 16.00 -24.37 43.77 <
4 -6 0 -1 15.93 -1.81 52.80 <
4 6 0 0 158.07 112.14 65.43 <
4 -6 0 0 164.39 182.10 63.63 o
4 6 0 1 140.21 -87.55 59.57 <
4 -6 0 1 141.59 -91.38 69.05 <
1 7 0 -1 65.08 -1.35 35.20 <
1 -7 0 -1 64.04 23.92 40.16 <
1 7 0 0 8810.81 7471.82 140.70 o
1 -7 0 0 8833.25 7732.95 159.74 o
1 7 0 1 27.47 -0.90 37.46 <
1 -7 0 1 27.57 0.00 39.94 <
3 7 0 -1 3.65 -22.56 44.22 <
3 -7 0 -1 3.53 36.78 39.71 <
3 7 0 0 774.85 1112.53 91.62 o
3 -7 0 0 787.86 1196.16 87.12 o
3 7 0 1 173.22 -30.46 48.29 <
3 -7 0 1 172.90 -5.87 55.73 <
0 8 0 0 157612.00 160617.00 847.05 o
0 -8 0 0 157680.00 162064.00 847.29 o
0 8 0 1 7.41 27.08 37.91 <
0 -8 0 1 7.87 7.22 35.20 <
2 8 0 -1 84.82 -41.52 39.04 <
2 -8 0 -1 86.10 10.83 35.65 <
2 8 0 0 92000.90 90098.70 511.52 o
2 -8 0 0 92041.60 89344.00 485.12 o
2 8 0 1 40.92 -0.45 51.44 <
2 -8 0 1 40.05 9.48 39.03 <
4 8 0 -1 15.68 -37.68 54.60 <
4 -8 0 -1 16.00 -30.91 61.82 <
4 8 0 0 33715.10 37590.80 567.09 o
4 -8 0 0 33729.60 38925.20 449.37 o
1 9 0 -1 11.35 30.23 44.00 <
1 -9 0 -1 11.48 -8.35 46.25 <
1 9 0 0 13907.30 16137.30 221.51 o
1 -9 0 0 13912.40 17016.50 219.98 o
1 9 0 1 50.14 -6.09 43.77 <
1 -9 0 1 51.17 20.53 47.38 <
3 9 0 -1 25.97 -9.70 57.99 <
3 -9 0 -1 25.25 6.32 44.00 <
3 9 0 0 5226.19 4842.45 177.10 o
3 -9 0 0 5229.89 5090.88 145.26 o
3 9 0 1 96.68 -58.44 58.89 <
3 -9 0 1 96.49 -32.94 61.82 <
0 10 0 0 7695.44 6533.40 200.87 o
0 -10 0 0 7671.26 5938.94 236.56 o
0 10 0 1 10.85 22.34 43.10 <
0 -10 0 1 10.11 -30.69 42.42 <
2 10 0 -1 161.08 -4.74 53.48 <
2 -10 0 -1 163.83 -44.00 54.38 <
2 10 0 0 4207.28 4913.29 159.27 o
2 -10 0 0 4184.12 4784.46 145.46 o
2 10 0 1 60.10 16.02 54.38 <
2 -10 0 1 59.18 -32.49 48.51 <
1 11 0 -1 14.33 4.29 50.32 <
1 -11 0 -1 14.13 38.36 65.21 <
1 11 0 0 110568.00 113696.00 628.43 o
1 -11 0 0 110552.00 116393.00 832.67 o
1 11 0 1 147.66 1.58 50.32 <
1 -11 0 1 150.73 16.25 59.12 <
3 11 0 -1 152.06 -25.72 73.56 <
3 -11 0 -1 149.82 43.32 58.67 <
3 11 0 0 46105.00 47594.70 565.89 o
3 -11 0 0 46099.50 47162.80 474.08 o
3 11 0 1 257.46 44.23 79.20 <
3 -11 0 1 258.54 61.83 69.72 <
0 12 0 0 36101.70 37962.00 597.98 o
0 -12 0 0 36112.40 39127.20 840.76 o
0 12 0 1 65.66 -39.49 57.31 <
0 -12 0 1 65.02 23.01 64.53 <
2 12 0 -1 67.56 42.65 71.53 <
2 -12 0 -1 69.74 29.78 64.08 <
2 12 0 0 26123.30 24390.40 354.15 o
2 -12 0 0 26129.20 25248.00 325.70 o
2 12 0 1 193.81 46.26 69.27 <
2 -12 0 1 192.52 43.55 61.37 <
1 13 0 -1 21.89 24.14 60.24 <
1 -13 0 -1 21.83 16.70 75.59 <
1 13 0 0 32127.00 32727.20 366.52 o
1 -13 0 0 32101.70 33425.40 487.34 o
1 13 0 1 106.18 -17.60 62.73 <
1 -13 0 1 108.97 -65.21 71.75 <
0 14 0 0 22528.50 20377.50 479.41 o
0 -14 0 0 22462.40 20941.70 675.12 o
0 14 0 1 78.11 20.76 69.27 <
0 -14 0 1 77.20 -10.15 75.36 <
2 14 0 -1 33.62 -24.37 77.84 <
2 -14 0 -1 35.36 -43.10 97.70 <
2 14 0 0 9627.04 7501.30 248.88 o
2 -14 0 0 9575.14 7998.44 269.61 o
1 15 0 -1 8.86 7.67 72.43 <
1 -15 0 -1 9.45 64.53 106.50 <
1 15 0 0 15311.20 16038.60 316.32 o
1 -15 0 0 15303.30 15929.90 447.53 o
-4 0 1 -1 4767.40 5405.96 176.76 o
-4 0 1 0 178.73 43.55 55.51 <
-4 0 1 1 211.56 93.19 54.83 <
-2 0 1 -1 6072.04 9251.56 134.67 o
-2 0 1 0 122.11 30.46 28.66 <
-2 0 1 1 147.54 79.66 28.88 o
0 0 1 -1 196.85 -1.58 8.80 <
0 0 1 0 5.01 -5.64 8.12 <
0 0 1 1 195.93 3.61 8.58 <
2 0 1 -1 149.81 90.48 20.31 o
2 0 1 0 122.87 5.19 18.95 <
2 0 1 1 6046.33 8966.66 93.43 o
4 0 1 -1 209.16 127.94 47.16 o
4 0 1 0 178.73 36.10 45.81 <
4 0 1 1 4736.45 5331.59 153.15 o
-5 1 1 1 156.41 75.36 77.40 <
-5 -1 1 1 157.07 124.56 73.56 <
-3 1 1 -1 351.92 98.38 47.61 o
-3 -1 1 -1 353.61 20.31 40.39 <
-3 1 1 0 3444.81 3308.94 102.05 o
-3 -1 1 0 3441.34 3160.06 101.60 o
-3 1 1 1 1359.43 1814.69 77.66 o
-3 -1 1 1 1359.00 1773.21 76.99 o
-1 1 1 -1 172.76 776.45 46.48 o
-1 -1 1 -1 175.12 720.96 45.13 o
-1 1 1 0 3111.33 3137.50 87.48 o
-1 -1 1 0 3102.96 3058.57 85.66 o
-1 1 1 1 714.00 439.73 22.81 o
-1 -1 1 1 712.73 584.67 31.84 o
1 1 1 -1 717.72 568.86 32.05 o
1 -1 1 -1 716.58 593.01 29.80 o
1 1 1 0 3102.60 3010.95 44.80 o
1 -1 1 0 3095.86 3074.91 43.67 o
1 1 1 1 171.38 735.63 37.23 o
1 -1 1 1 174.77 760.29 41.30 o
3 1 1 -1 1369.85 1807.02 52.36 o
3 -1 1 -1 1369.29 1865.04 55.97 o
3 1 1 0 3429.97 3159.03 78.38 o
3 -1 1 0 3422.91 3333.28 72.51 o
3 1 1 1 347.94 19.86 36.78 <
3 -1 1 1 351.12 44.68 32.95 <
5 1 1 -1 158.71 74.91 72.88 <
5 -1 1 -1 159.04 73.11 59.57 <
-4 2 1 -1 871.50 299.66 84.39 o
-4 -2 1 -1 868.87 386.53 79.65 o
-4 2 1 0 267.27 352.00 72.43 o
-4 -2 1 0 266.45 307.54 64.98 o
-4 2 1 1 1133.33 959.56 88.46 o
-4 -2 1 1 1132.51 964.31 81.92 o
-2 2 1 -1 881.08 2246.68 76.95 o
-2 -2 1 -1 877.29 2155.68 76.72 o
-2 2 1 0 187.13 81.24 30.92 o
-2 -2 1 0 186.32 83.72 24.37 o
-2 2 1 1 1333.51 1458.66 58.01 o
-2 -2 1 1 1334.74 1353.34 43.57 o
0 2 1 -1 543.82 1072.35 56.89 o
0 -2 1 -1 542.71 1131.67 79.46 o
0 2 1 0 1265.86 355.51 54.47 o
0 2 1 1 541.86 1022.68 77.90 o
0 -2 1 1 540.46 1217.05 84.22 o
2 2 1 -1 1327.61 1380.56 41.10 o
2 -2 1 -1 1328.74 1439.19 45.62 o
2 2 1 0 189.99 70.85 20.98 o
2 -2 1 0 189.72 87.55 25.27 o
2 2 1 1 871.34 2217.94 53.05 o
2 -2 1 1 868.06 2265.13 61.18 o
4 2 1 -1 1128.26 866.44 72.00 o
4 -2 1 -1 1128.05 929.44 68.39 o
4 2 1 0 262.59 258.59 56.19 o
4 -2 1 0 265.15 301.25 61.60 o
4 2 1 1 863.09 374.41 65.90 o
4 -2 1 1 861.41 447.76 73.12 o
-5 3 1 1 115.17 89.58 104.47 <
-5 -3 1 1 115.33 217.52 65.66 o
-3 3 1 -1 6383.23 8158.53 207.56 o
-3 -3 1 -1 6385.02 7705.57 140.67 o
-3 3 1 0 67184.20 68742.60 532.91 o
-3 -3 1 0 67094.20 66754.50 326.10 o
-3 3 1 1 210.93 190.23 53.71 o
-3 -3 1 1 210.86 141.71 28.43 o
-1 3 1 -1 3773.80 5954.96 71.53 o
-1 -3 1 -1 3775.57 5561.22 70.86 o
-1 3 1 0 159523.00 171398.00 602.34 o
-1 -3 1 0 159337.00 145052.00 454.77 o
-1 3 1 1 26.30 7.22 28.66 <
-1 -3 1 1 25.77 14.89 28.43 <
1 3 1 -1 26.35 12.41 29.11 <
1 -3 1 -1 25.57 31.81 32.49 <
1 3 1 0 159854.00 141569.00 493.50 o
1 -3 1 0 159874.00 162160.00 656.94 o
1 3 1 1 3794.99 5788.69 72.29 o
1 -3 1 1 3796.69 6273.20 112.97 o
3 3 1 -1 214.73 143.50 27.08 o
3 -3 1 -1 214.15 170.13 38.58 o
3 3 1 0 67178.00 67190.90 328.48 o
3 -3 1 0 67210.20 71803.00 422.25 o
3 3 1 1 6424.92 7848.79 149.03 o
3 -3 1 1 6425.52 7873.73 144.99 o
5 3 1 -1 117.26 161.55 63.85 o
5 -3 1 -1 116.96 205.10 79.20 o
-4 4 1 -1 554.13 775.87 131.12 o
-4 -4 1 -1 554.55 871.59 90.27 o
-4 4 1 0 479.59 267.87 96.81 o
-4 -4 1 0 472.39 199.71 61.61 o
-4 4 1 1 767.35 494.18 100.64 o
-4 -4 1 1 767.05 520.14 61.83 o
-2 4 1 0 750.77 943.76 41.54 o
-2 -4 1 0 737.91 839.29 50.57 o
-2 4 1 1 1027.23 1128.97 46.95 o
-2 -4 1 1 1026.44 1018.80 45.82 o
0 4 1 -1 73.41 64.99 32.72 <
0 -4 1 -1 74.43 89.81 37.01 o
0 4 1 0 758.40 1751.98 63.90 o
0 -4 1 0 748.77 1540.07 71.79 o
0 4 1 1 74.66 70.85 29.78 o
0 -4 1 1 75.39 69.95 34.75 o
2 4 1 -1 1020.64 1115.27 52.60 o
2 -4 1 -1 1020.23 1177.01 57.12 o
2 4 1 0 755.51 860.14 44.68 o
2 -4 1 0 753.94 826.56 40.39 o
4 4 1 -1 761.42 467.61 62.29 o
4 -4 1 -1 761.52 590.19 74.25 o
4 4 1 0 480.93 178.93 54.15 o
4 -4 1 0 481.99 282.28 59.57 o
4 4 1 1 564.20 769.41 81.68 o
4 -4 1 1 563.73 805.06 101.99 o
-3 5 1 -1 2764.27 2622.34 121.52 o
-3 -5 1 -1 2761.39 2712.58 110.47 o
-3 5 1 0 1210.45 1004.45 68.39 o
-3 -5 1 0 1202.62 1046.32 86.46 o
-3 5 1 1 892.30 957.73 60.49 o
-3 -5 1 1 892.92 901.57 61.17 o
-1 5 1 -1 1777.06 3437.12 79.32 o
-1 -5 1 -1 1774.01 2965.84 69.82 o
-1 5 1 0 2581.75 3656.51 89.97 o
-1 -5 1 0 2568.61 3337.81 72.56 o
-1 5 1 1 434.87 416.65 46.49 o
-1 -5 1 1 436.05 328.41 45.37 o
1 5 1 -1 435.95 374.87 45.81 o
1 -5 1 -1 436.60 381.64 56.87 o
1 5 1 0 2591.96 3386.13 94.42 o
1 -5 1 0 2574.80 3824.13 118.14 o
1 5 1 1 1795.22 3123.16 81.93 o
1 -5 1 1 1791.79 3432.28 115.79 o
3 5 1 -1 900.79 998.75 65.21 o
3 -5 1 -1 901.44 1051.58 71.99 o
3 5 1 0 1220.42 964.54 65.45 o
3 -5 1 0 1207.00 1131.11 78.99 o
3 5 1 1 2794.66 2715.38 97.04 o
3 -5 1 1 2791.12 2527.69 116.00 o
-4 6 1 -1 3252.78 3058.22 163.41 o
-4 -6 1 -1 3253.79 2890.00 142.65 o
-4 6 1 0 226.74 627.49 91.83 o
-4 -6 1 0 227.45 494.38 79.20 o
-4 6 1 1 351.52 226.77 79.88 o
-4 -6 1 1 351.92 205.33 62.73 o
-2 6 1 -1 4014.15 5377.92 128.02 o
-2 -6 1 -1 4017.80 5198.92 110.19 o
-2 6 1 0 420.88 299.66 46.03 o
-2 -6 1 0 422.29 277.78 37.68 o
-2 6 1 1 39.22 27.98 32.04 <
-2 -6 1 1 38.39 43.10 31.36 <
0 6 1 -1 456.24 658.90 48.29 o
0 -6 1 -1 457.45 620.10 57.54 o
0 6 1 0 455.47 178.30 44.69 o
0 -6 1 0 455.13 192.52 43.11 o
0 6 1 1 451.19 628.89 51.69 o
0 -6 1 1 451.97 659.14 63.66 o
2 6 1 -1 38.74 50.32 34.07 <
2 -6 1 -1 38.05 35.43 32.72 <
2 6 1 0 419.67 590.62 56.87 o
2 -6 1 0 416.36 362.44 45.36 o
2 6 1 1 3986.54 5284.11 138.54 o
2 -6 1 1 3987.69 5528.18 101.73 o
4 6 1 -1 347.87 146.00 51.22 o
4 -6 1 -1 348.04 241.01 77.85 o
4 6 1 0 226.83 752.55 95.68 o
4 -6 1 0 222.22 573.82 95.67 o
4 6 1 1 3229.34 2875.46 154.23 o
4 -6 1 1 3227.61 2689.86 162.38 o
-3 7 1 -1 465.06 199.91 60.70 o
-3 -7 1 -1 464.64 324.46 72.65 o
-3 7 1 0 24207.70 22605.20 301.42 o
-3 -7 1 0 24146.10 24430.90 277.72 o
-3 7 1 1 1917.99 2102.41 114.48 o
-3 -7 1 1 1917.34 2112.95 83.33 o
-1 7 1 -1 230.32 323.57 45.58 o
-1 -7 1 -1 230.90 274.84 40.16 o
-1 7 1 0 48763.80 44610.40 319.12 o
-1 -7 1 0 48648.70 43551.10 324.61 o
-1 7 1 1 1041.05 910.66 62.98 o
-1 -7 1 1 1041.33 797.32 59.60 o
1 7 1 -1 1040.81 863.94 60.73 o
1 -7 1 -1 1040.51 940.22 77.66 o
1 7 1 0 48738.80 43992.10 320.92 o
1 -7 1 0 48624.70 47794.10 433.89 o
1 7 1 1 228.29 276.44 47.39 o
1 -7 1 1 229.06 310.74 64.32 o
3 7 1 -1 1932.50 2045.89 108.56 o
3 -7 1 -1 1931.16 2172.58 88.02 o
3 7 1 0 24202.80 22782.80 297.40 o
3 -7 1 0 24148.40 25356.40 323.43 o
3 7 1 1 457.44 150.53 57.32 o
3 -7 1 1 456.55 187.54 67.48 o
-4 8 1 0 7890.94 8730.60 300.57 o
-4 -8 1 0 7903.15 9123.51 280.29 o
-4 8 1 1 582.90 312.96 77.85 o
-4 -8 1 1 582.62 334.40 97.02 o
-2 8 1 -1 4043.74 4863.06 172.47 o
-2 -8 1 -1 4042.40 4506.08 99.55 o
-2 8 1 0 24453.10 24628.10 343.98 o
-2 -8 1 0 24472.20 23381.00 199.12 o
-2 8 1 1 188.52 118.69 50.54 o
-2 -8 1 1 189.18 130.19 39.49 o
0 8 1 -1 628.02 734.71 61.60 o
0 -8 1 -1 627.54 733.58 56.41 o
0 8 1 0 40378.80 36531.30 286.31 o
0 -8 1 0 40385.40 37452.30 285.19 o
0 8 1 1 620.45 740.45 62.76 o
0 -8 1 1 619.11 688.96 59.60 o
2 8 1 -1 186.18 167.66 47.61 o
2 -8 1 -1 187.38 108.99 50.10 o
2 8 1 0 24473.20 23932.50 248.55 o
2 -8 1 0 24461.10 25467.00 289.73 o
2 8 1 1 4007.99 4449.31 124.77 o
2 -8 1 1 4006.24 4812.12 122.07 o
4 8 1 -1 574.97 292.02 71.31 o
4 -8 1 -1 575.34 446.40 97.50 o
4 8 1 0 7912.89 8631.34 223.66 o
4 -8 1 0 7903.02 8669.97 263.25 o
-3 9 1 -1 1246.27 1189.58 117.83 o
-3 -9 1 -1 1248.48 1128.44 130.47 o
-3 9 1 0 4244.27 3556.90 165.05 o
-3 -9 1 0 4233.34 3729.43 153.10 o
-3 9 1 1 131.60 72.88 65.89 <
-3 -9 1 1 131.43 71.76 50.54 <
-1 9 1 -1 742.56 854.61 74.72 o
-1 -9 1 -1 745.76 1030.01 68.62 o
-1 9 1 0 2744.28 3199.67 114.71 o
-1 -9 1 0 2724.74 3337.15 116.97 o
-1 9 1 1 24.52 7.22 43.10 <
-1 -9 1 1 24.58 -2.26 38.13 <
1 9 1 -1 25.02 22.11 45.13 <
1 -9 1 -1 24.44 -2.26 46.93 <
1 9 1 0 2738.14 3056.63 114.31 o
1 -9 1 0 2714.40 3232.63 127.62 o
1 9 1 1 749.43 936.87 78.30 o
1 -9 1 1 756.04 1151.10 111.03 o
3 9 1 -1 133.92 63.40 60.02 <
3 -9 1 -1 133.02 58.44 54.15 <
3 9 1 0 4232.62 3731.40 159.93 o
3 -9 1 0 4212.09 3900.70 145.26 o
3 9 1 1 1256.29 1005.96 106.51 o
3 -9 1 1 1262.91 1147.97 118.47 o
-2 10 1 -1 315.18 332.81 86.19 o
-2 -10 1 -1 314.85 237.37 61.15 o
-2 10 1 0 20209.40 21511.20 295.56 o
-2 -10 1 0 20230.00 21063.60 264.99 o
-2 10 1 1 2203.03 2038.32 116.71 o
-2 -10 1 1 2201.16 2167.03 107.91 o
0 10 1 -1 679.43 844.16 80.33 o
0 -10 1 -1 680.01 829.73 78.53 o
0 10 1 0 29911.90 28715.90 278.64 o
0 -10 1 0 29934.80 28813.10 344.07 o
0 10 1 1 673.15 739.44 68.84 o
0 -10 1 1 671.88 735.36 98.41 o
2 10 1 -1 2197.99 2074.55 120.80 o
2 -10 1 -1 2197.56 2336.95 148.12 o
2 10 1 0 20197.80 20934.60 291.87 o
2 -10 1 0 20207.00 22553.50 362.55 o
2 10 1 1 310.92 224.54 64.99 o
2 -10 1 1 309.86 304.19 73.79 o
-3 11 1 -1 5263.22 4711.99 217.38 o
-3 -11 1 -1 5262.03 4482.52 265.48 o
-3 11 1 0 8234.80 9219.08 274.77 o
-3 -11 1 0 8176.44 8639.63 214.83 o
-3 11 1 1 261.71 252.05 90.26 o
-3 -11 1 1 261.91 113.28 66.57 <
-1 11 1 -1 2786.33 3015.92 140.50 o
-1 -11 1 -1 2785.39 3180.95 167.38 o
-1 11 1 0 12622.10 11529.50 209.82 o
-1 -11 1 0 12527.50 11695.00 274.89 o
-1 11 1 1 133.46 88.90 54.38 <
-1 -11 1 1 133.74 118.23 60.47 <
1 11 1 -1 132.55 81.68 54.83 <
1 -11 1 -1 132.24 154.34 74.91 o
1 11 1 0 12602.00 11904.30 215.63 o
1 -11 1 0 12517.00 11601.50 278.55 o
1 11 1 1 2807.60 3118.97 130.01 o
1 -11 1 1 2807.58 3152.69 170.65 o
3 11 1 -1 264.45 175.32 82.58 o
3 -11 1 -1 264.24 213.68 69.05 o
3 11 1 0 8199.00 8184.16 250.72 o
3 -11 1 0 8161.93 8809.92 227.24 o
3 11 1 1 5293.70 4483.40 203.65 o
3 -11 1 1 5293.98 4456.27 179.27 o
-2 12 1 -1 398.83 251.81 78.07 o
-2 -12 1 -1 404.00 277.99 80.10 o
-2 12 1 0 4274.94 4425.70 185.57 o
-2 -12 1 0 4278.39 4626.73 176.55 o
-2 12 1 1 58.90 69.72 73.11 <
-2 -12 1 1 57.37 -17.60 61.82 <
0 12 1 -1 76.78 18.73 53.25 <
0 -12 1 -1 80.47 15.12 58.22 <
0 12 1 0 4400.72 4071.29 162.18 o
0 -12 1 0 4404.23 4128.20 162.18 o
0 12 1 1 77.97 -9.93 59.34 <
0 -12 1 1 79.95 -13.99 58.67 <
2 12 1 -1 58.20 82.58 74.46 <
2 -12 1 -1 57.68 61.82 66.11 <
2 12 1 0 4250.56 4417.38 175.77 o
2 -12 1 0 4251.12 4489.22 157.46 o
2 12 1 1 395.95 294.26 81.24 o
2 -12 1 1 398.73 246.88 69.05 o
-1 13 1 -1 509.74 670.72 94.79 o
-1 -13 1 -1 507.52 513.64 128.18 o
-1 13 1 0 7018.91 6027.46 175.12 o
-1 -13 1 0 6984.39 6292.84 282.46 o
-1 13 1 1 841.00 711.27 86.88 o
-1 -13 1 1 840.95 742.86 141.49 o
1 13 1 -1 835.77 708.68 99.08 o
1 -13 1 -1 834.27 696.25 116.68 o
1 13 1 0 7018.70 6242.21 179.21 o
1 -13 1 0 6978.17 6056.89 232.09 o
1 13 1 1 516.62 576.73 91.61 o
1 -13 1 1 515.42 611.93 111.92 o
-2 14 1 0 137.98 164.71 85.97 <
-2 -14 1 0 137.25 199.91 100.41 <
-2 14 1 1 25.44 41.29 80.55 <
-2 -14 1 1 25.49 11.51 100.18 <
0 14 1 -1 495.19 331.92 86.20 o
0 -14 1 -1 496.26 321.77 120.72 o
0 14 1 0 108.50 177.80 77.85 o
0 -14 1 0 107.18 194.73 78.30 o
0 14 1 1 492.65 451.78 90.49 o
0 -14 1 1 492.72 513.38 95.91 o
2 14 1 -1 25.58 -39.26 76.26 <
2 -14 1 -1 25.81 50.99 76.26 <
2 14 1 0 135.90 113.27 84.39 <
2 -14 1 0 136.14 44.23 77.62 <
-1 15 1 0 17754.30 19393.10 396.24 o
-1 -15 1 0 17697.50 19368.30 488.64 o
-1 15 1 1 119.09 21.21 76.04 <
-1 -15 1 1 119.34 27.98 104.47 <
1 15 1 -1 117.90 99.28 78.07 <
1 -15 1 -1 118.16 107.86 94.09 <
1 15 1 0 17772.20 19117.90 343.71 o
1 -15 1 0 17719.90 19463.70 406.42 o
-4 0 2 -1 108.17 -4.06 60.47 <
-4 0 2 0 5384.00 5855.69 158.98 o
-4 0 2 1 4.32 -41.97 44.22 <
-2 0 2 -1 21.17 -13.09 25.95 <
-2 0 2 0 6637.71 5539.94 95.43 o
-2 0 2 1 88.45 11.06 26.40 <
0 0 2 -1 25.37 17.60 14.21 <
0 0 2 1 24.99 -0.23 17.60 <
2 0 2 -1 89.19 17.60 24.37 <
2 0 2 0 6628.02 5323.92 92.53 o
2 0 2 1 21.52 24.82 21.66 <
4 0 2 -1 4.38 -8.57 34.52 <
4 0 2 0 5367.67 5968.93 128.09 o
4 0 2 1 106.98 3.38 48.74 <
-5 1 2 1 180.36 114.62 71.75 <
-5 -1 2 1 180.75 57.54 68.82 <
-3 1 2 -1 1433.67 1690.21 89.84 o
-3 -1 2 -1 1431.78 1600.39 92.55 o
-3 1 2 0 11889.70 11339.20 173.73 o
-3 -1 2 0 11891.00 11305.90 174.44 o
-3 1 2 1 6.54 5.64 28.88 <
-3 -1 2 1 6.41 10.60 30.01 <
-1 1 2 -1 1133.26 756.11 41.54 o
-1 -1 2 -1 1135.08 988.80 39.06 o
-1 1 2 0 24723.90 20403.90 109.67 o
-1 -1 2 0 24726.10 19673.70 124.68 o
-1 1 2 1 115.32 23.92 15.34 <
-1 -1 2 1 115.01 18.73 16.92 <
1 1 2 -1 114.03 42.87 18.05 o
1 -1 2 -1 114.98 42.42 21.21 <
1 1 2 0 24744.50 19087.00 105.65 o
1 -1 2 0 24743.30 19935.30 121.47 o
1 1 2 1 1138.00 898.08 39.06 o
1 -1 2 1 1135.08 915.59 39.05 o
3 1 2 -1 6.46 9.48 22.56 <
3 -1 2 -1 6.45 -2.03 29.11 <
3 1 2 0 11870.40 11126.50 137.86 o
3 -1 2 0 11868.50 11031.90 144.00 o
3 1 2 1 1437.37 1545.98 69.51 o
3 -1 2 1 1436.89 1567.90 73.12 o
5 1 2 -1 179.99 28.66 56.18 <
5 -1 2 -1 179.72 41.52 58.44 <
-4 2 2 -1 869.38 943.95 117.35 o
-4 -2 2 -1 869.99 981.65 93.88 o
-4 2 2 0 14458.70 16620.50 317.12 o
-4 -2 2 0 14440.80 16070.10 247.71 o
-4 2 2 1 63.32 56.63 62.05 <
-4 -2 2 1 63.30 34.52 49.64 <
-2 2 2 -1 1022.53 965.58 56.88 o
-2 -2 2 -1 1021.53 933.96 53.27 o
-2 2 2 0 20191.10 21517.10 158.40 o
-2 -2 2 0 20159.00 20169.30 135.73 o
-2 2 2 1 359.43 325.64 31.59 o
-2 -2 2 1 358.42 254.55 23.70 o
0 2 2 -1 28.41 16.92 20.53 <
0 -2 2 -1 27.61 9.48 21.21 <
0 2 2 0 28489.20 42438.60 228.15 o
0 2 2 1 28.34 19.40 25.95 <
0 -2 2 1 27.97 5.64 42.87 <
2 2 2 -1 358.53 277.79 26.18 o
2 -2 2 -1 359.40 274.86 28.21 o
2 2 2 0 20180.80 20315.80 151.78 o
2 -2 2 0 20166.60 20014.00 138.24 o
2 2 2 1 1020.99 865.34 41.08 o
2 -2 2 1 1022.74 869.68 58.01 o
4 2 2 -1 62.77 24.82 34.75 <
4 -2 2 -1 62.87 60.92 41.52 <
4 2 2 0 14437.40 15826.20 228.96 o
4 -2 2 0 14430.40 15854.00 205.94 o
4 2 2 1 868.76 1042.14 87.33 o
4 -2 2 1 867.92 1000.38 92.97 o
-3 3 2 -1 33.01 -41.74 52.12 <
-3 -3 2 -1 32.86 37.91 39.26 <
-3 3 2 0 58582.10 60312.10 504.10 o
-3 -3 2 0 58575.80 55642.50 334.63 o
-3 3 2 1 180.80 205.11 41.29 o
-3 -3 2 1 180.99 210.30 30.69 o
-1 3 2 -1 34.66 51.45 23.47 o
-1 -3 2 -1 34.25 17.15 23.01 <
-1 3 2 0 192710.00 211689.00 554.68 o
-1 -3 2 0 192749.00 175413.00 565.62 o
-1 3 2 1 396.28 312.37 33.63 o
-1 -3 2 1 398.20 277.64 30.25 o
1 3 2 -1 400.81 256.36 32.05 o
1 -3 2 -1 399.17 265.38 39.49 o
1 3 2 0 194357.00 186793.00 591.27 o
1 -3 2 0 194386.00 206858.00 820.80 o
1 3 2 1 33.99 26.63 21.66 <
1 -3 2 1 34.47 21.21 30.69 <
3 3 2 -1 180.98 193.60 33.40 o
3 -3 2 -1 179.95 204.89 48.51 o
3 3 2 0 58666.50 58284.70 312.49 o
3 -3 2 0 58675.30 58500.40 434.03 o
3 3 2 1 32.50 16.25 32.72 <
3 -3 2 1 32.37 50.09 49.41 <
-4 4 2 -1 237.01 96.58 93.19 <
-4 -4 2 -1 235.79 140.35 56.41 o
-4 4 2 0 2525.81 1722.57 166.57 o
-4 -4 2 0 2502.97 1564.84 105.63 o
-4 4 2 1 113.08 34.97 66.79 <
-4 -4 2 1 113.06 16.25 49.41 <
-2 4 2 -1 180.00 120.50 27.30 o
-2 -4 2 -1 180.48 131.78 32.49 o
-2 4 2 0 17574.50 17888.00 128.70 o
-2 -4 2 0 17487.50 16265.10 170.84 o
-2 4 2 1 202.97 127.26 24.37 o
-2 -4 2 1 203.31 95.68 31.82 o
0 4 2 -1 21.83 10.38 27.75 <
0 -4 2 -1 20.89 -16.02 29.33 <
0 4 2 1 21.95 12.86 24.59 <
0 -4 2 1 21.28 8.35 23.92 <
2 4 2 -1 202.84 92.07 24.37 o
2 -4 2 -1 201.74 94.77 33.17 o
2 4 2 0 17568.50 16879.60 148.48 o
2 -4 2 0 17470.10 17855.30 173.99 o
2 4 2 1 181.40 114.40 28.88 o
2 -4 2 1 180.96 106.95 31.36 o
4 4 2 -1 112.90 19.63 37.46 <
4 -4 2 -1 112.64 22.56 54.60 <
4 4 2 0 2515.98 1614.05 84.21 o
4 -4 2 0 2484.53 1577.47 115.37 o
4 4 2 1 239.47 84.61 56.41 <
4 -4 2 1 239.19 130.87 61.15 o
-3 5 2 -1 512.06 700.43 83.49 o
-3 -5 2 -1 513.50 593.25 69.28 o
-3 5 2 0 63957.80 65784.70 451.33 o
-3 -5 2 0 63936.60 62202.70 375.96 o
-3 5 2 1 385.73 495.76 51.00 o
-3 -5 2 1 384.43 439.34 53.70 o
-1 5 2 -1 129.18 47.84 28.43 <
-1 -5 2 -1 129.62 51.22 29.56 <
-1 5 2 0 153401.00 166348.00 501.89 o
-1 -5 2 0 153360.00 136817.00 523.81 o
-1 5 2 1 528.09 415.26 39.27 o
-1 -5 2 1 525.85 382.29 41.75 o
1 5 2 -1 523.76 398.82 42.88 o
1 -5 2 -1 525.56 383.49 37.24 o
1 5 2 0 153914.00 172277.00 892.43 o
1 -5 2 0 153833.00 159564.00 669.48 o
1 5 2 1 126.94 35.88 29.33 <
1 -5 2 1 129.07 68.83 35.20 <
3 5 2 -1 383.58 408.44 47.39 o
3 -5 2 -1 384.16 438.46 55.29 o
3 5 2 0 64021.40 64814.50 388.90 o
3 -5 2 0 64021.90 70180.20 621.58 o
3 5 2 1 510.61 569.57 59.57 o
3 -5 2 1 512.00 550.62 81.01 o
-4 6 2 -1 882.80 766.88 127.74 o
-4 -6 2 -1 880.27 894.60 99.53 o
-4 6 2 0 53206.10 52877.40 620.10 o
-4 -6 2 0 53119.60 53291.90 412.11 o
-4 6 2 1 34.67 -76.49 64.08 <
-4 -6 2 1 34.35 -21.21 53.48 <
-2 6 2 -1 1011.48 859.76 71.33 o
-2 -6 2 -1 1012.84 787.75 64.33 o
-2 6 2 0 124656.00 133532.00 696.60 o
-2 -6 2 0 124459.00 115092.00 482.22 o
-2 6 2 1 97.40 -16.02 35.43 <
-2 -6 2 1 96.44 31.14 30.46 <
0 6 2 -1 159.57 103.80 31.82 o
0 -6 2 -1 160.43 129.98 37.91 o
0 6 2 0 205329.00 210961.00 842.99 o
0 -6 2 0 205002.00 206249.00 829.09 o
0 6 2 1 160.39 92.75 31.14 o
0 -6 2 1 158.57 125.91 33.62 o
2 6 2 -1 97.42 6.99 29.56 <
2 -6 2 -1 96.31 1.81 35.88 <
2 6 2 0 125307.00 119471.00 521.27 o
2 -6 2 0 125098.00 119289.00 605.62 o
2 6 2 1 1015.92 851.76 62.97 o
2 -6 2 1 1013.74 931.87 70.41 o
4 6 2 -1 34.71 25.27 47.38 <
4 -6 2 -1 34.33 8.80 64.98 <
4 6 2 0 53231.00 52897.00 462.36 o
4 -6 2 0 53150.70 53348.40 544.53 o
4 6 2 1 886.63 861.55 125.92 o
4 -6 2 1 885.56 938.29 115.54 o
-3 7 2 -1 359.28 358.80 71.31 o
-3 -7 2 -1 358.74 271.02 72.66 o
-3 7 2 0 18340.40 18992.40 289.91 o
-3 -7 2 0 18326.60 18851.10 244.45 o
-3 7 2 1 278.18 265.83 59.80 o
-3 -7 2 1 278.68 286.14 55.74 o
-1 7 2 -1 472.84 376.45 46.04 o
-1 -7 2 -1 468.99 415.71 46.94 o
-1 7 2 0 23488.20 24494.90 212.54 o
-1 -7 2 0 23469.80 21848.40 219.69 o
-1 7 2 1 558.18 387.96 46.49 o
-1 -7 2 1 559.76 519.80 49.66 o
1 7 2 -1 562.78 510.26 46.49 o
1 -7 2 -1 559.35 446.37 52.35 o
1 7 2 0 23488.60 22932.00 207.54 o
1 -7 2 0 23470.70 23633.10 231.18 o
1 7 2 1 473.46 325.17 48.97 o
1 -7 2 1 473.24 398.52 50.10 o
3 7 2 -1 281.97 259.94 60.92 o
3 -7 2 -1 280.57 246.85 50.09 o
3 7 2 0 18329.10 18219.90 270.73 o
3 -7 2 0 18315.90 19299.40 261.82 o
3 7 2 1 362.73 213.23 61.37 o
3 -7 2 1 361.68 187.74 76.94 o
-4 8 2 0 6052.61 8049.40 297.31 o
-4 -8 2 0 6064.96 7282.05 223.84 o
-4 8 2 1 48.13 4.74 88.00 <
-4 -8 2 1 47.83 66.79 61.60 <
-2 8 2 -1 356.27 345.69 66.11 o
-2 -8 2 -1 356.21 299.43 50.09 o
-2 8 2 0 19936.70 19935.40 270.23 o
-2 -8 2 0 19997.30 17924.80 221.04 o
-2 8 2 1 276.11 274.86 51.00 o
-2 -8 2 1 274.41 188.20 48.07 o
0 8 2 -1 11.08 13.99 34.52 <
0 -8 2 -1 11.39 -0.90 38.81 <
0 8 2 0 38921.80 44621.10 312.19 o
0 -8 2 0 39031.20 45246.00 311.57 o
0 8 2 1 11.31 3.84 33.17 <
0 -8 2 1 11.17 -18.73 34.30 <
2 8 2 -1 277.12 167.65 47.16 o
2 -8 2 -1 277.66 234.45 56.86 o
2 8 2 0 19933.30 18751.40 222.38 o
2 -8 2 0 20002.60 19918.80 265.05 o
2 8 2 1 351.88 324.73 57.77 o
2 -8 2 1 353.79 312.78 62.96 o
4 8 2 -1 48.68 50.99 61.15 <
4 -8 2 -1 48.80 -7.90 75.36 <
4 8 2 0 6049.19 7261.95 208.26 o
4 -8 2 0 6068.18 7594.35 250.52 o
-3 9 2 -1 1291.43 1204.37 122.54 o
-3 -9 2 -1 1289.57 1162.64 113.74 o
-3 9 2 0 15856.60 15669.90 306.23 o
-3 -9 2 0 15845.60 15131.40 243.05 o
-3 9 2 1 27.54 38.81 57.76 <
-3 -9 2 1 28.56 41.07 43.10 <
-1 9 2 -1 670.09 629.82 68.60 o
-1 -9 2 -1 669.60 486.54 58.90 o
-1 9 2 0 35532.10 38183.60 306.36 o
-1 -9 2 0 35509.90 34908.20 312.36 o
-1 9 2 1 30.44 -8.80 40.39 <
-1 -9 2 1 31.25 -24.37 41.74 <
1 9 2 -1 30.40 22.79 44.68 <
1 -9 2 -1 31.47 -22.34 43.10 <
1 9 2 0 35551.10 37686.10 337.07 o
1 -9 2 0 35520.60 37970.30 339.09 o
1 9 2 1 668.67 535.60 65.91 o
1 -9 2 1 662.69 569.20 75.61 o
3 9 2 -1 28.04 -31.59 55.28 <
3 -9 2 -1 28.85 -9.48 51.90 <
3 9 2 0 15831.50 14490.10 278.55 o
3 -9 2 0 15811.60 15056.30 267.14 o
3 9 2 1 1281.54 1257.00 116.24 o
3 -9 2 1 1278.04 1155.71 107.22 o
-2 10 2 -1 222.94 68.59 73.11 <
-2 -10 2 -1 223.19 46.48 49.19 <
-2 10 2 0 33666.00 33082.50 361.74 o
-2 -10 2 0 33510.30 32009.50 302.02 o
-2 10 2 1 93.64 -56.41 55.28 <
-2 -10 2 1 91.84 -15.79 43.10 <
0 10 2 -1 9.03 -4.74 46.93 <
0 -10 2 -1 8.61 10.60 43.32 <
0 10 2 0 39508.40 44171.70 357.06 o
0 -10 2 0 39313.00 44125.10 432.72 o
0 10 2 1 9.05 -0.68 45.58 <
0 -10 2 1 8.64 -12.86 53.02 <
2 10 2 -1 93.50 -18.95 48.96 <
2 -10 2 -1 92.61 92.51 60.47 <
2 10 2 0 33664.30 29494.40 342.17 o
2 -10 2 0 33511.40 33541.60 383.22 o
2 10 2 1 218.83 38.59 55.28 <
2 -10 2 1 221.21 47.39 61.15 <
-3 -11 2 -1 526.64 165.20 177.38 <
-3 11 2 0 8065.17 8045.46 258.95 o
-3 -11 2 0 8084.00 7731.64 187.55 o
-3 11 2 1 88.89 64.76 83.03 <
-3 -11 2 1 90.29 21.66 52.35 <
-1 11 2 -1 222.97 53.93 61.61 <
-1 -11 2 -1 217.61 61.15 48.06 <
-1 11 2 0 26398.10 27206.50 314.15 o
-1 -11 2 0 26431.80 26392.60 306.45 o
-1 11 2 1 13.04 70.85 54.15 <
-1 -11 2 1 13.80 29.78 53.25 <
1 11 2 -1 12.84 -26.17 50.09 <
1 -11 2 -1 13.82 -5.87 58.67 <
1 11 2 0 26394.40 26851.00 318.92 o
1 -11 2 0 26430.40 27112.10 419.44 o
1 11 2 1 225.05 28.88 55.05 <
1 -11 2 1 222.34 36.55 63.40 <
3 11 2 -1 87.38 43.77 59.57 <
3 -11 2 -1 89.44 27.98 60.92 <
3 11 2 0 8051.24 7480.32 240.01 o
3 -11 2 0 8074.02 7951.77 224.47 o
-2 12 2 -1 483.15 343.48 83.95 o
-2 -12 2 -1 487.10 280.52 79.21 o
-2 12 2 0 512.90 653.51 99.97 o
-2 -12 2 0 497.82 700.93 85.98 o
-2 12 2 1 243.85 227.90 78.75 o
-2 -12 2 1 244.21 229.03 68.14 o
0 12 2 -1 48.91 21.44 57.31 <
0 -12 2 -1 50.38 17.83 59.79 <
0 12 2 0 191.05 138.99 68.37 o
0 -12 2 0 184.06 245.50 74.69 o
0 12 2 1 48.62 -110.11 54.60 <
0 -12 2 1 50.36 -40.84 59.12 <
2 12 2 -1 244.77 125.01 76.95 <
2 -12 2 -1 241.84 259.04 85.29 o
2 12 2 0 518.47 729.76 97.26 o
2 -12 2 0 497.50 701.31 98.83 o
2 12 2 1 492.53 301.67 79.42 o
2 -12 2 1 494.09 291.29 82.81 o
-1 13 2 -1 236.76 30.24 73.34 <
-1 -13 2 -1 233.40 114.63 102.67 <
-1 13 2 0 916.89 306.91 76.73 o
-1 -13 2 0 934.32 336.96 118.49 o
-1 13 2 1 79.23 46.71 60.25 <
-1 -13 2 1 77.45 69.72 98.15 <
1 13 2 -1 77.58 -16.70 66.34 <
1 -13 2 -1 78.56 46.93 81.46 <
1 13 2 0 915.77 289.74 84.85 o
1 -13 2 0 937.02 362.91 100.66 o
1 13 2 1 238.71 -11.51 60.70 <
1 -13 2 1 236.72 -19.40 78.75 <
-2 14 2 1 179.21 169.46 88.23 <
-2 -14 2 1 176.10 270.99 125.23 o
0 14 2 -1 302.69 238.51 82.59 o
0 -14 2 -1 307.32 242.81 94.55 o
0 14 2 0 78338.70 81263.20 666.65 o
0 -14 2 0 78053.70 81009.60 669.30 o
0 14 2 1 308.89 162.91 79.20 o
0 -14 2 1 309.25 99.28 75.36 <
2 14 2 -1 178.76 190.89 93.86 o
2 -14 2 -1 179.01 269.19 104.25 o
-1 15 2 1 337.38 282.29 87.55 o
-1 -15 2 1 340.38 280.04 120.95 o
1 15 2 -1 342.61 346.36 94.77 o
1 -15 2 -1 339.39 300.10 106.73 o
-4 0 3 -1 5247.31 5174.91 162.90 o
-4 0 3 0 47.82 79.87 55.51 <
-4 0 3 1 1068.73 1137.97 88.02 o
-2 0 3 -1 7851.17 10657.80 141.96 o
-2 0 3 0 35.57 63.18 24.82 o
-2 0 3 1 1029.86 1047.55 41.09 o
0 0 3 -1 2914.13 3404.86 63.77 o
0 0 3 0 9.29 5.19 22.11 <
0 0 3 1 2924.05 3388.74 77.73 o
2 0 3 -1 1037.37 983.52 41.07 o
2 0 3 0 36.19 42.64 21.66 <
2 0 3 1 7892.98 10210.70 140.54 o
4 0 3 -1 1074.96 1105.30 69.73 o
4 0 3 0 47.88 74.23 43.32 <
4 0 3 1 5284.65 5387.21 134.54 o
-3 1 3 -1 350.25 165.62 56.41 o
-3 -1 3 -1 353.54 199.24 52.57 o
-3 1 3 0 14911.00 15307.00 206.05 o
-3 -1 3 0 14883.80 14737.80 176.18 o
-3 1 3 1 919.65 1030.00 65.00 o
-3 -1 3 1 919.26 979.91 59.13 o
-1 1 3 -1 190.21 848.62 30.46 o
-1 -1 3 -1 194.09 827.22 35.65 o
-1 1 3 0 48017.20 50133.00 163.98 o
-1 -1 3 0 47952.40 49153.20 200.19 o
-1 1 3 1 240.10 210.54 21.66 o
-1 -1 3 1 239.88 194.29 23.69 o
1 1 3 -1 239.53 189.79 25.05 o
1 -1 3 -1 239.37 188.66 30.01 o
1 1 3 0 48004.80 47442.40 208.29 o
1 -1 3 0 47967.60 49285.50 244.12 o
1 1 3 1 188.12 746.92 35.88 o
1 -1 3 1 192.18 781.49 41.30 o
3 1 3 -1 917.33 977.03 55.30 o
3 -1 3 -1 916.37 912.27 62.74 o
3 1 3 0 14894.80 14535.00 162.35 o
3 -1 3 0 14886.20 14425.20 187.31 o
3 1 3 1 346.44 188.88 40.39 o
3 -1 3 1 348.44 123.21 39.27 o
-4 2 3 -1 455.92 31.14 72.89 <
-4 -2 3 -1 454.91 146.46 64.09 o
-4 2 3 0 4479.71 3512.92 149.28 o
-4 -2 3 0 4485.44 3531.23 137.32 o
-4 2 3 1 385.93 194.30 62.28 o
-4 -2 3 1 386.04 209.64 57.32 o
-2 2 3 -1 467.31 881.53 51.00 o
-2 -2 3 -1 464.92 888.07 44.01 o
-2 2 3 0 22000.80 24323.30 154.62 o
-2 -2 3 0 22013.70 22691.90 152.90 o
-2 2 3 1 249.69 180.08 19.63 o
-2 -2 3 1 251.55 186.86 25.28 o
0 2 3 -1 54.79 101.76 23.69 o
0 -2 3 -1 53.36 125.91 27.75 o
0 2 3 0 50968.30 52989.80 208.57 o
0 -2 3 0 50969.60 51566.70 246.21 o
0 2 3 1 55.36 92.51 18.50 o
0 -2 3 1 53.29 122.97 23.24 o
2 2 3 -1 252.69 190.89 25.05 o
2 -2 3 -1 254.95 215.04 32.27 o
2 2 3 0 22017.70 22287.40 149.06 o
2 -2 3 0 22004.30 22799.80 168.28 o
2 2 3 1 473.03 895.16 49.19 o
2 -2 3 1 468.59 810.95 44.45 o
4 2 3 -1 390.06 209.16 44.90 o
4 -2 3 -1 391.46 238.27 49.64 o
4 2 3 0 4493.18 3589.29 105.22 o
4 -2 3 0 4485.23 3494.82 114.03 o
4 2 3 1 463.31 107.85 56.41 <
4 -2 3 1 462.28 73.33 49.19 <
-3 3 3 -1 3087.08 3658.86 134.30 o
-3 -3 3 -1 3088.19 3303.45 103.83 o
-3 3 3 0 35316.60 36698.60 311.56 o
-3 -3 3 0 35264.10 33583.80 238.26 o
-3 3 3 1 201.61 241.66 43.55 o
-3 -3 3 1 201.50 166.75 34.30 o
-1 3 3 -1 1371.37 2745.36 55.07 o
-1 -3 3 -1 1373.37 2622.66 58.91 o
-1 3 3 0 58709.30 58707.60 280.05 o
-1 -3 3 0 58595.10 50433.30 238.70 o
-1 3 3 1 11.89 9.70 20.76 <
-1 -3 3 1 11.65 27.08 23.92 <
1 3 3 -1 11.78 18.28 21.44 <
1 -3 3 -1 11.76 41.52 24.14 <
1 3 3 0 58901.80 54922.10 250.48 o
1 -3 3 0 58747.30 53508.70 279.70 o
1 3 3 1 1362.30 2690.91 56.90 o
1 -3 3 1 1365.11 2770.35 65.71 o
3 3 3 -1 199.97 208.73 35.20 o
3 -3 3 -1 199.77 188.19 41.07 o
3 3 3 0 35328.60 34203.60 246.45 o
3 -3 3 0 35233.60 33031.70 340.16 o
3 3 3 1 3065.00 3496.80 94.62 o
3 -3 3 1 3066.49 3463.11 132.13 o
-4 4 3 -1 768.53 186.87 84.18 o
-4 -4 3 -1 765.60 248.72 69.29 o
-4 4 3 0 118.35 128.38 77.62 <
-4 -4 3 0 116.93 77.62 57.76 <
-4 4 3 1 1525.43 1539.23 130.24 o
-4 -4 3 1 1522.90 1285.35 94.58 o
-2 4 3 -1 914.15 1936.50 59.15 o
-2 -4 3 -1 911.95 1672.33 68.40 o
-2 4 3 0 887.78 721.35 40.63 o
-2 -4 3 0 883.89 608.93 50.78 o
-2 4 3 1 2484.21 2525.12 59.63 o
-2 -4 3 1 2479.28 2453.65 61.44 o
0 4 3 -1 1424.80 1745.65 59.85 o
0 -4 3 -1 1421.87 1679.95 67.08 o
0 4 3 0 3459.00 2369.07 60.80 o
0 -4 3 0 3450.97 2336.58 60.57 o
0 4 3 1 1434.42 1778.49 56.21 o
0 -4 3 1 1431.39 1740.37 55.30 o
2 4 3 -1 2493.84 2500.10 56.90 o
2 -4 3 -1 2489.08 2492.78 68.64 o
2 4 3 0 889.20 719.77 38.82 o
2 -4 3 0 882.79 710.01 46.04 o
2 4 3 1 927.18 1735.84 57.09 o
2 -4 3 1 925.94 1763.63 71.53 o
4 4 3 -1 1537.20 1381.76 84.63 o
4 -4 3 -1 1534.36 1358.78 110.13 o
4 4 3 0 118.68 43.10 47.39 <
4 -4 3 0 113.15 66.79 65.21 <
4 4 3 1 780.85 196.30 85.06 o
4 -4 3 1 778.45 159.98 66.56 o
-3 5 3 -1 2097.34 2012.94 126.16 o
-3 -5 3 -1 2095.12 1810.23 102.91 o
-3 5 3 0 3051.83 3388.97 119.01 o
-3 -5 3 0 3092.94 2878.75 96.66 o
-3 5 3 1 923.60 910.58 64.32 o
-3 -5 3 1 923.16 887.32 63.19 o
-1 5 3 -1 1276.42 2394.47 70.41 o
-1 -5 3 -1 1273.52 2104.01 71.09 o
-1 5 3 0 21474.80 19449.70 167.57 o
-1 -5 3 0 21622.80 18052.60 171.54 o
-1 5 3 1 362.34 317.97 34.08 o
-1 -5 3 1 362.15 294.96 37.24 o
1 5 3 -1 363.19 281.63 34.98 o
1 -5 3 -1 363.17 270.80 37.46 o
1 5 3 0 21482.20 18366.30 158.42 o
1 -5 3 0 21615.40 18750.70 174.94 o
1 5 3 1 1264.52 2344.15 67.97 o
1 -5 3 1 1260.67 2219.56 72.03 o
3 5 3 -1 917.01 851.10 56.20 o
3 -5 3 -1 917.22 829.24 59.59 o
3 5 3 0 3064.44 3158.11 102.72 o
3 -5 3 0 3097.96 2915.66 107.91 o
3 5 3 1 2080.30 2002.41 107.47 o
3 -5 3 1 2077.81 1865.93 121.25 o
-4 6 3 0 3354.37 4094.75 207.27 o
-4 -6 3 0 3350.47 4029.11 153.52 o
-4 6 3 1 213.67 120.27 82.59 <
-4 -6 3 1 214.56 71.08 59.57 <
-2 6 3 -1 1278.20 1877.63 84.90 o
-2 -6 3 -1 1286.66 1727.17 85.34 o
-2 6 3 0 18940.20 20777.50 213.60 o
-2 -6 3 0 18932.70 17411.20 194.90 o
-2 6 3 1 114.15 39.26 32.72 <
-2 -6 3 1 112.45 36.33 35.42 <
0 6 3 -1 111.92 42.65 29.78 <
0 -6 3 -1 113.35 17.15 27.53 <
0 6 3 0 39766.30 33034.20 246.07 o
0 -6 3 0 39769.00 34827.50 252.93 o
0 6 3 1 111.11 34.97 29.78 <
0 -6 3 1 113.46 17.83 27.98 <
2 6 3 -1 112.81 50.77 32.27 <
2 -6 3 -1 110.87 71.08 38.59 <
2 6 3 0 18924.90 18735.30 214.93 o
2 -6 3 0 18937.40 18889.90 219.71 o
2 6 3 1 1292.48 1684.23 83.04 o
2 -6 3 1 1304.57 1651.60 75.60 o
4 6 3 -1 217.23 28.66 53.93 <
4 -6 3 -1 216.68 65.89 65.89 <
4 6 3 0 3342.26 4325.73 155.55 o
4 -6 3 0 3350.12 4021.69 178.83 o
-3 7 3 -1 239.96 9.03 55.96 <
-3 -7 3 -1 239.52 65.21 54.60 <
-3 7 3 0 28167.30 30707.90 320.31 o
-3 -7 3 0 28025.50 27429.70 272.08 o
-3 7 3 1 889.74 962.25 82.82 o
-3 -7 3 1 889.79 877.83 76.50 o
-1 7 3 -1 157.49 315.45 43.10 o
-1 -7 3 -1 158.37 305.30 46.48 o
-1 7 3 0 53417.50 48218.40 291.71 o
-1 -7 3 0 53119.10 44619.90 307.50 o
-1 7 3 1 257.20 170.60 36.78 o
-1 -7 3 1 257.20 159.09 36.33 o
1 7 3 -1 257.05 187.74 35.88 o
1 -7 3 -1 258.11 175.11 37.68 o
1 7 3 0 53517.90 49253.20 305.83 o
1 -7 3 0 53203.00 45576.80 350.29 o
1 7 3 1 157.52 318.39 41.07 o
1 -7 3 1 157.20 272.58 41.07 o
3 7 3 -1 883.71 905.69 85.99 o
3 -7 3 -1 884.98 768.73 70.64 o
3 7 3 0 28147.60 28449.40 343.28 o
3 -7 3 0 27982.20 29558.20 293.48 o
3 7 3 1 238.05 30.69 54.16 <
3 -7 3 1 237.30 -28.21 51.67 <
-4 8 3 1 1022.82 848.65 136.55 o
-4 -8 3 1 1019.48 761.74 92.31 o
-2 8 3 -1 4531.81 5330.17 156.90 o
-2 -8 3 -1 4518.19 4495.45 127.27 o
-2 8 3 0 5832.87 6071.80 162.19 o
-2 -8 3 0 5829.39 5002.08 131.01 o
-2 8 3 1 994.93 1077.14 82.84 o
-2 -8 3 1 990.80 844.88 71.10 o
0 8 3 -1 1665.84 1731.82 73.39 o
0 -8 3 -1 1657.65 1667.96 74.07 o
0 8 3 0 4871.56 3917.68 95.37 o
0 -8 3 0 4873.19 3816.98 96.06 o
0 8 3 1 1678.45 1644.69 71.77 o
0 -8 3 1 1670.70 1679.22 76.29 o
2 8 3 -1 1000.35 945.14 70.19 o
2 -8 3 -1 995.68 934.08 81.70 o
2 8 3 0 5799.48 5387.32 130.46 o
2 -8 3 0 5806.38 5415.87 146.75 o
2 8 3 1 4576.88 4722.82 136.11 o
2 -8 3 1 4563.05 4854.60 143.56 o
4 8 3 -1 1032.08 827.24 95.90 o
4 -8 3 -1 1028.64 723.67 112.60 o
-3 9 3 -1 1711.34 1214.71 122.08 o
-3 -9 3 -1 1713.82 1166.01 118.02 o
-3 9 3 0 17715.10 17569.60 279.10 o
-3 -9 3 0 17574.10 16264.20 256.15 o
-3 9 3 1 377.65 317.49 71.98 o
-3 -9 3 1 376.13 340.28 59.12 o
-1 9 3 -1 966.45 1306.54 86.88 o
-1 -9 3 -1 969.82 1109.14 85.53 o
-1 9 3 0 41222.30 43588.80 322.45 o
-1 -9 3 0 40947.30 40593.80 334.29 o
-1 9 3 1 121.02 55.06 41.07 <
-1 -9 3 1 120.14 92.06 47.16 <
1 9 3 -1 121.80 30.46 41.07 <
1 -9 3 -1 121.97 66.11 44.68 <
1 9 3 0 41203.10 43958.60 332.05 o
1 -9 3 0 40954.20 41386.30 348.13 o
1 9 3 1 958.06 1202.25 85.78 o
1 -9 3 1 959.17 1371.79 102.26 o
3 9 3 -1 377.07 336.45 63.41 o
3 -9 3 -1 375.71 329.90 80.78 o
3 9 3 0 17706.40 15864.10 293.14 o
3 -9 3 0 17588.00 16215.50 240.07 o
3 9 3 1 1694.32 1317.47 121.68 o
3 -9 3 1 1693.11 1120.90 105.66 o
-2 10 3 -1 290.97 24.60 64.31 <
-2 -10 3 -1 289.89 40.39 53.03 <
-2 10 3 0 3597.91 3728.01 131.65 o
-2 -10 3 0 3616.21 3522.73 128.72 o
-2 10 3 1 339.43 258.83 64.99 o
-2 -10 3 1 342.23 322.24 61.83 o
0 10 3 -1 102.03 60.70 46.03 <
0 -10 3 -1 101.25 64.76 49.42 <
0 10 3 0 3838.26 3725.30 118.36 o
0 -10 3 0 3863.46 3860.18 146.84 o
0 10 3 1 102.27 67.47 43.77 <
0 -10 3 1 101.72 73.11 56.18 <
2 10 3 -1 341.75 259.72 61.60 o
2 -10 3 -1 344.27 349.52 73.79 o
2 10 3 0 3593.44 2982.19 131.65 o
2 -10 3 0 3615.33 3567.60 147.26 o
2 10 3 1 290.57 42.42 55.74 <
2 -10 3 1 288.66 46.03 60.02 <
-3 11 3 0 6278.16 6296.15 235.13 o
-3 -11 3 0 6182.22 6313.11 161.72 o
-3 11 3 1 196.17 162.23 78.52 o
-3 -11 3 1 197.29 148.92 59.12 o
-1 11 3 -1 1370.21 1407.07 102.91 o
-1 -11 3 -1 1371.70 1228.77 123.89 o
-1 11 3 0 13850.40 15167.20 225.99 o
-1 -11 3 0 13660.50 14088.10 301.99 o
-1 11 3 1 74.67 9.48 48.96 <
-1 -11 3 1 74.58 46.26 61.83 <
1 11 3 -1 75.74 -23.92 52.35 <
1 -11 3 -1 75.63 20.76 57.99 <
1 11 3 0 13849.60 15081.80 245.74 o
1 -11 3 0 13649.90 15156.60 319.26 o
1 11 3 1 1358.94 1394.22 106.10 o
1 -11 3 1 1360.06 1554.94 142.22 o
3 11 3 -1 194.63 130.42 67.47 <
3 -11 3 -1 195.67 187.96 88.68 o
3 11 3 0 6270.70 5846.19 218.50 o
3 -11 3 0 6156.35 6676.84 216.68 o
-2 12 3 -1 1187.42 1100.81 138.14 o
-2 -12 3 -1 1183.10 1325.40 109.02 o
-2 12 3 0 18727.90 19817.60 336.38 o
-2 -12 3 0 18698.50 20794.00 297.91 o
-2 12 3 1 479.77 274.41 86.66 o
-2 -12 3 1 475.72 396.05 75.37 o
0 12 3 -1 524.36 423.38 78.09 o
0 -12 3 -1 522.74 407.80 98.40 o
0 12 3 0 32321.20 36926.00 436.10 o
0 -12 3 0 32288.40 36719.10 436.63 o
0 12 3 1 529.40 449.93 87.55 o
0 -12 3 1 528.80 389.02 84.62 o
2 12 3 -1 483.52 388.79 78.07 o
2 -12 3 -1 479.10 383.60 101.54 o
2 12 3 0 18722.70 19384.40 317.30 o
2 -12 3 0 18708.70 21965.80 398.72 o
2 12 3 1 1195.78 963.56 106.29 o
2 -12 3 1 1193.74 1276.82 122.76 o
-1 13 3 -1 1064.14 1028.77 125.24 o
-1 -13 3 -1 1062.53 1335.45 178.27 o
-1 13 3 0 894.11 1495.50 128.63 o
-1 -13 3 0 933.51 1436.62 182.79 o
-1 13 3 1 869.82 902.97 96.59 o
-1 -13 3 1 866.17 874.30 156.85 o
1 13 3 -1 872.99 807.42 106.74 o
1 -13 3 -1 871.18 902.66 127.05 o
1 13 3 0 893.02 1492.48 134.51 o
1 -13 3 0 929.49 1489.50 153.69 o
1 13 3 1 1056.42 1133.97 124.14 o
1 -13 3 1 1052.25 1302.56 148.74 o
0 14 3 -1 55.33 87.32 77.39 <
0 -14 3 -1 56.48 -32.94 97.70 <
0 14 3 0 1019.71 1123.21 123.00 o
0 -14 3 0 1024.65 956.42 117.35 o
0 14 3 1 55.14 25.27 72.20 <
0 -14 3 1 57.48 -41.74 68.82 <
-4 0 4 -1 150.81 13.76 66.11 <
-4 0 4 0 98080.10 109443.00 710.71 o
-4 0 4 1 3.23 4.06 54.15 <
-2 0 4 -1 55.56 -18.95 23.69 <
-2 0 4 0 247963.00 244104.00 498.51 o
-2 0 4 1 113.31 2.26 18.28 <
0 0 4 -1 7.53 10.15 22.11 <
0 0 4 0 425177.00 454699.00 907.34 o
0 0 4 1 7.45 18.73 19.63 <
2 0 4 -1 114.49 19.86 23.47 <
2 0 4 0 253613.00 219930.00 641.00 o
2 0 4 1 55.40 10.38 23.92 <
4 0 4 -1 3.28 -34.52 37.68 <
4 0 4 0 98620.30 105928.00 521.45 o
4 0 4 1 148.30 -1.13 44.45 <
-3 1 4 -1 469.61 534.36 72.89 o
-3 -1 4 -1 470.88 587.61 69.50 o
-3 1 4 0 9906.70 10429.60 166.89 o
-3 -1 4 0 9913.00 10077.60 153.36 o
-3 1 4 1 904.55 1208.02 71.76 o
-3 -1 4 1 904.58 1129.75 51.91 o
-1 1 4 -1 15.51 -14.44 18.73 <
-1 -1 4 -1 16.02 16.02 20.53 <
-1 1 4 0 14298.60 21129.80 124.40 o
-1 -1 4 0 14313.50 20399.80 119.89 o
-1 1 4 1 1473.60 1347.26 42.44 o
-1 -1 4 1 1474.82 1365.49 49.67 o
1 1 4 -1 1474.42 1277.40 38.84 o
1 -1 4 -1 1467.33 1306.16 46.74 o
1 1 4 0 14308.40 20502.30 128.20 o
1 -1 4 0 14307.60 21363.50 145.21 o
1 1 4 1 15.75 9.03 19.18 <
1 -1 4 1 15.68 6.54 21.44 <
3 1 4 -1 903.49 1129.14 60.26 o
3 -1 4 -1 899.89 990.78 51.23 o
3 1 4 0 9919.25 9902.25 142.01 o
3 -1 4 0 9903.76 9695.52 164.14 o
3 1 4 1 470.63 570.45 53.48 o
3 -1 4 1 470.94 612.42 64.09 o
-4 2 4 -1 1868.68 2624.11 146.49 o
-4 -2 4 -1 1871.07 2754.85 137.69 o
-4 2 4 0 8689.24 13775.00 262.54 o
-4 -2 4 0 8703.76 13190.10 235.18 o
-4 2 4 1 39.04 8.12 56.18 <
-4 -2 4 1 39.02 26.62 44.45 <
-2 2 4 -1 2822.83 2545.44 64.81 o
-2 -2 4 -1 2820.86 2457.62 63.68 o
-2 2 4 0 26181.10 24134.70 148.40 o
-2 -2 4 0 26230.60 22675.90 156.62 o
-2 2 4 1 392.41 363.76 26.63 o
-2 -2 4 1 391.87 321.78 31.37 o
0 2 4 -1 155.50 118.24 24.37 o
0 -2 4 -1 154.31 131.55 31.14 o
0 2 4 0 49345.60 50305.50 240.56 o
0 -2 4 0 49443.40 50426.50 241.90 o
0 2 4 1 153.75 130.88 20.99 o
0 -2 4 1 155.29 127.95 23.47 o
2 2 4 -1 389.38 308.94 28.66 o
2 -2 4 -1 391.39 304.43 33.85 o
2 2 4 0 26167.10 23505.10 159.48 o
2 -2 4 0 26235.00 23419.60 204.40 o
2 2 4 1 2821.64 2350.77 62.77 o
2 -2 4 1 2825.40 2368.73 72.71 o
4 2 4 -1 38.58 33.39 42.87 <
4 -2 4 -1 39.00 -12.64 45.80 <
4 2 4 0 8658.01 13227.60 208.16 o
4 -2 4 0 8686.32 13211.10 201.41 o
4 2 4 1 1872.71 2533.43 115.78 o
4 -2 4 1 1871.75 2714.45 124.13 o
-3 3 4 -1 2397.64 2600.46 122.81 o
-3 -3 4 -1 2392.61 2282.38 95.04 o
-3 3 4 0 8134.52 8455.09 134.00 o
-3 -3 4 0 8139.27 7863.41 126.78 o
-3 3 4 1 296.48 323.13 43.10 o
-3 -3 4 1 294.36 266.94 43.78 o
-1 3 4 -1 2343.83 2110.25 48.32 o
-1 -3 4 -1 2341.85 1973.24 56.91 o
-1 3 4 0 18404.50 24918.00 146.02 o
-1 -3 4 0 18414.40 23287.40 170.79 o
-1 3 4 1 792.12 672.41 38.82 o
-1 -3 4 1 785.16 701.47 42.88 o
1 3 4 -1 789.22 742.32 40.40 o
1 -3 4 -1 788.69 706.24 41.53 o
1 3 4 0 18403.90 24332.30 162.79 o
1 -3 4 0 18403.90 24237.40 166.36 o
1 3 4 1 2349.64 1993.83 51.49 o
1 -3 4 1 2338.01 2068.29 58.93 o
3 3 4 -1 294.50 237.16 40.62 o
3 -3 4 -1 294.80 256.57 40.17 o
3 3 4 0 8117.91 7763.92 143.80 o
3 -3 4 0 8110.99 7586.92 124.14 o
3 3 4 1 2399.83 2440.41 97.52 o
3 -3 4 1 2393.51 2190.40 120.32 o
-4 4 4 -1 320.52 422.19 99.51 o
-4 -4 4 -1 320.41 340.28 74.69 o
-4 4 4 0 37440.40 46741.00 542.01 o
-4 -4 4 0 37328.00 43745.70 409.84 o
-4 4 4 1 45.19 67.24 59.57 <
-4 -4 4 1 45.40 7.67 52.80 <
-2 4 4 -1 346.93 320.43 43.78 o
-2 -4 4 -1 347.47 259.28 41.75 o
-2 4 4 0 78360.70 78395.20 373.01 o
-2 -4 4 0 78120.90 69758.30 374.83 o
-2 4 4 1 302.26 273.71 34.07 o
-2 -4 4 1 303.78 254.09 37.01 o
0 4 4 -1 20.40 14.89 26.17 <
0 -4 4 -1 20.45 27.30 25.05 <
0 4 4 0 120322.00 120902.00 475.70 o
0 -4 4 0 119954.00 119263.00 422.65 o
0 4 4 1 19.80 -5.19 23.69 <
0 -4 4 1 20.55 22.79 24.37 <
2 4 4 -1 302.74 252.29 30.01 o
2 -4 4 -1 301.94 217.08 31.82 o
2 4 4 0 78658.70 72804.50 372.10 o
2 -4 4 0 78432.00 73627.30 344.18 o
2 4 4 1 347.93 363.30 40.39 o
2 -4 4 1 346.47 306.89 45.13 o
4 4 4 -1 45.07 25.27 51.67 <
4 -4 4 -1 44.83 32.04 57.76 <
4 4 4 0 37387.60 45940.10 435.86 o
4 -4 4 0 37290.90 44382.50 472.00 o
4 4 4 1 321.89 350.19 72.88 o
4 -4 4 1 322.00 337.79 82.59 o
-3 5 4 -1 3231.69 4217.17 157.60 o
-3 -5 4 -1 3222.04 3718.36 131.41 o
-3 5 4 0 1272.53 1282.45 80.12 o
-3 -5 4 0 1276.18 1174.27 76.28 o
-3 5 4 1 54.70 83.48 36.78 o
-3 -5 4 1 55.31 39.26 38.58 <
-1 5 4 -1 1901.20 1816.57 56.00 o
-1 -5 4 -1 1887.32 1565.63 60.51 o
-1 5 4 0 2489.28 4209.15 80.18 o
-1 -5 4 0 2493.54 3905.63 79.27 o
-1 5 4 1 56.98 12.86 24.59 <
-1 -5 4 1 56.99 -6.77 26.63 <
1 5 4 -1 57.54 -12.64 22.79 <
1 -5 4 -1 57.21 16.47 25.50 <
1 5 4 0 2486.18 4120.53 77.67 o
1 -5 4 0 2502.48 4037.27 102.30 o
1 5 4 1 1900.59 1657.65 62.08 o
1 -5 4 1 1895.88 1595.43 67.28 o
3 5 4 -1 54.17 57.76 40.16 <
3 -5 4 -1 54.97 73.56 39.49 <
3 5 4 0 1262.34 1189.04 94.10 o
3 -5 4 0 1286.98 1059.75 71.78 o
3 5 4 1 3231.73 3876.00 139.52 o
3 -5 4 1 3224.23 3711.53 156.70 o
-4 6 4 0 321.91 295.14 84.62 o
-4 -6 4 0 320.71 197.68 70.18 o
-4 6 4 1 46.80 103.57 70.40 <
-4 -6 4 1 46.69 98.60 62.28 <
-2 6 4 -1 980.93 1005.42 61.84 o
-2 -6 4 -1 982.75 740.02 65.90 o
-2 6 4 0 377.37 300.10 41.29 o
-2 -6 4 0 400.10 333.77 46.71 o
-2 6 4 1 340.17 310.06 40.84 o
-2 -6 4 1 341.56 286.37 42.65 o
0 6 4 -1 9.14 0.00 27.98 <
0 -6 4 -1 9.76 17.37 27.30 <
0 6 4 0 1682.54 2523.01 74.95 o
0 -6 4 0 1751.48 2420.16 73.15 o
0 6 4 1 9.10 20.08 28.66 <
0 -6 4 1 9.78 14.67 26.17 <
2 6 4 -1 343.79 337.80 42.42 o
2 -6 4 -1 341.69 326.28 51.00 o
2 6 4 0 382.73 304.42 45.36 o
2 -6 4 0 393.04 273.95 43.10 o
2 6 4 1 981.29 904.38 65.23 o
2 -6 4 1 979.34 787.65 68.38 o
4 6 4 -1 46.96 55.28 59.34 <
4 -6 4 -1 46.28 64.53 70.85 <
4 6 4 0 330.56 238.28 70.85 o
4 -6 4 0 317.03 204.43 83.03 o
-3 7 4 -1 357.76 253.65 64.77 o
-3 -7 4 -1 351.67 179.40 59.12 o
-3 7 4 0 881.78 1200.42 84.63 o
-3 -7 4 0 889.44 1102.29 81.93 o
-3 7 4 1 109.58 164.71 51.22 o
-3 -7 4 1 107.80 98.15 47.16 o
-1 7 4 -1 523.08 470.98 46.94 o
-1 -7 4 -1 517.88 423.59 56.64 o
-1 7 4 0 1031.43 1797.94 69.52 o
-1 -7 4 0 1043.36 1556.65 76.07 o
-1 7 4 1 308.53 281.62 39.26 o
-1 -7 4 1 302.32 302.14 44.23 o
1 7 4 -1 305.80 268.75 41.07 o
1 -7 4 -1 304.36 232.43 43.78 o
1 7 4 0 1032.63 1633.68 79.66 o
1 -7 4 0 1046.75 1652.19 71.55 o
1 7 4 1 526.84 388.37 46.49 o
1 -7 4 1 517.21 410.69 46.71 o
3 7 4 -1 107.78 71.30 46.48 <
3 -7 4 -1 107.83 188.64 52.57 o
3 7 4 0 884.55 1031.45 97.03 o
3 -7 4 0 895.52 981.45 78.08 o
3 7 4 1 361.45 292.65 69.95 o
3 -7 4 1 355.55 238.73 64.98 o
-4 8 4 1 265.84 168.33 99.51 <
-4 -8 4 1 264.80 120.94 69.05 <
-2 8 4 -1 666.45 567.17 77.64 o
-2 -8 4 -1 665.54 548.19 67.71 o
-2 8 4 0 40553.70 42141.40 390.78 o
-2 -8 4 0 40281.30 37868.30 336.12 o
-2 8 4 1 699.08 624.41 64.09 o
-2 -8 4 1 696.36 544.74 65.89 o
0 8 4 -1 22.71 29.11 35.88 <
0 -8 4 -1 22.84 38.81 38.81 <
0 8 4 0 63595.50 66928.70 349.02 o
0 -8 4 0 63193.00 63216.30 452.02 o
0 8 4 1 23.27 16.92 34.75 <
0 -8 4 1 22.30 -5.64 37.46 <
2 8 4 -1 692.46 656.06 56.20 o
2 -8 4 -1 694.92 599.44 69.96 o
2 8 4 0 40570.10 37892.30 320.82 o
2 -8 4 0 40302.40 39555.50 367.62 o
2 8 4 1 670.18 501.39 68.82 o
2 -8 4 1 673.34 601.36 86.65 o
4 8 4 -1 262.64 243.25 74.24 o
4 -8 4 -1 263.62 117.79 83.04 <
-3 9 4 -1 896.64 1054.71 118.04 o
-3 -9 4 -1 906.23 953.59 89.83 o
-3 9 4 0 5267.68 5567.28 174.99 o
-3 -9 4 0 5285.98 5341.70 151.52 o
-3 9 4 1 611.17 522.15 82.81 o
-3 -9 4 1 607.15 562.55 78.53 o
-1 9 4 -1 224.89 95.45 47.84 <
-1 -9 4 -1 232.29 57.32 53.03 <
-1 9 4 0 11539.90 12956.90 187.54 o
-1 -9 4 0 11572.00 11989.70 315.89 o
-1 9 4 1 534.65 512.70 57.54 o
-1 -9 4 1 530.85 479.10 69.06 o
1 9 4 -1 537.93 468.04 57.10 o
1 -9 4 -1 527.86 493.97 69.28 o
1 9 4 0 11523.20 12828.60 185.68 o
1 -9 4 0 11549.60 12698.70 199.47 o
1 9 4 1 229.38 144.63 43.55 o
1 -9 4 1 233.46 159.75 56.86 o
3 9 4 -1 609.43 429.23 70.41 o
3 -9 4 -1 600.99 483.83 75.37 o
3 9 4 0 5246.35 5129.88 187.29 o
3 -9 4 0 5254.91 5718.41 166.74 o
3 9 4 1 908.05 911.16 108.08 o
3 -9 4 1 916.19 984.94 105.15 o
-2 10 4 -1 1132.93 1040.81 107.90 o
-2 -10 4 -1 1127.23 835.14 84.87 o
-2 10 4 0 410.27 305.80 63.87 o
-2 -10 4 0 384.49 300.55 64.98 o
-2 10 4 1 233.67 192.93 63.63 o
-2 -10 4 1 235.17 156.83 64.09 o
0 10 4 -1 492.92 461.06 60.93 o
0 -10 4 -1 486.51 444.33 76.50 o
0 10 4 0 449.89 644.31 68.38 o
0 -10 4 0 438.01 524.84 78.75 o
0 10 4 1 492.13 534.34 69.05 o
0 -10 4 1 492.20 432.36 73.56 o
2 10 4 -1 237.14 159.75 57.31 o
2 -10 4 -1 235.62 152.08 62.95 o
2 10 4 0 408.25 228.36 67.02 o
2 -10 4 0 389.92 392.61 74.69 o
2 10 4 1 1140.37 1028.54 96.81 o
2 -10 4 1 1139.57 997.21 117.57 o
-3 11 4 1 838.57 978.35 111.26 o
-3 -11 4 1 828.40 1114.62 113.74 o
-1 11 4 -1 519.62 467.38 82.15 o
-1 -11 4 -1 518.52 412.10 91.18 o
-1 11 4 0 48631.30 55247.50 447.14 o
-1 -11 4 0 48567.10 51208.00 558.84 o
-1 11 4 1 1201.76 1245.16 88.70 o
-1 -11 4 1 1187.06 1214.61 153.69 o
1 11 4 -1 1192.76 1142.51 97.28 o
1 -11 4 -1 1188.60 1150.48 105.18 o
1 11 4 0 48646.70 52707.10 444.62 o
1 -11 4 0 48583.00 53376.10 575.66 o
1 11 4 1 529.32 469.78 74.01 o
1 -11 4 1 522.92 340.94 88.22 o
3 11 4 -1 839.34 982.05 101.32 o
3 -11 4 -1 834.95 1036.02 126.37 o
-2 12 4 -1 1012.47 759.76 109.67 o
-2 -12 4 -1 1010.05 755.04 102.45 o
-2 12 4 0 31848.00 31420.80 361.73 o
-2 -12 4 0 31576.00 29451.10 393.26 o
-2 12 4 1 298.58 369.39 84.17 o
-2 -12 4 1 304.22 294.03 80.11 o
0 12 4 -1 78.01 3.38 58.67 <
0 -12 4 -1 76.65 -48.06 73.33 <
0 12 4 0 45409.00 48210.70 445.33 o
0 -12 4 0 45033.60 47330.50 500.05 o
0 12 4 1 78.50 -4.96 59.12 <
0 -12 4 1 76.68 8.57 65.89 <
2 12 4 -1 303.45 323.80 73.79 o
2 -12 4 -1 304.66 470.45 103.57 o
2 12 4 0 31819.60 28982.70 384.19 o
2 -12 4 0 31544.00 31695.90 471.25 o
2 12 4 1 1005.85 808.04 101.79 o
2 -12 4 1 995.73 856.97 149.41 o
-1 13 4 -1 1096.59 854.35 107.41 o
-1 -13 4 -1 1085.20 865.83 153.89 o
-1 13 4 0 33410.30 35513.50 438.36 o
-1 -13 4 0 33436.40 34639.00 621.93 o
-1 13 4 1 117.29 154.11 64.53 o
-1 -13 4 1 115.96 139.90 108.76 <
1 13 4 -1 119.47 86.42 76.94 <
1 -13 4 -1 114.61 144.86 80.10 <
1 13 4 0 33408.90 36916.90 462.68 o
1 -13 4 0 33437.60 37482.20 543.53 o
1 13 4 1 1081.70 832.39 112.17 o
1 -13 4 1 1080.40 916.65 133.63 o
0 14 4 -1 130.79 -33.39 76.04 <
0 -14 4 -1 130.40 -7.45 105.60 <
0 14 4 0 7288.02 5664.38 212.21 o
0 -14 4 0 7381.21 5496.03 241.52 o
0 14 4 1 130.06 39.49 77.85 <
0 -14 4 1 128.51 46.26 77.17 <
-4 0 5 -1 110.32 93.41 72.88 <
-4 0 5 0 12.75 172.38 72.88 o
-4 0 5 1 76.13 -54.15 55.51 <
-2 0 5 -1 82.39 52.80 31.36 <
-2 0 5 0 32.11 113.27 30.23 o
-2 0 5 1 98.94 88.00 26.85 o
0 0 5 -1 553.03 286.41 30.24 o
0 0 5 0 5.18 46.48 23.92 <
0 0 5 1 557.23 299.67 29.11 o
2 0 5 -1 97.54 116.66 24.82 o
2 0 5 0 31.69 51.22 24.82 o
2 0 5 1 83.71 39.94 27.30 <
4 0 5 -1 77.10 57.76 48.29 <
4 0 5 0 12.64 37.91 51.67 <
4 0 5 1 108.69 70.85 56.64 <
-3 1 5 -1 1630.91 1745.54 95.04 o
-3 -1 5 -1 1631.41 1603.99 83.98 o
-3 1 5 0 104.99 108.31 39.26 o
-3 -1 5 0 103.31 84.16 39.04 o
-3 1 5 1 713.28 729.21 54.17 o
-3 -1 5 1 713.03 764.42 56.20 o
-1 1 5 -1 1330.37 2164.44 52.84 o
-1 -1 5 -1 1332.11 2035.08 50.58 o
-1 1 5 0 3946.25 3939.22 67.57 o
-1 -1 5 0 3958.93 3829.68 62.60 o
-1 1 5 1 427.49 299.91 29.34 o
-1 -1 5 1 427.78 316.39 31.14 o
1 1 5 -1 427.52 306.68 26.63 o
1 -1 5 -1 428.34 337.15 30.69 o
1 1 5 0 3950.41 3785.71 62.35 o
1 -1 5 0 3969.26 3973.11 76.13 o
1 1 5 1 1343.18 2081.56 54.61 o
1 -1 5 1 1346.09 2122.69 60.93 o
3 1 5 -1 720.59 686.65 49.64 o
3 -1 5 -1 720.04 706.51 49.64 o
3 1 5 0 105.73 19.18 33.85 <
3 -1 5 0 103.88 78.52 36.55 o
3 1 5 1 1648.80 1705.50 91.62 o
3 -1 5 1 1650.51 1577.12 92.52 o
-4 2 5 -1 2548.43 1402.51 123.23 o
-4 -2 5 -1 2543.52 1575.16 130.23 o
-4 2 5 0 225.05 226.09 72.88 o
-4 -2 5 0 225.94 52.58 54.61 <
-4 2 5 1 1386.95 1158.67 103.82 o
-4 -2 5 1 1384.46 967.97 82.38 o
-2 2 5 -1 2691.57 3978.65 91.20 o
-2 -2 5 -1 2683.80 3675.20 90.52 o
-2 2 5 0 7198.26 7350.30 100.82 o
-2 -2 5 0 7202.90 7211.47 121.18 o
-2 2 5 1 1364.59 1211.44 53.04 o
-2 -2 5 1 1361.10 1123.21 69.52 o
0 2 5 -1 1300.66 1787.71 55.75 o
0 -2 5 -1 1293.18 1697.15 55.07 o
0 2 5 0 21831.00 19664.90 141.68 o
0 -2 5 0 21833.60 19699.90 167.60 o
0 2 5 1 1296.69 1725.93 56.44 o
0 -2 5 1 1289.28 1805.12 52.83 o
2 2 5 -1 1363.94 1132.69 44.02 o
2 -2 5 -1 1360.38 1211.67 53.27 o
2 2 5 0 7202.28 7154.18 100.14 o
2 -2 5 0 7197.20 7432.76 113.49 o
2 2 5 1 2677.73 3681.34 88.75 o
2 -2 5 1 2670.03 3790.14 101.62 o
4 2 5 -1 1383.89 1140.64 97.27 o
4 -2 5 -1 1382.14 1065.74 100.89 o
4 2 5 0 226.97 133.13 62.28 o
4 -2 5 0 225.23 116.88 57.99 o
4 2 5 1 2534.74 1464.64 114.23 o
4 -2 5 1 2530.61 1397.19 106.10 o
-3 3 5 -1 1408.46 1357.61 86.01 o
-3 -3 5 -1 1409.02 1302.13 83.75 o
-3 3 5 0 54417.20 56664.80 341.21 o
-3 -3 5 0 54249.50 52125.60 348.84 o
-3 3 5 1 966.01 1187.20 66.81 o
-3 -3 5 1 965.07 1096.49 70.42 o
-1 3 5 -1 1393.64 1970.10 50.80 o
-1 -3 5 -1 1394.51 1780.97 64.13 o
-1 3 5 0 117511.00 111805.00 342.31 o
-1 -3 5 0 117198.00 106842.00 446.50 o
-1 3 5 1 706.55 502.38 37.46 o
-1 -3 5 1 706.13 483.43 37.24 o
1 3 5 -1 707.02 510.72 32.95 o
1 -3 5 -1 706.59 554.05 37.69 o
1 3 5 0 117938.00 115731.00 384.72 o
1 -3 5 0 117680.00 113455.00 407.04 o
1 3 5 1 1409.97 1846.35 53.71 o
1 -3 5 1 1411.43 1912.04 62.51 o
3 3 5 -1 973.93 1056.09 71.76 o
3 -3 5 -1 972.33 1088.58 67.47 o
3 3 5 0 54445.00 54861.50 444.52 o
3 -3 5 0 54342.40 52591.60 352.08 o
3 3 5 1 1427.34 1218.71 96.58 o
3 -3 5 1 1427.97 1220.31 103.80 o
-4 4 5 0 429.24 121.40 70.18 <
-4 -4 5 0 426.89 80.56 62.73 <
-4 4 5 1 86.28 -39.49 50.54 <
-4 -4 5 1 87.22 2.93 54.83 <
-2 4 5 -1 168.66 202.17 41.29 o
-2 -4 5 -1 170.28 145.09 43.32 o
-2 4 5 0 2017.30 2041.69 68.18 o
-2 -4 5 0 2012.25 1870.26 81.50 o
-2 4 5 1 103.98 194.05 33.17 o
-2 -4 5 1 101.96 196.30 39.26 o
0 4 5 -1 388.04 171.29 30.47 o
0 -4 5 -1 384.51 176.48 31.14 o
0 4 5 0 4246.01 4716.78 80.90 o
0 -4 5 0 4243.75 4656.88 89.70 o
0 4 5 1 391.95 183.90 28.66 o
0 -4 5 1 388.09 171.49 31.14 o
2 4 5 -1 102.76 157.50 32.94 o
2 -4 5 -1 100.67 137.19 36.78 o
2 4 5 0 2020.22 2012.83 74.04 o
2 -4 5 0 2020.41 2010.58 73.36 o
2 4 5 1 167.02 223.39 44.68 o
2 -4 5 1 168.21 191.12 45.13 o
4 4 5 -1 87.59 -8.35 53.70 <
4 -4 5 -1 88.48 46.03 62.73 <
4 4 5 0 429.55 72.43 60.25 <
4 -4 5 0 429.88 123.20 69.05 <
-3 5 5 -1 1294.93 1011.32 87.59 o
-3 -5 5 -1 1293.75 773.84 73.59 o
-3 5 5 0 3809.52 3430.38 98.00 o
-3 -5 5 0 3753.95 2931.31 107.49 o
-3 5 5 1 499.79 632.11 54.61 o
-3 -5 5 1 501.12 482.72 58.22 o
-1 5 5 -1 944.10 1246.34 52.60 o
-1 -5 5 -1 942.45 1123.74 57.34 o
-1 5 5 0 15954.40 16601.90 143.49 o
-1 -5 5 0 15801.20 15451.00 168.48 o
-1 5 5 1 248.64 168.79 31.59 o
-1 -5 5 1 248.41 127.94 30.46 o
1 5 5 -1 248.38 153.22 30.01 o
1 -5 5 -1 247.87 178.04 33.17 o
1 5 5 0 15961.20 16076.90 147.79 o
1 -5 5 0 15797.50 16185.70 180.19 o
1 5 5 1 957.18 1232.51 60.02 o
1 -5 5 1 954.09 1168.61 65.44 o
3 5 5 -1 504.14 512.66 60.47 o
3 -5 5 -1 506.26 551.93 63.18 o
3 5 5 0 3814.07 2999.72 109.97 o
3 -5 5 0 3750.23 2822.54 102.74 o
3 5 5 1 1314.86 886.77 90.48 o
3 -5 5 1 1313.04 803.95 80.78 o
-4 6 5 1 1517.34 1233.78 117.58 o
-4 -6 5 1 1511.29 1025.04 98.85 o
-2 6 5 -1 2958.34 3480.63 94.80 o
-2 -6 5 -1 2944.64 3099.43 111.06 o
-2 6 5 0 3348.17 3775.90 103.68 o
-2 -6 5 0 3338.55 3285.27 97.13 o
-2 6 5 1 1588.42 1530.61 67.94 o
-2 -6 5 1 1577.27 1400.85 74.49 o
0 6 5 -1 1588.41 1758.76 65.68 o
0 -6 5 -1 1577.46 1736.04 76.07 o
0 6 5 0 8143.17 8733.49 128.48 o
0 -6 5 0 8130.39 8259.76 137.98 o
0 6 5 1 1583.64 1748.74 70.89 o
0 -6 5 1 1572.27 1666.13 64.12 o
2 6 5 -1 1587.14 1327.29 67.94 o
2 -6 5 -1 1576.13 1381.20 76.07 o
2 6 5 0 3357.87 3340.80 99.56 o
2 -6 5 0 3357.44 3624.71 102.50 o
2 6 5 1 2938.15 3224.04 107.05 o
2 -6 5 1 2923.07 3365.18 117.22 o
4 6 5 -1 1510.53 1150.87 108.56 o
4 -6 5 -1 1504.34 1085.46 120.98 o
-3 7 5 -1 1805.85 1921.29 116.95 o
-3 -7 5 -1 1803.75 1581.02 101.14 o
-3 7 5 0 11978.10 12768.00 200.23 o
-3 -7 5 0 11840.00 11185.10 193.41 o
-3 7 5 1 848.16 624.29 67.48 o
-3 -7 5 1 845.67 570.12 71.32 o
-1 7 5 -1 1414.35 1994.45 82.41 o
-1 -7 5 -1 1412.64 1825.88 81.96 o
-1 7 5 0 20597.60 21067.40 212.21 o
-1 -7 5 0 20347.80 19028.00 190.92 o
-1 7 5 1 500.91 332.85 48.07 o
-1 -7 5 1 499.23 314.80 47.16 o
1 7 5 -1 499.43 366.26 45.81 o
1 -7 5 -1 498.11 355.88 45.81 o
1 7 5 0 20576.10 19673.50 199.11 o
1 -7 5 0 20333.50 20109.40 204.09 o
1 7 5 1 1430.98 1907.27 78.98 o
1 -7 5 1 1428.63 1932.55 87.56 o
3 7 5 -1 857.12 587.81 70.18 o
3 -7 5 -1 855.00 569.99 71.53 o
3 7 5 0 11910.70 11359.60 203.52 o
3 -7 5 0 11787.40 11640.40 207.12 o
3 7 5 1 1825.82 1701.69 124.11 o
3 -7 5 1 1823.30 1468.61 111.93 o
-2 8 5 -1 325.98 210.52 55.51 o
-2 -8 5 -1 327.45 190.43 51.67 o
-2 8 5 0 28016.40 33084.30 305.77 o
-2 -8 5 0 27997.30 29687.80 278.43 o
-2 8 5 1 18.15 14.44 38.81 <
-2 -8 5 1 18.29 -15.12 40.16 <
0 8 5 -1 130.85 37.68 39.94 <
0 -8 5 -1 125.91 37.91 40.84 <
0 8 5 0 49029.10 50767.30 365.15 o
0 -8 5 0 48990.40 48241.40 359.22 o
0 8 5 1 132.27 15.57 39.49 <
0 -8 5 1 127.48 13.99 44.45 <
2 8 5 -1 18.16 9.03 38.81 <
2 -8 5 -1 18.33 -16.47 44.90 <
2 8 5 0 28003.70 30029.60 291.43 o
2 -8 5 0 27965.50 30603.90 332.88 o
2 8 5 1 320.93 211.45 54.39 o
2 -8 5 1 322.15 298.32 63.64 o
-3 9 5 -1 924.96 497.67 96.37 o
-3 -9 5 -1 929.31 498.34 78.77 o
-3 9 5 0 155.74 -19.86 60.02 <
-3 -9 5 0 145.23 -46.26 53.93 <
-3 9 5 1 432.61 281.64 74.92 o
-3 -9 5 1 433.85 262.45 59.35 o
-1 9 5 -1 736.53 666.27 77.42 o
-1 -9 5 -1 742.72 676.44 93.89 o
-1 9 5 0 2182.56 2664.25 108.37 o
-1 -9 5 0 2265.40 2488.62 141.33 o
-1 9 5 1 121.71 76.94 43.55 <
-1 -9 5 1 123.40 53.70 51.90 <
1 9 5 -1 120.74 108.76 49.19 o
1 -9 5 -1 122.79 56.19 52.12 <
1 9 5 0 2183.60 2360.17 106.78 o
1 -9 5 0 2269.21 2255.83 116.48 o
1 9 5 1 744.76 634.27 63.63 o
1 -9 5 1 753.61 632.04 88.91 o
3 9 5 -1 438.98 310.25 67.69 o
3 -9 5 -1 439.46 215.48 67.69 o
3 9 5 0 154.34 26.17 56.86 <
3 -9 5 0 142.76 207.14 67.69 o
3 9 5 1 932.59 617.36 98.83 o
3 -9 5 1 940.17 557.81 92.74 o
-2 10 5 -1 3427.45 3505.94 159.15 o
-2 -10 5 -1 3405.56 3116.74 153.05 o
-2 10 5 0 23866.70 27747.90 307.04 o
-2 -10 5 0 23917.30 24491.60 346.96 o
-2 10 5 1 1221.59 934.77 91.63 o
-2 -10 5 1 1208.48 845.61 103.36 o
0 10 5 -1 1480.66 1578.72 91.63 o
0 -10 5 -1 1465.06 1490.29 130.45 o
0 10 5 0 36081.00 35904.60 316.72 o
0 -10 5 0 36144.60 34808.50 386.37 o
0 10 5 1 1476.76 1424.57 99.32 o
0 -10 5 1 1458.81 1559.75 113.31 o
2 10 5 -1 1216.14 993.32 83.06 o
2 -10 5 -1 1204.34 992.88 112.63 o
2 10 5 0 23847.10 24269.40 323.58 o
2 -10 5 0 23879.30 25845.70 349.88 o
2 10 5 1 3408.71 2974.54 140.47 o
2 -10 5 1 3384.40 3494.15 178.41 o
-3 11 5 1 778.72 792.80 156.17 o
-3 -11 5 1 773.78 699.59 153.91 o
-1 11 5 -1 1000.25 1047.30 103.38 o
-1 -11 5 -1 996.41 937.14 117.82 o
-1 11 5 0 5410.64 5143.07 156.53 o
-1 -11 5 0 5247.75 4763.20 197.38 o
-1 11 5 1 456.02 329.00 61.60 o
-1 -11 5 1 452.15 319.98 113.05 o
1 11 5 -1 455.49 298.32 68.15 o
1 -11 5 -1 451.41 289.97 75.59 o
1 11 5 0 5398.53 5110.30 160.66 o
1 -11 5 0 5233.35 5203.80 204.90 o
1 11 5 1 1010.54 1058.75 89.58 o
1 -11 5 1 1007.17 1127.81 124.33 o
3 11 5 -1 782.55 577.00 184.59 o
-2 12 5 0 446.41 652.53 91.16 o
-2 -12 5 0 448.21 450.82 92.96 o
-2 12 5 1 37.70 14.44 68.82 <
-2 -12 5 1 36.56 -20.76 67.24 <
0 12 5 -1 38.63 -61.37 55.96 <
0 -12 5 -1 42.31 0.00 94.54 <
0 12 5 0 236.20 22.34 59.34 <
0 -12 5 0 246.88 40.39 80.33 <
0 12 5 1 40.14 -6.99 61.37 <
0 -12 5 1 41.65 -17.60 64.76 <
2 12 5 -1 37.46 -3.16 68.59 <
2 -12 5 -1 37.63 92.74 81.90 <
2 12 5 0 438.32 539.11 90.04 o
2 -12 5 0 442.79 669.79 114.64 o
-1 13 5 -1 315.28 305.99 86.88 o
-1 -13 5 -1 316.62 237.84 112.60 o
-1 13 5 0 14752.30 14232.20 292.54 o
-1 -13 5 0 14523.60 13141.20 402.07 o
-1 13 5 1 36.20 13.31 73.78 <
-1 -13 5 1 34.55 -4.96 101.54 <
1 13 5 -1 36.31 34.30 72.88 <
1 -13 5 -1 34.41 6.09 74.23 <
1 13 5 0 14751.10 14536.50 304.88 o
1 -13 5 0 14512.20 14194.50 348.27 o
1 13 5 1 320.19 194.27 86.19 o
1 -13 5 1 321.07 264.67 101.76 o
0 14 5 -1 989.20 1222.68 273.06 o
0 -14 5 -1 976.09 1146.66 260.20 o
0 14 5 0 1338.52 1353.48 189.36 o
0 -14 5 0 1323.28 1404.03 196.35 o
0 -14 5 1 974.10 1243.72 276.91 o
-4 0 6 0 9590.25 7158.32 173.46 o
-4 0 6 1 6.75 11.28 50.09 <
-2 0 6 -1 105.12 17.60 32.49 <
-2 0 6 0 28453.50 25651.40 211.41 o
-2 0 6 1 116.49 -28.43 26.63 <
0 0 6 -1 4.47 -4.06 23.69 <
0 0 6 0 41316.00 30611.60 187.62 o
0 0 6 1 4.47 -6.99 22.11 <
2 0 6 -1 118.29 0.45 24.14 <
2 0 6 0 28439.10 25622.50 195.31 o
2 0 6 1 105.35 -9.48 27.98 <
4 0 6 -1 6.65 -26.85 46.71 <
4 0 6 0 9537.31 6854.04 174.79 o
-3 1 6 -1 3196.05 3783.66 110.40 o
-3 -1 6 -1 3190.90 3618.19 110.63 o
-3 1 6 0 18244.10 21510.20 218.75 o
-3 -1 6 0 18246.90 20739.50 218.53 o
-3 1 6 1 132.15 48.74 37.46 <
-3 -1 6 1 131.65 46.93 37.68 <
-1 1 6 -1 2459.38 2341.30 60.29 o
-1 -1 6 -1 2459.85 2242.14 59.84 o
-1 1 6 0 49004.80 52717.60 247.65 o
-1 -1 6 0 49001.30 52079.20 285.11 o
-1 1 6 1 288.95 329.90 34.52 o
-1 -1 6 1 286.23 342.53 35.20 o
1 1 6 -1 285.35 373.23 34.75 o
1 -1 6 -1 287.53 348.20 33.85 o
1 1 6 0 49054.60 50753.60 226.80 o
1 -1 6 0 49053.50 52274.30 254.29 o
1 1 6 1 2469.52 2260.28 61.41 o
1 -1 6 1 2457.54 2252.82 68.40 o
3 1 6 -1 129.70 60.47 37.01 <
3 -1 6 -1 131.47 42.42 36.78 <
3 1 6 0 18192.50 19761.10 212.18 o
3 -1 6 0 18191.20 19568.30 209.91 o
3 1 6 1 3198.92 3637.03 142.46 o
3 -1 6 1 3189.51 3383.26 118.75 o
-4 2 6 0 8499.45 9457.45 193.36 o
-4 -2 6 0 8467.53 9091.93 224.98 o
-4 2 6 1 79.44 100.18 54.60 <
-4 -2 6 1 79.40 68.82 56.18 <
-2 2 6 -1 1374.71 1328.36 72.46 o
-2 -2 6 -1 1372.59 1236.48 79.00 o
-2 2 6 0 13903.80 15028.70 175.88 o
-2 -2 6 0 13836.10 14259.40 205.77 o
-2 2 6 1 539.94 476.60 42.65 o
-2 -2 6 1 538.61 446.58 50.55 o
0 2 6 -1 23.70 -29.33 23.69 <
0 -2 6 -1 22.98 29.78 26.17 <
0 2 6 0 21686.10 29557.40 189.18 o
0 -2 6 0 21590.10 29480.00 188.71 o
0 2 6 1 23.42 -7.67 22.34 <
0 -2 6 1 22.86 9.25 23.47 <
2 2 6 -1 535.70 495.11 39.49 o
2 -2 6 -1 538.84 489.03 42.65 o
2 2 6 0 13886.00 14731.50 154.21 o
2 -2 6 0 13832.30 14644.60 168.90 o
2 2 6 1 1375.72 1170.62 73.57 o
2 -2 6 1 1379.55 1401.12 79.90 o
4 2 6 -1 78.10 51.90 57.09 <
4 -2 6 -1 79.18 85.07 65.44 <
4 2 6 0 8463.78 9127.91 222.37 o
4 -2 6 0 8443.06 8794.93 229.64 o
-3 3 6 -1 118.99 17.60 44.90 <
-3 -3 6 -1 116.25 -29.11 47.83 <
-3 3 6 0 15075.40 16931.80 211.50 o
-3 -3 6 0 15078.00 15564.90 223.95 o
-3 3 6 1 690.54 774.65 64.08 o
-3 -3 6 1 687.36 685.54 68.60 o
-1 3 6 -1 443.18 454.93 34.75 o
-1 -3 6 -1 435.41 420.61 50.32 o
-1 3 6 0 26326.80 27212.10 167.04 o
-1 -3 6 0 26330.30 25705.80 192.29 o
-1 3 6 1 1161.49 1165.46 49.88 o
-1 -3 6 1 1157.77 1079.55 52.81 o
1 3 6 -1 1163.01 1179.43 47.40 o
1 -3 6 -1 1149.43 1127.19 51.91 o
1 3 6 0 26309.80 26573.30 182.52 o
1 -3 6 0 26314.90 26832.90 206.19 o
1 3 6 1 439.81 388.58 36.78 o
1 -3 6 1 436.44 417.48 41.75 o
3 3 6 -1 687.95 638.23 64.55 o
3 -3 6 -1 679.61 720.80 66.80 o
3 3 6 0 14987.10 15119.20 212.35 o
3 -3 6 0 14988.80 15201.30 197.61 o
3 3 6 1 118.18 17.15 44.23 <
3 -3 6 1 116.15 60.47 51.22 <
-4 4 6 1 70.12 33.85 56.18 <
-4 -4 6 1 70.25 15.57 64.76 <
-2 4 6 -1 346.96 217.75 45.13 o
-2 -4 6 -1 348.14 234.90 57.99 o
-2 4 6 0 1923.03 2571.63 78.12 o
-2 -4 6 0 1957.75 2454.34 108.15 o
-2 4 6 1 312.86 112.14 33.17 o
-2 -4 6 1 313.52 125.69 41.52 o
0 4 6 -1 14.25 21.21 27.98 <
0 -4 6 -1 14.13 -16.02 28.43 <
0 4 6 0 5318.46 8796.41 116.39 o
0 -4 6 0 5394.92 8437.82 132.64 o
0 4 6 1 13.94 13.54 23.01 <
0 -4 6 1 14.10 -16.92 26.17 <
2 4 6 -1 312.49 163.38 35.43 o
2 -4 6 -1 310.36 128.62 36.56 o
2 4 6 0 1942.04 2472.55 84.19 o
2 -4 6 0 1968.67 2492.34 86.43 o
2 4 6 1 348.30 202.18 47.39 o
2 -4 6 1 346.97 196.09 50.09 o
4 4 6 -1 70.83 3.38 58.67 <
4 -4 6 -1 69.86 130.42 71.98 <
-3 5 6 -1 465.48 614.92 70.18 o
-3 -5 6 -1 472.18 679.01 75.14 o
-3 5 6 0 28945.60 34152.30 306.51 o
-3 -5 6 0 28918.10 30050.40 295.23 o
-3 5 6 1 905.53 1053.65 75.82 o
-3 -5 6 1 896.78 914.62 76.05 o
-1 5 6 -1 42.32 -18.95 25.95 <
-1 -5 6 -1 43.23 1.35 36.33 <
-1 5 6 0 55564.40 61399.70 321.11 o
-1 -5 6 0 55523.30 56751.10 333.88 o
-1 5 6 1 1050.96 967.10 55.75 o
-1 -5 6 1 1036.21 875.18 69.28 o
1 5 6 -1 1043.73 946.12 52.14 o
1 -5 6 -1 1038.33 989.98 64.78 o
1 5 6 0 55624.60 60137.80 319.29 o
1 -5 6 0 55586.90 59113.60 327.30 o
1 5 6 1 41.88 27.30 30.91 <
1 -5 6 1 44.34 13.31 31.36 <
3 5 6 -1 899.13 986.21 79.44 o
3 -5 6 -1 896.36 966.16 81.02 o
3 5 6 0 28888.70 29960.30 308.88 o
3 -5 6 0 28868.30 31711.50 318.07 o
3 5 6 1 466.98 590.96 84.84 o
3 -5 6 1 475.52 629.56 81.01 o
-4 6 6 1 10.68 61.82 124.55 <
-4 -6 6 1 10.40 209.61 197.43 <
-2 6 6 -1 1893.13 1840.48 101.58 o
-2 -6 6 -1 1894.44 1690.72 95.95 o
-2 6 6 0 46272.70 49323.50 385.90 o
-2 -6 6 0 45968.00 43256.00 317.73 o
-2 6 6 1 94.87 4.51 35.65 <
-2 -6 6 1 94.54 -9.93 42.42 <
0 6 6 -1 374.75 326.75 47.61 o
0 -6 6 -1 376.73 331.05 48.29 o
0 6 6 0 61142.80 66878.50 389.14 o
0 -6 6 0 60752.90 64991.60 354.61 o
0 6 6 1 378.95 305.08 48.29 o
0 -6 6 1 375.16 354.72 43.78 o
2 6 6 -1 95.31 -6.99 34.07 <
2 -6 6 -1 95.66 26.85 38.58 <
2 6 6 0 46309.00 45492.90 331.16 o
2 -6 6 0 46008.00 46423.90 340.27 o
2 6 6 1 1905.61 1607.45 95.25 o
2 -6 6 1 1898.64 1696.07 101.56 o
-3 7 6 -1 1227.28 1036.40 86.44 o
-3 -7 6 -1 1215.22 1020.82 92.08 o
-3 7 6 0 30505.40 34373.90 321.75 o
-3 -7 6 0 30517.90 30625.70 319.69 o
-3 7 6 1 959.43 1070.29 81.69 o
-3 -7 6 1 950.59 1009.85 88.91 o
-1 7 6 -1 1619.96 1669.37 90.97 o
-1 -7 6 -1 1597.21 1199.55 104.97 o
-1 7 6 0 69202.20 73133.80 470.57 o
-1 -7 6 0 69229.10 64052.60 532.63 o
-1 7 6 1 1606.45 1644.43 84.19 o
-1 -7 6 1 1592.38 1443.44 92.99 o
1 7 6 -1 1607.97 1638.95 78.56 o
1 -7 6 -1 1581.05 1607.17 85.32 o
1 7 6 0 69263.20 71448.10 423.69 o
1 -7 6 0 69288.00 70448.60 478.98 o
1 7 6 1 1620.25 1395.23 74.25 o
1 -7 6 1 1608.05 1439.10 84.19 o
3 7 6 -1 957.12 951.98 85.31 o
3 -7 6 -1 941.16 1029.10 89.14 o
3 7 6 0 30473.70 30900.40 335.45 o
3 -7 6 0 30485.80 32187.20 347.24 o
3 7 6 1 1231.11 1058.84 92.75 o
3 -7 6 1 1221.64 1142.13 116.67 o
-2 8 6 -1 564.82 439.56 66.34 o
-2 -8 6 -1 562.89 500.48 74.01 o
-2 8 6 0 2145.35 2351.67 105.88 o
-2 -8 6 0 2177.64 2053.62 115.57 o
-2 8 6 1 342.32 447.01 67.92 o
-2 -8 6 1 343.80 330.34 73.79 o
0 8 6 -1 33.25 27.53 41.97 <
0 -8 6 -1 35.28 -7.45 45.80 <
0 8 6 0 3624.45 4502.39 126.03 o
0 -8 6 0 3686.51 4449.91 142.71 o
0 8 6 1 33.92 -37.23 39.49 <
0 -8 6 1 35.07 9.48 48.51 <
2 8 6 -1 339.25 353.82 54.83 o
2 -8 6 -1 344.93 414.30 69.50 o
2 8 6 0 2144.30 2130.14 102.04 o
2 -8 6 0 2179.82 2215.61 102.93 o
2 8 6 1 557.63 440.50 77.40 o
2 -8 6 1 559.70 365.37 70.64 o
-3 9 6 0 14203.50 17612.00 259.48 o
-3 -9 6 0 14177.40 15281.30 279.15 o
-3 9 6 1 77.91 4.96 53.93 <
-3 -9 6 1 77.14 11.96 57.76 <
-1 9 6 -1 1504.74 1359.07 98.62 o
-1 -9 6 -1 1487.15 1247.43 120.07 o
-1 9 6 0 26467.90 28062.00 329.63 o
-1 -9 6 0 26421.00 25802.90 380.74 o
-1 9 6 1 75.38 38.13 53.02 <
-1 -9 6 1 70.37 26.85 62.05 <
1 9 6 -1 74.01 90.71 56.86 <
1 -9 6 -1 71.55 90.48 55.96 <
1 9 6 0 26445.00 27342.90 337.14 o
1 -9 6 0 26393.80 27613.00 335.19 o
1 9 6 1 1505.25 1245.59 93.00 o
1 -9 6 1 1475.83 1193.55 115.56 o
3 9 6 -1 77.10 17.83 58.21 <
3 -9 6 -1 77.72 4.96 57.76 <
3 9 6 0 14146.70 15454.60 265.59 o
3 -9 6 0 14111.50 15979.60 275.03 o
-2 10 6 -1 194.63 42.42 66.11 <
-2 -10 6 -1 194.30 -74.91 64.08 <
-2 10 6 0 42201.10 46110.60 467.95 o
-2 -10 6 0 41823.60 40799.60 457.06 o
-2 10 6 1 130.27 69.95 60.92 <
-2 -10 6 1 127.58 61.82 69.95 <
0 10 6 -1 110.26 79.43 48.74 <
0 -10 6 -1 109.93 89.13 72.43 <
0 10 6 0 64968.90 70309.90 491.38 o
0 -10 6 0 64438.10 68016.20 548.23 o
0 10 6 1 112.61 43.10 58.89 <
0 -10 6 1 110.82 40.16 58.89 <
2 10 6 -1 128.40 99.96 57.76 <
2 -10 6 -1 128.73 151.40 75.14 o
2 10 6 0 42195.30 42235.60 442.34 o
2 -10 6 0 41817.60 43354.60 507.43 o
2 10 6 1 192.20 29.78 65.21 <
2 -10 6 1 194.71 1.35 84.62 <
-1 11 6 -1 676.65 429.02 81.70 o
-1 -11 6 -1 655.82 476.83 97.71 o
-1 11 6 0 633.01 265.82 75.82 o
-1 -11 6 0 645.10 202.18 107.41 <
-1 11 6 1 65.41 103.34 60.24 <
-1 -11 6 1 62.45 77.17 97.02 <
1 11 6 -1 66.54 67.24 59.34 <
1 -11 6 -1 61.27 80.78 65.89 <
1 11 6 0 628.47 303.30 71.76 o
1 -11 6 0 641.91 366.27 85.31 o
1 11 6 1 677.69 372.32 75.59 o
1 -11 6 1 663.25 278.01 88.00 o
-2 12 6 1 363.18 288.37 86.20 o
-2 -12 6 1 360.89 253.63 93.19 o
0 12 6 -1 90.01 -23.92 59.12 <
0 -12 6 -1 91.95 -76.72 88.22 <
0 12 6 0 4927.60 5121.29 168.71 o
0 -12 6 0 5084.32 4970.61 219.30 o
0 12 6 1 90.04 5.42 62.28 <
0 -12 6 1 92.12 4.06 68.37 <
2 12 6 -1 365.56 298.09 128.85 o
2 -12 6 -1 357.60 333.50 99.28 o
-1 13 6 1 360.19 362.16 104.02 o
-1 -13 6 1 348.16 236.24 122.30 <
1 13 6 -1 354.11 320.42 83.94 o
1 -13 6 -1 348.77 201.96 84.62 o
-4 0 7 1 2191.45 2294.94 134.97 o
-2 0 7 -1 1774.99 2130.61 96.18 o
-2 0 7 0 135.96 -39.49 37.68 <
-2 0 7 1 4110.19 4001.18 102.30 o
0 0 7 -1 3225.92 3288.85 81.55 o
0 0 7 0 93.96 6.99 27.30 <
0 0 7 1 3246.35 3306.08 82.62 o
2 0 7 -1 4099.32 4126.25 95.77 o
2 0 7 0 136.67 72.66 37.00 <
2 0 7 1 1791.34 2075.71 95.68 o
4 0 7 -1 2184.10 2432.92 141.08 o
-3 1 7 -1 2474.69 2047.35 108.56 o
-3 -1 7 -1 2475.93 2014.18 109.47 o
-3 1 7 0 5687.44 4978.66 138.42 o
-3 -1 7 0 5667.00 5022.65 141.57 o
-3 1 7 1 270.60 52.13 45.58 <
-3 -1 7 1 270.57 44.00 47.84 <
-1 1 7 -1 955.42 1348.16 75.83 o
-1 -1 7 -1 958.75 1283.64 74.25 o
-1 1 7 0 15369.70 15102.40 170.04 o
-1 -1 7 0 15325.30 15161.90 171.38 o
-1 1 7 1 59.09 11.51 30.69 <
-1 -1 7 1 61.55 13.09 29.56 <
1 1 7 -1 59.02 15.79 25.72 <
1 -1 7 -1 61.97 2.71 25.27 <
1 1 7 0 15351.10 15010.30 163.12 o
1 -1 7 0 15315.80 15353.70 164.71 o
1 1 7 1 951.36 1336.56 64.77 o
1 -1 7 1 954.69 1356.90 65.45 o
3 1 7 -1 273.68 76.72 47.84 <
3 -1 7 -1 273.04 73.56 42.42 <
3 1 7 0 5653.43 4882.57 140.75 o
3 -1 7 0 5644.95 4633.39 122.69 o
3 1 7 1 2461.58 2070.68 106.56 o
3 -1 7 1 2462.57 1841.61 107.01 o
-4 2 7 1 130.47 -4.51 59.57 <
-4 -2 7 1 130.96 10.38 65.89 <
-2 2 7 -1 553.84 498.31 65.45 o
-2 -2 7 -1 556.59 483.19 68.16 o
-2 2 7 0 11159.10 11373.80 191.99 o
-2 -2 7 0 11163.30 10938.00 196.78 o
-2 2 7 1 58.90 68.59 33.85 o
-2 -2 7 1 57.08 75.14 35.65 o
0 2 7 -1 106.88 27.08 28.66 <
0 -2 7 -1 103.55 40.39 30.01 <
0 2 7 0 21465.50 21134.80 207.36 o
0 -2 7 0 21466.50 21363.80 190.12 o
0 2 7 1 106.30 17.37 28.66 <
0 -2 7 1 102.54 6.09 28.20 <
2 2 7 -1 58.19 52.80 32.94 <
2 -2 7 -1 56.63 90.03 34.97 o
2 2 7 0 11154.20 11195.30 161.99 o
2 -2 7 0 11144.70 11261.90 163.31 o
2 2 7 1 563.37 404.11 68.14 o
2 -2 7 1 564.98 474.28 61.82 o
4 2 7 -1 131.45 -12.41 70.40 <
4 -2 7 -1 133.17 11.73 53.02 <
-3 3 7 -1 130.66 33.62 55.28 <
-3 -3 7 -1 130.90 64.08 57.99 <
-3 3 7 0 17020.40 16641.90 250.66 o
-3 -3 7 0 16939.90 15435.70 236.68 o
-3 3 7 1 747.67 675.42 74.47 o
-3 -3 7 1 748.19 616.76 71.99 o
-1 3 7 -1 70.20 58.89 32.49 <
-1 -3 7 -1 72.43 78.97 39.94 <
-1 3 7 0 21516.00 20686.10 188.32 o
-1 -3 7 0 21391.40 20289.00 177.26 o
-1 3 7 1 239.51 141.48 37.23 o
-1 -3 7 1 241.27 128.17 38.14 o
1 3 7 -1 241.07 94.99 31.14 o
1 -3 7 -1 243.43 92.74 37.01 o
1 3 7 0 21489.70 20807.20 196.79 o
1 -3 7 0 21363.50 20824.80 196.78 o
1 3 7 1 69.54 52.80 32.72 <
1 -3 7 1 71.99 71.53 33.39 o
3 3 7 -1 748.71 681.50 83.27 o
3 -3 7 -1 749.31 640.88 70.86 o
3 3 7 0 16939.80 15374.10 264.25 o
3 -3 7 0 16852.70 15121.10 211.49 o
3 3 7 1 128.88 93.42 58.89 <
3 -3 7 1 129.51 20.31 50.54 <
-2 4 7 -1 7891.40 8853.56 179.07 o
-2 -4 7 -1 7862.60 8105.48 188.82 o
-2 4 7 0 342.96 417.89 60.92 o
-2 -4 7 0 337.51 409.99 60.92 o
-2 4 7 1 1390.97 1235.06 65.68 o
-2 -4 7 1 1379.86 1066.68 78.32 o
0 4 7 -1 3207.18 3402.13 89.45 o
0 -4 7 -1 3188.46 3387.48 98.71 o
0 4 7 0 1156.02 1338.40 67.26 o
0 -4 7 0 1145.62 1383.70 67.03 o
0 4 7 1 3229.34 3429.79 90.74 o
0 -4 7 1 3209.56 3398.41 90.52 o
2 4 7 -1 1390.48 1251.74 77.87 o
2 -4 7 -1 1380.09 1202.75 75.38 o
2 4 7 0 339.38 446.12 61.83 o
2 -4 7 0 335.85 489.22 57.54 o
2 4 7 1 7927.12 8322.93 199.68 o
2 -4 7 1 7898.18 8307.51 174.14 o
-3 5 7 -1 825.91 373.67 71.98 o
-3 -5 7 -1 825.35 310.71 71.98 o
-3 5 7 0 2369.34 3083.68 130.45 o
-3 -5 7 0 2419.51 2727.93 127.98 o
-3 5 7 1 519.95 316.82 64.09 o
-3 -5 7 1 518.14 336.67 71.98 o
-1 5 7 -1 433.37 552.82 49.42 o
-1 -5 7 -1 431.26 451.73 71.98 o
-1 5 7 0 11645.80 12388.60 141.13 o
-1 -5 7 0 11793.70 11616.10 224.15 o
-1 5 7 1 167.30 54.61 34.30 <
-1 -5 7 1 164.73 65.44 43.55 <
1 5 7 -1 169.24 31.36 42.87 <
1 -5 7 -1 166.10 85.52 40.16 o
1 5 7 0 11635.40 12520.70 181.72 o
1 -5 7 0 11775.20 12073.70 177.42 o
1 5 7 1 428.15 465.11 56.64 o
1 -5 7 1 425.69 523.33 52.81 o
3 5 7 -1 519.15 351.35 74.47 o
3 -5 7 -1 517.75 333.74 63.41 o
3 5 7 0 2360.85 2723.55 139.52 o
3 -5 7 0 2404.23 2695.68 121.68 o
3 5 7 1 816.93 339.66 77.64 o
3 -5 7 1 815.55 336.05 63.42 o
-2 6 7 -1 278.70 7.22 50.54 <
-2 -6 7 -1 279.30 18.50 50.32 <
-2 6 7 0 8131.23 8628.03 176.92 o
-2 -6 7 0 8139.35 7817.04 172.87 o
-2 6 7 1 158.77 36.56 39.71 <
-2 -6 7 1 161.57 2.71 53.48 <
0 6 7 -1 113.90 10.83 37.68 <
0 -6 7 -1 114.99 30.46 39.49 <
0 6 7 0 15469.30 15435.90 224.62 o
0 -6 7 0 15487.90 14119.80 179.56 o
0 6 7 1 113.01 37.91 39.49 <
0 -6 7 1 113.89 47.38 46.26 <
2 6 7 -1 160.99 48.29 42.87 <
2 -6 7 -1 164.46 71.75 44.68 <
2 6 7 0 8107.04 8119.19 178.81 o
2 -6 7 0 8121.09 7985.72 158.92 o
2 6 7 1 275.54 0.68 53.70 <
2 -6 7 1 277.73 17.83 50.09 <
-3 7 7 0 12721.30 14396.20 239.72 o
-3 -7 7 0 12571.90 12727.80 247.43 o
-3 7 7 1 42.31 13.76 49.41 <
-3 -7 7 1 42.84 27.98 64.76 <
-1 7 7 -1 966.38 1135.10 86.88 o
-1 -7 7 -1 970.13 803.83 94.10 o
-1 7 7 0 19862.70 21035.60 306.88 o
-1 -7 7 0 19625.80 18210.10 302.81 o
-1 7 7 1 73.14 22.56 46.93 <
-1 -7 7 1 71.29 42.64 57.31 <
1 7 7 -1 72.06 25.50 48.29 <
1 -7 7 -1 70.94 78.07 46.03 <
1 7 7 0 19844.80 20239.50 275.51 o
1 -7 7 0 19596.20 19961.50 272.68 o
1 7 7 1 962.33 985.38 78.99 o
1 -7 7 1 964.95 1067.51 79.22 o
3 7 7 -1 42.52 0.90 59.79 <
3 -7 7 -1 43.53 38.58 54.60 <
3 7 7 0 12669.40 13096.60 273.87 o
3 -7 7 0 12497.20 13563.20 244.18 o
-2 8 7 -1 1351.00 1324.57 104.29 o
-2 -8 7 -1 1330.57 1213.34 115.80 o
-2 8 7 0 3577.53 5008.57 185.34 o
-2 -8 7 0 3568.44 4350.27 174.74 o
-2 8 7 1 1470.82 1329.83 99.31 o
-2 -8 7 1 1450.26 1273.64 118.72 o
0 8 7 -1 1229.05 1215.04 86.22 o
0 -8 7 -1 1207.68 1106.47 110.83 o
0 8 7 0 2832.55 3644.40 121.91 o
0 -8 7 0 2828.84 3574.51 138.18 o
0 8 7 1 1238.69 1164.88 95.00 o
0 -8 7 1 1216.60 1112.76 94.10 o
2 8 7 -1 1471.32 1371.10 96.60 o
2 -8 7 -1 1451.25 1292.99 101.34 o
2 8 7 0 3565.04 4499.97 156.49 o
2 -8 7 0 3558.12 4651.45 153.56 o
2 8 7 1 1367.16 1109.98 112.60 o
2 -8 7 1 1346.18 1279.21 119.60 o
-1 9 7 -1 1039.51 933.80 104.48 o
-1 -9 7 -1 1036.69 873.80 109.22 o
-1 9 7 0 19680.70 19358.10 325.02 o
-1 -9 7 0 19402.50 17235.80 324.83 o
-1 9 7 1 562.87 473.89 77.40 o
-1 -9 7 1 559.27 484.05 90.94 o
1 9 7 -1 563.51 557.82 80.56 o
1 -9 7 -1 561.15 548.35 81.01 o
1 9 7 0 19669.30 18584.80 290.85 o
1 -9 7 0 19405.20 18017.40 285.20 o
1 9 7 1 1035.85 1118.51 102.91 o
1 -9 7 1 1031.64 1058.26 116.46 o
-2 10 7 -1 652.94 572.10 186.19 o
-2 -10 7 -1 667.46 301.30 141.28 o
-2 10 7 0 2038.83 2128.57 141.50 o
-2 -10 7 0 2057.19 2056.84 148.95 o
-2 10 7 1 488.95 539.50 77.17 o
-2 -10 7 1 476.33 528.67 99.06 o
0 10 7 -1 227.59 184.35 60.92 o
0 -10 7 -1 217.31 149.82 94.54 <
0 10 7 0 1886.65 1951.73 128.43 o
0 -10 7 0 1908.26 1997.39 150.55 o
0 10 7 1 224.95 163.15 67.92 o
0 -10 7 1 214.31 139.90 68.60 o
2 10 7 -1 482.79 591.03 103.13 o
2 -10 7 -1 470.09 585.38 102.90 o
2 10 7 0 2019.07 1976.67 157.80 o
2 -10 7 0 2043.34 1916.25 134.33 o
-1 11 7 -1 81.85 39.94 67.01 <
-1 -11 7 -1 83.71 0.45 96.80 <
-1 11 7 0 5633.13 6239.40 193.99 o
-1 -11 7 0 5459.88 5847.10 281.36 o
-1 11 7 1 71.02 110.11 69.72 <
-1 -11 7 1 71.52 36.33 93.41 <
1 11 7 -1 71.52 57.99 60.47 <
1 -11 7 -1 71.98 42.87 68.59 <
1 11 7 0 5613.15 6254.83 181.20 o
1 -11 7 0 5440.30 6120.34 200.82 o
1 11 7 1 80.87 17.15 62.73 <
1 -11 7 1 82.56 50.77 78.75 <
0 12 7 -1 1317.63 1177.31 106.54 o
0 -12 7 -1 1294.66 1115.51 169.29 o
0 12 7 0 18449.80 23159.40 324.88 o
0 -12 7 0 18380.30 21208.20 501.09 o
0 12 7 1 1329.54 1286.03 110.80 o
0 -12 7 1 1305.27 1061.73 134.72 o
-2 0 8 -1 225.88 -27.75 49.87 <
-2 0 8 0 47423.00 45722.20 409.00 o
-2 0 8 1 84.65 2.48 34.97 <
0 0 8 -1 50.24 5.42 30.69 <
0 0 8 0 53920.20 58585.90 328.87 o
0 0 8 1 49.55 -14.44 30.46 <
2 0 8 -1 85.72 33.85 35.88 <
2 0 8 0 47459.80 47310.40 391.45 o
2 0 8 1 224.47 26.17 45.13 <
-3 1 8 -1 134.26 75.59 62.50 <
-3 -1 8 -1 135.12 71.07 58.89 <
-3 1 8 0 14341.50 14770.60 254.69 o
-3 -1 8 0 14344.90 14470.50 233.43 o
-3 1 8 1 733.24 623.47 78.98 o
-3 -1 8 1 731.80 605.65 72.43 o
-1 1 8 -1 297.42 368.25 55.06 o
-1 -1 8 -1 295.70 394.65 57.31 o
-1 1 8 0 36572.00 39930.00 328.98 o
-1 -1 8 0 36579.30 39356.80 329.67 o
-1 1 8 1 892.11 856.62 63.86 o
-1 -1 8 1 892.42 984.62 67.48 o
1 1 8 -1 894.32 877.27 65.23 o
1 -1 8 -1 884.70 913.09 65.67 o
1 1 8 0 36571.50 39685.60 306.37 o
1 -1 8 0 36576.00 39094.90 303.64 o
1 1 8 1 293.68 379.31 46.93 o
1 -1 8 1 296.82 358.34 46.48 o
3 1 8 -1 731.28 611.81 72.44 o
3 -1 8 -1 723.07 575.23 71.31 o
3 1 8 0 14333.30 14555.60 271.47 o
3 -1 8 0 14332.60 14628.20 233.24 o
3 1 8 1 131.46 92.96 64.98 <
3 -1 8 1 134.11 58.44 57.54 <
-2 2 8 -1 522.39 547.01 74.02 o
-2 -2 8 -1 520.52 387.91 71.53 o
-2 2 8 0 20602.00 23477.50 288.65 o
-2 -2 8 0 20663.80 22695.80 294.52 o
-2 2 8 1 74.93 -5.42 35.42 <
-2 -2 8 1 74.68 31.81 50.99 <
0 2 8 -1 80.94 27.08 33.17 <
0 -2 8 -1 79.47 45.13 32.94 <
0 2 8 0 36776.70 41421.20 281.62 o
0 -2 8 0 36876.10 40856.30 280.47 o
0 2 8 1 80.10 27.53 33.62 <
0 -2 8 1 81.19 56.86 33.85 <
2 2 8 -1 74.42 27.08 35.42 <
2 -2 8 -1 74.97 16.47 37.91 <
2 2 8 0 20557.50 23716.80 250.58 o
2 -2 8 0 20620.50 23580.60 282.47 o
2 2 8 1 521.50 382.02 75.14 o
2 -2 8 1 524.76 495.31 67.47 o
-3 3 8 -1 1541.42 1699.66 117.81 o
-3 -3 8 -1 1533.97 1528.87 110.59 o
-3 3 8 0 305.27 618.02 81.91 o
-3 -3 8 0 306.15 619.15 81.68 o
-3 3 8 1 681.83 795.62 84.39 o
-3 -3 8 1 677.09 692.95 83.04 o
-1 3 8 -1 1754.82 1769.61 77.42 o
-1 -3 8 -1 1750.01 1701.13 93.45 o
-1 3 8 0 237.01 202.40 50.77 o
-1 -3 8 0 240.86 266.05 48.29 o
-1 3 8 1 1047.19 1131.73 73.12 o
-1 -3 8 1 1035.61 1082.03 72.21 o
1 3 8 -1 1034.48 1148.78 74.70 o
1 -3 8 -1 1033.87 1126.75 74.48 o
1 3 8 0 239.32 155.92 45.13 o
1 -3 8 0 241.69 215.94 46.26 o
1 3 8 1 1763.57 1703.45 79.22 o
1 -3 8 1 1746.75 1704.02 86.22 o
3 3 8 -1 671.40 609.54 86.43 o
3 -3 8 -1 673.09 582.71 74.25 o
3 3 8 0 303.22 583.09 86.88 o
3 -3 8 0 301.66 579.02 74.92 o
3 3 8 1 1544.84 1555.91 121.20 o
3 -3 8 1 1532.06 1460.42 96.59 o
-2 4 8 -1 297.48 47.16 52.57 <
-2 -4 8 -1 297.70 99.96 61.60 <
-2 4 8 0 75161.20 79835.50 519.72 o
-2 -4 8 0 74866.40 74874.10 481.98 o
-2 4 8 1 108.08 67.01 38.58 <
-2 -4 8 1 108.06 15.34 52.57 <
0 4 8 -1 83.18 22.79 35.20 <
0 -4 8 -1 83.18 11.28 38.58 <
0 4 8 0 124998.00 131856.00 524.68 o
0 -4 8 0 124610.00 130601.00 524.88 o
0 4 8 1 83.88 -7.45 34.52 <
0 -4 8 1 84.04 18.95 39.03 <
2 4 8 -1 107.72 16.47 43.10 <
2 -4 8 -1 105.99 -18.50 43.77 <
2 4 8 0 75338.10 78980.70 519.43 o
2 -4 8 0 75072.80 78370.00 526.75 o
2 4 8 1 295.87 91.61 60.93 <
2 -4 8 1 294.52 65.66 52.80 <
-3 5 8 0 122.07 205.33 75.81 o
-3 -5 8 0 121.75 194.50 70.62 o
-3 5 8 1 106.15 27.98 63.40 <
-3 -5 8 1 104.51 86.87 67.92 <
-1 5 8 -1 783.43 699.35 64.09 o
-1 -5 8 -1 766.98 605.91 82.82 o
-1 5 8 0 80.83 285.43 50.54 o
-1 -5 8 0 79.56 123.87 60.92 o
-1 5 8 1 142.00 128.84 44.68 o
-1 -5 8 1 139.59 128.84 52.35 o
1 5 8 -1 144.81 140.35 50.99 o
1 -5 8 -1 138.50 163.13 48.29 o
1 5 8 0 79.16 220.90 57.31 o
1 -5 8 0 80.85 181.87 49.19 o
1 5 8 1 778.52 643.37 75.15 o
1 -5 8 1 770.50 651.98 68.38 o
3 5 8 -1 107.45 57.76 63.40 <
3 -5 8 -1 103.43 18.05 53.02 <
3 5 8 0 117.91 117.11 69.95 <
3 -5 8 0 123.59 288.37 68.14 o
-2 6 8 -1 93.03 45.13 64.31 <
-2 -6 8 -1 93.16 46.26 67.01 <
-2 6 8 0 502.35 394.46 80.11 o
-2 -6 8 0 484.55 346.64 82.15 o
-2 6 8 1 160.35 106.95 53.70 <
-2 -6 8 1 160.40 76.27 64.53 <
0 6 8 -1 73.51 60.25 44.68 <
0 -6 8 -1 71.32 -2.93 43.10 <
0 6 8 0 373.62 404.13 58.44 o
0 -6 8 0 355.81 343.67 56.86 o
0 6 8 1 72.69 39.94 49.41 <
0 -6 8 1 72.00 62.50 44.90 <
2 6 8 -1 162.28 139.45 56.64 o
2 -6 8 -1 158.59 116.88 55.73 o
2 6 8 0 508.97 370.50 69.72 o
2 -6 8 0 488.55 430.75 79.88 o
2 6 8 1 93.87 87.55 65.89 <
2 -6 8 1 92.41 24.82 62.28 <
-3 7 8 1 529.20 497.09 92.74 o
-3 -7 8 1 520.96 369.82 108.98 o
-1 7 8 -1 1192.86 1116.52 107.21 o
-1 -7 8 -1 1173.68 961.04 106.31 o
-1 7 8 0 23768.70 28380.70 372.80 o
-1 -7 8 0 23739.30 24806.10 366.57 o
-1 7 8 1 828.79 822.29 88.91 o
-1 -7 8 1 809.93 818.65 101.54 o
1 7 8 -1 816.75 925.06 91.63 o
1 -7 8 -1 807.81 865.31 77.19 o
1 7 8 0 23763.60 27020.20 331.84 o
1 -7 8 0 23736.80 26476.30 291.96 o
1 7 8 1 1203.11 1095.22 98.40 o
1 -7 8 1 1174.43 1089.95 86.43 o
3 7 8 -1 519.59 542.26 95.45 o
3 -7 8 -1 518.27 399.21 84.63 o
-2 8 8 -1 186.23 123.65 92.97 <
-2 -8 8 -1 184.98 63.63 76.27 <
-2 8 8 0 4879.70 4626.67 174.26 o
-2 -8 8 0 4770.81 4454.97 185.32 o
-2 8 8 1 148.39 57.09 65.89 <
-2 -8 8 1 146.07 28.43 71.30 <
0 8 8 -1 104.04 -45.80 45.13 <
0 -8 8 -1 102.75 12.64 80.10 <
0 8 8 0 5973.97 6196.89 175.29 o
0 -8 8 0 5834.70 5971.79 205.79 o
0 8 8 1 104.08 57.31 57.99 <
0 -8 8 1 101.94 10.38 54.38 <
2 8 8 -1 146.57 40.16 61.37 <
2 -8 8 -1 147.53 28.43 58.44 <
2 8 8 0 4838.00 4167.71 184.81 o
2 -8 8 0 4731.18 4457.79 186.84 o
2 8 8 1 186.29 115.30 74.69 <
2 -8 8 1 187.36 -8.80 69.27 <
-1 9 8 -1 118.52 -53.93 63.40 <
-1 -9 8 -1 117.29 29.11 71.98 <
-1 9 8 0 7837.18 6864.95 217.09 o
-1 -9 8 0 7873.87 5768.33 213.03 o
-1 9 8 1 340.15 213.01 78.30 o
-1 -9 8 1 330.65 228.36 103.12 o
1 9 8 -1 344.23 300.79 74.01 o
1 -9 8 -1 328.00 308.23 74.91 o
1 9 8 0 7818.33 6433.83 191.88 o
1 -9 8 0 7854.48 6354.40 170.64 o
1 9 8 1 116.12 -5.42 61.60 <
1 -9 8 1 116.13 -10.38 60.02 <
0 10 8 -1 462.49 313.22 91.17 o
0 -10 8 -1 455.46 382.26 120.50 o
0 10 8 0 15831.30 14542.00 275.39 o
0 -10 8 0 16069.40 12975.70 379.76 o
0 10 8 1 462.88 315.45 80.55 o
0 -10 8 1 462.06 329.22 97.48 o
-1 11 8 1 954.56 881.41 121.18 o
-1 -11 8 1 929.39 926.28 161.11 o
1 11 8 -1 940.19 826.67 106.75 o
1 -11 8 -1 926.67 921.74 110.59 o
-2 0 9 -1 1258.52 1732.30 116.92 o
-2 0 9 0 229.22 9.93 52.80 <
-2 0 9 1 176.19 32.49 44.68 <
0 0 9 -1 717.89 904.54 70.64 o
0 0 9 0 214.34 17.83 36.33 <
0 0 9 1 725.35 806.01 69.05 o
2 0 9 -1 176.35 50.09 46.26 <
2 0 9 0 231.70 46.48 56.41 <
2 0 9 1 1267.18 1700.81 107.87 o
-3 1 9 0 293.18 182.09 68.59 o
-3 -1 9 0 290.78 136.29 70.63 <
-3 1 9 1 282.79 160.66 67.92 o
-3 -1 9 1 283.54 167.66 69.73 o
-1 1 9 -1 2187.74 2199.07 104.76 o
-1 -1 9 -1 2187.65 2111.78 104.99 o
-1 1 9 0 101.94 56.41 47.16 <
-1 -1 9 0 100.75 98.15 48.74 o
-1 1 9 1 154.55 148.92 49.41 o
-1 -1 9 1 156.14 104.24 49.41 o
1 1 9 -1 152.69 74.91 43.10 <
1 -1 9 -1 154.74 111.92 45.35 o
1 1 9 0 101.74 56.63 43.10 <
1 -1 9 0 100.49 99.06 44.90 o
1 1 9 1 2209.19 2161.95 97.72 o
1 -1 9 1 2208.49 2113.87 96.81 o
3 1 9 -1 284.94 165.62 60.70 o
3 -1 9 -1 285.81 229.25 62.50 o
3 1 9 0 293.28 197.22 76.72 o
3 -1 9 0 287.77 220.46 65.44 o
-2 2 9 -1 3035.17 2556.12 128.44 o
-2 -2 9 -1 3024.88 2524.30 159.14 o
-2 2 9 0 218.14 185.26 62.05 o
-2 -2 9 0 216.38 160.66 64.08 o
-2 2 9 1 608.83 419.29 60.25 o
-2 -2 9 1 602.90 369.64 72.89 o
0 2 9 -1 841.85 961.56 73.57 o
0 -2 9 -1 833.29 941.01 72.44 o
0 2 9 0 98.91 201.04 44.22 o
0 -2 9 0 97.75 191.11 43.77 o
0 2 9 1 839.17 929.33 72.67 o
0 -2 9 1 831.47 965.89 73.34 o
2 2 9 -1 611.53 398.05 60.02 o
2 -2 9 -1 605.12 349.31 63.86 o
2 2 9 0 219.12 277.08 73.33 o
2 -2 9 0 219.35 216.84 67.24 o
2 2 9 1 3022.21 2734.81 125.53 o
2 -2 9 1 3011.65 2623.05 139.30 o
-3 3 9 1 1309.17 1313.02 109.00 o
-3 -3 9 1 1308.26 1211.04 101.56 o
-1 3 9 -1 344.95 278.02 48.74 o
-1 -3 9 -1 344.97 229.05 58.00 o
-1 3 9 0 23867.80 24580.60 286.97 o
-1 -3 9 0 23755.40 23865.40 257.87 o
-1 3 9 1 975.36 833.82 78.08 o
-1 -3 9 1 975.28 792.53 77.63 o
1 3 9 -1 969.83 771.85 70.19 o
1 -3 9 -1 970.10 766.89 69.96 o
1 3 9 0 23835.90 24953.80 270.07 o
1 -3 9 0 23731.90 23804.40 262.82 o
1 3 9 1 350.81 256.32 54.60 o
1 -3 9 1 350.40 274.14 55.05 o
3 3 9 -1 1309.32 1347.77 119.39 o
3 -3 9 -1 1308.43 1288.19 102.91 o
-2 4 9 -1 1136.56 871.55 103.81 o
-2 -4 9 -1 1147.41 682.22 112.16 o
-2 4 9 0 225.13 81.91 67.24 <
-2 -4 9 0 226.27 107.86 68.14 <
-2 4 9 1 776.70 1098.41 80.10 o
-2 -4 9 1 768.33 942.73 101.99 o
0 4 9 -1 267.16 236.48 53.48 o
0 -4 9 -1 260.32 236.48 53.25 o
0 4 9 0 341.42 111.69 44.00 o
0 -4 9 0 343.68 194.73 58.22 o
0 4 9 1 269.18 208.72 52.35 o
0 -4 9 1 262.33 223.61 52.80 o
2 4 9 -1 766.29 929.16 90.05 o
2 -4 9 -1 757.62 1114.44 93.89 o
2 4 9 0 224.27 80.78 80.33 <
2 -4 9 0 225.99 76.94 62.95 <
2 4 9 1 1134.41 718.57 97.72 o
2 -4 9 1 1145.80 732.32 97.49 o
-1 5 9 -1 429.36 323.15 66.35 o
-1 -5 9 -1 430.91 306.46 67.25 o
-1 5 9 0 308.11 306.67 63.41 o
-1 -5 9 0 315.52 197.90 60.70 o
-1 5 9 1 115.65 46.03 50.99 <
-1 -5 9 1 113.41 78.75 48.74 <
1 5 9 -1 114.50 71.98 55.06 <
1 -5 9 -1 112.57 91.83 49.87 <
1 5 9 0 311.86 259.26 65.43 o
1 -5 9 0 319.67 263.09 56.41 o
1 5 9 1 436.58 335.52 68.59 o
1 -5 9 1 437.81 317.24 58.44 o
-2 6 9 -1 1540.34 962.91 112.61 o
-2 -6 9 -1 1519.29 1001.98 115.77 o
-2 6 9 0 196.46 8.35 82.81 <
-2 -6 9 0 195.84 122.75 76.49 <
-2 6 9 1 2130.62 1953.46 130.23 o
-2 -6 9 1 2108.89 1867.77 139.49 o
0 6 9 -1 1328.43 1387.09 104.04 o
0 -6 9 -1 1309.53 1460.93 106.75 o
0 6 9 0 103.18 193.60 60.92 o
0 -6 9 0 100.37 122.52 53.48 o
0 6 9 1 1329.84 1472.60 107.43 o
0 -6 9 1 1310.12 1295.89 91.40 o
2 6 9 -1 2125.28 1899.26 122.57 o
2 -6 9 -1 2103.84 1671.51 113.99 o
2 6 9 0 194.04 134.93 84.62 <
2 -6 9 0 196.50 90.26 68.82 <
2 6 9 1 1529.11 926.12 136.56 o
2 -6 9 1 1508.06 891.56 109.02 o
-1 7 9 -1 2535.48 2692.43 151.05 o
-1 -7 9 -1 2531.69 2143.67 151.05 o
-1 7 9 0 8177.72 9533.50 284.18 o
-1 -7 9 0 8027.77 8571.30 239.43 o
-1 7 9 1 58.68 93.86 68.37 <
-1 -7 9 1 57.65 79.20 76.72 <
1 7 9 -1 57.70 89.80 60.92 <
1 -7 9 -1 57.57 68.14 54.15 <
1 7 9 0 8145.17 9266.65 215.87 o
1 -7 9 0 8000.25 8903.87 188.96 o
1 7 9 1 2558.11 2594.20 138.79 o
1 -7 9 1 2553.08 2332.64 118.93 o
-2 8 9 1 60.86 63.18 72.65 <
-2 -8 9 1 56.00 -59.57 71.53 <
0 8 9 -1 261.63 192.03 80.33 o
0 -8 9 -1 249.88 281.61 105.38 o
0 8 9 0 8522.13 12674.00 249.69 o
0 -8 9 0 8489.82 11130.60 340.11 o
0 8 9 1 263.75 203.75 70.85 o
0 -8 9 1 252.21 215.48 72.20 o
2 8 9 -1 60.51 8.12 63.86 <
2 -8 9 -1 55.38 45.35 64.08 <
-1 9 9 -1 640.35 343.25 174.22 <
-1 -9 9 -1 645.71 325.20 165.65 <
-1 9 9 0 746.55 401.67 96.36 o
-1 -9 9 0 704.15 373.70 120.96 o
-1 9 9 1 234.08 277.08 90.03 o
-1 -9 9 1 237.73 125.23 102.89 <
1 9 9 -1 231.03 293.79 78.75 o
1 -9 9 -1 236.81 193.15 74.92 o
1 9 9 0 746.96 407.55 85.98 o
1 -9 9 0 701.56 423.79 70.41 o
1 9 9 1 650.84 478.12 187.28 o
1 -9 9 1 655.00 494.82 176.90 o
-2 0 10 -1 138.88 0.90 61.82 <
-2 0 10 0 15173.00 15644.50 318.36 o
-2 0 10 1 43.63 -13.99 49.19 <
0 0 10 -1 109.63 -12.86 48.29 <
0 0 10 0 21138.60 22791.20 295.10 o
0 0 10 1 107.94 -2.93 44.90 <
2 0 10 -1 44.15 -36.78 49.19 <
2 0 10 0 15131.30 15811.20 301.42 o
2 0 10 1 138.08 -11.73 61.15 <
-1 1 10 -1 569.76 421.08 69.50 o
-1 -1 10 -1 568.51 322.47 65.89 o
-1 1 10 0 35031.20 37506.90 368.08 o
-1 -1 10 0 35029.70 37360.50 368.76 o
-1 1 10 1 594.45 515.39 71.31 o
-1 -1 10 1 588.93 634.06 76.94 o
1 1 10 -1 586.66 619.88 68.83 o
1 -1 10 -1 590.12 577.49 67.70 o
1 1 10 0 35002.10 37542.30 340.77 o
1 -1 10 0 35000.40 37292.10 339.41 o
1 1 10 1 575.59 436.87 64.76 o
1 -1 10 1 566.98 416.31 63.86 o
-2 2 10 -1 76.76 77.84 64.31 <
-2 -2 10 -1 76.72 56.63 79.88 <
-2 2 10 0 6837.31 6319.68 159.23 o
-2 -2 10 0 6804.80 5974.83 185.89 o
-2 2 10 1 48.57 34.52 51.22 <
-2 -2 10 1 48.87 -26.62 60.47 <
0 2 10 -1 102.62 89.80 54.83 <
0 -2 10 -1 102.90 -0.90 50.32 <
0 2 10 0 13210.10 11957.50 221.40 o
0 -2 10 0 13161.80 12075.30 223.21 o
0 2 10 1 104.40 -6.77 44.22 <
0 -2 10 1 103.83 -16.70 44.90 <
2 2 10 -1 48.63 -47.83 47.83 <
2 -2 10 -1 49.30 25.27 54.15 <
2 2 10 0 6817.72 5701.81 196.57 o
2 -2 10 0 6784.48 6059.87 202.20 o
2 2 10 1 77.54 92.96 69.50 <
2 -2 10 1 75.34 89.58 69.95 <
-1 3 10 -1 1051.21 1018.48 82.60 o
-1 -3 10 -1 1035.30 1067.39 95.23 o
-1 3 10 0 3292.03 3165.64 130.68 o
-1 -3 10 0 3294.13 3071.62 118.27 o
-1 3 10 1 728.60 751.17 81.91 o
-1 -3 10 1 721.42 746.91 82.81 o
1 3 10 -1 727.41 690.82 74.02 o
1 -3 10 -1 709.85 717.17 74.70 o
1 3 10 0 3265.91 2922.52 118.78 o
1 -3 10 0 3268.23 3014.41 120.13 o
1 3 10 1 1044.93 975.12 83.27 o
1 -3 10 1 1038.65 944.01 82.60 o
-2 4 10 0 10172.30 10824.70 262.86 o
-2 -4 10 0 10247.60 10191.60 245.31 o
-2 4 10 1 43.96 -24.37 53.70 <
-2 -4 10 1 45.05 15.12 66.56 <
0 4 10 -1 175.09 17.37 53.93 <
0 -4 10 -1 176.17 51.00 65.89 <
0 4 10 0 24701.60 22484.70 305.20 o
0 -4 10 0 24832.50 22520.50 321.96 o
0 4 10 1 178.13 1.35 48.29 <
0 -4 10 1 178.93 -23.92 46.71 <
2 4 10 -1 43.36 11.51 60.02 <
2 -4 10 -1 45.30 5.64 56.41 <
2 4 10 0 10177.10 9878.22 314.10 o
2 -4 10 0 10253.40 9972.22 255.35 o
-1 5 10 -1 422.65 320.63 72.66 o
-1 -5 10 -1 415.80 284.54 71.75 o
-1 5 10 0 21296.90 24366.40 317.69 o
-1 -5 10 0 21272.40 23307.30 319.49 o
-1 5 10 1 176.16 129.74 61.15 o
-1 -5 10 1 168.69 112.59 55.73 o
1 5 10 -1 173.30 172.61 66.11 o
1 -5 10 -1 170.37 151.18 57.09 o
1 5 10 0 21247.70 24155.00 381.43 o
1 -5 10 0 21222.30 23551.30 290.24 o
1 5 10 1 422.15 237.62 71.08 o
1 -5 10 1 409.38 291.77 64.31 o
-2 6 10 1 149.57 154.56 151.18 <
-2 -6 10 1 149.83 78.07 137.64 <
0 6 10 -1 221.36 148.70 88.90 <
0 -6 10 -1 223.68 157.05 67.47 o
0 6 10 0 18589.90 16500.90 323.68 o
0 -6 10 0 18419.60 15485.80 273.47 o
0 6 10 1 222.86 90.26 64.76 <
0 -6 10 1 221.67 110.11 63.86 <
2 6 10 -1 145.98 166.29 147.57 <
2 -6 10 -1 150.05 245.95 142.38 <
-1 7 10 0 58613.90 56405.90 575.67 o
-1 -7 10 0 58665.60 52150.20 576.85 o
-1 7 10 1 846.24 766.06 106.05 o
-1 -7 10 1 831.25 799.04 112.83 o
1 7 10 -1 844.45 751.08 97.27 o
1 -7 10 -1 819.03 817.61 88.91 o
1 7 10 0 58621.90 55102.60 516.71 o
1 -7 10 0 58678.70 54211.80 457.18 o
0 8 10 -1 286.02 76.72 145.09 <
0 -8 10 -1 288.08 162.24 150.05 <
0 8 10 0 1335.42 988.96 123.68 o
0 -8 10 0 1373.46 779.95 116.00 o
0 8 10 1 284.12 -11.96 131.55 <
0 -8 10 1 286.28 19.63 134.71 <
0 0 11 -1 1515.65 1567.89 128.44 o
0 0 11 0 227.62 41.07 67.02 <
0 0 11 1 1533.59 1770.23 120.05 o
-1 1 11 -1 697.43 541.59 80.56 o
-1 -1 11 -1 695.85 489.45 79.21 o
-1 1 11 0 614.53 833.35 92.29 o
-1 -1 11 0 620.55 702.71 85.53 o
-1 1 11 1 103.13 -32.04 53.47 <
-1 -1 11 1 105.42 69.72 59.79 <
1 1 11 -1 101.49 23.24 51.22 <
1 -1 11 -1 104.39 20.31 50.99 <
1 1 11 0 618.25 830.40 83.72 o
1 -1 11 0 621.27 757.95 80.78 o
1 1 11 1 698.07 481.55 71.08 o
1 -1 11 1 696.29 490.35 71.76 o
0 2 11 -1 154.49 53.25 66.34 <
0 -2 11 -1 154.89 1.58 65.89 <
0 2 11 0 680.20 780.55 104.48 o
0 -2 11 0 679.66 693.67 100.19 o
0 2 11 1 152.71 -5.42 50.09 <
0 -2 11 1 153.25 37.91 59.57 <
-1 3 11 -1 32.47 3.84 51.90 <
-1 -3 11 -1 32.61 51.44 64.31 <
-1 3 11 0 14911.10 15839.60 266.08 o
-1 -3 11 0 14843.60 15418.50 238.08 o
-1 3 11 1 72.51 68.82 59.12 <
-1 -3 11 1 74.15 32.72 69.27 <
1 3 11 -1 72.49 2.48 52.12 <
1 -3 11 -1 75.22 20.98 53.25 <
1 3 11 0 14883.60 15612.10 245.91 o
1 -3 11 0 14810.90 15823.10 246.81 o
1 3 11 1 32.57 -34.30 52.35 <
1 -3 11 1 32.01 5.87 53.48 <
0 4 11 -1 1548.32 1899.68 144.91 o
0 -4 11 -1 1534.44 1614.64 139.95 o
0 4 11 0 580.59 132.91 76.27 <
0 -4 11 0 581.12 241.45 81.46 o
0 4 11 1 1567.25 1823.49 110.12 o
0 -4 11 1 1551.35 2142.09 151.86 o
loop_
_twin_individual_id
_twin_individual_mass_fraction_refined
_twin_individual_twin_matrix_11
_twin_individual_twin_matrix_12
_twin_individual_twin_matrix_13
_twin_individual_twin_matrix_21
_twin_individual_twin_matrix_22
_twin_individual_twin_matrix_23
_twin_individual_twin_matrix_31
_twin_individual_twin_matrix_32
_twin_individual_twin_matrix_33
1 0.26(8) 1 0 0 0 1 0 0 0 1
2 0.23(5) 1 0 0 0 -1 0 0 0 -1
3 0.25(5) -1 0 0 0 -1 0 0 0 -1
4 0.26(5) -1 0 0 0 1 0 0 0 1
loop_
_jana_atom_site_occ_fourier_absolute_site_label
_jana_atom_site_occ_fourier_absolute
U1 0.625
Ba1 0.25
