#------------------------------------------------------------------------------
#$Date: 2021-02-18 12:04:43 +0200 (Thu, 18 Feb 2021) $
#$Revision: 262062 $
#$URL: file:///home/coder/svn-repositories/cod/cif/1/56/04/1560467.cif $
#------------------------------------------------------------------------------
#
# This file is available in the Crystallography Open Database (COD),
# http://www.crystallography.net/
#
# All data on this site have been placed in the public domain by the
# contributors.
#
data_1560467
loop_
_publ_author_name
'Iyer, Abishek K.'
'Yin, Wenlong'
'Lee, Emma J.'
'Lin, Xinsong'
'Mar, Arthur'
_publ_section_title
;
 Quaternary rare-earth sulfides RE 3 M 0.5 GeS 7 (RE=La--Nd, Sm; M=Co, Ni)
 and Y 3 Pd 0.5 SiS 7
;
_journal_name_full               'Journal of Solid State Chemistry'
_journal_page_first              14
_journal_page_last               23
_journal_paper_doi               10.1016/j.jssc.2017.03.009
_journal_volume                  250
_journal_year                    2017
_chemical_absolute_configuration ad
_chemical_formula_structural     'La3 Ni0.50 Ge S7'
_chemical_formula_sum            'Ge La3 Ni0.5 S7'
_chemical_formula_weight         743.09
_chemical_name_common
'lanthanum nickel germanium sulfide (3/0.5/1/7)'
_chemical_name_systematic
'lanthanum nickel germanium sulfide (3/0.5/1/7)'
_space_group_crystal_system      hexagonal
_space_group_IT_number           173
_space_group_name_Hall           'P 6c'
_space_group_name_H-M_alt        'P 63'
_atom_sites_solution_hydrogens   .
_audit_creation_method           SHELXL-2014/7
_cell_angle_alpha                90
_cell_angle_beta                 90
_cell_angle_gamma                120
_cell_formula_units_Z            2
_cell_length_a                   10.2983(4)
_cell_length_b                   10.2983(4)
_cell_length_c                   5.8078(2)
_cell_measurement_reflns_used    5800
_cell_measurement_temperature    296(2)
_cell_measurement_theta_max      32.62
_cell_measurement_theta_min      4.19
_cell_volume                     533.42(3)
_computing_cell_refinement       'Bruker SAINT 8.34A (Bruker, 2013)'
_computing_data_collection       'Bruker APEX 2 (Bruker, 2008)'
_computing_data_reduction        'Bruker SAINT 8.34A'
_computing_molecular_graphics    'ATOMS 5.1 (Dowty, 1999)'
_computing_publication_material  'SHELXL-2014/7 (Sheldrick, 2014)'
_computing_structure_refinement  'SHELXL-2014/7 (Sheldrick, 2014)'
_computing_structure_solution    'SHELXS-97 (Sheldrick, 2008)'
_diffrn_ambient_temperature      296(2)
_diffrn_measured_fraction_theta_full 1.000
_diffrn_measured_fraction_theta_max 1.000
_diffrn_measurement_device_type  'Bruker PLATFORM/SMART APEX II CCD'
_diffrn_measurement_method       '\w and \f scans'
_diffrn_radiation_type           MoK\a
_diffrn_radiation_wavelength     0.71073
_diffrn_reflns_av_R_equivalents  0.0361
_diffrn_reflns_av_unetI/netI     0.0228
_diffrn_reflns_Laue_measured_fraction_full 1.000
_diffrn_reflns_Laue_measured_fraction_max 1.000
_diffrn_reflns_limit_h_max       15
_diffrn_reflns_limit_h_min       -15
_diffrn_reflns_limit_k_max       15
_diffrn_reflns_limit_k_min       -15
_diffrn_reflns_limit_l_max       8
_diffrn_reflns_limit_l_min       -8
_diffrn_reflns_number            7786
_diffrn_reflns_point_group_measured_fraction_full 1.000
_diffrn_reflns_point_group_measured_fraction_max 1.000
_diffrn_reflns_theta_full        25.242
_diffrn_reflns_theta_max         33.008
_diffrn_reflns_theta_min         2.284
_diffrn_source                   'fine-focus sealed tube'
_exptl_absorpt_coefficient_mu    16.718
_exptl_absorpt_correction_T_max  0.653
_exptl_absorpt_correction_T_min  0.552
_exptl_absorpt_correction_type   numerical
_exptl_absorpt_process_details   'SHELXL-2014/7 (Sheldrick, 2014)'
_exptl_crystal_colour            grey
_exptl_crystal_density_diffrn    4.626
_exptl_crystal_description       irregular
_exptl_crystal_F_000             658
_exptl_crystal_size_max          0.050
_exptl_crystal_size_mid          0.050
_exptl_crystal_size_min          0.042
_refine_diff_density_max         2.281
_refine_diff_density_min         -0.978
_refine_diff_density_rms         0.219
_refine_ls_abs_structure_details
;
 Refined as an inversion twin.
;
_refine_ls_abs_structure_Flack   -0.02(3)
_refine_ls_extinction_coef       0.0017(3)
_refine_ls_extinction_expression Fc^*^=kFc[1+0.001xFc^2^\l^3^/sin(2\q)]^-1/4^
_refine_ls_extinction_method     'SHELXL-2014/7 (Sheldrick 2014)'
_refine_ls_goodness_of_fit_ref   1.175
_refine_ls_hydrogen_treatment    undef
_refine_ls_matrix_type           full
_refine_ls_number_parameters     41
_refine_ls_number_reflns         1341
_refine_ls_number_restraints     1
_refine_ls_restrained_S_all      1.175
_refine_ls_R_factor_all          0.0233
_refine_ls_R_factor_gt           0.0214
_refine_ls_shift/su_max          0.000
_refine_ls_shift/su_mean         0.000
_refine_ls_structure_factor_coef Fsqd
_refine_ls_weighting_details
'w=1/[\s^2^(Fo^2^)+(0.0088P)^2^+1.8044P] where P=(Fo^2^+2Fc^2^)/3'
_refine_ls_weighting_scheme      calc
_refine_ls_wR_factor_gt          0.0398
_refine_ls_wR_factor_ref         0.0406
_reflns_Friedel_coverage         0.846
_reflns_Friedel_fraction_full    1.000
_reflns_Friedel_fraction_max     1.000
_reflns_number_gt                1282
_reflns_number_total             1341
_reflns_threshold_expression     'I > 2\s(I)'
_cod_data_source_file            mmc17.cif
_cod_data_source_block           6
_cod_original_cell_volume        533.42(5)
_cod_original_formula_sum        'Ge La3 Ni0.50 S7'
_cod_database_code               1560467
_shelx_shelxl_version_number     2014/7
_shelx_space_group_comment
;
The symmetry employed for this shelxl refinement is uniquely defined
by the following loop, which should always be used as a source of
symmetry information in preference to the above space-group names.
They are only intended as comments.
;
_shelx_estimated_absorpt_t_min   0.489
_shelx_estimated_absorpt_t_max   0.540
_shelx_res_file
;

    p63.res created by SHELXL-2014/7

TITL La3Ni0.5GeS7 P6(3) lsf final refinement
CELL 0.71073  10.29830  10.29830   5.80780  90.0000  90.0000 120.0000
ZERR    2.00   0.00040   0.00040   0.00020   0.0000   0.0000   0.0000
LATT -1
SYMM -Y, X-Y, Z
SYMM -X+Y, -X, Z
SYMM -X, -Y, 0.5+Z
SYMM Y, -X+Y, 0.5+Z
SYMM X-Y, X, 0.5+Z
SFAC S NI GE LA
UNIT 14 1 2 6
TEMP 23
SIZE 0.042 0.05 0.05

L.S. 4
ACTA

TWIN

EADP NIA NIB
WGHT    0.008800    1.804400
EXTI    0.001673
BASF  -0.02279
FVAR       0.11230   0.95599
LA    4    0.126711    0.355818    0.012506    11.00000    0.01023    0.00863 =
         0.01019    0.00065    0.00081    0.00470
NIA   2    0.000000    0.000000    0.248900    20.16667    0.01073    0.01073 =
         0.01346    0.00000    0.00000    0.00537
NIB   2    0.000000    0.000000    0.019656   -20.16667    0.01073    0.01073 =
         0.01346    0.00000    0.00000    0.00537
GE    3    0.333333    0.666667    0.594001    10.33333    0.01148    0.01148 =
         0.00789    0.00000    0.00000    0.00574
S1    1    0.240421    0.154964    0.000000    11.00000    0.01369    0.01135 =
         0.02159    0.00176   -0.00041    0.00760
S2    1    0.521590    0.106251    0.240832    11.00000    0.01027    0.01142 =
         0.01206    0.00068   -0.00117    0.00470
S3    1    0.333333    0.666667    0.220202    10.33333    0.01357    0.01357 =
         0.00907    0.00000    0.00000    0.00679
HKLF 4

REM  La3Ni0.5GeS7 P6(3) lsf final refinement
REM R1 =  0.0214 for    1282 Fo > 4sig(Fo)  and  0.0233 for all    1341 data
REM     41 parameters refined using      1 restraints

END

WGHT      0.0087      1.8112

REM Highest difference peak  2.281,  deepest hole -0.978,  1-sigma level  0.219
Q1    1   0.4572  0.7488  0.5121  11.00000  0.05    2.28
Q2    1   0.3333  0.6667  0.4270  10.33333  0.05    1.96
Q3    1   0.3179  0.3834  0.0083  11.00000  0.05    1.29
Q4    1   0.5219  0.1548  0.0141  11.00000  0.05    1.17
Q5    1   0.0884  0.2479  0.0952  11.00000  0.05    0.89
Q6    1   0.4598  0.0179  0.1131  11.00000  0.05    0.88
Q7    1   0.3823  0.3394  0.0096  11.00000  0.05    0.82
Q8    1   0.4782 -0.1050  0.2812  11.00000  0.05    0.81
Q9    1   0.2366  0.4438 -0.1516  11.00000  0.05    0.78
Q10   1   0.4800  0.1949  0.1306  11.00000  0.05    0.77
Q11   1   0.5997  0.1964  0.0992  11.00000  0.05    0.75
Q12   1   0.5759  0.1025  0.5024  11.00000  0.05    0.73
Q13   1   0.5713  0.1024  0.0155  11.00000  0.05    0.71
Q14   1   0.1543  0.5028  0.0201  11.00000  0.05    0.71
Q15   1   0.2034  0.0899 -0.2581  11.00000  0.05    0.68
Q16   1   0.5072  0.7083  0.6190  11.00000  0.05    0.68
Q17   1   0.2084  0.3092  0.0961  11.00000  0.05    0.67
Q18   1   0.2429  0.0897  0.0956  11.00000  0.05    0.66
Q19   1   0.5454 -0.0164  0.4041  11.00000  0.05    0.64
Q20   1   0.3803  0.0991  0.1021  11.00000  0.05    0.64
;
_shelx_res_checksum              41929
_shelx_hkl_file
;
   1  -6  -8  100.36    8.53
   2  -6  -8    4.90    1.77
   3  -6  -8   31.40    3.99
   4  -6  -8    1.34    1.28
   5  -6  -8    0.57    0.98
   6  -6  -8    3.38    2.25
  -1  -5  -8    1.42    1.95
   0  -5  -8    3.40    1.53
   1  -5  -8    8.65    2.15
   2  -5  -8    6.97    1.93
   3  -5  -8    2.10    1.30
   4  -5  -8   30.18    3.71
   5  -5  -8    1.95    1.41
  -2  -4  -8    1.84    1.52
  -1  -4  -8   32.16    3.88
   0  -4  -8    5.50    1.69
   1  -4  -8   13.03    2.36
   2  -4  -8   37.10    3.27
   3  -4  -8   95.18    4.42
   4  -4  -8    7.53    1.54
   5  -4  -8    9.38    1.71
  -3  -3  -8   30.73    4.02
  -2  -3  -8    0.88    1.18
  -1  -3  -8   87.44    5.34
   0  -3  -8   10.64    2.31
   1  -3  -8    0.10    0.81
   2  -3  -8   60.58    4.14
   3  -3  -8   12.42    1.96
   4  -3  -8   13.50    2.58
   5  -3  -8    7.74    2.01
   6  -3  -8   32.33    4.50
  -4  -2  -8    4.11    1.93
  -3  -2  -8    8.21    2.03
  -2  -2  -8   26.39    3.33
  -1  -2  -8   58.60    5.06
   0  -2  -8    4.07    1.24
   1  -2  -8   32.68    2.96
   2  -2  -8    6.89    1.47
   3  -2  -8    1.91    1.24
   4  -2  -8   33.30    3.93
   5  -2  -8   -0.02    0.98
   6  -2  -8    0.90    1.69
  -4  -1  -8    8.50    2.11
  -3  -1  -8   12.57    2.36
  -2  -1  -8    2.08    1.21
  -1  -1  -8   35.16    3.13
   0  -1  -8    4.21    1.14
   1  -1  -8    5.71    1.37
   2  -1  -8   36.49    4.03
   3  -1  -8   52.01    4.81
   4  -1  -8   90.67    5.53
   5  -1  -8   28.95    3.64
   6  -1  -8    2.37    2.01
  -5   0  -8    1.92    1.22
  -4   0  -8    8.52    2.01
  -3   0  -8   13.80    2.53
  -2   0  -8    8.75    2.02
  -1   0  -8    6.21    1.41
   0   0  -8  215.11    6.84
   1   0  -8    6.77    1.77
   2   0  -8    7.17    1.92
   3   0  -8    7.68    2.02
   4   0  -8    6.76    1.85
   5   0  -8    1.77    1.37
  -6   1  -8    0.61    2.49
  -5   1  -8   22.73    3.28
  -4   1  -8   93.51    5.49
  -3   1  -8   58.89    5.19
  -2   1  -8   31.47    2.98
  -1   1  -8    4.34    1.56
   0   1  -8    4.13    1.47
   1   1  -8   38.97    4.24
   2   1  -8    2.33    1.28
   3   1  -8   10.43    2.23
   4   1  -8    8.73    2.09
  -6   2  -8    3.69    2.10
  -5   2  -8    0.45    1.07
  -4   2  -8   33.74    3.86
  -3   2  -8    1.23    0.86
  -2   2  -8    7.08    1.95
  -1   2  -8   34.56    3.89
   0   2  -8    6.36    1.78
   1   2  -8   53.52    4.96
   2   2  -8   34.16    4.00
   3   2  -8    5.86    1.76
   4   2  -8    8.13    2.90
  -6   3  -8   37.39    4.28
  -5   3  -8    7.30    1.94
  -4   3  -8   12.57    2.12
  -3   3  -8   12.77    2.51
  -2   3  -8   54.30    4.88
  -1   3  -8    1.53    1.15
   0   3  -8    7.51    1.96
   1   3  -8   83.52    5.23
   2   3  -8    0.98    1.03
   3   3  -8   33.27    4.48
  -6   4  -8    4.58    1.66
  -5   4  -8    8.82    3.15
  -4   4  -8    6.79    1.96
  -3   4  -8   78.38    5.57
  -2   4  -8   34.31    3.96
  -1   4  -8   10.42    2.34
   0   4  -8    7.85    1.93
   1   4  -8   27.09    3.44
   2   4  -8    2.43    2.05
  -6   5  -8  105.26    8.71
  -5   5  -8    1.54    1.36
  -4   5  -8   24.82    3.32
  -3   5  -8    0.57    1.18
  -2   5  -8    5.29    1.79
  -1   5  -8    9.25    2.20
   0   5  -8    1.75    1.87
  -5   6  -8    0.33    1.31
  -4   6  -8    2.00    1.42
  -3   6  -8   34.69    5.82
  -2   6  -8    4.40    2.31
   3  -9  -7    2.91    2.75
   4  -9  -7    5.06    2.53
   5  -9  -7   62.85    7.68
   6  -9  -7   10.40    3.84
   7  -9  -7   30.02    8.01
   1  -8  -7   73.70    8.57
   2  -8  -7   20.34    4.36
   3  -8  -7   92.85    7.68
   4  -8  -7   23.00    3.26
   5  -8  -7    0.62    1.14
   6  -8  -7    8.61    1.95
   7  -8  -7    5.58    1.74
   8  -8  -7    1.01    1.22
  -2  -7  -7   35.54    5.63
  -1  -7  -7    5.82    2.31
   0  -7  -7   28.54    3.75
   1  -7  -7   13.52    2.40
   2  -7  -7    4.66    1.55
   3  -7  -7    9.97    2.11
   4  -7  -7    2.18    1.26
   5  -7  -7    4.45    1.49
   6  -7  -7   80.49    4.93
   7  -7  -7   24.28    3.33
   8  -7  -7   84.11    5.26
   9  -7  -7    1.27    1.76
  -3  -6  -7   12.00    2.60
  -2  -6  -7    8.32    2.11
  -1  -6  -7   80.51    5.28
   0  -6  -7   12.83    2.39
   1  -6  -7    9.38    2.00
   2  -6  -7    8.44    1.91
   3  -6  -7   95.95    5.27
   4  -6  -7    1.77    1.04
   5  -6  -7   22.86    3.04
   6  -6  -7   16.05    2.53
   7  -6  -7   10.66    2.15
   8  -6  -7   14.41    2.57
   9  -6  -7    0.03    1.57
  -4  -5  -7   58.82    4.23
  -3  -5  -7    0.76    0.87
  -2  -5  -7    3.61    1.31
  -1  -5  -7   23.43    3.19
   0  -5  -7   24.42    3.15
   1  -5  -7    7.03    1.74
   2  -5  -7   54.70    4.76
   3  -5  -7    6.59    1.36
   4  -5  -7   93.80    4.08
   5  -5  -7   25.69    2.77
   6  -5  -7    6.08    1.63
   7  -5  -7    2.27    1.24
   8  -5  -7   80.24    7.32
   9  -5  -7    5.47    2.52
  -5  -4  -7    5.39    1.48
  -4  -4  -7   25.88    2.79
  -3  -4  -7   -0.06    0.88
  -2  -4  -7    0.90    0.92
  -1  -4  -7   78.62    4.71
   0  -4  -7   17.64    2.71
   1  -4  -7  159.67    6.88
   2  -4  -7    2.18    0.87
   3  -4  -7    1.34    0.76
   4  -4  -7   15.39    1.98
   5  -4  -7    7.86    1.46
   6  -4  -7   10.51    1.70
   7  -4  -7   15.72    3.02
   8  -4  -7   27.29    5.07
   9  -4  -7   44.93    7.28
  -6  -3  -7   -0.60    0.85
  -5  -3  -7   74.25    4.14
  -4  -3  -7   18.78    2.94
  -3  -3  -7   81.43    5.00
  -2  -3  -7    2.59    1.23
  -1  -3  -7    1.13    0.87
   0  -3  -7   10.13    1.99
   1  -3  -7    2.08    0.82
   2  -3  -7    0.35    0.56
   3  -3  -7   10.65    1.62
   4  -3  -7  144.92    5.23
   5  -3  -7   55.34    3.70
   6  -3  -7   83.05    4.92
   7  -3  -7   -0.12    0.85
   8  -3  -7    2.19    1.27
  -7  -2  -7   -0.20    1.42
  -6  -2  -7   27.04    3.69
  -5  -2  -7    2.26    0.96
  -4  -2  -7   10.94    2.23
  -3  -2  -7   50.93    4.66
  -2  -2  -7    2.21    1.05
  -1  -2  -7    0.06    0.65
   0  -2  -7   58.34    3.32
   1  -2  -7   19.02    2.17
   2  -2  -7   55.32    3.18
   3  -2  -7    2.61    0.89
   4  -2  -7    1.79    0.82
   5  -2  -7    4.48    1.44
   6  -2  -7    1.75    1.09
   7  -2  -7    3.45    1.37
   8  -2  -7   10.11    2.23
   9  -2  -7   32.42    5.42
  -7  -1  -7   82.02    4.45
  -6  -1  -7   12.62    1.92
  -5  -1  -7    5.96    1.73
  -4  -1  -7    5.78    1.65
  -3  -1  -7  144.47    6.56
  -2  -1  -7    2.94    1.18
  -1  -1  -7   18.60    2.08
   0  -1  -7   40.18    3.08
   1  -1  -7   37.71    2.99
   2  -1  -7   16.85    1.99
   3  -1  -7    0.27    0.63
   4  -1  -7    0.00    0.67
   5  -1  -7   88.83    5.08
   6  -1  -7   21.32    2.96
   7  -1  -7   77.84    4.95
   8  -1  -7    7.13    1.94
  -8   0  -7    2.11    1.85
  -7   0  -7   21.40    2.55
  -6   0  -7   19.12    2.97
  -5   0  -7   21.67    3.04
  -4   0  -7   12.58    2.29
  -3   0  -7    7.98    1.86
  -2   0  -7   56.08    3.77
  -1   0  -7   33.93    2.83
   0   0  -7    0.22    0.61
   1   0  -7   41.49    3.06
   2   0  -7   52.48    4.50
   3   0  -7   10.51    2.06
   4   0  -7   15.47    2.53
   5   0  -7   23.92    3.14
   6   0  -7   20.42    2.93
   7   0  -7   20.44    2.89
   8   0  -7    0.71    1.20
  -8   1  -7   10.09    2.22
  -7   1  -7   83.75    4.14
  -6   1  -7   27.23    3.49
  -5   1  -7   80.33    4.85
  -4   1  -7    1.94    1.05
  -3   1  -7    0.23    0.61
  -2   1  -7   18.91    2.17
  -1   1  -7   39.73    3.05
   0   1  -7   39.93    3.00
   1   1  -7   19.26    2.73
   2   1  -7    1.87    0.98
   3   1  -7  158.27    6.86
   4   1  -7    4.71    1.46
   5   1  -7    8.82    1.97
   6   1  -7   10.12    2.01
   7   1  -7   76.35    5.44
  -9   2  -7   26.40    4.94
  -8   2  -7    9.59    1.80
  -7   2  -7    2.53    1.29
  -6   2  -7    1.57    1.07
  -5   2  -7    2.99    1.27
  -4   2  -7    3.03    1.22
  -3   2  -7    2.86    0.97
  -2   2  -7   57.06    3.24
  -1   2  -7   19.69    2.14
   0   2  -7   58.74    4.26
   1   2  -7   -0.11    0.65
   2   2  -7    2.07    1.03
   3   2  -7   59.55    4.93
   4   2  -7    9.51    2.02
   5   2  -7    3.48    1.42
   6   2  -7   20.70    3.05
   7   2  -7    0.80    1.78
  -9   3  -7   10.37    2.39
  -8   3  -7    1.67    1.17
  -7   3  -7    0.82    1.02
  -6   3  -7   92.75    5.23
  -5   3  -7   49.64    4.21
  -4   3  -7  152.04    5.40
  -3   3  -7    9.78    1.57
  -2   3  -7   -0.48    0.58
  -1   3  -7    1.97    1.02
   0   3  -7   10.50    1.99
   1   3  -7    1.20    0.96
   2   3  -7    4.23    1.42
   3   3  -7   82.31    4.91
   4   3  -7   18.41    2.71
   5   3  -7   83.22    5.04
   6   3  -7   -0.44    1.39
  -9   4  -7   64.24    7.94
  -8   4  -7   26.61    3.51
  -7   4  -7   14.97    2.61
  -6   4  -7   11.25    2.20
  -5   4  -7    5.73    1.35
  -4   4  -7   16.78    2.00
  -3   4  -7    1.11    0.94
  -2   4  -7    3.19    1.28
  -1   4  -7  153.73    6.74
   0   4  -7   18.81    2.69
   1   4  -7   78.66    4.75
   2   4  -7    1.73    1.18
   3   4  -7    1.28    1.06
   4   4  -7   25.07    4.84
   5   4  -7    6.48    2.95
  -9   5  -7    6.55    2.77
  -8   5  -7   85.54    5.17
  -7   5  -7    2.05    1.29
  -6   5  -7    7.18    1.82
  -5   5  -7   25.94    3.19
  -4   5  -7   75.64    4.60
  -3   5  -7    7.17    1.80
  -2   5  -7   59.12    4.83
  -1   5  -7    7.29    1.76
   0   5  -7   22.92    2.99
   1   5  -7   26.76    3.31
   2   5  -7    4.52    2.22
   3   5  -7    1.64    1.77
   4   5  -7   68.29    8.98
  -9   6  -7   -0.48    1.47
  -8   6  -7   21.71    3.18
  -7   6  -7   15.34    2.56
  -6   6  -7   18.84    3.95
  -5   6  -7   22.39    2.94
  -4   6  -7    1.38    1.00
  -3   6  -7   87.72    6.98
  -2   6  -7    9.18    2.13
  -1   6  -7   10.76    3.02
   0   6  -7   25.63    4.61
   1   6  -7   67.30    7.95
   2   6  -7    7.51    2.72
   3   6  -7    8.68    3.33
  -9   7  -7    1.81    1.86
  -7   7  -7   25.53    4.66
  -6   7  -7  101.06    7.69
  -5   7  -7   -1.09    1.36
  -4   7  -7   -0.02    1.39
  -3   7  -7   18.40    3.75
  -2   7  -7    3.79    2.11
  -1   7  -7    8.51    2.85
   0   7  -7   18.47    4.13
   1   7  -7   12.19    3.43
  -6   8  -7    7.92    2.92
  -5   8  -7    2.47    2.06
  -4   8  -7   26.65    4.70
  -2   8  -7   23.62    4.31
  -1   8  -7   79.64    7.27
   0   8  -7   -0.41    1.45
  -3   9  -7   -1.02    1.67
  -2   9  -7    0.70    1.78
   3 -11  -6   11.69    2.81
   4 -11  -6   31.76    5.44
   5 -11  -6   17.13    4.08
   6 -11  -6   -0.25    1.05
   7 -11  -6  109.75   13.73
   0 -10  -6   31.73    4.66
   1 -10  -6    5.22    1.71
   2 -10  -6   40.51    4.27
   3 -10  -6   53.80    4.76
   4 -10  -6   60.99    7.46
   5 -10  -6   26.39    4.94
   6 -10  -6    1.09    1.44
   7 -10  -6   11.75    3.45
   8 -10  -6   73.83    8.29
   9 -10  -6    1.41    1.55
  -1  -9  -6    1.73    1.24
   0  -9  -6   15.86    2.67
   1  -9  -6    6.14    1.78
   2  -9  -6    0.70    1.01
   3  -9  -6   24.06    4.58
   4  -9  -6    5.00    1.98
   5  -9  -6   22.09    4.26
   6  -9  -6   42.81    6.04
   7  -9  -6   16.64    2.66
   8  -9  -6   36.76    3.99
   9  -9  -6   17.43    2.81
  10  -9  -6    6.42    1.86
  -3  -8  -6   11.36    2.46
  -2  -8  -6   71.01    5.15
  -1  -8  -6   40.18    4.15
   0  -8  -6   70.49    4.90
   1  -8  -6   24.97    3.11
   2  -8  -6    8.76    1.72
   3  -8  -6   29.42    3.34
   4  -8  -6   21.73    2.88
   5  -8  -6   32.77    3.57
   6  -8  -6    2.34    1.05
   7  -8  -6   32.37    3.58
   8  -8  -6   72.51    4.89
   9  -8  -6    3.15    1.37
  10  -8  -6   34.72    3.73
  11  -8  -6    7.48    2.06
  -4  -7  -6  103.97    5.89
  -3  -7  -6   18.09    2.91
  -2  -7  -6   16.44    2.57
  -1  -7  -6   36.88    3.90
   0  -7  -6   16.38    2.02
   1  -7  -6   -0.07    0.57
   2  -7  -6   11.65    2.06
   3  -7  -6   18.93    2.66
   4  -7  -6   75.50    4.32
   5  -7  -6   42.10    3.96
   6  -7  -6   20.68    2.80
   7  -7  -6   10.91    2.02
   8  -7  -6   22.33    2.93
   9  -7  -6    1.24    1.02
  10  -7  -6   41.87    4.26
  11  -7  -6   40.38    4.21
  -5  -6  -6    0.23    1.08
  -4  -6  -6    1.16    1.02
  -3  -6  -6   49.21    3.63
  -2  -6  -6    1.45    0.83
  -1  -6  -6   19.22    2.19
   0  -6  -6    7.77    1.39
   1  -6  -6  179.88    5.59
   2  -6  -6    8.87    1.82
   3  -6  -6   99.01    4.91
   4  -6  -6    8.21    1.75
   5  -6  -6   38.63    3.65
   6  -6  -6    8.64    1.81
   7  -6  -6    0.46    0.71
   8  -6  -6    4.68    1.36
   9  -6  -6   29.46    3.42
  10  -6  -6   64.99    4.70
  11  -6  -6   15.11    4.05
  -6  -5  -6   13.52    2.58
  -5  -5  -6   29.58    2.92
  -4  -5  -6   19.47    2.24
  -3  -5  -6   37.76    3.12
  -2  -5  -6   49.71    3.41
  -1  -5  -6   30.53    2.62
   0  -5  -6    2.46    0.81
   1  -5  -6   27.63    3.16
   2  -5  -6   11.96    2.02
   3  -5  -6    4.92    1.06
   4  -5  -6   45.51    2.89
   5  -5  -6    1.93    0.64
   6  -5  -6  179.16    5.63
   7  -5  -6   13.69    2.19
   8  -5  -6   20.35    2.79
   9  -5  -6    4.50    1.45
  10  -5  -6   32.98    5.55
  11  -5  -6   -0.12    1.50
  -7  -4  -6   39.38    4.36
  -6  -4  -6   57.23    5.04
  -5  -4  -6    4.98    1.31
  -4  -4  -6   28.02    2.69
  -3  -4  -6   73.49    3.54
  -2  -4  -6    9.38    1.42
  -1  -4  -6   48.63    2.97
   0  -4  -6   18.30    2.46
   1  -4  -6   51.75    2.94
   2  -4  -6   31.69    2.58
   3  -4  -6   84.57    3.53
   4  -4  -6   15.45    1.72
   5  -4  -6   32.35    2.64
   6  -4  -6   13.41    1.65
   7  -4  -6   18.62    2.01
   8  -4  -6   25.70    2.44
   9  -4  -6   17.61    4.12
  10  -4  -6    1.60    1.78
  -8  -3  -6    8.58    2.93
  -7  -3  -6   45.03    4.64
  -6  -3  -6   29.05    2.88
  -5  -3  -6   23.18    2.42
  -4  -3  -6   19.89    2.21
  -3  -3  -6   92.35    3.88
  -2  -3  -6    3.81    0.93
  -1  -3  -6   79.85    3.38
   0  -3  -6   21.65    2.15
   1  -3  -6    6.98    1.20
   2  -3  -6  113.46    4.14
   3  -3  -6   18.83    1.91
   4  -3  -6   50.92    2.80
   5  -3  -6   12.37    1.62
   6  -3  -6   92.58    3.75
   7  -3  -6   73.68    4.31
   8  -3  -6   41.35    3.99
   9  -3  -6   50.58    4.53
  10  -3  -6   17.34    4.14
  -8  -2  -6   38.86    4.18
  -7  -2  -6    1.66    1.08
  -6  -2  -6    6.24    1.34
  -5  -2  -6   12.95    1.76
  -4  -2  -6    8.71    1.48
  -3  -2  -6   10.68    1.54
  -2  -2  -6   34.90    2.63
  -1  -2  -6  110.70    5.07
   0  -2  -6   65.72    3.06
   1  -2  -6   92.77    3.69
   2  -2  -6   71.49    3.12
   3  -2  -6    5.53    1.07
   4  -2  -6   31.63    2.52
   5  -2  -6    4.44    0.99
   6  -2  -6    7.21    1.56
   7  -2  -6   45.48    4.00
   8  -2  -6    1.93    1.10
   9  -2  -6   15.66    2.62
  10  -2  -6   63.69    5.22
  -9  -1  -6    2.22    1.24
  -8  -1  -6    6.97    1.61
  -7  -1  -6   24.53    2.58
  -6  -1  -6    0.32    0.59
  -5  -1  -6  187.65    5.91
  -4  -1  -6   32.18    2.63
  -3  -1  -6   53.02    3.04
  -2  -1  -6    4.88    1.27
  -1  -1  -6   96.73    3.78
   0  -1  -6   17.54    1.86
   1  -1  -6   19.30    1.92
   2  -1  -6   94.25    3.63
   3  -1  -6  115.27    4.07
   4  -1  -6   74.87    3.27
   5  -1  -6   46.78    3.92
   6  -1  -6   33.26    3.34
   7  -1  -6   18.75    2.63
   8  -1  -6   31.95    3.55
   9  -1  -6   42.93    4.25
  10  -1  -6    1.67    1.26
  -9   0  -6   20.00    2.97
  -8   0  -6   65.81    5.41
  -7   0  -6   18.70    2.19
  -6   0  -6   10.08    1.59
  -5   0  -6    2.10    0.78
  -4   0  -6   20.29    2.06
  -3   0  -6   24.53    2.09
  -2   0  -6   64.52    3.08
  -1   0  -6   19.83    1.96
   0   0  -6  161.88    5.00
   1   0  -6   16.98    1.79
   2   0  -6   67.07    3.00
   3   0  -6   24.83    2.13
   4   0  -6   15.15    2.16
   5   0  -6    1.52    0.85
   6   0  -6   13.01    2.16
   7   0  -6   12.11    2.09
   8   0  -6   66.28    4.74
   9   0  -6   12.83    2.44
 -10   1  -6    2.94    1.45
  -9   1  -6   47.62    4.64
  -8   1  -6   41.57    4.22
  -7   1  -6   15.68    2.03
  -6   1  -6   33.62    2.80
  -5   1  -6   50.12    3.10
  -4   1  -6   85.59    3.50
  -3   1  -6  113.14    4.22
  -2   1  -6   94.00    3.70
  -1   1  -6   18.36    1.93
   0   1  -6   17.98    1.83
   1   1  -6   97.45    3.61
   2   1  -6    5.22    1.34
   3   1  -6   55.54    3.81
   4   1  -6   29.91    3.09
   5   1  -6  175.82    7.03
   6   1  -6    0.15    0.68
   7   1  -6   24.41    3.11
   8   1  -6    5.95    1.65
   9   1  -6    3.35    1.56
 -10   2  -6   69.06    5.19
  -9   2  -6   22.30    3.17
  -8   2  -6    2.99    1.26
  -7   2  -6   48.26    3.24
  -6   2  -6   10.14    1.52
  -5   2  -6    5.84    1.16
  -4   2  -6   30.60    2.60
  -3   2  -6    5.95    1.15
  -2   2  -6   66.24    3.06
  -1   2  -6   98.64    3.70
   0   2  -6   68.97    3.00
   1   2  -6  116.88    5.23
   2   2  -6   30.05    3.09
   3   2  -6    9.10    1.60
   4   2  -6    7.66    1.61
   5   2  -6   14.71    2.30
   6   2  -6    5.09    1.50
   7   2  -6    0.75    0.90
   8   2  -6   32.29    3.75
 -11   3  -6   10.56    4.02
 -10   3  -6   13.38    2.60
  -9   3  -6   46.33    4.40
  -8   3  -6   31.92    2.86
  -7   3  -6   74.03    3.69
  -6   3  -6   92.56    3.87
  -5   3  -6   10.38    1.41
  -4   3  -6   56.08    3.04
  -3   3  -6   26.84    2.35
  -2   3  -6  114.16    4.07
  -1   3  -6    6.81    1.15
   0   3  -6   20.49    2.51
   1   3  -6   81.66    4.35
   2   3  -6    4.92    1.34
   3   3  -6   95.52    4.82
   4   3  -6   20.85    2.77
   5   3  -6   20.24    2.69
   6   3  -6   28.11    3.30
   7   3  -6   48.24    4.43
 -11   4  -6   89.74    6.51
 -10   4  -6    2.73    1.24
  -9   4  -6   19.34    2.80
  -8   4  -6   27.20    2.61
  -7   4  -6   20.89    2.22
  -6   4  -6    9.17    1.40
  -5   4  -6   31.55    2.62
  -4   4  -6   15.83    1.80
  -3   4  -6   79.04    3.38
  -2   4  -6   34.38    3.33
  -1   4  -6   52.44    3.71
   0   4  -6   17.64    2.42
   1   4  -6   46.75    3.93
   2   4  -6    6.48    1.47
   3   4  -6   76.84    4.37
   4   4  -6   28.36    3.17
   5   4  -6    2.71    1.39
   6   4  -6   63.86    7.53
 -11   5  -6   -0.50    0.90
 -10   5  -6   29.12    3.67
  -9   5  -6    3.86    1.42
  -8   5  -6   24.68    2.53
  -7   5  -6   12.92    1.79
  -6   5  -6  184.27    7.05
  -5   5  -6    2.23    0.80
  -4   5  -6   51.38    2.82
  -3   5  -6    3.51    1.18
  -2   5  -6   11.72    1.95
  -1   5  -6   29.95    3.09
   0   5  -6    2.40    1.08
   1   5  -6   38.63    3.59
   2   5  -6   51.56    3.80
   3   5  -6   35.36    5.33
   4   5  -6   18.00    4.07
   5   5  -6   25.93    4.91
   6   5  -6   20.71    4.55
 -11   6  -6   15.95    2.84
 -10   6  -6   63.54    4.72
  -9   6  -6   29.62    3.53
  -8   6  -6    8.44    1.86
  -7   6  -6    0.38    0.85
  -6   6  -6    8.33    1.39
  -5   6  -6   37.40    2.80
  -4   6  -6    6.43    1.54
  -3   6  -6   94.23    4.72
  -2   6  -6    9.93    1.80
  -1   6  -6  175.78    7.00
   0   6  -6   15.45    3.36
   1   6  -6   13.00    3.17
   2   6  -6    2.70    1.66
   3   6  -6   58.01    6.97
   4   6  -6    1.15    1.47
   5   6  -6   -0.16    1.43
 -11   7  -6   39.33    4.35
 -10   7  -6   56.15    5.03
  -9   7  -6    1.70    1.00
  -8   7  -6   28.11    4.69
  -7   7  -6   16.71    2.43
  -6   7  -6   20.93    2.64
  -5   7  -6   51.42    4.11
  -4   7  -6   66.06    5.77
  -3   7  -6   21.45    3.82
  -2   7  -6   13.95    3.14
  -1   7  -6    0.75    1.24
   0   7  -6   17.17    3.54
   1   7  -6   32.49    4.84
   2   7  -6   19.23    4.05
   3   7  -6   14.95    3.65
   4   7  -6  109.59    8.75
 -11   8  -6    1.02    1.89
 -10   8  -6   35.98    5.69
  -9   8  -6    6.86    2.07
  -8   8  -6   70.96    8.41
  -6   8  -6    5.11    2.02
  -5   8  -6   34.39    4.79
  -4   8  -6   33.77    4.97
  -3   8  -6   31.82    4.67
  -2   8  -6    6.13    2.31
  -1   8  -6   28.21    4.80
   0   8  -6   63.98    6.05
   1   8  -6   45.80    6.21
   2   8  -6   73.61    6.82
   3   8  -6   10.91    3.62
  -5   9  -6   22.24    4.00
  -4   9  -6    4.96    1.65
  -3   9  -6   29.51    3.33
  -2   9  -6    0.62    1.01
  -1   9  -6    3.25    2.10
   0   9  -6   21.72    4.14
   1   9  -6    3.35    2.19
  -6  10  -6    2.40    1.97
  -5  10  -6   32.71    4.96
  -4  10  -6   59.13    6.91
  -3  10  -6   49.84    6.45
  -2  10  -6   28.64    5.00
   0  10  -6   37.16    5.76
  -7  11  -6  108.58    7.89
  -6  11  -6    0.82    1.96
  -5  11  -6   12.55    3.29
  -4  11  -6   38.37    5.69
   6 -13  -5    1.66    1.91
   7 -13  -5   12.99    3.43
   2 -12  -5   13.84    2.87
   3 -12  -5    2.09    1.24
   4 -12  -5  111.36    5.96
   5 -12  -5    1.37    1.17
   6 -12  -5   17.09    2.76
   7 -12  -5   34.65    3.87
   8 -12  -5   20.33    4.36
   9 -12  -5   13.90    3.59
   0 -11  -5    1.97    1.29
   1 -11  -5   21.53    3.12
   2 -11  -5    4.89    1.59
   3 -11  -5    6.42    1.71
   4 -11  -5   23.29    3.09
   5 -11  -5   37.61    3.89
   6 -11  -5   41.50    4.03
   7 -11  -5    1.33    1.40
   8 -11  -5   28.38    5.04
   9 -11  -5   32.95    5.43
  10 -11  -5    4.78    2.39
  -1 -10  -5    5.01    1.64
   0 -10  -5  129.85    6.57
   1 -10  -5   41.15    4.13
   2 -10  -5  102.30    5.44
   3 -10  -5    3.18    1.21
   4 -10  -5    3.64    1.16
   5 -10  -5   19.33    2.65
   6 -10  -5   45.20    3.89
   7 -10  -5   24.16    4.44
   8 -10  -5   18.15    3.94
   9 -10  -5   12.39    3.26
  10 -10  -5  130.71    9.30
  11 -10  -5   26.54    3.35
  12 -10  -5   15.28    3.76
  -3  -9  -5   16.13    2.84
  -2  -9  -5   24.95    3.28
  -1  -9  -5   15.04    2.59
   0  -9  -5    1.45    0.96
   1  -9  -5   -0.05    0.62
   2  -9  -5    0.39    0.74
   3  -9  -5    0.16    0.67
   4  -9  -5   12.15    2.09
   5  -9  -5   25.06    2.87
   6  -9  -5    8.37    2.59
   7  -9  -5   73.80    4.28
   8  -9  -5   10.83    2.03
   9  -9  -5    3.53    1.28
  10  -9  -5   35.29    3.76
  11  -9  -5    6.27    1.74
  12  -9  -5    4.92    1.69
  -4  -8  -5   11.62    2.34
  -3  -8  -5   24.23    3.28
  -2  -8  -5   16.38    2.60
  -1  -8  -5   11.69    2.20
   0  -8  -5    5.88    1.47
   1  -8  -5   77.37    4.30
   2  -8  -5  113.93    5.32
   3  -8  -5  233.17    6.38
   4  -8  -5   29.00    2.40
   5  -8  -5   10.24    1.44
   6  -8  -5   22.70    2.76
   7  -8  -5   12.89    2.10
   8  -8  -5    9.71    1.82
   9  -8  -5    0.42    0.76
  10  -8  -5   96.01    5.26
  11  -8  -5    6.82    1.83
  12  -8  -5  106.89    5.84
  -5  -7  -5   44.85    4.54
  -4  -7  -5    1.58    1.12
  -3  -7  -5   20.80    2.86
  -2  -7  -5   70.15    4.25
  -1  -7  -5   13.09    2.13
   0  -7  -5   12.37    1.61
   1  -7  -5    6.20    1.15
   2  -7  -5   13.02    1.60
   3  -7  -5   31.80    2.43
   4  -7  -5   14.46    1.64
   5  -7  -5    2.96    0.99
   6  -7  -5  272.53    8.88
   7  -7  -5   13.69    2.03
   8  -7  -5   74.44    4.25
   9  -7  -5    0.23    0.74
  10  -7  -5    4.70    1.47
  11  -7  -5   25.25    3.27
  12  -7  -5    1.26    1.17
  -7  -6  -5    3.88    2.66
  -6  -6  -5   18.85    2.92
  -5  -6  -5   37.01    3.94
  -4  -6  -5   41.22    3.92
  -3  -6  -5    6.97    1.32
  -2  -6  -5   16.97    1.95
  -1  -6  -5  281.48    7.37
   0  -6  -5   12.45    1.54
   1  -6  -5   34.19    2.55
   2  -6  -5   25.50    2.11
   3  -6  -5  150.57    4.56
   4  -6  -5    2.19    0.71
   5  -6  -5   78.75    4.06
   6  -6  -5   11.98    1.88
   7  -6  -5    8.82    1.70
   8  -6  -5  122.75    5.51
   9  -6  -5   -0.13    0.64
  10  -6  -5    2.34    1.16
  11  -6  -5   38.17    3.85
  12  -6  -5   13.90    3.65
  -7  -5  -5    1.09    1.11
  -6  -5  -5   34.02    3.85
  -5  -5  -5   17.82    2.62
  -4  -5  -5   29.45    2.60
  -3  -5  -5    8.37    1.39
  -2  -5  -5    2.98    0.78
  -1  -5  -5   78.96    3.34
   0  -5  -5   10.31    1.37
   1  -5  -5   10.53    1.34
   2  -5  -5   78.06    2.63
   3  -5  -5    2.56    0.59
   4  -5  -5  176.17    5.13
   5  -5  -5    9.89    1.29
   6  -5  -5   35.33    2.48
   7  -5  -5   11.79    1.61
   8  -5  -5  220.90    7.79
   9  -5  -5   13.87    2.15
  10  -5  -5   19.40    2.67
  11  -5  -5   43.48    6.18
  12  -5  -5   43.16    6.41
  -8  -4  -5   91.27    5.52
  -7  -4  -5   24.11    3.28
  -6  -4  -5    4.93    1.46
  -5  -4  -5   11.59    1.67
  -4  -4  -5   26.26    2.45
  -3  -4  -5   12.42    1.54
  -2  -4  -5    2.24    0.67
  -1  -4  -5  178.82    5.25
   0  -4  -5    2.63    0.70
   1  -4  -5  337.76    6.60
   2  -4  -5    3.24    0.65
   3  -4  -5   10.74    1.37
   4  -4  -5    3.69    0.85
   5  -4  -5   11.44    1.40
   6  -4  -5   29.73    2.30
   7  -4  -5   33.25    2.45
   8  -4  -5   27.63    2.31
   9  -4  -5   26.32    2.50
  10  -4  -5   48.69    6.35
  11  -4  -5    1.89    1.65
  12  -4  -5   21.37    4.66
  -9  -3  -5    2.40    1.46
  -8  -3  -5    6.79    1.85
  -7  -3  -5    2.94    1.17
  -6  -3  -5    0.69    0.74
  -5  -3  -5  227.30    6.60
  -4  -3  -5   28.36    2.46
  -3  -3  -5  149.19    4.78
  -2  -3  -5    3.69    0.85
  -1  -3  -5   11.09    1.34
   0  -3  -5   70.59    2.47
   1  -3  -5   27.89    1.66
   2  -3  -5   32.40    2.30
   3  -3  -5   67.53    2.83
   4  -3  -5  335.07    7.62
   5  -3  -5   78.59    3.08
   6  -3  -5  143.79    4.51
   7  -3  -5   13.31    1.54
   8  -3  -5    9.09    1.35
   9  -3  -5    7.72    1.65
  10  -3  -5   22.64    2.52
  11  -3  -5   25.00    4.75
  12  -3  -5   15.06    3.95
 -10  -2  -5    7.20    2.55
  -9  -2  -5    7.01    1.82
  -8  -2  -5   99.71    5.43
  -7  -2  -5   -0.29    0.73
  -6  -2  -5  107.53    4.39
  -5  -2  -5   12.23    1.55
  -4  -2  -5   26.72    2.25
  -3  -2  -5   78.60    3.22
  -2  -2  -5    3.14    0.78
  -1  -2  -5   36.32    1.95
   0  -2  -5   73.50    2.45
   1  -2  -5   52.15    2.07
   2  -2  -5   75.99    2.95
   3  -2  -5   31.83    2.23
   4  -2  -5    2.36    0.69
   5  -2  -5    3.64    0.81
   6  -2  -5    2.50    0.71
   7  -2  -5    2.40    0.97
   8  -2  -5   16.50    2.38
   9  -2  -5   64.31    4.10
  10  -2  -5   17.62    2.61
  11  -2  -5   28.66    3.44
 -10  -1  -5   20.88    3.14
  -9  -1  -5   36.80    3.95
  -8  -1  -5    0.37    0.71
  -7  -1  -5   67.10    4.19
  -6  -1  -5    6.63    1.22
  -5  -1  -5   32.62    2.58
  -4  -1  -5    9.23    1.30
  -3  -1  -5  332.79    7.75
  -2  -1  -5   28.90    1.88
  -1  -1  -5   53.18    2.06
   0  -1  -5   74.07    2.38
   1  -1  -5   74.98    2.93
   2  -1  -5   55.59    2.46
   3  -1  -5   37.31    2.18
   4  -1  -5   11.96    1.33
   5  -1  -5  183.83    5.05
   6  -1  -5   75.16    4.03
   7  -1  -5  288.11    9.21
   8  -1  -5    9.82    1.89
   9  -1  -5    9.87    1.98
  10  -1  -5    9.08    1.93
  11  -1  -5    3.44    1.48
 -11   0  -5    2.23    1.93
 -10   0  -5  144.48    6.98
  -9   0  -5    0.77    0.84
  -8   0  -5    6.89    1.68
  -7   0  -5   13.01    1.71
  -6   0  -5   12.83    1.66
  -5   0  -5   10.59    1.49
  -4   0  -5    3.29    0.81
  -3   0  -5   68.24    2.85
  -2   0  -5   73.16    2.47
  -1   0  -5   79.83    2.48
   0   0  -5   -0.08    0.34
   1   0  -5   74.41    2.88
   2   0  -5   75.09    2.88
   3   0  -5   72.41    2.80
   4   0  -5    3.71    0.75
   5   0  -5    9.90    1.60
   6   0  -5   11.90    1.91
   7   0  -5   14.09    2.15
   8   0  -5    5.62    1.51
   9   0  -5    1.84    1.14
  10   0  -5  141.25    6.76
  11   0  -5    2.55    1.46
 -11   1  -5    7.41    1.95
 -10   1  -5   15.98    2.76
  -9   1  -5    6.35    1.64
  -8   1  -5   12.57    2.17
  -7   1  -5  274.11    7.50
  -6   1  -5   80.36    3.46
  -5   1  -5  181.44    5.34
  -4   1  -5   11.01    1.39
  -3   1  -5   31.98    1.83
  -2   1  -5   51.97    2.00
  -1   1  -5   77.15    2.95
   0   1  -5   70.39    2.79
   1   1  -5   54.50    2.40
   2   1  -5   32.64    2.01
   3   1  -5  342.45    9.62
   4   1  -5   12.18    1.82
   5   1  -5   33.89    3.18
   6   1  -5    9.77    1.75
   7   1  -5   73.52    4.20
   8   1  -5    0.41    0.79
   9   1  -5   32.03    3.55
  10   1  -5   23.18    3.22
 -11   2  -5   25.01    3.52
 -10   2  -5   14.98    2.38
  -9   2  -5   70.05    4.38
  -8   2  -5   20.60    2.71
  -7   2  -5    3.96    1.00
  -6   2  -5    1.80    0.67
  -5   2  -5    2.82    0.79
  -4   2  -5    2.71    0.62
  -3   2  -5   31.38    1.77
  -2   2  -5   71.34    2.37
  -1   2  -5   59.82    2.52
   0   2  -5   72.00    2.82
   1   2  -5   35.64    2.07
   2   2  -5    3.74    1.04
   3   2  -5   80.29    3.94
   4   2  -5   26.82    2.72
   5   2  -5    9.84    1.73
   6   2  -5  117.86    5.36
   7   2  -5    0.31    0.74
   8   2  -5   90.34    5.17
   9   2  -5    5.01    1.46
  10   2  -5    8.26    2.96
 -12   3  -5   15.63    2.75
 -11   3  -5   22.22    3.26
 -10   3  -5   20.36    2.88
  -9   3  -5    7.72    1.74
  -8   3  -5   13.07    2.10
  -7   3  -5   13.00    1.67
  -6   3  -5  152.28    4.79
  -5   3  -5   75.59    3.12
  -4   3  -5  339.87    6.63
  -3   3  -5   70.44    2.40
  -2   3  -5   36.72    2.27
  -1   3  -5   31.08    2.01
   0   3  -5   69.84    2.73
   1   3  -5   11.08    1.71
   2   3  -5    3.63    1.02
   3   3  -5  139.21    5.59
   4   3  -5   28.49    2.88
   5   3  -5  218.42    7.67
   6   3  -5    0.35    0.77
   7   3  -5    2.29    1.06
   8   3  -5    6.92    1.81
   9   3  -5    1.41    1.73
 -12   4  -5   18.17    2.94
 -11   4  -5    1.98    1.17
 -10   4  -5   43.04    4.23
  -9   4  -5   30.90    3.42
  -8   4  -5   27.47    3.03
  -7   4  -5   30.28    2.51
  -6   4  -5   31.24    2.41
  -5   4  -5   10.78    1.15
  -4   4  -5    4.46    0.76
  -3   4  -5   15.76    1.31
  -2   4  -5    3.19    0.74
  -1   4  -5  339.35    9.54
   0   4  -5    3.71    1.04
   1   4  -5  184.01    6.44
   2   4  -5    0.76    0.69
   3   4  -5   14.81    2.03
   4   4  -5   26.31    2.85
   5   4  -5    9.91    1.84
   6   4  -5    1.84    1.64
   7   4  -5   29.68    5.08
   8   4  -5  104.51    8.51
 -12   5  -5   37.91    4.23
 -11   5  -5   40.31    4.15
 -10   5  -5   15.52    2.50
  -9   5  -5    8.46    1.83
  -8   5  -5  232.87    6.41
  -7   5  -5   11.28    1.26
  -6   5  -5   32.44    1.89
  -5   5  -5   10.54    1.02
  -4   5  -5  190.42    4.38
  -3   5  -5    3.56    0.80
  -2   5  -5   75.33    3.77
  -1   5  -5   14.53    1.98
   0   5  -5    9.93    1.66
   1   5  -5   81.09    4.02
   2   5  -5    4.41    1.18
   3   5  -5   10.99    2.19
   4   5  -5   32.94    4.76
   5   5  -5   24.27    4.41
   6   5  -5   33.74    5.44
   7   5  -5    1.35    1.75
 -12   6  -5   17.56    2.87
 -11   6  -5   38.13    4.15
 -10   6  -5    4.65    1.13
  -9   6  -5    0.26    0.57
  -8   6  -5  124.04    4.36
  -7   6  -5    5.37    0.90
  -6   6  -5   12.29    1.00
  -5   6  -5   81.61    2.42
  -4   6  -5    1.74    0.57
  -3   6  -5  157.50    4.61
  -2   6  -5   30.38    2.37
  -1   6  -5   34.18    2.52
   0   6  -5   12.42    1.98
   1   6  -5  292.21   12.94
   2   6  -5   14.29    3.14
   3   6  -5    7.10    2.34
   4   6  -5   44.34    5.76
   5   6  -5   41.38    5.77
   6   6  -5   14.44    3.64
 -12   7  -5    4.66    1.95
 -11   7  -5   26.92    2.72
 -10   7  -5    5.03    1.20
  -9   7  -5   -0.18    0.56
  -8   7  -5   82.65    3.46
  -7   7  -5   14.64    1.43
  -6   7  -5  284.92    4.53
  -5   7  -5    4.45    0.85
  -4   7  -5   15.95    1.70
  -3   7  -5   36.45    3.24
  -2   7  -5    9.61    1.61
  -1   7  -5    4.49    1.21
   0   7  -5   16.69    2.33
   1   7  -5   12.80    2.11
   2   7  -5   63.89    5.87
   3   7  -5   19.62    3.90
   4   7  -5    0.64    1.34
   5   7  -5   39.47    5.83
 -12   8  -5   95.22    5.53
 -11   8  -5    9.73    1.94
 -10   8  -5  105.03    5.29
  -9   8  -5    0.26    0.75
  -8   8  -5    6.15    1.46
  -7   8  -5   13.26    1.39
  -6   8  -5   18.99    1.87
  -5   8  -5   10.31    1.76
  -4   8  -5   24.48    2.66
  -3   8  -5  225.15    7.58
  -2   8  -5  118.07    5.25
  -1   8  -5   71.38    4.05
   0   8  -5    8.10    1.72
   1   8  -5    9.84    1.92
   2   8  -5   23.53    4.37
   3   8  -5   25.86    4.71
   4   8  -5   15.59    3.70
 -12   9  -5    2.39    1.35
 -11   9  -5    4.56    1.56
 -10   9  -5   30.79    3.47
  -9   9  -5    2.12    1.08
  -8   9  -5    8.61    1.74
  -7   9  -5   75.17    3.99
  -6   9  -5    5.75    1.44
  -5   9  -5   24.09    3.94
  -4   9  -5    8.86    1.73
  -3   9  -5    0.31    0.83
  -2   9  -5    1.66    0.96
  -1   9  -5    1.40    1.04
   0   9  -5    3.05    1.21
   1   9  -5   11.08    2.12
   2   9  -5   29.74    3.52
   3   9  -5   22.95    4.47
 -12  10  -5   13.58    2.62
 -11  10  -5   22.73    3.12
 -10  10  -5  158.81    9.49
  -9  10  -5    9.55    1.92
  -8  10  -5   14.25    3.21
  -7  10  -5   22.30    2.67
  -6  10  -5   49.13    4.17
  -5  10  -5   17.79    3.62
  -4  10  -5    5.89    2.38
  -3  10  -5    3.85    1.92
  -2  10  -5   99.94    7.39
  -1  10  -5   38.49    4.28
   0  10  -5  152.90    6.74
   1  10  -5    5.37    1.66
   2  10  -5    4.38    2.42
 -11  11  -5    4.46    2.25
 -10  11  -5    6.06    2.49
  -9  11  -5   31.20    4.79
  -8  11  -5   27.77    3.72
  -7  11  -5    0.22    0.90
  -6  11  -5   30.12    4.93
  -5  11  -5   29.87    4.87
  -4  11  -5   29.62    4.98
  -3  11  -5    7.11    2.60
  -2  11  -5    4.25    2.09
  -1  11  -5   28.68    4.93
 -10  12  -5    2.13    1.87
  -9  12  -5   14.04    3.47
  -8  12  -5   18.49    2.76
  -7  12  -5   41.10    4.22
  -6  12  -5   22.74    4.48
  -5  12  -5    2.15    1.88
  -4  12  -5   95.63    7.76
  -3  12  -5    4.84    2.32
   6 -14  -4   41.76    6.16
   7 -14  -4    2.56    1.63
   8 -14  -4   -0.57    1.88
   3 -13  -4    2.41    1.78
   4 -13  -4    4.03    1.47
   5 -13  -4   54.18    4.81
   6 -13  -4   87.44    5.16
   7 -13  -4    4.75    1.56
   8 -13  -4   24.92    3.26
   9 -13  -4    9.36    2.12
  10 -13  -4    9.15    2.05
   1 -12  -4    3.48    2.11
   2 -12  -4  114.18    6.02
   3 -12  -4    7.31    1.78
   4 -12  -4   41.76    4.17
   5 -12  -4    4.66    1.42
   6 -12  -4   11.15    2.12
   7 -12  -4   -0.06    0.70
   8 -12  -4   16.21    2.50
   9 -12  -4   24.48    3.19
  10 -12  -4   64.64    7.64
  11 -12  -4   77.54    7.12
  -1 -11  -4   70.33    8.49
   0 -11  -4    9.33    2.94
   1 -11  -4    5.34    1.55
   2 -11  -4    9.60    1.99
   3 -11  -4   25.90    3.10
   4 -11  -4   -0.17    0.60
   5 -11  -4   34.56    3.54
   6 -11  -4   12.06    2.07
   7 -11  -4  233.64    8.28
   8 -11  -4   17.12    2.51
   9 -11  -4   33.79    3.50
  10 -11  -4    1.60    1.18
  11 -11  -4    5.18    2.22
  12 -11  -4    2.66    1.93
  -3 -10  -4    8.69    3.20
  -2 -10  -4   75.73    8.68
  -1 -10  -4    2.01    1.16
   0 -10  -4   15.31    2.44
   1 -10  -4   11.82    2.18
   2 -10  -4   19.43    2.58
   3 -10  -4   62.40    3.89
   4 -10  -4   74.47    4.19
   5 -10  -4   31.82    3.30
   6 -10  -4   21.11    2.60
   7 -10  -4   22.24    2.69
   8 -10  -4    2.91    1.10
   9 -10  -4    7.05    1.64
  10 -10  -4   18.11    3.68
  11 -10  -4    4.04    1.44
  12 -10  -4  119.11    5.99
  13 -10  -4    0.94    0.99
  -4  -9  -4   15.94    4.23
  -3  -9  -4   25.84    4.96
  -2  -9  -4   32.67    3.64
  -1  -9  -4    7.40    1.72
   0  -9  -4   82.11    4.48
   1  -9  -4    6.63    1.42
   2  -9  -4   22.63    2.66
   3  -9  -4   94.99    4.59
   4  -9  -4    8.01    1.60
   5  -9  -4   55.77    3.71
   6  -9  -4   23.08    2.61
   7  -9  -4   46.64    2.65
   8  -9  -4   41.06    2.90
   9  -9  -4   84.57    4.44
  10  -9  -4   10.49    1.95
  11  -9  -4   12.25    2.16
  12  -9  -4    4.63    1.56
  13  -9  -4    2.87    1.36
  -5  -8  -4   24.63    4.99
  -4  -8  -4   22.62    4.66
  -3  -8  -4   13.19    2.31
  -2  -8  -4    3.94    1.28
  -1  -8  -4   37.39    3.66
   0  -8  -4  164.53    6.44
   1  -8  -4   23.67    2.61
   2  -8  -4   17.27    2.21
   3  -8  -4   36.30    2.60
   4  -8  -4   25.81    2.11
   5  -8  -4  125.83    4.15
   6  -8  -4    1.94    0.65
   7  -8  -4    2.65    0.75
   8  -8  -4  154.71    6.15
   9  -8  -4    5.57    1.27
  10  -8  -4   25.49    2.94
  11  -8  -4   21.41    2.81
  12  -8  -4   24.41    3.10
  13  -8  -4   48.84    4.55
  14  -8  -4   42.16    6.07
  -6  -7  -4   11.26    3.58
  -5  -7  -4   -0.15    0.69
  -4  -7  -4  215.99    8.20
  -3  -7  -4   23.97    2.90
  -2  -7  -4   48.26    3.98
  -1  -7  -4    2.76    0.93
   0  -7  -4   20.37    1.89
   1  -7  -4   12.31    1.48
   2  -7  -4    4.47    0.89
   3  -7  -4   29.24    2.14
   4  -7  -4  147.85    4.37
   5  -7  -4  121.29    3.86
   6  -7  -4   58.56    2.60
   7  -7  -4   21.32    1.85
   8  -7  -4   27.22    2.86
   9  -7  -4   23.18    2.64
  10  -7  -4   58.72    4.06
  11  -7  -4   -0.68    0.62
  12  -7  -4    1.65    1.07
  13  -7  -4   79.80    4.94
  -7  -6  -4   66.50    8.07
  -6  -6  -4   13.00    2.33
  -5  -6  -4   10.42    1.94
  -4  -6  -4   27.98    3.14
  -3  -6  -4   24.43    2.20
  -2  -6  -4    1.42    0.56
  -1  -6  -4   60.19    2.73
   0  -6  -4   10.44    1.31
   1  -6  -4  296.84    7.01
   2  -6  -4    1.75    0.57
   3  -6  -4    7.28    1.05
   4  -6  -4    5.55    0.73
   5  -6  -4   10.34    1.02
   6  -6  -4    8.38    1.12
   7  -6  -4   14.85    2.00
   8  -6  -4   19.28    2.30
   9  -6  -4   93.87    4.54
  10  -6  -4   75.00    4.25
  11  -6  -4   37.42    3.63
  12  -6  -4   14.64    2.39
  13  -6  -4    8.00    2.76
  -8  -5  -4   60.49    7.94
  -7  -5  -4    1.54    1.01
  -6  -5  -4   34.26    3.63
  -5  -5  -4   26.82    3.04
  -4  -5  -4   60.52    3.12
  -3  -5  -4  116.22    4.16
  -2  -5  -4  115.30    3.95
  -1  -5  -4   11.26    1.37
   0  -5  -4    0.38    0.41
   1  -5  -4   13.09    1.38
   2  -5  -4   35.07    1.90
   3  -5  -4    7.98    0.88
   4  -5  -4   38.93    1.66
   5  -5  -4    0.52    0.33
   6  -5  -4  305.04    6.96
   7  -5  -4    3.64    0.77
   8  -5  -4   36.36    3.16
   9  -5  -4    5.31    1.35
  10  -5  -4   23.87    2.79
  11  -5  -4    5.49    1.46
  12  -5  -4   -0.51    0.89
  13  -5  -4   21.82    4.53
  -9  -4  -4    2.07    1.80
  -8  -4  -4   35.04    3.87
  -7  -4  -4   -0.04    0.61
  -6  -4  -4   76.32    4.42
  -5  -4  -4    6.84    1.53
  -4  -4  -4   21.32    2.02
  -3  -4  -4  146.57    4.58
  -2  -4  -4    7.00    1.09
  -1  -4  -4   39.44    2.18
   0  -4  -4   41.28    2.10
   1  -4  -4   58.05    2.04
   2  -4  -4  165.29    3.68
   3  -4  -4  365.11    6.44
   4  -4  -4   40.21    1.59
   5  -4  -4   12.85    1.34
   6  -4  -4    1.87    0.61
   7  -4  -4   35.83    2.39
   8  -4  -4   23.90    2.00
   9  -4  -4   58.91    2.76
  10  -4  -4   27.33    2.97
  11  -4  -4  246.54   12.33
  12  -4  -4   15.38    3.65
  13  -4  -4   14.28    3.68
 -10  -3  -4    2.02    1.98
  -9  -3  -4    5.27    1.63
  -8  -3  -4   19.48    2.77
  -7  -3  -4   61.76    3.98
  -6  -3  -4   94.11    4.77
  -5  -3  -4   32.29    2.50
  -4  -3  -4   32.16    2.39
  -3  -3  -4    5.19    0.91
  -2  -3  -4    8.32    1.12
  -1  -3  -4  361.65    7.74
   0  -3  -4   28.55    1.60
   1  -3  -4    3.36    0.55
   2  -3  -4  148.13    3.42
   3  -3  -4   27.51    1.32
   4  -3  -4   61.41    1.90
   5  -3  -4   35.51    1.92
   6  -3  -4    8.40    1.14
   7  -3  -4  145.23    4.32
   8  -3  -4  130.92    4.14
   9  -3  -4   20.67    1.95
  10  -3  -4   21.07    2.63
  11  -3  -4   14.75    2.28
  12  -3  -4   23.11    4.59
  13  -3  -4    5.34    2.62
 -11  -2  -4    0.66    1.79
 -10  -2  -4  116.77    6.21
  -9  -2  -4   11.10    2.15
  -8  -2  -4   21.87    2.83
  -7  -2  -4   22.35    2.07
  -6  -2  -4   21.14    1.86
  -5  -2  -4    4.80    0.76
  -4  -2  -4    2.24    0.53
  -3  -2  -4   29.60    2.12
  -2  -2  -4  168.58    4.51
  -1  -2  -4  154.52    3.66
   0  -2  -4   38.76    1.56
   1  -2  -4   60.12    1.95
   2  -2  -4   42.26    1.49
   3  -2  -4    5.24    0.59
   4  -2  -4  160.20    4.25
   5  -2  -4    9.66    1.12
   6  -2  -4    6.07    0.86
   7  -2  -4  120.52    3.81
   8  -2  -4    2.36    0.72
   9  -2  -4   46.39    3.34
  10  -2  -4    4.21    1.23
  11  -2  -4   26.30    3.16
  12  -2  -4   73.57    4.73
 -11  -1  -4    3.15    1.47
 -10  -1  -4    2.76    1.33
  -9  -1  -4   12.79    1.73
  -8  -1  -4    8.44    1.37
  -7  -1  -4   21.83    1.97
  -6  -1  -4   11.07    1.18
  -5  -1  -4  303.54    6.04
  -4  -1  -4   12.05    1.06
  -3  -1  -4   64.38    1.97
  -2  -1  -4    4.00    0.73
  -1  -1  -4   63.68    2.08
   0  -1  -4   19.24    1.17
   1  -1  -4   20.07    1.11
   2  -1  -4   65.66    1.81
   3  -1  -4  152.42    4.06
   4  -1  -4  365.66    7.53
   5  -1  -4   40.91    1.94
   6  -1  -4   10.28    1.16
   7  -1  -4   61.35    3.44
   8  -1  -4    2.35    0.94
   9  -1  -4   40.56    3.58
  10  -1  -4    9.64    1.91
  11  -1  -4    1.22    0.91
  12  -1  -4   82.02    5.02
 -12   0  -4    1.12    1.64
 -11   0  -4    7.00    1.45
 -10   0  -4   19.08    2.02
  -9   0  -4   84.17    3.60
  -8   0  -4  158.09    5.03
  -7   0  -4   22.83    1.98
  -6   0  -4    6.58    0.92
  -5   0  -4    0.14    0.30
  -4   0  -4   38.50    1.62
  -3   0  -4   29.61    1.39
  -2   0  -4   39.97    1.24
  -1   0  -4   22.42    1.27
   0   0  -4  956.02   13.67
   1   0  -4   20.82    1.02
   2   0  -4   36.08    1.72
   3   0  -4   26.88    1.65
   4   0  -4   37.65    1.78
   5   0  -4   -0.08    0.29
   6   0  -4    9.33    1.59
   7   0  -4   18.30    2.25
   8   0  -4  156.34    6.28
   9   0  -4   77.60    4.32
  10   0  -4   17.37    2.55
  11   0  -4    8.62    1.94
  12   0  -4    1.18    1.25
 -12   1  -4   84.03    4.36
 -11   1  -4    2.57    0.95
 -10   1  -4    9.38    1.44
  -9   1  -4   40.22    2.95
  -8   1  -4    2.89    0.82
  -7   1  -4   59.34    2.65
  -6   1  -4   11.01    1.15
  -5   1  -4   42.97    1.83
  -4   1  -4  372.62    6.54
  -3   1  -4  159.24    3.11
  -2   1  -4   67.46    1.71
  -1   1  -4   20.69    1.19
   0   1  -4   19.89    1.04
   1   1  -4   65.19    2.37
   2   1  -4    4.96    0.76
   3   1  -4   66.12    2.32
   4   1  -4    8.94    1.46
   5   1  -4  308.26    8.83
   6   1  -4   11.40    1.76
   7   1  -4   25.43    2.79
   8   1  -4    7.26    1.54
   9   1  -4    8.46    1.75
  10   1  -4    4.72    1.49
  11   1  -4    2.88    1.41
 -13   2  -4   18.77    3.93
 -12   2  -4   73.58    4.02
 -11   2  -4   25.85    2.60
 -10   2  -4    4.96    1.15
  -9   2  -4   46.52    3.12
  -8   2  -4    1.54    0.63
  -7   2  -4  117.97    3.92
  -6   2  -4    6.87    0.89
  -5   2  -4    9.59    0.98
  -4   2  -4  161.10    3.28
  -3   2  -4    4.72    0.55
  -2   2  -4   39.84    1.28
  -1   2  -4   67.76    1.96
   0   2  -4   38.59    1.32
   1   2  -4  158.08    3.99
   2   2  -4  169.16    4.11
   3   2  -4   33.08    2.38
   4   2  -4    2.17    0.81
   5   2  -4    4.38    1.09
   6   2  -4   26.35    2.75
   7   2  -4   19.56    2.45
   8   2  -4   24.57    2.91
   9   2  -4   10.95    2.16
  10   2  -4  114.43    5.99
  11   2  -4    2.72    2.22
 -13   3  -4    5.79    1.52
 -12   3  -4   24.80    2.63
 -11   3  -4   10.45    1.69
 -10   3  -4   20.87    2.19
  -9   3  -4   25.47    2.28
  -8   3  -4  134.13    4.37
  -7   3  -4  148.43    3.92
  -6   3  -4    7.26    0.90
  -5   3  -4   33.57    1.34
  -4   3  -4   59.85    1.59
  -3   3  -4   28.76    1.25
  -2   3  -4  155.72    3.45
  -1   3  -4    5.97    0.65
   0   3  -4   29.99    1.64
   1   3  -4  372.71    7.30
   2   3  -4    9.10    1.43
   3   3  -4    5.91    1.20
   4   3  -4   33.67    2.90
   5   3  -4   34.09    3.02
   6   3  -4   99.94    4.60
   7   3  -4   57.30    3.66
   8   3  -4   23.76    2.87
   9   3  -4    4.07    2.10
  10   3  -4    0.07    1.58
 -13   4  -4   11.41    1.86
 -12   4  -4   19.64    2.33
 -11   4  -4  237.68    6.90
 -10   4  -4   22.62    2.22
  -9   4  -4   64.55    3.04
  -8   4  -4   25.86    2.19
  -7   4  -4   33.98    1.94
  -6   4  -4    2.31    0.43
  -5   4  -4   11.77    0.85
  -4   4  -4   38.89    1.17
  -3   4  -4  372.06    5.24
  -2   4  -4  164.99    3.17
  -1   4  -4   65.91    2.02
   0   4  -4   37.28    1.96
   1   4  -4   36.33    2.03
   2   4  -4    5.33    1.08
   3   4  -4  147.30    5.36
   4   4  -4   22.14    2.36
   5   4  -4    5.19    1.24
   6   4  -4   74.05    4.09
   7   4  -4   -0.58    0.75
   8   4  -4   34.81    5.35
   9   4  -4    5.00    2.30
 -13   5  -4   22.10    3.16
 -12   5  -4    0.93    0.74
 -11   5  -4   10.33    1.62
 -10   5  -4   30.32    2.59
  -9   5  -4    7.32    1.24
  -8   5  -4   32.89    2.45
  -7   5  -4    5.14    0.77
  -6   5  -4  312.48    4.81
  -5   5  -4    0.92    0.29
  -4   5  -4   40.88    1.25
  -3   5  -4    8.90    0.79
  -2   5  -4   31.62    1.45
  -1   5  -4   10.64    1.23
   0   5  -4    0.87    0.45
   1   5  -4   12.39    1.40
   2   5  -4  120.08    3.83
   3   5  -4  125.49    4.94
   4   5  -4   47.61    5.46
   5   5  -4   23.64    4.07
   6   5  -4   30.57    4.74
   7   5  -4    3.50    1.91
   8   5  -4   49.26    6.51
 -14   6  -4    1.24    1.96
 -13   6  -4   11.49    2.32
 -12   6  -4   19.57    2.88
 -11   6  -4   30.19    2.76
 -10   6  -4   79.14    3.61
  -9   6  -4   89.96    3.67
  -8   6  -4   19.70    1.54
  -7   6  -4   13.63    1.23
  -6   6  -4    7.05    0.67
  -5   6  -4   11.71    0.84
  -4   6  -4    6.33    0.60
  -3   6  -4    9.05    0.92
  -2   6  -4    1.59    0.58
  -1   6  -4  304.60    6.86
   0   6  -4    6.79    1.04
   1   6  -4   65.54    3.45
   2   6  -4    0.67    0.62
   3   6  -4   18.51    2.41
   4   6  -4   22.75    3.88
   5   6  -4    7.32    2.34
   6   6  -4   21.79    4.08
   7   6  -4   91.03    7.53
 -14   7  -4    2.65    2.08
 -13   7  -4   89.06    5.70
 -12   7  -4    1.61    1.06
 -11   7  -4   -0.04    0.64
 -10   7  -4   60.60    3.82
  -9   7  -4   25.18    2.28
  -8   7  -4   25.24    1.82
  -7   7  -4   22.41    1.46
  -6   7  -4   59.76    1.65
  -5   7  -4  127.87    2.70
  -4   7  -4  150.28    3.70
  -3   7  -4   36.61    2.27
  -2   7  -4    4.47    1.08
  -1   7  -4   12.27    1.72
   0   7  -4   22.50    2.54
   1   7  -4    2.11    0.79
   2   7  -4   43.67    3.74
   3   7  -4   31.29    3.25
   4   7  -4  216.42   11.45
   5   7  -4    1.54    1.48
   6   7  -4    6.67    2.57
 -14   8  -4   46.00    8.56
 -13   8  -4   48.09    4.60
 -12   8  -4   28.60    3.39
 -11   8  -4   22.17    2.92
 -10   8  -4   24.46    2.89
  -9   8  -4    8.55    1.31
  -8   8  -4  169.12    5.04
  -7   8  -4    1.94    0.59
  -6   8  -4    1.48    0.55
  -5   8  -4  124.47    4.00
  -4   8  -4   25.27    2.08
  -3   8  -4   34.56    2.99
  -2   8  -4   20.18    2.33
  -1   8  -4   24.31    2.63
   0   8  -4  158.85    6.16
   1   8  -4   38.64    3.46
   2   8  -4    4.09    1.30
   3   8  -4   13.77    2.30
   4   8  -4   23.47    2.94
   5   8  -4   19.88    4.14
 -13   9  -4    5.32    1.65
 -12   9  -4    6.74    1.81
 -11   9  -4   12.21    2.24
 -10   9  -4   10.96    1.57
  -9   9  -4   78.44    3.46
  -8   9  -4   41.08    2.80
  -7   9  -4   49.45    2.66
  -6   9  -4   20.78    2.34
  -5   9  -4   56.81    3.36
  -4   9  -4    5.89    1.40
  -3   9  -4   85.82    4.18
  -2   9  -4   23.88    2.68
  -1   9  -4    7.15    1.58
   0   9  -4   83.19    4.39
   1   9  -4    5.74    1.44
   2   9  -4   31.16    3.40
   3   9  -4   27.90    3.34
   4   9  -4   13.83    2.60
 -13  10  -4    0.76    0.99
 -12  10  -4  103.01    5.80
 -11  10  -4    4.55    1.24
 -10  10  -4   17.92    2.53
  -9  10  -4    9.08    1.73
  -8  10  -4    2.84    0.84
  -7  10  -4   21.78    2.56
  -6  10  -4   19.62    2.52
  -5  10  -4   30.30    3.12
  -4  10  -4   78.51    4.28
  -3  10  -4   58.92    5.22
  -2  10  -4   24.34    4.29
  -1  10  -4   14.12    2.56
   0  10  -4   15.56    2.37
   1  10  -4    4.49    1.45
   2  10  -4   74.42    4.58
   3  10  -4    7.24    2.03
 -12  11  -4   -0.75    1.36
 -11  11  -4    7.73    1.82
 -10  11  -4    2.04    1.05
  -9  11  -4   24.33    2.99
  -8  11  -4   15.78    2.31
  -7  11  -4  222.35    7.81
  -6  11  -4   11.87    2.06
  -5  11  -4   34.98    3.52
  -4  11  -4   -0.80    1.19
  -3  11  -4   25.46    4.41
  -2  11  -4   12.76    3.31
  -1  11  -4    3.43    2.03
   0  11  -4    5.66    2.44
   1  11  -4   69.76    7.88
 -12  12  -4    1.76    1.33
 -11  12  -4   78.22    5.21
 -10  12  -4   85.10    4.87
  -9  12  -4   20.79    2.87
  -8  12  -4   17.05    2.57
  -7  12  -4    0.46    0.87
  -6  12  -4   15.86    2.45
  -5  12  -4    2.82    1.43
  -4  12  -4   30.70    5.05
  -3  12  -4    3.46    2.10
  -2  12  -4  107.46    8.22
  -1  12  -4    2.49    2.22
 -11  13  -4   20.21    4.27
 -10  13  -4    8.13    2.67
  -9  13  -4   13.08    2.29
  -8  13  -4   18.94    2.84
  -7  13  -4    7.86    1.96
  -6  13  -4   77.15    5.11
  -5  13  -4   43.58    6.03
  -4  13  -4    1.66    2.02
  -3  13  -4    0.17    2.07
  -8  14  -4    3.96    3.28
   4 -14  -3   40.70    6.51
   5 -14  -3   13.77    3.62
   6 -14  -3   14.61    2.63
   7 -14  -3   25.75    3.43
   8 -14  -3    3.17    1.32
   9 -14  -3   -0.23    1.04
  10 -14  -3   11.81    2.41
  11 -14  -3   66.48    7.97
   1 -13  -3   16.25    6.21
   2 -13  -3    6.90    2.65
   3 -13  -3   28.77    5.12
   4 -13  -3   22.44    4.34
   5 -13  -3   -0.12    0.81
   6 -13  -3    2.32    1.18
   7 -13  -3   64.23    4.59
   8 -13  -3   28.77    3.44
   9 -13  -3   54.16    4.79
  10 -13  -3   12.66    2.34
  11 -13  -3    3.15    1.40
  12 -13  -3   16.30    2.99
  -1 -12  -3    9.78    4.66
   0 -12  -3   66.91    8.07
   1 -12  -3   38.21    5.82
   2 -12  -3   11.44    3.01
   3 -12  -3    0.96    0.89
   4 -12  -3  117.23    5.66
   5 -12  -3    0.96    0.89
   6 -12  -3   20.23    2.74
   7 -12  -3   23.24    2.93
   8 -12  -3   11.64    2.03
   9 -12  -3   25.90    3.12
  10 -12  -3    4.39    1.35
  11 -12  -3   12.61    2.29
  12 -12  -3   62.23    5.13
  13 -12  -3   11.38    3.97
  -2 -11  -3    2.74    1.89
  -1 -11  -3   11.31    3.25
   0 -11  -3   51.03    6.64
   1 -11  -3   14.69    3.67
   2 -11  -3   41.01    3.79
   3 -11  -3   26.38    2.83
   4 -11  -3   46.14    3.97
   5 -11  -3   85.63    4.44
   6 -11  -3   24.51    2.84
   7 -11  -3    2.78    1.09
   8 -11  -3    8.41    1.61
   9 -11  -3   91.19    4.74
  10 -11  -3   12.92    2.17
  11 -11  -3   37.43    3.70
  12 -11  -3   41.29    4.67
  13 -11  -3    7.19    2.61
  -4 -10  -3   11.80    3.83
  -3 -10  -3    9.27    3.09
  -2 -10  -3    7.95    2.74
  -1 -10  -3   11.16    3.08
   0 -10  -3  145.68    6.10
   1 -10  -3   27.82    2.94
   2 -10  -3  140.05    5.83
   3 -10  -3    8.05    1.58
   4 -10  -3    5.73    1.35
   5 -10  -3   17.12    2.27
   6 -10  -3   26.29    2.82
   7 -10  -3   10.17    1.74
   8 -10  -3   22.18    2.54
   9 -10  -3    2.94    1.10
  10 -10  -3  130.51    5.78
  11 -10  -3   16.14    1.92
  12 -10  -3   14.33    2.37
  13 -10  -3   32.37    3.60
  14 -10  -3   43.34    4.36
  -5  -9  -3    1.74    1.76
  -4  -9  -3   50.57    6.97
  -3  -9  -3   26.18    4.72
  -2  -9  -3   92.38    5.12
  -1  -9  -3    3.21    0.87
   0  -9  -3    3.18    0.81
   1  -9  -3   48.68    2.56
   2  -9  -3   23.07    1.94
   3  -9  -3    0.68    0.48
   4  -9  -3    8.77    1.15
   5  -9  -3  225.71    5.71
   6  -9  -3   26.31    2.01
   7  -9  -3  130.85    3.49
   8  -9  -3    0.92    0.57
   9  -9  -3    2.99    0.84
  10  -9  -3   25.08    2.26
  11  -9  -3   38.80    2.89
  12  -9  -3    0.10    0.76
  13  -9  -3   28.54    3.41
  14  -9  -3   18.79    2.86
  -6  -8  -3    3.16    2.12
  -5  -8  -3   35.87    4.43
  -4  -8  -3   12.48    2.16
  -3  -8  -3   11.72    1.96
  -2  -8  -3   27.04    2.28
  -1  -8  -3    0.37    0.43
   0  -8  -3    7.12    1.07
   1  -8  -3  182.87    4.96
   2  -8  -3   81.00    2.90
   3  -8  -3  213.88    5.26
   4  -8  -3   73.91    2.35
   5  -8  -3   18.86    1.36
   6  -8  -3    7.18    0.87
   7  -8  -3   24.96    1.96
   8  -8  -3    6.35    1.05
   9  -8  -3   51.04    2.53
  10  -8  -3  142.63    4.67
  11  -8  -3   26.80    2.96
  12  -8  -3  116.77    5.63
  13  -8  -3    0.16    0.78
  14  -8  -3   14.20    2.54
  -7  -7  -3   24.80    3.32
  -6  -7  -3   71.76    4.41
  -5  -7  -3   28.08    3.03
  -4  -7  -3    2.87    0.84
  -3  -7  -3   12.41    1.54
  -2  -7  -3  134.81    4.17
  -1  -7  -3   28.58    1.88
   0  -7  -3  128.55    3.80
   1  -7  -3   83.90    2.45
   2  -7  -3    8.84    0.89
   3  -7  -3   96.92    2.62
   4  -7  -3   18.83    1.28
   5  -7  -3   11.07    1.00
   6  -7  -3  247.93    5.85
   7  -7  -3  115.19    3.72
   8  -7  -3  184.48    5.06
   9  -7  -3   21.76    1.87
  10  -7  -3    5.41    1.34
  11  -7  -3   41.59    3.71
  12  -7  -3    1.26    0.92
  13  -7  -3    2.30    1.13
  14  -7  -3   25.16    3.33
  -8  -6  -3   12.42    2.37
  -7  -6  -3    2.60    1.22
  -6  -6  -3   18.25    2.37
  -5  -6  -3   25.71    2.29
  -4  -6  -3   22.13    2.00
  -3  -6  -3   26.65    2.06
  -2  -6  -3    8.25    0.95
  -1  -6  -3  244.82    4.95
   0  -6  -3   45.61    1.72
   1  -6  -3   22.65    1.28
   2  -6  -3   56.09    1.78
   3  -6  -3  249.85    4.69
   4  -6  -3   60.31    1.63
   5  -6  -3   56.52    1.84
   6  -6  -3   47.03    2.09
   7  -6  -3   80.96    2.89
   8  -6  -3   81.84    2.99
   9  -6  -3    0.59    0.48
  10  -6  -3    5.70    1.39
  11  -6  -3   77.19    4.21
  12  -6  -3   21.77    2.75
  13  -6  -3   70.91    4.36
  14  -6  -3    0.67    1.42
  -9  -5  -3   20.37    2.97
  -8  -5  -3    0.90    0.88
  -7  -5  -3    0.67    0.81
  -6  -5  -3   80.18    3.45
  -5  -5  -3   16.85    1.74
  -4  -5  -3  217.53    5.76
  -3  -5  -3   15.31    1.28
  -2  -5  -3    9.74    0.96
  -1  -5  -3   58.16    1.91
   0  -5  -3  154.42    3.35
   1  -5  -3   17.41    1.02
   2  -5  -3   76.73    2.04
   3  -5  -3   60.80    1.55
   4  -5  -3  266.53    4.89
   5  -5  -3  155.84    3.35
   6  -5  -3   22.19    1.21
   7  -5  -3   10.37    0.95
   8  -5  -3  215.62    4.50
   9  -5  -3    7.36    1.42
  10  -5  -3   15.66    2.10
  11  -5  -3   28.62    3.01
  12  -5  -3   26.97    3.01
  13  -5  -3   37.93    5.83
  14  -5  -3   -0.28    1.35
 -10  -4  -3   45.51    4.48
  -9  -4  -3   30.72    3.52
  -8  -4  -3  112.92    4.51
  -7  -4  -3   44.07    3.08
  -6  -4  -3    5.95    1.10
  -5  -4  -3    9.62    1.23
  -4  -4  -3   78.90    2.94
  -3  -4  -3   19.61    1.36
  -2  -4  -3   55.65    1.89
  -1  -4  -3  268.10    4.90
   0  -4  -3  134.79    2.94
   1  -4  -3  395.52    6.36
   2  -4  -3   10.99    0.64
   3  -4  -3   31.10    1.03
   4  -4  -3  137.29    3.02
   5  -4  -3   19.66    1.13
   6  -4  -3   57.59    1.81
   7  -4  -3   99.72    2.63
   8  -4  -3   78.34    2.88
   9  -4  -3  223.66    5.72
  10  -4  -3   27.04    2.17
  11  -4  -3    3.46    1.03
  12  -4  -3   10.11    2.87
  13  -4  -3   58.13    7.11
  14  -4  -3    9.21    3.54
 -11  -3  -3   41.41    5.87
 -10  -3  -3   28.10    3.35
  -9  -3  -3    1.84    0.78
  -8  -3  -3   25.98    2.37
  -7  -3  -3    8.77    1.21
  -6  -3  -3    0.45    0.41
  -5  -3  -3  205.96    5.37
  -4  -3  -3   98.22    2.78
  -3  -3  -3  247.19    4.87
  -2  -3  -3   59.49    1.83
  -1  -3  -3   28.93    1.18
   0  -3  -3   81.36    1.89
   1  -3  -3   38.09    0.98
   2  -3  -3   90.40    1.73
   3  -3  -3   78.52    2.01
   4  -3  -3  399.55    6.43
   5  -3  -3   73.57    2.03
   6  -3  -3  253.63    4.66
   7  -3  -3   18.59    1.54
   8  -3  -3   17.71    1.57
   9  -3  -3   24.34    1.99
  10  -3  -3   12.87    1.50
  11  -3  -3   13.66    2.13
  12  -3  -3   25.66    3.26
  13  -3  -3   10.43    3.12
 -11  -2  -3    6.13    1.84
 -10  -2  -3   13.52    1.87
  -9  -2  -3   39.49    3.02
  -8  -2  -3  145.77    4.83
  -7  -2  -3   22.33    1.96
  -6  -2  -3   83.60    3.11
  -5  -2  -3   10.97    1.22
  -4  -2  -3   57.88    1.94
  -3  -2  -3   74.96    2.18
  -2  -2  -3   10.61    0.83
  -1  -2  -3   88.09    2.03
   0  -2  -3  310.81    5.45
   1  -2  -3   73.70    1.94
   2  -2  -3  315.32    6.01
   3  -2  -3   37.13    1.21
   4  -2  -3   11.62    0.73
   5  -2  -3   61.24    1.69
   6  -2  -3   61.60    2.30
   7  -2  -3   11.29    1.21
   8  -2  -3    7.25    1.07
   9  -2  -3  128.68    4.03
  10  -2  -3   23.97    2.68
  11  -2  -3   88.78    4.72
  12  -2  -3    4.29    1.45
  13  -2  -3    1.55    1.24
 -12  -1  -3   13.14    2.47
 -11  -1  -3   40.02    3.30
 -10  -1  -3   15.00    1.92
  -9  -1  -3   24.63    2.33
  -8  -1  -3   45.74    2.59
  -7  -1  -3  181.12    5.19
  -6  -1  -3   79.41    3.00
  -5  -1  -3   20.41    1.43
  -4  -1  -3   19.86    1.32
  -3  -1  -3  392.77    6.61
  -2  -1  -3   39.94    1.29
  -1  -1  -3   76.69    1.60
   0  -1  -3   57.03    1.87
   1  -1  -3   57.32    1.56
   2  -1  -3   75.23    1.76
   3  -1  -3   89.54    1.89
   4  -1  -3   30.47    0.97
   5  -1  -3  258.07    5.64
   6  -1  -3   57.22    2.20
   7  -1  -3  251.72    5.76
   8  -1  -3   25.05    1.90
   9  -1  -3    0.26    0.64
  10  -1  -3    2.18    0.95
  11  -1  -3   15.56    2.30
  12  -1  -3   11.57    2.26
  13  -1  -3   11.16    2.29
 -12   0  -3   71.98    4.26
 -11   0  -3   43.80    3.34
 -10   0  -3  132.70    4.85
  -9   0  -3    1.20    0.61
  -8   0  -3    3.60    0.86
  -7   0  -3  122.00    3.92
  -6   0  -3   41.02    2.03
  -5   0  -3  151.61    3.56
  -4   0  -3  142.47    3.19
  -3   0  -3   76.52    2.04
  -2   0  -3  324.82    4.80
  -1   0  -3   56.50    1.31
   0   0  -3    0.19    0.18
   1   0  -3   54.85    1.57
   2   0  -3  317.11    6.20
   3   0  -3   76.89    2.32
   4   0  -3  137.00    3.48
   5   0  -3  143.95    3.75
   6   0  -3   41.40    1.87
   7   0  -3  120.22    4.77
   8   0  -3    4.84    1.17
   9   0  -3    3.96    1.19
  10   0  -3  131.71    5.90
  11   0  -3   40.43    3.95
  12   0  -3   64.71    5.29
 -13   1  -3   13.84    2.47
 -12   1  -3   12.47    1.83
 -11   1  -3   10.46    1.52
 -10   1  -3    2.42    0.82
  -9   1  -3    0.66    0.47
  -8   1  -3   28.77    2.24
  -7   1  -3  244.88    6.04
  -6   1  -3   50.16    2.20
  -5   1  -3  262.12    4.28
  -4   1  -3   30.30    1.02
  -3   1  -3   87.23    2.18
  -2   1  -3   72.72    1.67
  -1   1  -3   52.67    1.29
   0   1  -3   53.50    1.47
   1   1  -3   76.61    2.24
   2   1  -3   40.30    1.50
   3   1  -3  394.51    7.39
   4   1  -3   18.95    1.19
   5   1  -3   20.62    1.30
   6   1  -3   82.53    3.73
   7   1  -3  181.25    6.34
   8   1  -3   44.06    3.61
   9   1  -3   27.21    2.98
  10   1  -3   14.44    2.25
  11   1  -3   33.32    3.62
  12   1  -3   24.75    3.27
 -13   2  -3    2.97    1.40
 -12   2  -3    2.50    0.99
 -11   2  -3   86.47    3.86
 -10   2  -3   27.21    2.43
  -9   2  -3  125.81    4.34
  -8   2  -3    8.31    1.20
  -7   2  -3    9.54    1.16
  -6   2  -3   58.86    1.68
  -5   2  -3   58.72    1.74
  -4   2  -3   13.00    0.82
  -3   2  -3   38.38    1.06
  -2   2  -3  319.83    4.76
  -1   2  -3   75.93    1.88
   0   2  -3  324.71    5.14
   1   2  -3   88.08    2.42
   2   2  -3   12.86    0.88
   3   2  -3   76.99    2.23
   4   2  -3   53.74    2.73
   5   2  -3    8.92    1.37
   6   2  -3   72.97    3.62
   7   2  -3   22.54    2.49
   8   2  -3  139.75    5.82
   9   2  -3   43.47    3.83
  10   2  -3   14.09    2.37
  11   2  -3    9.12    2.10
 -14   3  -3   70.56   10.75
 -13   3  -3   13.20    2.46
 -12   3  -3   28.64    2.73
 -11   3  -3   10.07    1.55
 -10   3  -3   10.29    1.38
  -9   3  -3   25.00    2.16
  -8   3  -3   19.06    1.76
  -7   3  -3   20.25    1.24
  -6   3  -3  247.51    4.31
  -5   3  -3   75.85    1.92
  -4   3  -3  390.98    4.89
  -3   3  -3   77.86    1.51
  -2   3  -3   89.98    1.62
  -1   3  -3   40.57    1.15
   0   3  -3   77.17    1.96
   1   3  -3   31.05    1.11
   2   3  -3   60.60    2.22
   3   3  -3  244.08    6.87
   4   3  -3  108.52    4.07
   5   3  -3  209.59    6.57
   6   3  -3    0.71    0.60
   7   3  -3    8.25    1.61
   8   3  -3   20.06    2.43
   9   3  -3    1.85    1.09
  10   3  -3   33.82    5.53
 -14   4  -3    6.56    1.81
 -13   4  -3   53.30    4.75
 -12   4  -3   10.86    2.13
 -11   4  -3    2.34    0.82
 -10   4  -3   25.49    2.31
  -9   4  -3  218.26    6.06
  -8   4  -3   77.79    2.49
  -7   4  -3  101.82    2.77
  -6   4  -3   55.13    1.47
  -5   4  -3   18.30    0.97
  -4   4  -3  141.10    2.33
  -3   4  -3   29.00    0.91
  -2   4  -3   12.15    0.74
  -1   4  -3  398.27    6.40
   0   4  -3  141.61    2.86
   1   4  -3  269.89    5.76
   2   4  -3   57.35    2.23
   3   4  -3   21.92    1.73
   4   4  -3   74.46    2.83
   5   4  -3    7.97    1.42
   6   4  -3    7.27    1.44
   7   4  -3   37.30    3.49
   8   4  -3  132.05    8.71
   9   4  -3   28.53    4.93
  10   4  -3   40.05    6.70
 -14   5  -3    0.22    0.96
 -13   5  -3   30.08    3.58
 -12   5  -3   26.24    3.14
 -11   5  -3   28.12    2.56
 -10   5  -3   15.38    1.80
  -9   5  -3    9.47    1.06
  -8   5  -3  209.70    4.65
  -7   5  -3   10.28    0.86
  -6   5  -3   21.88    1.22
  -5   5  -3  158.73    2.60
  -4   5  -3  271.83    3.73
  -3   5  -3   59.26    1.37
  -2   5  -3   74.51    1.85
  -1   5  -3   18.41    1.01
   0   5  -3  153.90    3.93
   1   5  -3   53.12    2.12
   2   5  -3   11.77    1.23
   3   5  -3   18.32    1.59
   4   5  -3  216.38    5.79
   5   5  -3   14.96    3.06
   6   5  -3   84.61    6.39
   7   5  -3    1.23    1.19
   8   5  -3    0.56    1.35
   9   5  -3   18.55    4.08
 -14   6  -3    1.85    1.17
 -13   6  -3   60.99    5.16
 -12   6  -3   19.27    2.70
 -11   6  -3   84.55    4.60
 -10   6  -3    6.78    1.11
  -9   6  -3    0.76    0.44
  -8   6  -3   82.21    2.64
  -7   6  -3   81.70    2.19
  -6   6  -3   44.47    1.55
  -5   6  -3   56.51    1.44
  -4   6  -3   55.03    1.40
  -3   6  -3  248.65    4.77
  -2   6  -3   56.76    1.86
  -1   6  -3   22.17    1.44
   0   6  -3   45.18    1.96
   1   6  -3  251.60    7.36
   2   6  -3    7.00    1.34
   3   6  -3   27.00    2.73
   4   6  -3   24.01    2.61
   5   6  -3   28.65    2.95
   6   6  -3   22.68    4.10
   7   6  -3    2.95    1.89
   8   6  -3   10.01    3.21
 -14   7  -3   24.46    3.37
 -13   7  -3    1.29    0.97
 -12   7  -3    0.65    0.86
 -11   7  -3   43.26    3.91
 -10   7  -3    7.53    1.16
  -9   7  -3   22.03    1.92
  -8   7  -3  182.00    5.07
  -7   7  -3  119.76    3.19
  -6   7  -3  251.93    4.45
  -5   7  -3   11.75    1.06
  -4   7  -3   19.61    1.20
  -3   7  -3  102.02    2.67
  -2   7  -3    8.25    1.05
  -1   7  -3   82.77    3.59
   0   7  -3  122.71    4.68
   1   7  -3   24.16    2.49
   2   7  -3  128.26    5.11
   3   7  -3   11.09    1.80
   4   7  -3    3.34    1.14
   5   7  -3   25.39    3.01
   6   7  -3   59.97    7.09
   7   7  -3   20.69    4.17
 -14   8  -3   12.86    2.42
 -13   8  -3    0.22    0.79
 -12   8  -3  111.16    5.72
 -11   8  -3   23.78    2.23
 -10   8  -3  142.56    4.70
  -9   8  -3   40.06    2.55
  -8   8  -3    5.19    0.81
  -7   8  -3   27.18    1.79
  -6   8  -3    7.65    1.13
  -5   8  -3   18.28    1.39
  -4   8  -3   73.40    2.76
  -3   8  -3  203.75    5.25
  -2   8  -3   76.76    2.95
  -1   8  -3  184.36    6.14
   0   8  -3    3.25    1.06
   1   8  -3    1.25    0.77
   2   8  -3   30.02    3.00
   3   8  -3   11.43    1.95
   4   8  -3    8.79    1.79
   5   8  -3   30.28    3.61
   6   8  -3    0.43    1.35
 -14   9  -3   18.02    2.89
 -13   9  -3   33.05    3.83
 -12   9  -3    1.54    0.76
 -11   9  -3   38.10    2.90
 -10   9  -3   27.32    2.41
  -9   9  -3    2.92    0.76
  -8   9  -3    0.54    0.53
  -7   9  -3  123.57    4.03
  -6   9  -3   28.83    2.18
  -5   9  -3  212.14    7.01
  -4   9  -3    6.81    1.38
  -3   9  -3    1.02    0.54
  -2   9  -3   22.52    2.39
  -1   9  -3   49.34    3.28
   0   9  -3    2.60    0.99
   1   9  -3    4.92    1.35
   2   9  -3   92.78    4.68
   3   9  -3   22.01    2.82
   4   9  -3   62.55    4.49
   5   9  -3    0.58    1.26
 -14  10  -3   40.53    4.46
 -13  10  -3   24.47    3.30
 -12  10  -3   13.74    1.86
 -11  10  -3   12.81    1.75
 -10  10  -3  135.53    5.81
  -9  10  -3    3.63    0.91
  -8  10  -3   25.86    2.16
  -7  10  -3   14.19    1.68
  -6  10  -3   23.91    2.64
  -5  10  -3   13.14    1.95
  -4  10  -3    6.86    1.48
  -3  10  -3    6.51    1.50
  -2  10  -3  145.66    8.21
  -1  10  -3   27.71    4.30
   0  10  -3  136.07    5.74
   1  10  -3   12.33    2.07
   2  10  -3    4.80    1.44
   3  10  -3    8.46    1.94
   4  10  -3    6.10    2.44
 -13  11  -3    6.87    1.71
 -12  11  -3   33.56    3.53
 -11  11  -3   39.67    3.84
 -10  11  -3   12.90    2.06
  -9  11  -3   88.40    3.68
  -8  11  -3   13.44    1.72
  -7  11  -3    1.97    0.90
  -6  11  -3   29.20    3.03
  -5  11  -3   78.35    4.25
  -4  11  -3   42.85    3.79
  -3  11  -3   29.99    3.13
  -2  11  -3   39.55    5.30
  -1  11  -3   13.12    3.22
   0  11  -3   43.00    5.91
   1  11  -3   12.14    3.43
   2  11  -3    4.79    2.31
   3  11  -3   82.60    7.17
 -13  12  -3   24.14    3.34
 -12  12  -3   61.23    4.50
 -11  12  -3    9.86    1.96
 -10  12  -3    5.58    1.52
  -9  12  -3   25.62    2.47
  -8  12  -3    9.60    1.89
  -7  12  -3   28.33    3.12
  -6  12  -3   17.03    2.41
  -5  12  -3    0.63    0.88
  -4  12  -3  116.24    5.66
  -3  12  -3    2.51    1.55
  -2  12  -3   17.78    3.86
  -1  12  -3   40.76    5.78
   0  12  -3   58.48    7.09
   1  12  -3   13.38    3.74
 -12  13  -3   10.89    2.35
 -11  13  -3    4.73    1.55
 -10  13  -3    8.43    1.82
  -9  13  -3   65.19    4.51
  -8  13  -3   32.25    3.54
  -7  13  -3   67.23    5.18
  -6  13  -3    2.84    1.29
  -5  13  -3    0.79    0.99
  -4  13  -3   33.96    5.25
  -3  13  -3   38.38    5.56
  -2  13  -3   10.99    3.34
  -1  13  -3   14.72    4.12
 -10  14  -3   12.09    2.42
  -9  14  -3    1.16    1.21
  -8  14  -3    1.43    1.16
  -7  14  -3   24.50    3.30
  -6  14  -3   13.24    2.46
  -5  14  -3   18.74    2.92
   7 -15  -2   48.51    9.66
   8 -15  -2   35.48    6.93
   9 -15  -2    8.77    3.11
  10 -15  -2   70.38    8.17
   3 -14  -2   58.43    5.02
   4 -14  -2    4.89    1.61
   5 -14  -2    0.23    0.97
   6 -14  -2   51.01    4.55
   7 -14  -2    2.23    0.96
   8 -14  -2   10.90    1.70
   9 -14  -2   48.43    3.69
  10 -14  -2    4.17    1.25
  11 -14  -2   58.13    4.06
  12 -14  -2   24.47    3.03
   0 -13  -2    2.41    1.33
   1 -13  -2    9.21    2.07
   2 -13  -2    5.74    1.62
   3 -13  -2    1.77    1.00
   4 -13  -2   27.14    3.13
   5 -13  -2   44.55    4.03
   6 -13  -2   52.09    3.53
   7 -13  -2   54.57    3.36
   8 -13  -2   28.50    2.64
   9 -13  -2   42.05    3.22
  10 -13  -2   11.09    1.71
  11 -13  -2   40.62    3.30
  12 -13  -2    2.12    0.99
  13 -13  -2    2.53    1.45
  -2 -12  -2   18.12    3.42
  -1 -12  -2    2.08    1.26
   0 -12  -2   13.02    2.24
   1 -12  -2    6.14    1.53
   2 -12  -2  117.22    5.58
   3 -12  -2    6.30    1.52
   4 -12  -2   41.01    2.97
   5 -12  -2    4.87    1.05
   6 -12  -2   38.50    2.81
   7 -12  -2    2.61    0.86
   8 -12  -2    1.51    0.69
   9 -12  -2   28.27    2.49
  10 -12  -2    8.48    1.47
  11 -12  -2  101.46    5.31
  12 -12  -2   17.48    2.69
  13 -12  -2   10.60    2.15
  14 -12  -2   22.20    4.50
  -3 -11  -2   55.26    4.88
  -2 -11  -2   42.24    4.10
  -1 -11  -2   96.22    5.12
   0 -11  -2   14.76    2.19
   1 -11  -2    3.49    1.16
   2 -11  -2    3.45    1.07
   3 -11  -2   35.30    2.58
   4 -11  -2   58.61    2.83
   5 -11  -2   56.38    2.88
   6 -11  -2    1.49    0.62
   7 -11  -2  342.89    8.09
   8 -11  -2   21.28    2.08
   9 -11  -2   43.42    3.01
  10 -11  -2    5.55    1.45
  11 -11  -2   19.53    2.67
  12 -11  -2    8.42    1.80
  13 -11  -2    1.43    1.01
  14 -11  -2   54.39    4.85
  -5 -10  -2   64.15    7.32
  -4 -10  -2    6.00    1.84
  -3 -10  -2   10.06    2.07
  -2 -10  -2    7.62    1.73
  -1 -10  -2    8.27    1.69
   0 -10  -2  107.84    5.02
   1 -10  -2   25.74    2.18
   2 -10  -2   37.26    2.53
   3 -10  -2   83.04    3.25
   4 -10  -2   90.87    3.40
   5 -10  -2   32.61    2.35
   6 -10  -2    1.34    0.55
   7 -10  -2   19.35    1.81
   8 -10  -2   99.16    3.69
   9 -10  -2   21.00    2.49
  10 -10  -2  116.37    5.23
  11 -10  -2    5.35    1.08
  12 -10  -2  116.26    4.48
  13 -10  -2    0.60    0.74
  14 -10  -2    7.00    1.91
  15 -10  -2   -0.31    1.70
  -6  -9  -2   12.02    2.37
  -5  -9  -2   45.09    4.36
  -4  -9  -2   37.05    3.80
  -3  -9  -2   32.92    3.41
  -2  -9  -2   46.74    3.44
  -1  -9  -2   21.92    2.47
   0  -9  -2   84.73    3.23
   1  -9  -2    6.09    0.98
   2  -9  -2   12.76    1.37
   3  -9  -2  156.37    4.50
   4  -9  -2   42.06    2.16
   5  -9  -2   74.46    2.84
   6  -9  -2   62.83    2.62
   7  -9  -2   66.12    3.52
   8  -9  -2   65.21    2.76
   9  -9  -2   81.02    3.21
  10  -9  -2   25.60    2.19
  11  -9  -2    2.74    0.86
  12  -9  -2    6.47    1.28
  13  -9  -2   26.76    2.60
  14  -9  -2    1.42    1.20
  15  -9  -2   11.30    2.39
  -7  -8  -2   31.64    3.83
  -6  -8  -2   10.06    2.11
  -5  -8  -2   27.29    3.28
  -4  -8  -2    2.53    1.09
  -3  -8  -2   13.23    2.04
  -2  -8  -2   95.38    4.49
  -1  -8  -2   70.46    2.85
   0  -8  -2  113.79    3.06
   1  -8  -2   15.40    1.48
   2  -8  -2   29.59    1.87
   3  -8  -2  117.38    3.53
   4  -8  -2   32.68    1.93
   5  -8  -2   34.45    1.53
   6  -8  -2   29.91    1.80
   7  -8  -2   49.03    2.21
   8  -8  -2  106.75    3.59
   9  -8  -2    5.08    0.96
  10  -8  -2   32.32    2.45
  11  -8  -2   38.12    2.77
  12  -8  -2   33.97    2.73
  13  -8  -2   46.76    4.23
  14  -8  -2   56.08    4.83
  15  -8  -2   46.74    4.48
  -8  -7  -2   58.01    5.18
  -7  -7  -2    1.60    1.11
  -6  -7  -2   61.60    4.38
  -5  -7  -2    2.43    1.07
  -4  -7  -2  337.63   10.11
  -3  -7  -2   21.82    1.90
  -2  -7  -2   70.90    2.84
  -1  -7  -2   55.20    2.37
   0  -7  -2   87.72    2.98
   1  -7  -2   11.17    1.11
   2  -7  -2   22.89    1.19
   3  -7  -2  102.73    2.57
   4  -7  -2  121.68    2.90
   5  -7  -2  244.03    5.54
   6  -7  -2   89.78    2.97
   7  -7  -2   91.25    3.06
   8  -7  -2   16.84    1.56
   9  -7  -2   13.15    1.45
  10  -7  -2   83.35    3.29
  11  -7  -2   58.00    2.85
  12  -7  -2    3.25    0.94
  13  -7  -2   52.73    4.43
  14  -7  -2    1.52    1.07
  15  -7  -2   34.90    4.15
  -9  -6  -2   11.07    2.31
  -8  -6  -2   55.97    4.79
  -7  -6  -2   51.08    4.40
  -6  -6  -2   40.76    3.76
  -5  -6  -2    2.39    0.95
  -4  -6  -2    1.43    0.61
  -3  -6  -2   56.93    2.52
  -2  -6  -2   28.05    1.94
  -1  -6  -2   96.38    2.19
   0  -6  -2   16.77    1.13
   1  -6  -2  328.83    5.62
   2  -6  -2   11.09    0.87
   3  -6  -2  152.35    3.19
   4  -6  -2   14.20    1.01
   5  -6  -2  167.99    3.31
   6  -6  -2   16.06    1.35
   7  -6  -2   12.72    1.25
   8  -6  -2   31.91    1.84
   9  -6  -2  160.80    4.56
  10  -6  -2   90.52    3.40
  11  -6  -2   60.88    2.83
  12  -6  -2   37.63    3.55
  13  -6  -2   56.89    4.10
  14  -6  -2   12.67    2.37
  15  -6  -2   24.16    6.68
 -10  -5  -2   -0.32    1.20
  -9  -5  -2    2.13    1.23
  -8  -5  -2   46.09    4.17
  -7  -5  -2    4.67    1.32
  -6  -5  -2   56.96    3.53
  -5  -5  -2   39.52    2.64
  -4  -5  -2   80.87    2.97
  -3  -5  -2   35.31    1.90
  -2  -5  -2  255.34    4.12
  -1  -5  -2  172.48    3.04
   0  -5  -2    3.53    0.51
   1  -5  -2   45.75    1.50
   2  -5  -2   69.37    1.84
   3  -5  -2    8.56    0.73
   4  -5  -2   51.24    1.50
   5  -5  -2    4.38    0.52
   6  -5  -2  329.04    5.59
   7  -5  -2   22.40    1.24
   8  -5  -2  118.59    2.93
   9  -5  -2   38.59    2.20
  10  -5  -2   38.71    2.19
  11  -5  -2    3.18    0.81
  12  -5  -2    3.96    1.19
  13  -5  -2   26.44    3.13
  14  -5  -2   56.61    5.44
 -10  -4  -2    7.18    1.87
  -9  -4  -2   28.55    3.27
  -8  -4  -2   36.36    3.57
  -7  -4  -2   60.08    2.89
  -6  -4  -2   98.51    3.58
  -5  -4  -2   37.88    2.24
  -4  -4  -2   32.29    1.82
  -3  -4  -2  127.18    2.88
  -2  -4  -2   13.56    0.76
  -1  -4  -2   50.25    1.39
   0  -4  -2  114.58    2.50
   1  -4  -2  282.09    4.62
   2  -4  -2  246.13    3.72
   3  -4  -2  135.24    2.69
   4  -4  -2  113.56    2.45
   5  -4  -2   49.56    1.53
   6  -4  -2   10.87    0.85
   7  -4  -2  105.12    2.60
   8  -4  -2   31.43    1.47
   9  -4  -2   71.37    2.34
  10  -4  -2    1.32    0.46
  11  -4  -2  349.95    8.19
  12  -4  -2    2.02    0.94
  13  -4  -2   38.48    5.60
  14  -4  -2    2.70    2.18
 -11  -3  -2   55.85    5.01
 -10  -3  -2    2.16    1.05
  -9  -3  -2    6.12    1.64
  -8  -3  -2   32.92    2.64
  -7  -3  -2   82.23    3.31
  -6  -3  -2  169.71    4.74
  -5  -3  -2  108.18    3.52
  -4  -3  -2  102.54    3.17
  -3  -3  -2  147.50    2.68
  -2  -3  -2    7.92    0.49
  -1  -3  -2  128.44    2.72
   0  -3  -2   37.64    1.16
   1  -3  -2   89.13    1.68
   2  -3  -2  257.53    4.28
   3  -3  -2   38.25    1.18
   4  -3  -2  282.31    4.60
   5  -3  -2   69.46    1.82
   6  -3  -2  152.13    3.17
   7  -3  -2  125.51    2.94
   8  -3  -2   33.78    1.81
   9  -3  -2   59.52    2.49
  10  -3  -2   16.54    1.67
  11  -3  -2   17.08    1.79
  12  -3  -2   28.65    3.11
  13  -3  -2   15.42    3.68
  14  -3  -2   52.44    7.15
 -12  -2  -2   22.21    3.33
 -11  -2  -2    4.79    1.56
 -10  -2  -2  117.91    5.77
  -9  -2  -2    3.51    0.91
  -8  -2  -2   34.84    2.54
  -7  -2  -2   11.21    1.33
  -6  -2  -2   31.66    1.98
  -5  -2  -2   22.78    1.71
  -4  -2  -2   11.90    0.68
  -3  -2  -2   67.88    1.95
  -2  -2  -2  250.46    4.36
  -1  -2  -2  257.63    4.30
   0  -2  -2  409.26    5.46
   1  -2  -2  192.17    2.83
   2  -2  -2  414.37    6.13
   3  -2  -2   91.40    1.91
   4  -2  -2  247.58    4.17
   5  -2  -2    8.75    0.69
   6  -2  -2   13.25    1.15
   7  -2  -2  244.95    5.51
   8  -2  -2   30.37    1.74
   9  -2  -2   76.85    2.90
  10  -2  -2   97.75    3.55
  11  -2  -2   48.15    3.98
  12  -2  -2    8.22    1.76
  13  -2  -2   48.49    4.49
 -12  -1  -2    5.61    1.74
 -11  -1  -2    6.59    1.70
 -10  -1  -2    3.44    0.94
  -9  -1  -2   23.22    2.17
  -8  -1  -2    7.55    1.16
  -7  -1  -2   16.33    1.59
  -6  -1  -2   12.38    1.26
  -5  -1  -2  327.32    5.53
  -4  -1  -2   49.39    1.26
  -3  -1  -2  270.29    4.75
  -2  -1  -2   86.88    1.98
  -1  -1  -2  190.97    2.95
   0  -1  -2   50.06    1.33
   1  -1  -2   48.88    1.25
   2  -1  -2  196.27    3.20
   3  -1  -2  263.83    4.14
   4  -1  -2  134.83    2.58
   5  -1  -2   50.18    1.80
   6  -1  -2  173.52    4.11
   7  -1  -2   95.13    2.96
   8  -1  -2   50.47    2.22
   9  -1  -2   64.98    2.70
  10  -1  -2   16.47    2.23
  11  -1  -2    5.95    1.53
  12  -1  -2   94.58    5.12
  13  -1  -2    1.22    1.15
 -13   0  -2    1.79    1.37
 -12   0  -2   10.23    2.08
 -11   0  -2   15.99    2.01
 -10   0  -2  115.63    4.30
  -9   0  -2   75.09    3.29
  -8   0  -2  111.49    3.84
  -7   0  -2   82.73    3.04
  -6   0  -2   17.24    1.00
  -5   0  -2    4.51    0.50
  -4   0  -2  116.32    2.16
  -3   0  -2   36.84    0.93
  -2   0  -2  409.77    6.21
  -1   0  -2   49.06    1.10
   0   0  -2  816.57   11.20
   1   0  -2   49.88    1.25
   2   0  -2  408.33    7.10
   3   0  -2   34.05    1.30
   4   0  -2  113.20    2.82
   5   0  -2    3.87    0.58
   6   0  -2   17.78    1.33
   7   0  -2   89.27    2.87
   8   0  -2  108.60    4.58
   9   0  -2   82.64    4.13
  10   0  -2  110.36    5.13
  11   0  -2   13.64    2.22
  12   0  -2   11.74    2.17
  13   0  -2    1.96    1.33
 -13   1  -2    0.90    1.09
 -12   1  -2   97.53    5.33
 -11   1  -2    6.39    1.24
 -10   1  -2   19.96    2.02
  -9   1  -2   62.43    2.87
  -8   1  -2   51.10    2.43
  -7   1  -2   95.27    2.54
  -6   1  -2  170.32    3.48
  -5   1  -2   51.06    1.51
  -4   1  -2  132.64    2.42
  -3   1  -2  261.30    3.82
  -2   1  -2  193.27    2.68
  -1   1  -2   51.38    1.22
   0   1  -2   49.67    1.20
   1   1  -2  187.44    3.73
   2   1  -2   86.08    2.11
   3   1  -2  277.39    5.19
   4   1  -2   48.17    1.64
   5   1  -2  327.50    6.38
   6   1  -2   13.20    1.13
   7   1  -2   17.37    2.05
   8   1  -2    5.25    1.18
   9   1  -2   27.98    2.88
  10   1  -2    3.59    1.23
  11   1  -2    7.08    1.79
  12   1  -2    8.85    2.01
 -14   2  -2   24.46    5.24
 -13   2  -2   48.63    4.64
 -12   2  -2    6.31    1.56
 -11   2  -2   41.83    3.06
 -10   2  -2  100.60    3.87
  -9   2  -2   65.96    2.96
  -8   2  -2   29.76    1.55
  -7   2  -2  248.02    4.78
  -6   2  -2   13.02    0.95
  -5   2  -2    8.47    0.73
  -4   2  -2  249.42    3.44
  -3   2  -2   87.56    1.45
  -2   2  -2  413.12    4.64
  -1   2  -2  192.44    2.46
   0   2  -2  406.52    6.09
   1   2  -2  261.90    4.17
   2   2  -2  251.13    4.07
   3   2  -2   69.18    1.64
   4   2  -2   11.33    0.75
   5   2  -2   17.58    1.83
   6   2  -2   33.89    2.39
   7   2  -2   12.04    1.64
   8   2  -2   38.63    3.38
   9   2  -2    2.29    1.00
  10   2  -2  120.04    5.69
  11   2  -2    3.68    1.46
  12   2  -2   22.11    4.38
 -14   3  -2   48.70    4.72
 -13   3  -2    8.52    2.01
 -12   3  -2   33.42    3.55
 -11   3  -2   16.90    2.41
 -10   3  -2   16.50    1.78
  -9   3  -2   56.18    2.12
  -8   3  -2   35.41    1.72
  -7   3  -2  128.43    3.08
  -6   3  -2  153.80    2.75
  -5   3  -2   70.09    1.61
  -4   3  -2  273.11    3.77
  -3   3  -2   37.59    0.90
  -2   3  -2  259.35    3.22
  -1   3  -2   87.82    1.70
   0   3  -2   36.07    1.05
   1   3  -2  132.56    3.17
   2   3  -2    8.07    0.85
   3   3  -2  145.02    3.69
   4   3  -2  100.28    3.01
   5   3  -2  110.81    4.23
   6   3  -2  158.12    5.56
   7   3  -2   87.83    4.12
   8   3  -2   35.34    3.23
   9   3  -2    3.27    1.21
  10   3  -2    2.46    1.22
  11   3  -2   48.55    6.61
 -14   4  -2    2.43    1.39
 -13   4  -2   38.80    4.01
 -12   4  -2    1.05    0.80
 -11   4  -2  340.63   10.33
 -10   4  -2    2.05    0.55
  -9   4  -2   73.39    2.49
  -8   4  -2   32.10    1.83
  -7   4  -2   95.50    2.20
  -6   4  -2   12.01    0.80
  -5   4  -2   45.74    1.35
  -4   4  -2  112.79    1.89
  -3   4  -2  137.16    2.07
  -2   4  -2  252.45    3.45
  -1   4  -2  269.89    4.61
   0   4  -2  115.09    2.85
   1   4  -2   47.43    1.72
   2   4  -2   13.10    1.12
   3   4  -2  123.04    3.39
   4   4  -2   33.08    1.74
   5   4  -2   43.20    2.02
   6   4  -2   98.43    4.23
   7   4  -2   60.88    3.49
   8   4  -2   38.34    5.30
   9   4  -2   14.74    3.38
  10   4  -2    5.27    2.31
 -14   5  -2   43.74    4.53
 -13   5  -2   29.18    3.51
 -12   5  -2    3.45    1.21
 -11   5  -2    2.83    0.80
 -10   5  -2   37.13    2.28
  -9   5  -2   37.96    2.08
  -8   5  -2  117.88    3.15
  -7   5  -2   23.94    1.16
  -6   5  -2  327.75    5.13
  -5   5  -2    3.71    0.45
  -4   5  -2   50.31    1.17
  -3   5  -2    8.06    0.64
  -2   5  -2   68.94    1.81
  -1   5  -2   48.95    1.51
   0   5  -2    5.16    0.66
   1   5  -2  170.91    3.93
   2   5  -2  248.90    5.37
   3   5  -2   33.34    1.84
   4   5  -2   73.55    2.70
   5   5  -2   34.94    2.96
   6   5  -2   53.88    4.91
   7   5  -2    4.40    1.85
   8   5  -2   46.12    5.95
   9   5  -2    1.45    1.52
 -15   6  -2    9.67    3.57
 -14   6  -2   13.37    2.49
 -13   6  -2   55.54    4.76
 -12   6  -2   26.22    3.16
 -11   6  -2   60.94    3.01
 -10   6  -2   91.17    3.47
  -9   6  -2  162.89    4.64
  -8   6  -2   31.45    1.51
  -7   6  -2   10.12    0.94
  -6   6  -2   15.95    1.15
  -5   6  -2  166.27    3.11
  -4   6  -2   11.56    0.89
  -3   6  -2  153.62    2.82
  -2   6  -2   10.85    0.82
  -1   6  -2  324.51    5.51
   0   6  -2   17.15    1.12
   1   6  -2   96.66    3.74
   2   6  -2   32.58    2.68
   3   6  -2   51.19    2.95
   4   6  -2    1.55    0.82
   5   6  -2    3.69    1.05
   6   6  -2   34.45    4.87
   7   6  -2   43.46    5.64
   8   6  -2   62.75    7.34
 -15   7  -2   30.83    4.45
 -14   7  -2    2.43    1.29
 -13   7  -2   50.20    4.63
 -12   7  -2    2.77    0.87
 -11   7  -2   55.12    2.94
 -10   7  -2   87.21    3.40
  -9   7  -2   12.75    1.45
  -8   7  -2   15.96    1.27
  -7   7  -2   89.04    2.59
  -6   7  -2   91.04    2.60
  -5   7  -2  246.37    4.68
  -4   7  -2  122.01    2.93
  -3   7  -2  103.71    3.02
  -2   7  -2   19.91    1.51
  -1   7  -2   13.38    1.32
   0   7  -2   86.88    3.61
   1   7  -2   52.54    2.81
   2   7  -2   73.51    3.54
   3   7  -2   20.29    2.36
   4   7  -2  338.22    9.78
   5   7  -2    1.24    0.84
   6   7  -2   45.47    5.99
   7   7  -2    1.99    1.65
   8   7  -2   42.11    6.87
 -15   8  -2   39.61    4.91
 -14   8  -2   46.24    4.52
 -13   8  -2   40.63    3.12
 -12   8  -2   38.20    2.91
 -11   8  -2   34.51    2.69
 -10   8  -2   32.43    2.45
  -9   8  -2    5.59    1.02
  -8   8  -2  109.41    3.13
  -7   8  -2   51.00    2.25
  -6   8  -2   30.67    2.08
  -5   8  -2   33.13    1.94
  -4   8  -2   33.58    1.80
  -3   8  -2  117.97    3.44
  -2   8  -2   32.04    1.93
  -1   8  -2   16.10    1.53
   0   8  -2  109.23    4.36
   1   8  -2   64.06    3.34
   2   8  -2   97.35    4.39
   3   8  -2   15.97    2.22
   4   8  -2    2.15    1.07
   5   8  -2   28.24    4.47
   6   8  -2   10.83    3.04
   7   8  -2   30.77    5.23
 -14   9  -2    1.38    0.96
 -13   9  -2   26.09    2.53
 -12   9  -2    4.69    1.08
 -11   9  -2    1.84    0.63
 -10   9  -2   26.47    2.31
  -9   9  -2   77.96    3.08
  -8   9  -2   66.29    2.76
  -7   9  -2   70.45    2.85
  -6   9  -2   53.00    2.45
  -5   9  -2   77.51    3.60
  -4   9  -2   41.16    2.84
  -3   9  -2  158.92    5.64
  -2   9  -2   13.48    1.44
  -1   9  -2    6.30    1.25
   0   9  -2   83.85    3.90
   1   9  -2   22.83    2.47
   2   9  -2   46.33    3.36
   3   9  -2   25.29    2.95
   4   9  -2   43.35    3.97
   5   9  -2   46.49    6.02
   6   9  -2   10.34    3.17
 -14  10  -2    6.03    1.41
 -13  10  -2    2.22    0.89
 -12  10  -2  118.35    4.65
 -11  10  -2    5.80    1.43
 -10  10  -2  107.57    5.02
  -9  10  -2   18.99    1.89
  -8  10  -2   96.49    3.57
  -7  10  -2   23.08    2.09
  -6  10  -2    1.60    0.58
  -5  10  -2   29.28    2.74
  -4  10  -2   87.89    4.21
  -3  10  -2   81.50    4.08
  -2  10  -2   36.38    3.34
  -1  10  -2   24.09    3.88
   0  10  -2  107.63    4.79
   1  10  -2    5.07    1.38
   2  10  -2    5.43    1.50
   3  10  -2   10.59    2.04
   4  10  -2    8.14    2.68
   5  10  -2   60.34    7.11
 -14  11  -2   50.13    4.63
 -13  11  -2    4.61    1.48
 -12  11  -2    9.68    1.89
 -11  11  -2   13.59    2.24
 -10  11  -2    4.38    1.31
  -9  11  -2   45.74    2.78
  -8  11  -2   15.21    1.73
  -7  11  -2  334.17    8.07
  -6  11  -2    1.27    0.77
  -5  11  -2   57.79    3.49
  -4  11  -2   57.77    3.52
  -3  11  -2   36.16    3.49
  -2  11  -2    0.98    1.25
  -1  11  -2    5.89    2.27
   0  11  -2   16.09    3.44
   1  11  -2   90.49    7.03
   2  11  -2   42.34    5.88
 -14  12  -2   11.44    3.11
 -13  12  -2    8.46    1.96
 -12  12  -2   10.20    1.97
 -11  12  -2   91.52    5.02
 -10  12  -2    6.81    1.27
  -9  12  -2   28.48    2.53
  -8  12  -2    1.86    0.81
  -7  12  -2    2.12    0.97
  -6  12  -2   31.52    3.27
  -5  12  -2    4.88    1.42
  -4  12  -2   34.85    3.53
  -3  12  -2    7.25    1.66
  -2  12  -2  115.62    7.82
  -1  12  -2   10.26    3.07
   0  12  -2   12.36    3.27
   1  12  -2   -0.42    1.24
   2  12  -2   25.53    5.04
 -13  13  -2   -0.41    1.28
 -12  13  -2    0.51    0.96
 -11  13  -2   44.73    4.25
 -10  13  -2    9.98    1.64
  -9  13  -2   44.11    3.95
  -8  13  -2   28.59    3.21
  -7  13  -2   56.75    4.54
  -6  13  -2   47.92    4.16
  -5  13  -2   40.43    3.83
  -4  13  -2   26.49    3.12
  -3  13  -2    0.73    1.63
  -2  13  -2    2.47    1.86
  -1  13  -2    4.11    2.35
   0  13  -2    1.44    2.09
 -11  14  -2   53.21    4.75
 -10  14  -2    4.46    1.52
  -9  14  -2   52.32    4.54
  -8  14  -2    9.51    2.07
  -7  14  -2    2.34    1.17
  -6  14  -2   52.18    4.66
  -5  14  -2    2.04    1.21
  -4  14  -2    6.75    1.92
  -3  14  -2   64.19    7.40
 -10  15  -2   66.33    7.30
  -9  15  -2   13.71    3.63
  -8  15  -2   35.01    4.51
  -7  15  -2   44.39    5.35
   4 -15  -1    1.89    1.91
   5 -15  -1   11.86    2.34
   6 -15  -1   75.28    5.27
   7 -15  -1    6.28    1.76
   8 -15  -1   66.48    4.87
   9 -15  -1    0.74    1.12
  10 -15  -1    4.00    1.29
  11 -15  -1   11.93    2.47
   1 -14  -1    0.14    1.69
   2 -14  -1   54.16    5.02
   3 -14  -1   55.23    4.78
   4 -14  -1   67.54    3.99
   5 -14  -1   23.00    3.05
   6 -14  -1    3.13    1.24
   7 -14  -1   25.29    3.21
   8 -14  -1    2.95    0.97
   9 -14  -1    3.55    1.01
  10 -14  -1   14.18    1.97
  11 -14  -1   67.39    4.06
  12 -14  -1    3.59    1.21
  13 -14  -1   64.76    8.65
  -1 -13  -1   65.04    9.08
   0 -13  -1    4.83    1.62
   1 -13  -1    9.94    2.08
   2 -13  -1    7.34    1.76
   3 -13  -1   28.61    2.58
   4 -13  -1   19.02    2.64
   5 -13  -1    0.09    0.66
   6 -13  -1   -0.03    0.69
   7 -13  -1   72.99    3.57
   8 -13  -1   30.26    2.69
   9 -13  -1   69.06    3.46
  10 -13  -1    2.43    0.90
  11 -13  -1    5.33    1.28
  12 -13  -1   22.33    3.06
  13 -13  -1    6.74    1.96
  -2 -12  -1    2.01    1.24
  -1 -12  -1   25.00    3.25
   0 -12  -1   68.11    5.38
   1 -12  -1   50.38    4.37
   2 -12  -1    3.43    0.94
   3 -12  -1    3.04    1.07
   4 -12  -1  110.43    5.20
   5 -12  -1   10.98    1.51
   6 -12  -1   26.72    2.27
   7 -12  -1   13.64    1.67
   8 -12  -1    1.76    0.69
   9 -12  -1   31.19    2.66
  10 -12  -1    2.02    0.82
  11 -12  -1    2.73    1.21
  12 -12  -1   74.44    5.03
  13 -12  -1   12.34    2.35
  14 -12  -1   50.61    4.87
  -4 -11  -1   14.41    2.90
  -3 -11  -1   66.62    5.50
  -2 -11  -1    6.57    1.74
  -1 -11  -1    3.75    1.22
   0 -11  -1   45.58    3.96
   1 -11  -1   25.47    2.22
   2 -11  -1   62.01    2.94
   3 -11  -1   41.85    3.54
   4 -11  -1   56.34    2.70
   5 -11  -1  134.34    4.38
   6 -11  -1   12.65    1.52
   7 -11  -1    3.01    0.81
   8 -11  -1    2.52    0.79
   9 -11  -1  117.48    5.28
  10 -11  -1   16.34    2.30
  11 -11  -1   38.99    3.80
  12 -11  -1   50.99    4.48
  13 -11  -1    7.62    1.85
  14 -11  -1   70.33    5.00
  15 -11  -1    0.69    1.76
  -5 -10  -1    4.12    1.60
  -4 -10  -1   11.65    2.23
  -3 -10  -1    1.86    1.08
  -2 -10  -1    1.55    0.92
  -1 -10  -1   15.57    2.34
   0 -10  -1  134.67    4.46
   1 -10  -1    8.57    1.27
   2 -10  -1  192.37    5.49
   3 -10  -1    5.56    1.00
   4 -10  -1    4.34    0.85
   5 -10  -1   29.37    2.18
   6 -10  -1   11.37    1.33
   7 -10  -1    3.42    0.78
   8 -10  -1   27.05    2.68
   9 -10  -1    1.19    0.67
  10 -10  -1  131.70    5.68
  11 -10  -1   26.73    3.02
  12 -10  -1    2.23    0.79
  13 -10  -1   29.30    2.70
  14 -10  -1   63.98    3.94
  15 -10  -1    6.19    1.45
  -6  -9  -1    2.30    1.24
  -5  -9  -1    2.94    1.24
  -4  -9  -1   76.89    4.50
  -3  -9  -1   39.79    3.72
  -2  -9  -1  115.52    5.25
  -1  -9  -1    1.49    0.56
   0  -9  -1    7.24    1.11
   1  -9  -1   36.64    2.06
   2  -9  -1   32.63    1.98
   3  -9  -1    1.78    0.57
   4  -9  -1    1.04    0.46
   5  -9  -1  217.69    5.38
   6  -9  -1   20.58    1.73
   7  -9  -1  236.18    7.25
   8  -9  -1   10.76    1.25
   9  -9  -1    5.00    0.97
  10  -9  -1    9.18    1.30
  11  -9  -1   63.43    3.00
  12  -9  -1    1.74    0.73
  13  -9  -1   23.87    2.38
  14  -9  -1   21.87    2.43
  15  -9  -1   73.65    3.96
  -7  -8  -1   78.31    5.48
  -6  -8  -1    3.37    1.33
  -5  -8  -1   32.95    3.52
  -4  -8  -1    1.50    0.90
  -3  -8  -1    3.72    1.08
  -2  -8  -1   28.54    2.13
  -1  -8  -1   10.64    1.27
   0  -8  -1    6.66    0.82
   1  -8  -1  197.56    4.86
   2  -8  -1   61.41    2.40
   3  -8  -1  213.92    5.11
   4  -8  -1   84.63    2.82
   5  -8  -1    3.49    0.68
   6  -8  -1    0.44    0.30
   7  -8  -1   32.43    1.90
   8  -8  -1    6.89    0.99
   9  -8  -1   33.82    2.13
  10  -8  -1  182.94    5.23
  11  -8  -1   51.54    2.64
  12  -8  -1  106.43    4.11
  13  -8  -1    0.60    0.61
  14  -8  -1    4.78    1.19
  15  -8  -1    8.68    2.04
  -8  -7  -1   13.69    2.57
  -7  -7  -1   25.88    3.27
  -6  -7  -1   73.34    4.37
  -5  -7  -1   11.87    2.04
  -4  -7  -1    3.02    1.03
  -3  -7  -1    6.13    1.11
  -2  -7  -1  235.34    5.63
  -1  -7  -1   33.06    1.55
   0  -7  -1  163.79    3.52
   1  -7  -1  124.83    3.44
   2  -7  -1   17.98    1.41
   3  -7  -1  205.96    3.84
   4  -7  -1    3.19    0.49
   5  -7  -1   12.10    1.07
   6  -7  -1  258.67    5.73
   7  -7  -1  154.86    4.10
   8  -7  -1  196.41    4.92
   9  -7  -1   34.56    2.13
  10  -7  -1    3.54    0.84
  11  -7  -1   58.66    2.79
  12  -7  -1   11.03    1.52
  13  -7  -1    1.81    0.80
  14  -7  -1   26.75    2.62
  15  -7  -1   76.22    4.86
  -9  -6  -1   79.03    5.51
  -8  -6  -1    3.65    1.41
  -7  -6  -1    2.37    1.06
  -6  -6  -1   28.79    3.12
  -5  -6  -1   14.09    2.06
  -4  -6  -1    9.24    1.53
  -3  -6  -1   26.17    1.46
  -2  -6  -1    0.76    0.34
  -1  -6  -1  262.77    4.91
   0  -6  -1   41.79    1.74
   1  -6  -1    7.51    0.63
   2  -6  -1  187.75    3.51
   3  -6  -1  337.28    5.48
   4  -6  -1   48.21    1.69
   5  -6  -1   30.63    1.42
   6  -6  -1   42.26    1.76
   7  -6  -1  118.82    3.43
   8  -6  -1   58.67    2.39
   9  -6  -1    1.71    0.57
  10  -6  -1    5.24    0.96
  11  -6  -1  137.73    4.48
  12  -6  -1   26.60    2.39
  13  -6  -1   74.36    3.51
  14  -6  -1    5.59    1.62
  15  -6  -1    0.47    1.06
 -10  -5  -1    7.29    1.90
  -9  -5  -1   23.57    3.20
  -8  -5  -1    0.62    0.78
  -7  -5  -1   12.45    2.08
  -6  -5  -1  125.19    5.41
  -5  -5  -1   29.14    2.80
  -4  -5  -1  219.73    4.41
  -3  -5  -1    3.85    0.57
  -2  -5  -1   11.59    0.91
  -1  -5  -1   27.74    1.18
   0  -5  -1  215.47    3.69
   1  -5  -1   24.92    0.93
   2  -5  -1   59.30    1.52
   3  -5  -1  107.92    2.27
   4  -5  -1  390.18    7.18
   5  -5  -1  210.02    3.56
   6  -5  -1    7.98    0.66
   7  -5  -1   18.26    1.03
   8  -5  -1  205.20    4.22
   9  -5  -1    2.03    0.48
  10  -5  -1   28.24    2.68
  11  -5  -1   13.15    1.89
  12  -5  -1   13.39    2.15
  13  -5  -1   29.70    3.24
  14  -5  -1    3.97    1.30
  15  -5  -1    5.03    2.74
 -11  -4  -1    1.83    1.82
 -10  -4  -1   72.66    4.98
  -9  -4  -1   20.82    2.89
  -8  -4  -1  116.56    5.36
  -7  -4  -1   55.59    3.45
  -6  -4  -1    4.93    1.21
  -5  -4  -1    2.39    0.51
  -4  -4  -1   83.48    2.29
  -3  -4  -1    3.54    0.51
  -2  -4  -1   48.60    1.46
  -1  -4  -1  394.48    5.45
   0  -4  -1  181.58    3.15
   1  -4  -1  439.67    6.54
   2  -4  -1   15.99    0.72
   3  -4  -1   12.42    0.56
   4  -4  -1  179.20    3.07
   5  -4  -1   23.97    0.91
   6  -4  -1  191.20    3.62
   7  -4  -1  201.95    4.54
   8  -4  -1   83.71    2.70
   9  -4  -1  222.44    5.26
  10  -4  -1    9.69    1.23
  11  -4  -1    2.85    0.77
  12  -4  -1    0.66    0.71
  13  -4  -1   67.28    4.17
  14  -4  -1   15.66    3.74
 -11  -3  -1   68.79    5.54
 -10  -3  -1   25.21    3.14
  -9  -3  -1    3.94    1.32
  -8  -3  -1   53.95    3.42
  -7  -3  -1    4.76    0.91
  -6  -3  -1    1.17    0.39
  -5  -3  -1  207.08    4.20
  -4  -3  -1  204.58    3.93
  -3  -3  -1  335.17    5.52
  -2  -3  -1  106.02    2.24
  -1  -3  -1   14.51    0.61
   0  -3  -1  188.93    3.20
   1  -3  -1   19.92    0.70
   2  -3  -1   43.48    1.04
   3  -3  -1  190.11    3.14
   4  -3  -1  438.97    6.53
   5  -3  -1   62.77    2.19
   6  -3  -1  325.12    6.37
   7  -3  -1    3.39    0.59
   8  -3  -1    3.66    0.68
   9  -3  -1   23.16    1.78
  10  -3  -1    7.20    1.08
  11  -3  -1    2.79    0.80
  12  -3  -1   37.44    2.74
  13  -3  -1    1.18    0.94
  14  -3  -1   68.05    8.02
 -12  -2  -1   60.24    5.32
 -11  -2  -1    8.10    1.92
 -10  -2  -1    2.47    1.14
  -9  -2  -1   62.41    3.76
  -8  -2  -1  180.88    5.23
  -7  -2  -1   31.96    1.57
  -6  -2  -1   59.25    1.95
  -5  -2  -1   17.87    1.05
  -4  -2  -1  191.22    3.63
  -3  -2  -1   59.61    1.55
  -2  -2  -1   17.41    0.64
  -1  -2  -1   44.62    0.95
   0  -2  -1  516.97    7.20
   1  -2  -1  140.65    2.05
   2  -2  -1  514.30    7.16
   3  -2  -1   21.02    0.80
   4  -2  -1   16.71    0.84
   5  -2  -1  102.76    2.63
   6  -2  -1   46.04    1.72
   7  -2  -1   11.24    1.08
   8  -2  -1    1.13    0.44
   9  -2  -1  225.18    5.62
  10  -2  -1   27.55    2.13
  11  -2  -1  114.12    4.09
  12  -2  -1    1.70    0.99
  13  -2  -1    6.79    1.67
  14  -2  -1    4.79    1.58
 -13  -1  -1    0.70    1.77
 -12  -1  -1   17.08    2.78
 -11  -1  -1   57.20    4.70
 -10  -1  -1   26.03    3.01
  -9  -1  -1    7.18    1.17
  -8  -1  -1   39.98    1.94
  -7  -1  -1  191.53    4.09
  -6  -1  -1  123.68    2.88
  -5  -1  -1    7.03    0.45
  -4  -1  -1   24.65    0.97
  -3  -1  -1  433.03    6.56
  -2  -1  -1   19.52    0.59
  -1  -1  -1  137.59    2.37
   0  -1  -1   40.64    0.78
   1  -1  -1   40.23    0.89
   2  -1  -1  140.25    2.60
   3  -1  -1   44.09    1.29
   4  -1  -1   13.83    0.94
   5  -1  -1  391.76    7.19
   6  -1  -1   29.35    1.39
   7  -1  -1  253.68    5.71
   8  -1  -1   30.16    1.85
   9  -1  -1    9.50    1.16
  10  -1  -1    1.27    0.54
  11  -1  -1   12.73    1.95
  12  -1  -1    1.73    1.01
  13  -1  -1   19.94    2.92
  14  -1  -1   62.65    7.53
 -13   0  -1    3.21    1.41
 -12   0  -1   71.30    4.98
 -11   0  -1   48.24    4.20
 -10   0  -1  141.33    4.70
  -9   0  -1    3.92    0.82
  -8   0  -1    5.85    0.75
  -7   0  -1  154.98    3.47
  -6   0  -1   41.32    1.46
  -5   0  -1  204.57    3.78
  -4   0  -1  178.05    3.20
  -3   0  -1  188.89    3.20
  -2   0  -1  513.04    6.45
  -1   0  -1   40.03    0.83
   0   0  -1    0.34    0.12
   1   0  -1   39.31    1.61
   2   0  -1  518.18    8.29
   3   0  -1  189.97    3.69
   4   0  -1  183.20    3.71
   5   0  -1  215.81    4.41
   6   0  -1   43.36    1.72
   7   0  -1  152.96    3.98
   8   0  -1    5.29    0.86
   9   0  -1    3.76    0.80
  10   0  -1  145.40    5.85
  11   0  -1   49.38    4.22
  12   0  -1   76.23    4.61
  13   0  -1    7.98    2.02
 -14   1  -1   70.88    8.66
 -13   1  -1   23.63    3.21
 -12   1  -1    3.70    1.27
 -11   1  -1    8.73    1.76
 -10   1  -1    1.51    0.75
  -9   1  -1    8.22    0.94
  -8   1  -1   32.79    1.57
  -7   1  -1  259.69    5.01
  -6   1  -1   28.93    1.25
  -5   1  -1  385.98    6.26
  -4   1  -1   13.36    0.73
  -3   1  -1   44.62    0.88
  -2   1  -1  135.23    1.87
  -1   1  -1   41.02    0.68
   0   1  -1   41.11    0.76
   1   1  -1  137.83    2.24
   2   1  -1   19.55    0.63
   3   1  -1  439.00    6.47
   4   1  -1   25.76    1.10
   5   1  -1    8.07    0.82
   6   1  -1  129.09    3.33
   7   1  -1  198.15    4.70
   8   1  -1   38.25    2.76
   9   1  -1    9.26    1.67
  10   1  -1   27.28    3.00
  11   1  -1   57.07    4.17
  12   1  -1   13.91    2.43
  13   1  -1   -0.24    1.64
 -14   2  -1    4.02    1.55
 -13   2  -1    8.30    1.80
 -12   2  -1    1.87    1.01
 -11   2  -1  121.57    5.48
 -10   2  -1   29.15    2.15
  -9   2  -1  225.82    4.89
  -8   2  -1    0.69    0.32
  -7   2  -1   12.30    0.99
  -6   2  -1   47.38    1.54
  -5   2  -1  106.10    2.06
  -4   2  -1   16.48    0.61
  -3   2  -1   19.76    0.62
  -2   2  -1  523.43    5.46
  -1   2  -1  138.67    1.74
   0   2  -1  523.27    7.05
   1   2  -1   43.96    1.50
   2   2  -1   17.25    0.57
   3   2  -1   63.22    1.46
   4   2  -1  193.62    3.48
   5   2  -1   19.46    1.04
   6   2  -1   59.23    2.16
   7   2  -1   24.77    2.41
   8   2  -1  182.02    6.48
   9   2  -1   64.93    3.76
  10   2  -1    2.23    1.08
  11   2  -1    6.54    1.67
  12   2  -1   58.54    5.01
 -14   3  -1   80.14    5.48
 -13   3  -1    1.63    1.04
 -12   3  -1   33.34    3.45
 -11   3  -1    2.48    0.69
 -10   3  -1    4.34    0.83
  -9   3  -1   24.48    1.84
  -8   3  -1    4.19    0.64
  -7   3  -1    3.96    0.40
  -6   3  -1  333.56    4.89
  -5   3  -1   60.20    1.39
  -4   3  -1  437.40    5.91
  -3   3  -1  188.50    2.63
  -2   3  -1   43.39    0.96
  -1   3  -1   19.89    0.68
   0   3  -1  192.82    3.17
   1   3  -1   13.35    0.70
   2   3  -1  103.65    2.21
   3   3  -1  339.00    4.74
   4   3  -1  203.62    3.33
   5   3  -1  207.15    4.86
   6   3  -1    1.56    0.68
   7   3  -1    5.24    1.15
   8   3  -1   53.46    3.57
   9   3  -1    2.38    1.00
  10   3  -1   29.20    3.17
  11   3  -1   56.15    7.02
 -15   4  -1   15.50    4.08
 -14   4  -1   11.98    2.21
 -13   4  -1   65.92    4.71
 -12   4  -1    0.74    0.57
 -11   4  -1    2.06    0.70
 -10   4  -1    8.49    1.17
  -9   4  -1  217.81    5.37
  -8   4  -1   86.47    2.87
  -7   4  -1  198.21    3.81
  -6   4  -1  189.40    3.60
  -5   4  -1   24.62    1.10
  -4   4  -1  180.49    3.26
  -3   4  -1   14.58    0.69
  -2   4  -1   17.47    0.63
  -1   4  -1  443.59    6.44
   0   4  -1  179.25    2.77
   1   4  -1  390.11    6.05
   2   4  -1   47.68    1.42
   3   4  -1    3.38    0.42
   4   4  -1   82.63    2.28
   5   4  -1    2.63    0.53
   6   4  -1    5.31    1.14
   7   4  -1   51.19    3.12
   8   4  -1  104.59    5.09
   9   4  -1   19.05    3.90
  10   4  -1   53.14    6.89
 -15   5  -1    5.26    1.90
 -14   5  -1    3.18    1.29
 -13   5  -1   26.08    3.19
 -12   5  -1   13.72    1.70
 -11   5  -1   14.92    1.68
 -10   5  -1   27.69    2.13
  -9   5  -1    2.73    0.67
  -8   5  -1  210.02    4.16
  -7   5  -1   16.63    1.12
  -6   5  -1    6.41    0.67
  -5   5  -1  210.14    3.87
  -4   5  -1  390.69    5.50
  -3   5  -1  107.03    2.23
  -2   5  -1   60.67    1.81
  -1   5  -1   25.60    1.01
   0   5  -1  210.76    3.23
   1   5  -1   28.76    1.07
   2   5  -1   11.42    0.87
   3   5  -1    3.72    0.54
   4   5  -1  212.09    4.33
   5   5  -1   28.07    1.87
   6   5  -1  129.00    7.65
   7   5  -1   13.15    2.99
   8   5  -1    1.29    1.34
   9   5  -1   17.50    3.95
  10   5  -1    6.54    3.52
 -15   6  -1    1.32    1.25
 -14   6  -1    2.89    1.35
 -13   6  -1   76.14    3.53
 -12   6  -1   29.67    2.47
 -11   6  -1  135.38    4.44
 -10   6  -1    4.81    0.94
  -9   6  -1    2.93    0.70
  -8   6  -1   59.21    1.97
  -7   6  -1  117.15    2.90
  -6   6  -1   43.29    1.54
  -5   6  -1   28.67    1.41
  -4   6  -1   46.72    1.38
  -3   6  -1  329.45    5.49
  -2   6  -1  185.87    3.59
  -1   6  -1    8.47    0.78
   0   6  -1   43.40    1.53
   1   6  -1  258.35    5.71
   2   6  -1    0.57    0.40
   3   6  -1   23.61    1.80
   4   6  -1    8.32    1.17
   5   6  -1   10.22    2.46
   6   6  -1   27.03    4.24
   7   6  -1    0.38    1.01
   8   6  -1    6.26    2.42
   9   6  -1   79.99    7.24
 -15   7  -1   67.84    5.67
 -14   7  -1   23.51    2.46
 -13   7  -1    1.59    0.79
 -12   7  -1   10.01    1.46
 -11   7  -1   51.32    2.66
 -10   7  -1    6.51    1.09
  -9   7  -1   30.28    1.61
  -8   7  -1  190.18    4.16
  -7   7  -1  152.45    3.53
  -6   7  -1  254.11    5.75
  -5   7  -1    9.37    1.06
  -4   7  -1    3.21    0.46
  -3   7  -1  198.73    4.38
  -2   7  -1   20.44    1.15
  -1   7  -1  124.01    2.93
   0   7  -1  158.09    3.52
   1   7  -1   28.89    1.81
   2   7  -1  222.57    5.56
   3   7  -1    4.76    0.92
   4   7  -1    3.75    0.89
   5   7  -1    9.13    2.50
   6   7  -1   75.13    6.21
   7   7  -1   28.04    4.82
   8   7  -1   10.62    3.26
 -15   8  -1    9.03    2.16
 -14   8  -1    4.51    1.20
 -13   8  -1    0.34    0.52
 -12   8  -1   94.88    3.97
 -11   8  -1   49.93    3.01
 -10   8  -1  188.60    5.44
  -9   8  -1   33.67    1.79
  -8   8  -1    4.82    0.79
  -7   8  -1   30.92    1.85
  -6   8  -1    0.40    0.38
  -5   8  -1    3.22    0.68
  -4   8  -1   77.94    3.36
  -3   8  -1  209.78    4.15
  -2   8  -1   58.33    1.94
  -1   8  -1  191.62    4.11
   0   8  -1    5.03    0.85
   1   8  -1   11.39    1.30
   2   8  -1   32.37    2.29
   3   8  -1    1.85    0.68
   4   8  -1    1.86    0.79
   5   8  -1   27.98    4.29
   6   8  -1    3.42    1.91
   7   8  -1   65.81    7.62
 -15   9  -1   70.45    4.25
 -14   9  -1   20.85    2.35
 -13   9  -1   20.57    2.27
 -12   9  -1    2.44    0.89
 -11   9  -1   63.48    3.08
 -10   9  -1   10.83    1.79
  -9   9  -1    5.52    1.01
  -8   9  -1   11.29    1.32
  -7   9  -1  216.94    5.62
  -6   9  -1   24.30    1.87
  -5   9  -1  217.34    5.41
  -4   9  -1    1.64    0.74
  -3   9  -1    2.07    0.61
  -2   9  -1   29.98    2.11
  -1   9  -1   38.96    1.86
   0   9  -1    5.21    0.89
   1   9  -1    1.51    0.63
   2   9  -1  120.07    4.12
   3   9  -1   31.91    3.18
   4   9  -1   74.86    6.07
   5   9  -1    2.15    1.58
   6   9  -1    2.08    1.96
 -15  10  -1    5.08    1.37
 -14  10  -1   61.01    4.95
 -13  10  -1   29.79    3.26
 -12  10  -1    3.16    1.12
 -11  10  -1   24.75    2.88
 -10  10  -1  135.68    4.41
  -9  10  -1    1.91    0.67
  -8  10  -1   30.07    2.28
  -7  10  -1    4.78    0.86
  -6  10  -1    8.52    1.19
  -5  10  -1   27.70    2.58
  -4  10  -1    3.83    0.99
  -3  10  -1    4.59    1.16
  -2  10  -1  182.72    5.20
  -1  10  -1   10.83    1.44
   0  10  -1  127.95    5.39
   1  10  -1   13.03    1.62
   2  10  -1    3.57    1.24
   3  10  -1    1.67    1.05
   4  10  -1   14.10    3.37
   5  10  -1    7.14    2.75
 -15  11  -1    1.93    1.71
 -14  11  -1   70.11    4.87
 -13  11  -1    6.74    1.65
 -12  11  -1   49.90    4.35
 -11  11  -1   39.70    3.69
 -10  11  -1   12.42    1.54
  -9  11  -1  125.77    4.27
  -8  11  -1    2.52    0.77
  -7  11  -1    2.81    0.78
  -6  11  -1   11.06    1.77
  -5  11  -1  122.53    5.24
  -4  11  -1   51.02    3.52
  -3  11  -1   52.71    3.64
  -2  11  -1   64.51    3.74
  -1  11  -1   27.17    4.19
   0  11  -1   48.16    5.73
   1  11  -1    4.80    2.21
   2  11  -1    8.34    2.70
 -14  12  -1   40.13    4.20
 -13  12  -1   10.86    2.14
 -12  12  -1   72.39    4.54
 -11  12  -1    3.38    1.18
 -10  12  -1    1.34    0.69
  -9  12  -1   29.95    2.49
  -8  12  -1    1.64    0.66
  -7  12  -1   11.42    1.91
  -6  12  -1   24.67    2.82
  -5  12  -1   10.78    1.89
  -4  12  -1  110.86    5.12
  -3  12  -1    3.17    1.15
  -2  12  -1    3.60    1.30
  -1  12  -1   60.52    6.89
   0  12  -1   70.32    6.23
   1  12  -1   26.76    4.70
 -13  13  -1    4.78    1.62
 -12  13  -1   24.32    3.17
 -11  13  -1    5.99    1.34
 -10  13  -1    2.23    0.85
  -9  13  -1   73.45    3.49
  -8  13  -1   34.02    3.47
  -7  13  -1   72.17    4.23
  -6  13  -1    0.76    0.80
  -5  13  -1    0.06    0.75
  -4  13  -1   21.77    2.79
  -3  13  -1   29.02    3.34
  -2  13  -1    6.19    2.50
  -1  13  -1   15.05    3.66
   0  13  -1    8.24    2.88
   1  13  -1   70.78    7.94
 -12  14  -1    5.85    1.78
 -11  14  -1   73.58    4.16
 -10  14  -1   16.77    2.58
  -9  14  -1    3.07    1.33
  -8  14  -1    3.83    1.39
  -7  14  -1   19.39    2.76
  -6  14  -1    3.43    1.32
  -5  14  -1   19.66    2.83
  -4  14  -1   70.16    4.96
  -3  14  -1   68.65    7.59
  -2  14  -1   59.68    7.29
 -11  15  -1   10.70    3.13
 -10  15  -1    7.01    1.96
  -9  15  -1    2.45    1.25
  -8  15  -1   67.94    4.92
  -7  15  -1    9.09    1.96
  -6  15  -1   79.21    5.35
  -5  15  -1    5.98    1.93
  -4  15  -1    1.34    1.87
   4 -15   0   27.70    2.93
   5 -15   0    3.51    1.18
   6 -15   0    2.12    1.20
   7 -15   0    6.85    1.92
   8 -15   0   52.59    4.87
   9 -15   0   98.20    5.74
  10 -15   0   39.11    4.26
  11 -15   0   12.52    2.60
   1 -14   0  155.74   10.71
   2 -14   0   30.84    3.08
   3 -14   0   10.93    1.79
   4 -14   0    1.42    0.84
   5 -14   0   -0.01    0.80
   6 -14   0   33.65    3.70
   7 -14   0    0.76    0.84
   8 -14   0    8.55    1.91
   9 -14   0   36.82    3.81
  10 -14   0   15.22    2.08
  11 -14   0   40.66    3.37
  12 -14   0   13.75    2.07
  13 -14   0   -0.72    1.53
  -1 -13   0    0.77    1.80
   0 -13   0    0.91    1.14
   1 -13   0   26.24    2.71
   2 -13   0    3.21    1.02
   3 -13   0    0.21    0.62
   4 -13   0    9.54    1.94
   5 -13   0  160.62    6.80
   6 -13   0   86.40    4.77
   7 -13   0   27.48    3.17
   8 -13   0    4.47    1.06
   9 -13   0   38.43    3.08
  10 -13   0   26.98    2.54
  11 -13   0   73.44    3.76
  12 -13   0    1.83    1.07
  13 -13   0    1.49    1.08
  -2 -12   0   12.37    2.36
  -1 -12   0    1.56    1.04
   0 -12   0    2.85    0.86
   1 -12   0    0.09    0.58
   2 -12   0  102.42    4.15
   3 -12   0   39.23    2.97
   4 -12   0   84.83    4.52
   5 -12   0   14.11    2.18
   6 -12   0    0.40    0.51
   7 -12   0    1.72    0.70
   8 -12   0   11.67    1.48
   9 -12   0    3.96    0.99
  10 -12   0   74.01    3.75
  11 -12   0   82.74    4.68
  12 -12   0    1.68    1.08
  13 -12   0   17.78    2.75
  14 -12   0   33.68    3.90
  -3 -11   0   37.71    4.03
  -2 -11   0   73.71    4.54
  -1 -11   0   77.61    3.63
   0 -11   0   24.28    2.28
   1 -11   0    2.77    0.86
   2 -11   0    5.54    1.10
   3 -11   0   71.46    3.94
   4 -11   0   20.45    2.42
   5 -11   0   88.12    3.38
   6 -11   0    2.32    0.74
   7 -11   0  519.52   10.89
   8 -11   0    7.13    1.24
   9 -11   0   73.22    4.06
  10 -11   0    6.33    1.49
  11 -11   0   23.13    2.86
  12 -11   0   -0.98    0.56
  13 -11   0    3.67    1.39
  14 -11   0   11.30    2.16
  15 -11   0   24.09    4.78
  -5 -10   0   43.22    6.17
  -4 -10   0   19.86    2.97
  -3 -10   0   30.99    3.31
  -2 -10   0   73.24    3.43
  -1 -10   0    4.64    0.99
   0 -10   0   43.71    2.90
   1 -10   0   45.08    2.53
   2 -10   0    0.84    0.68
   3 -10   0   60.36    3.39
   4 -10   0   71.94    2.84
   5 -10   0    1.39    0.57
   6 -10   0   12.02    1.40
   7 -10   0   15.09    1.56
   8 -10   0    4.60    1.12
   9 -10   0   34.36    3.17
  10 -10   0   38.70    3.44
  11 -10   0    2.58    1.04
  12 -10   0  103.77    4.29
  13 -10   0   -0.02    0.60
  14 -10   0    0.88    0.78
  15 -10   0    4.66    1.34
  -6  -9   0  114.63    8.54
  -5  -9   0   49.54    4.50
  -4  -9   0   36.26    3.80
  -3  -9   0    3.70    0.91
  -2  -9   0   72.13    3.21
  -1  -9   0   40.00    2.48
   0  -9   0  266.01    6.59
   1  -9   0    1.21    0.54
   2  -9   0   12.09    1.27
   3  -9   0  309.75    6.79
   4  -9   0    0.16    0.34
   5  -9   0  160.92    4.43
   6  -9   0   -0.11    0.28
   7  -9   0  129.55    4.97
   8  -9   0   28.09    2.65
   9  -9   0  262.20    6.46
  10  -9   0   45.67    2.53
  11  -9   0    4.98    1.06
  12  -9   0   47.62    3.32
  13  -9   0    8.59    1.47
  14  -9   0   -0.08    0.70
  15  -9   0    2.35    1.05
  -7  -8   0   40.32    5.93
  -6  -8   0    4.81    1.56
  -5  -8   0    6.06    1.59
  -4  -8   0    9.73    1.51
  -3  -8   0    6.08    1.08
  -2  -8   0    5.89    1.02
  -1  -8   0   31.78    2.20
   0  -8   0  178.63    4.80
   1  -8   0    0.53    0.36
   2  -8   0   76.10    2.60
   3  -8   0  115.32    3.34
   4  -8   0   -0.10    0.24
   5  -8   0  130.48    3.77
   6  -8   0   13.85    1.22
   7  -8   0   18.86    1.54
   8  -8   0  171.86    4.65
   9  -8   0    1.11    0.46
  10  -8   0    0.86    0.46
  11  -8   0   66.03    3.04
  12  -8   0   74.03    3.43
  13  -8   0  145.46    5.26
  14  -8   0   35.52    3.14
  15  -8   0    3.85    1.20
  -8  -7   0    6.13    2.62
  -7  -7   0   -0.43    0.74
  -6  -7   0   28.12    3.24
  -5  -7   0    2.37    1.01
  -4  -7   0  534.80   10.83
  -3  -7   0   15.36    1.56
  -2  -7   0  131.41    3.95
  -1  -7   0   16.49    1.45
   0  -7   0   73.46    2.15
   1  -7   0    1.42    0.40
   2  -7   0   98.02    2.84
   3  -7   0  116.05    3.21
   4  -7   0  161.87    3.21
   5  -7   0  432.86    8.03
   6  -7   0  171.65    4.15
   7  -7   0   74.38    2.59
   8  -7   0    0.42    0.34
   9  -7   0   11.03    1.32
  10  -7   0   58.15    2.68
  11  -7   0   20.78    1.93
  12  -7   0   14.89    1.71
  13  -7   0   78.71    3.69
  14  -7   0    0.55    0.62
  15  -7   0   51.28    3.92
  -9  -6   0    0.79    1.58
  -8  -6   0   32.23    5.17
  -7  -6   0   82.81    4.62
  -6  -6   0    0.19    0.60
  -5  -6   0    2.86    0.78
  -4  -6   0   16.37    1.61
  -3  -6   0    0.13    0.32
  -2  -6   0   13.78    1.29
  -1  -6   0  175.81    3.56
   0  -6   0   20.37    1.10
   1  -6   0  363.15    6.97
   2  -6   0    2.55    0.49
   3  -6   0   25.61    0.93
   4  -6   0    0.28    0.22
   5  -6   0    5.48    0.70
   6  -6   0   21.93    1.36
   7  -6   0    1.65    0.49
   8  -6   0   73.74    2.71
   9  -6   0  306.29    7.00
  10  -6   0   68.71    3.55
  11  -6   0   86.65    4.24
  12  -6   0    0.07    0.55
  13  -6   0   24.55    3.06
  14  -6   0    7.95    1.75
  15  -6   0  108.91    5.92
 -10  -5   0    5.27    2.35
  -9  -5   0   -1.33    1.08
  -8  -5   0  160.17    6.68
  -7  -5   0   10.78    1.86
  -6  -5   0   87.55    3.33
  -5  -5   0    1.05    0.53
  -4  -5   0  170.16    4.46
  -3  -5   0  138.77    3.06
  -2  -5   0  439.03    7.00
  -1  -5   0    6.50    0.62
   0  -5   0    8.77    0.80
   1  -5   0  182.09    4.62
   2  -5   0  140.24    3.21
   3  -5   0    0.15    0.18
   4  -5   0    0.27    0.20
   5  -5   0    8.24    0.47
   6  -5   0  378.34    5.94
   7  -5   0   93.92    2.61
   8  -5   0  112.82    3.16
   9  -5   0    0.25    0.33
  10  -5   0    1.16    0.56
  11  -5   0    1.97    0.87
  12  -5   0    2.15    0.89
  13  -5   0    5.31    1.51
  14  -5   0   34.21    3.63
  15  -5   0   39.42    4.24
 -10  -4   0   -0.15    1.30
  -9  -4   0   10.94    2.00
  -8  -4   0   76.85    4.29
  -7  -4   0   22.43    1.97
  -6  -4   0   74.55    2.88
  -5  -4   0   -0.01    0.33
  -4  -4   0    0.10    0.21
  -3  -4   0  159.78    3.28
  -2  -4   0    0.16    0.19
  -1  -4   0    0.12    0.17
   0  -4   0  168.06    3.47
   1  -4   0  232.48    4.45
   2  -4   0  727.62    9.96
   3  -4   0  555.97    9.14
   4  -4   0  165.72    2.84
   5  -4   0  182.75    3.67
   6  -4   0    3.50    0.52
   7  -4   0  114.74    3.09
   8  -4   0   -0.15    0.25
   9  -4   0  152.05    4.23
  10  -4   0   13.49    1.42
  11  -4   0  516.03   10.70
  12  -4   0   10.30    1.49
  13  -4   0   39.52    3.77
  14  -4   0   14.74    2.37
 -11  -3   0    8.37    2.83
 -10  -3   0    0.00    0.75
  -9  -3   0   43.18    3.77
  -8  -3   0   69.55    2.99
  -7  -3   0   61.93    2.63
  -6  -3   0  302.58    6.78
  -5  -3   0  113.31    2.76
  -4  -3   0  121.05    2.71
  -3  -3   0   28.12    1.07
  -2  -3   0    0.08    0.16
  -1  -3   0  549.94    7.90
   0  -3   0    6.35    0.54
   1  -3   0   70.35    1.69
   2  -3   0  164.68    3.62
   3  -3   0    5.67    0.34
   4  -3   0  235.12    4.34
   5  -3   0  140.28    3.15
   6  -3   0   25.15    1.27
   7  -3   0  162.28    3.97
   8  -3   0  133.66    3.71
   9  -3   0   -0.24    0.26
  10  -3   0   18.76    1.75
  11  -3   0    7.91    1.23
  12  -3   0    4.99    1.06
  13  -3   0   28.79    2.62
  14  -3   0   27.42    5.02
 -12  -2   0   29.90    5.30
 -11  -2   0    6.12    2.28
 -10  -2   0  105.08    5.24
  -9  -2   0    5.13    1.03
  -8  -2   0    1.09    0.53
  -7  -2   0   11.84    1.07
  -6  -2   0   74.47    2.20
  -5  -2   0   93.44    2.36
  -4  -2   0    3.01    0.43
  -3  -2   0  143.35    2.74
  -2  -2   0  709.60   10.02
  -1  -2   0  163.69    2.67
   0  -2   0  182.62    3.18
   1  -2   0    1.46    0.25
   2  -2   0  178.24    3.22
   3  -2   0   71.54    1.65
   4  -2   0  707.92   11.61
   5  -2   0    0.17    0.19
   6  -2   0    0.18    0.21
   7  -2   0  430.27    8.30
   8  -2   0   15.52    1.40
   9  -2   0  123.60    3.88
  10  -2   0    3.82    0.85
  11  -2   0   78.31    3.31
  12  -2   0   76.70    3.47
  13  -2   0   74.75    4.61
  14  -2   0   17.67    2.85
 -12  -1   0   18.11    4.00
 -11  -1   0    0.66    0.76
 -10  -1   0    4.31    1.19
  -9  -1   0   45.63    2.58
  -8  -1   0    2.06    0.59
  -7  -1   0   -0.11    0.23
  -6  -1   0    2.01    0.34
  -5  -1   0  373.32    5.27
  -4  -1   0  182.91    3.33
  -3  -1   0  238.34    3.86
  -2  -1   0   71.64    1.65
  -1  -1   0    1.59    0.19
   0  -1   0    4.34    0.31
   1  -1   0    4.80    0.25
   2  -1   0    1.69    0.24
   3  -1   0  162.63    2.60
   4  -1   0  547.04    7.84
   5  -1   0    0.07    0.15
   6  -1   0    6.89    0.61
   7  -1   0  171.53    3.47
   8  -1   0   15.59    1.42
   9  -1   0   23.41    1.90
  10  -1   0   42.88    2.43
  11  -1   0    3.85    0.93
  12  -1   0   80.19    4.64
  13  -1   0    1.20    1.01
  14  -1   0    0.22    1.68
 -13   0   0    0.96    1.43
 -12   0   0    2.86    1.24
 -11   0   0   26.04    3.11
 -10   0   0   46.94    2.57
  -9   0   0  276.72    6.55
  -8   0   0  179.28    4.73
  -7   0   0   75.48    2.21
  -6   0   0   20.74    0.85
  -5   0   0    7.77    0.54
  -4   0   0  167.57    2.61
  -3   0   0    5.80    0.37
  -2   0   0  175.64    2.41
  -1   0   0    4.58    0.22
   1   0   0    4.49    0.25
   2   0   0  179.61    3.82
   3   0   0    6.61    0.55
   4   0   0  164.68    2.96
   5   0   0    8.25    0.66
   6   0   0   21.47    1.06
   7   0   0   73.96    2.11
   8   0   0  183.59    4.79
   9   0   0  267.09    6.48
  10   0   0   44.22    2.63
  11   0   0   25.15    2.97
  12   0   0    4.77    1.49
  13   0   0    0.32    0.96
 -13   1   0    0.32    1.13
 -12   1   0   86.58    4.84
 -11   1   0    3.66    0.94
 -10   1   0   39.15    2.44
  -9   1   0   26.90    2.03
  -8   1   0   15.98    1.43
  -7   1   0  171.35    4.26
  -6   1   0    6.13    0.54
  -5   1   0    0.24    0.15
  -4   1   0  553.30    7.04
  -3   1   0  160.12    2.36
  -2   1   0    1.36    0.18
  -1   1   0    4.36    0.22
   0   1   0    4.49    0.21
   1   1   0    1.81    0.18
   2   1   0   71.02    1.41
   3   1   0  237.41    3.76
   4   1   0  176.12    3.16
   5   1   0  367.46    5.97
   6   1   0    1.15    0.36
   7   1   0    0.08    0.26
   8   1   0    1.11    0.44
   9   1   0   44.93    2.59
  10   1   0    4.85    1.37
  11   1   0    0.27    0.74
  12   1   0   13.36    2.37
  13   1   0  156.36   10.55
 -14   2   0   16.17    3.98
 -13   2   0   74.24    4.90
 -12   2   0   74.88    3.42
 -11   2   0   76.04    3.24
 -10   2   0    4.13    0.88
  -9   2   0  130.50    3.95
  -8   2   0   13.90    1.30
  -7   2   0  429.19    6.84
  -6   2   0    0.14    0.18
  -5   2   0    0.09    0.16
  -4   2   0  720.13   10.02
  -3   2   0   70.12    1.46
  -2   2   0  178.57    2.43
  -1   2   0    1.38    0.19
   0   2   0  181.14    2.75
   1   2   0  164.65    2.63
   2   2   0  743.01    9.99
   3   2   0  142.69    2.67
   4   2   0    3.45    0.44
   5   2   0   94.15    2.26
   6   2   0   76.43    2.17
   7   2   0   14.01    1.15
   8   2   0    0.54    0.47
   9   2   0    3.62    1.13
  10   2   0  107.31    5.23
  11   2   0    4.69    1.50
  12   2   0   35.62    3.96
 -14   3   0   38.04    5.84
 -13   3   0   27.91    2.56
 -12   3   0    4.57    1.04
 -11   3   0    7.54    1.16
 -10   3   0   18.14    1.72
  -9   3   0   -0.02    0.28
  -8   3   0  135.83    3.79
  -7   3   0  162.66    3.23
  -6   3   0   25.33    0.98
  -5   3   0  142.87    2.74
  -4   3   0  235.16    3.89
  -3   3   0    5.37    0.36
  -2   3   0  163.88    2.69
  -1   3   0   73.14    1.42
   0   3   0    6.30    0.34
   1   3   0  558.39    7.81
   2   3   0    0.29    0.19
   3   3   0   25.78    1.00
   4   3   0  119.79    2.65
   5   3   0  117.29    2.74
   6   3   0  306.70    5.64
   7   3   0   53.88    2.42
   8   3   0   69.17    2.92
   9   3   0   42.33    3.74
  10   3   0    0.26    0.78
  11   3   0   14.73    3.74
 -14   4   0   17.26    2.81
 -13   4   0   40.50    3.09
 -12   4   0   12.86    1.67
 -11   4   0  521.85   10.89
 -10   4   0   13.46    1.43
  -9   4   0  160.34    4.47
  -8   4   0    0.29    0.24
  -7   4   0  118.44    2.67
  -6   4   0    3.15    0.45
  -5   4   0  177.56    3.34
  -4   4   0  167.91    2.63
  -3   4   0  563.24    7.93
  -2   4   0  730.13    8.90
  -1   4   0  240.11    3.81
   0   4   0  167.87    2.53
   1   4   0    0.38    0.17
   2   4   0    0.08    0.18
   3   4   0  164.70    3.28
   4   4   0    0.12    0.25
   5   4   0    0.32    0.30
   6   4   0   67.96    2.70
   7   4   0   21.29    1.91
   8   4   0   76.94    3.25
   9   4   0   10.17    2.87
  10   4   0   -0.48    1.14
 -15   5   0   36.36    5.65
 -14   5   0   37.21    3.08
 -13   5   0    4.87    1.09
 -12   5   0    2.39    0.73
 -11   5   0    1.75    0.62
 -10   5   0    0.93    0.47
  -9   5   0    0.53    0.35
  -8   5   0  109.18    2.75
  -7   5   0   91.57    2.37
  -6   5   0  360.61    6.08
  -5   5   0    8.40    0.57
  -4   5   0    0.10    0.16
  -3   5   0    0.17    0.17
  -2   5   0  143.00    2.62
  -1   5   0  179.52    3.25
   0   5   0    7.05    0.63
   1   5   0    6.83    0.58
   2   5   0  436.14    6.86
   3   5   0  131.47    2.97
   4   5   0  158.18    3.53
   5   5   0    1.48    0.52
   6   5   0   79.18    3.94
   7   5   0   15.64    2.17
   8   5   0  160.08    6.35
   9   5   0   -0.71    1.01
  10   5   0    5.79    2.40
 -15   6   0  106.31    4.68
 -14   6   0    7.99    1.39
 -13   6   0   19.22    2.08
 -12   6   0    0.11    0.48
 -11   6   0   84.70    3.43
 -10   6   0   65.80    2.85
  -9   6   0  311.00    5.78
  -8   6   0   74.22    2.23
  -7   6   0    1.12    0.33
  -6   6   0   19.06    1.38
  -5   6   0    6.70    0.62
  -4   6   0    0.19    0.20
  -3   6   0   25.93    0.84
  -2   6   0    4.02    0.45
  -1   6   0  366.73    5.96
   0   6   0   19.36    1.10
   1   6   0  174.15    4.18
   2   6   0   11.97    1.18
   3   6   0    0.04    0.31
   4   6   0   15.22    1.51
   5   6   0    4.69    1.16
   6   6   0   -0.15    0.50
   7   6   0   77.87    4.32
   8   6   0   28.90    3.31
   9   6   0    1.04    1.36
 -15   7   0   44.78    3.45
 -14   7   0    0.81    0.73
 -13   7   0   79.57    3.65
 -12   7   0   14.75    1.74
 -11   7   0   23.74    2.15
 -10   7   0   53.78    2.60
  -9   7   0   13.34    1.19
  -8   7   0    0.09    0.26
  -7   7   0   73.03    2.55
  -6   7   0  173.34    3.47
  -5   7   0  436.60    7.04
  -4   7   0  160.01    3.38
  -3   7   0  119.76    2.52
  -2   7   0   95.62    2.29
  -1   7   0    2.06    0.42
   0   7   0   71.58    2.13
   1   7   0   18.04    1.52
   2   7   0  132.25    3.84
   3   7   0   16.23    1.62
   4   7   0  517.09   13.16
   5   7   0    2.44    0.97
   6   7   0   24.80    2.83
   7   7   0    0.57    0.92
   8   7   0    5.21    2.24
 -15   8   0    4.42    1.22
 -14   8   0   33.27    2.93
 -13   8   0  147.84    5.24
 -12   8   0   73.29    3.38
 -11   8   0   67.00    3.10
 -10   8   0    0.62    0.40
  -9   8   0    1.26    0.50
  -8   8   0  179.55    4.69
  -7   8   0   16.38    1.48
  -6   8   0   16.26    1.14
  -5   8   0  130.98    3.11
  -4   8   0    0.38    0.32
  -3   8   0  109.98    3.26
  -2   8   0   72.70    2.11
  -1   8   0    0.13    0.26
   0   8   0  174.91    3.94
   1   8   0   23.92    1.84
   2   8   0    3.99    0.87
   3   8   0    6.26    1.11
   4   8   0   10.16    1.81
   5   8   0    5.30    1.45
   6   8   0    8.49    1.75
   7   8   0   53.56    6.87
 -15   9   0    0.19    0.80
 -14   9   0    0.49    0.68
 -13   9   0    8.61    1.77
 -12   9   0   44.24    3.91
 -11   9   0    4.79    1.20
 -10   9   0   40.12    2.39
  -9   9   0  260.93    6.44
  -8   9   0   24.73    1.95
  -7   9   0  129.51    3.95
  -6   9   0    0.14    0.28
  -5   9   0  157.58    3.68
  -4   9   0    0.08    0.33
  -3   9   0  300.25    6.71
  -2   9   0   13.33    1.43
  -1   9   0    1.13    0.43
   0   9   0  267.79    5.48
   1   9   0   39.98    2.40
   2   9   0   82.67    3.25
   3   9   0    3.67    0.93
   4   9   0   38.70    3.60
   5   9   0   39.35    3.88
   6   9   0  108.64    5.74
 -15  10   0    4.60    1.55
 -14  10   0    0.58    0.96
 -13  10   0   -0.40    0.64
 -12  10   0  102.64    5.13
 -11  10   0    4.22    1.26
 -10  10   0   43.52    2.58
  -9  10   0   38.43    2.39
  -8  10   0    5.87    1.05
  -7  10   0   13.26    1.46
  -6  10   0   14.63    1.26
  -5  10   0    1.10    0.47
  -4  10   0   67.76    2.71
  -3  10   0   50.83    2.39
  -2  10   0    0.58    0.46
  -1  10   0   44.63    2.87
   0  10   0   42.58    3.06
   1  10   0    7.18    1.46
   2  10   0   81.15    3.44
   3  10   0   27.90    3.02
   4  10   0   16.38    2.51
   5  10   0   40.41    4.06
 -15  11   0   20.08    4.44
 -14  11   0    9.51    2.02
 -13  11   0    4.66    1.53
 -12  11   0    0.67    0.76
 -11  11   0   21.38    2.13
 -10  11   0    3.89    0.92
  -9  11   0   78.26    3.29
  -8  11   0    6.90    1.18
  -7  11   0  511.17   10.79
  -6  11   0    3.46    0.82
  -5  11   0   87.62    3.26
  -4  11   0   21.42    1.98
  -3  11   0   67.30    2.93
  -2  11   0    2.94    0.83
  -1  11   0    2.46    0.76
   0  11   0   21.51    2.67
   1  11   0   80.27    4.39
   2  11   0   69.36    4.35
   3  11   0   26.31    4.53
 -14  12   0   28.88    3.55
 -13  12   0   15.09    1.99
 -12  12   0    2.98    1.11
 -11  12   0   85.83    3.72
 -10  12   0   79.69    3.49
  -9  12   0    4.91    1.05
  -8  12   0   11.31    1.54
  -7  12   0    2.43    1.00
  -6  12   0    0.58    0.48
  -5  12   0   15.18    1.68
  -4  12   0   78.79    3.33
  -3  12   0   44.10    2.99
  -2  12   0  105.58    4.09
  -1  12   0   -0.16    0.72
   0  12   0    2.93    1.19
   1  12   0    1.23    1.10
   2  12   0   13.20    3.30
 -13  13   0    0.35    0.99
 -12  13   0    0.66    1.02
 -11  13   0   65.79    3.71
 -10  13   0   25.61    2.40
  -9  13   0   37.93    2.97
  -8  13   0    3.78    1.22
  -7  13   0   29.11    3.13
  -6  13   0   78.94    3.92
  -5  13   0  158.00    5.11
  -4  13   0   10.83    1.52
  -3  13   0    0.02    0.60
  -2  13   0    2.51    1.00
  -1  13   0   19.58    2.67
   0  13   0    0.20    1.10
 -12  14   0   13.42    2.01
 -11  14   0   26.35    2.63
 -10  14   0   15.76    2.45
  -9  14   0   49.46    4.22
  -8  14   0    7.02    1.70
  -7  14   0   -0.15    0.79
  -6  14   0   31.89    3.55
  -5  14   0   -0.23    0.84
  -4  14   0    0.42    0.75
  -3  14   0    9.49    1.70
  -2  14   0   32.55    3.58
  -1  14   0  142.78    9.68
 -11  15   0   12.48    3.36
 -10  15   0   37.23    3.96
  -9  15   0  103.22    5.60
  -8  15   0   48.61    4.58
  -7  15   0    6.75    1.80
  -6  15   0    1.77    1.22
  -5  15   0    3.90    1.56
  -4  15   0   21.81    4.43
   4 -15   1    1.53    1.36
   5 -15   1    5.12    1.40
   6 -15   1   76.35    4.31
   7 -15   1   10.16    2.28
   8 -15   1   70.18    5.74
   9 -15   1    2.65    1.41
  10 -15   1    3.49    1.49
   1 -14   1   -0.99    1.19
   2 -14   1   62.72    4.30
   3 -14   1   55.39    4.02
   4 -14   1   71.47    4.03
   5 -14   1   18.31    2.26
   6 -14   1    3.06    1.29
   7 -14   1   25.60    3.34
   8 -14   1    3.23    1.34
   9 -14   1    5.32    1.56
  10 -14   1   10.36    2.13
  11 -14   1   82.72    4.12
  12 -14   1    4.21    1.32
  13 -14   1   71.63    8.69
   0 -13   1    6.11    1.64
   1 -13   1   14.90    2.06
   2 -13   1    6.56    1.41
   3 -13   1   27.57    2.68
   4 -13   1   26.29    2.61
   5 -13   1    0.32    0.77
   6 -13   1    0.40    0.71
   7 -13   1   73.27    4.47
   8 -13   1   22.56    2.90
   9 -13   1   62.72    3.48
  10 -13   1    2.37    0.96
  11 -13   1    8.99    1.59
  12 -13   1   22.07    3.13
  13 -13   1    4.87    1.71
  -2 -12   1    2.41    1.59
  -1 -12   1   25.69    3.28
   0 -12   1   67.42    3.72
   1 -12   1   51.85    3.59
   2 -12   1    2.79    0.87
   3 -12   1    3.37    0.96
   4 -12   1  111.49    5.33
   5 -12   1   10.56    1.95
   6 -12   1   24.61    2.91
   7 -12   1   11.47    2.00
   8 -12   1    1.80    0.73
   9 -12   1   28.58    2.54
  10 -12   1    1.38    0.72
  11 -12   1    1.97    1.07
  12 -12   1   70.35    4.47
  13 -12   1   16.01    2.68
  14 -12   1   49.61    4.84
  -3 -11   1   78.48    6.96
  -2 -11   1    9.59    1.88
  -1 -11   1    2.18    0.90
   0 -11   1   36.03    2.83
   1 -11   1   31.91    2.63
   2 -11   1   60.30    3.01
   3 -11   1   51.30    3.08
   4 -11   1   51.14    3.57
   5 -11   1  126.05    5.45
   6 -11   1   14.80    1.62
   7 -11   1    4.09    0.91
   8 -11   1    3.51    0.88
   9 -11   1  110.32    5.14
  10 -11   1   15.02    2.22
  11 -11   1   34.94    3.54
  12 -11   1   53.43    4.57
  13 -11   1    5.57    1.56
  14 -11   1   60.34    5.25
  -5 -10   1    3.55    2.37
  -4 -10   1   17.74    3.93
  -3 -10   1    2.51    1.15
  -2 -10   1    1.23    0.66
  -1 -10   1   11.49    1.58
   0 -10   1  135.93    4.60
   1 -10   1   10.95    1.47
   2 -10   1  187.25    5.43
   3 -10   1    3.01    0.96
   4 -10   1    5.26    1.20
   5 -10   1   30.24    1.97
   6 -10   1   11.52    1.36
   7 -10   1    5.79    1.04
   8 -10   1   29.47    2.78
   9 -10   1    1.40    0.69
  10 -10   1  138.57    5.82
  11 -10   1   32.81    3.38
  12 -10   1    2.13    1.01
  13 -10   1   24.02    2.55
  14 -10   1   77.46    3.89
  15 -10   1    3.54    1.34
  -6  -9   1    2.46    1.87
  -5  -9   1    4.77    2.17
  -4  -9   1   67.63    4.09
  -3  -9   1   30.65    2.60
  -2  -9   1  116.97    4.26
  -1  -9   1    1.34    0.57
   0  -9   1    5.63    1.00
   1  -9   1   34.88    2.43
   2  -9   1   27.28    2.07
   3  -9   1    1.19    0.63
   4  -9   1    2.59    0.65
   5  -9   1  200.80    5.22
   6  -9   1   23.22    1.82
   7  -9   1  227.66    7.09
   8  -9   1   14.09    1.87
   9  -9   1    4.01    0.79
  10  -9   1   10.15    1.33
  11  -9   1   58.38    3.04
  12  -9   1    2.73    0.81
  13  -9   1   19.98    2.28
  14  -9   1   18.57    2.25
  15  -9   1   83.89    4.24
  -7  -8   1   72.05    8.03
  -6  -8   1    4.53    2.14
  -5  -8   1   29.85    3.19
  -4  -8   1    1.90    0.72
  -3  -8   1    3.89    0.92
  -2  -8   1   29.73    2.31
  -1  -8   1   11.89    1.35
   0  -8   1    5.23    0.86
   1  -8   1  178.17    4.89
   2  -8   1   68.41    2.60
   3  -8   1  213.37    4.96
   4  -8   1   79.96    2.73
   5  -8   1    3.49    0.67
   6  -8   1    0.71    0.35
   7  -8   1   34.31    1.80
   8  -8   1    5.37    0.85
   9  -8   1   28.93    2.21
  10  -8   1  181.26    5.31
  11  -8   1   53.83    2.93
  12  -8   1   96.22    4.06
  13  -8   1    1.02    0.68
  14  -8   1    2.39    0.97
  15  -8   1   12.54    2.02
  -8  -7   1    8.14    2.73
  -7  -7   1   24.37    4.57
  -6  -7   1   72.02    4.16
  -5  -7   1   17.13    1.86
  -4  -7   1    3.45    0.85
  -3  -7   1    5.56    0.96
  -2  -7   1  235.39    5.81
  -1  -7   1   32.56    1.98
   0  -7   1  151.84    4.15
   1  -7   1  119.52    2.79
   2  -7   1   21.29    1.27
   3  -7   1  202.54    4.59
   4  -7   1    2.90    0.43
   5  -7   1    9.89    0.94
   6  -7   1  267.59    5.71
   7  -7   1  148.53    4.04
   8  -7   1  184.97    4.91
   9  -7   1   29.27    2.15
  10  -7   1    4.19    1.08
  11  -7   1   58.08    3.48
  12  -7   1    8.67    1.70
  13  -7   1    0.44    0.75
  14  -7   1   20.82    2.87
  15  -7   1   74.66    5.31
  -9  -6   1   91.83    7.67
  -8  -6   1    3.17    1.69
  -7  -6   1    2.28    1.02
  -6  -6   1   27.86    2.86
  -5  -6   1   14.55    1.60
  -4  -6   1   11.65    1.31
  -3  -6   1   21.77    1.80
  -2  -6   1   -0.02    0.31
  -1  -6   1  271.20    5.91
   0  -6   1   38.88    1.30
   1  -6   1    9.68    0.83
   2  -6   1  195.87    4.20
   3  -6   1  339.40    5.37
   4  -6   1   39.60    1.48
   5  -6   1   30.98    1.07
   6  -6   1   40.03    1.33
   7  -6   1  117.93    2.78
   8  -6   1   65.40    3.08
   9  -6   1    1.06    0.59
  10  -6   1    4.91    1.17
  11  -6   1  118.36    5.30
  12  -6   1   30.44    3.21
  13  -6   1   70.73    4.33
  14  -6   1    3.75    1.32
  15  -6   1    2.26    1.24
 -10  -5   1    6.33    3.00
  -8  -5   1    0.78    0.81
  -7  -5   1    6.53    1.40
  -6  -5   1  127.39    4.24
  -5  -5   1   31.14    2.21
  -4  -5   1  204.70    5.23
  -3  -5   1    2.22    0.57
  -2  -5   1   10.37    1.07
  -1  -5   1   30.90    0.97
   0  -5   1  200.54    3.60
   1  -5   1   25.89    1.06
   2  -5   1   62.27    1.41
   3  -5   1  103.03    2.44
   4  -5   1  399.69    6.03
   5  -5   1  197.36    3.66
   6  -5   1   11.30    0.93
   7  -5   1   21.21    1.28
   8  -5   1  212.82    4.95
   9  -5   1    1.53    0.52
  10  -5   1   28.30    1.90
  11  -5   1   15.00    2.14
  12  -5   1   14.00    2.16
  13  -5   1   29.29    3.31
  14  -5   1    4.70    1.45
  15  -5   1    6.61    2.09
 -10  -4   1   60.77    7.42
  -9  -4   1   25.61    2.95
  -8  -4   1  104.75    4.89
  -7  -4   1   57.71    2.70
  -6  -4   1    5.14    0.81
  -5  -4   1    1.69    0.48
  -4  -4   1   78.41    2.74
  -3  -4   1    3.09    0.55
  -2  -4   1   40.15    1.66
  -1  -4   1  392.34    7.27
   0  -4   1  170.41    3.02
   1  -4   1  445.48    7.48
   2  -4   1   15.46    0.65
   3  -4   1   12.75    0.78
   4  -4   1  175.07    3.57
   5  -4   1   26.42    1.14
   6  -4   1  195.39    3.37
   7  -4   1  199.92    4.65
   8  -4   1   81.40    2.78
   9  -4   1  198.07    5.20
  10  -4   1   10.01    1.27
  11  -4   1    3.37    0.85
  12  -4   1    3.77    0.95
  13  -4   1   68.68    4.31
  14  -4   1   19.01    2.83
 -11  -3   1   47.44    6.58
 -10  -3   1   27.12    4.79
  -9  -3   1    3.47    1.11
  -8  -3   1   57.90    3.37
  -7  -3   1    5.70    0.97
  -6  -3   1    1.75    0.47
  -5  -3   1  214.06    4.32
  -4  -3   1  199.53    4.70
  -3  -3   1  339.92    6.56
  -2  -3   1  106.17    2.71
  -1  -3   1   11.83    0.81
   0  -3   1  191.63    3.07
   1  -3   1   17.97    0.73
   2  -3   1   38.95    1.19
   3  -3   1  197.42    3.69
   4  -3   1  449.81    6.48
   5  -3   1   60.08    1.44
   6  -3   1  333.57    5.33
   7  -3   1    2.30    0.54
   8  -3   1    1.95    0.56
   9  -3   1   22.77    1.86
  10  -3   1    6.76    1.07
  11  -3   1    4.04    0.94
  12  -3   1   30.35    2.63
  13  -3   1    1.96    0.85
  14  -3   1   82.41    4.98
 -12  -2   1   46.44    6.34
 -11  -2   1    4.87    2.20
 -10  -2   1    2.37    0.99
  -9  -2   1   60.00    3.79
  -8  -2   1  183.27    5.18
  -7  -2   1   25.20    1.91
  -6  -2   1   69.90    2.09
  -5  -2   1   20.80    1.25
  -4  -2   1  196.13    4.35
  -3  -2   1   58.58    1.87
  -2  -2   1   15.97    0.91
  -1  -2   1   37.73    1.21
   0  -2   1  510.46    7.06
   1  -2   1  146.77    3.33
   3  -2   1   19.07    0.77
   4  -2   1   14.96    0.74
   5  -2   1  101.32    2.42
   6  -2   1   42.26    1.30
   7  -2   1   10.83    0.82
   8  -2   1    0.39    0.36
   9  -2   1  233.79    5.87
  10  -2   1   30.80    2.34
  11  -2   1  119.30    4.32
  12  -2   1    2.05    0.88
  13  -2   1    6.22    1.34
  14  -2   1    5.01    1.69
 -12  -1   1   17.80    4.02
 -11  -1   1   63.48    4.19
 -10  -1   1   28.85    3.04
  -9  -1   1   10.37    1.37
  -8  -1   1   30.37    2.13
  -7  -1   1  187.29    3.99
  -6  -1   1  120.92    2.83
  -5  -1   1   10.00    0.80
  -4  -1   1   24.91    0.98
  -3  -1   1  441.19    6.59
  -2  -1   1   19.18    0.69
  -1  -1   1  142.47    2.60
   0  -1   1   39.70    0.94
   2  -1   1  145.33    3.27
   3  -1   1   41.13    0.96
   4  -1   1   11.67    0.73
   5  -1   1  399.71    7.08
   6  -1   1   33.17    1.36
   7  -1   1  267.40    4.87
   8  -1   1   30.92    1.97
   9  -1   1   12.59    1.45
  10  -1   1    1.55    0.65
  11  -1   1   14.85    1.80
  12  -1   1    1.33    0.77
  13  -1   1   23.50    3.16
  14  -1   1   67.54    8.12
 -13   0   1    7.38    2.84
 -12   0   1   75.92    4.46
 -11   0   1   42.88    3.77
 -10   0   1  136.89    5.54
  -9   0   1    6.09    1.02
  -8   0   1    5.85    0.88
  -7   0   1  153.84    3.36
  -6   0   1   38.11    1.37
  -5   0   1  201.54    3.72
  -4   0   1  172.47    3.16
  -3   0   1  195.92    3.20
  -2   0   1  509.18    7.12
  -1   0   1   41.87    1.03
   0   0   1    0.42    0.14
   1   0   1   41.73    1.02
   2   0   1  517.24    7.13
   3   0   1  198.44    3.78
   4   0   1  171.22    3.68
   5   0   1  197.83    4.32
   6   0   1   37.50    1.61
   7   0   1  142.56    3.86
   8   0   1    5.68    0.94
   9   0   1    6.96    1.10
  10   0   1  133.09    4.56
  11   0   1   43.26    3.17
  12   0   1   71.92    4.59
  13   0   1    3.26    1.42
 -13   1   1   17.85    2.79
 -12   1   1    1.85    0.94
 -11   1   1   11.73    1.94
 -10   1   1   -0.04    0.38
  -9   1   1   11.07    1.30
  -8   1   1   33.17    1.84
  -7   1   1  279.59    4.89
  -6   1   1   30.99    1.22
  -5   1   1  395.69    6.14
  -4   1   1   11.97    0.69
  -3   1   1   38.64    1.04
  -2   1   1  143.10    2.03
  -1   1   1   40.05    0.83
   0   1   1   40.66    0.85
   1   1   1  143.99    3.18
   2   1   1   18.64    0.65
   3   1   1  454.96    6.47
   4   1   1   25.03    0.84
   5   1   1   10.10    0.54
   6   1   1  123.22    3.37
   7   1   1  185.70    4.71
   8   1   1   33.51    1.84
   9   1   1   11.24    1.46
  10   1   1   31.80    2.60
  11   1   1   50.42    4.42
  12   1   1   14.39    2.49
  13   1   1   -0.51    1.60
 -14   2   1    2.32    1.96
 -13   2   1    8.92    1.83
 -12   2   1    1.79    0.93
 -11   2   1  121.43    4.23
 -10   2   1   30.17    2.24
  -9   2   1  238.26    5.77
  -8   2   1    0.24    0.26
  -7   2   1   11.39    0.88
  -6   2   1   41.11    1.37
  -5   2   1  103.98    2.25
  -4   2   1   16.59    0.61
  -3   2   1   17.23    0.57
  -2   2   1  516.26    7.14
  -1   2   1  144.85    2.03
   0   2   1  523.44    7.13
   1   2   1   39.12    0.98
   2   2   1   18.01    0.73
   3   2   1   58.55    1.50
   4   2   1  192.87    3.51
   5   2   1   20.33    1.47
   6   2   1   66.98    2.46
   7   2   1   27.18    1.80
   8   2   1  183.57    5.08
   9   2   1   55.69    3.58
  10   2   1    3.42    1.25
  11   2   1    4.51    1.54
  12   2   1   61.15    5.21
 -14   3   1   81.72    4.82
 -13   3   1    1.87    1.00
 -12   3   1   34.55    3.31
 -11   3   1    3.61    0.87
 -10   3   1    4.24    0.88
  -9   3   1   21.40    1.73
  -8   3   1    3.88    0.59
  -7   3   1    2.97    0.38
  -6   3   1  340.26    4.76
  -5   3   1   59.48    1.40
  -4   3   1  446.67    5.80
  -3   3   1  194.30    3.16
  -2   3   1   36.96    0.87
  -1   3   1   18.54    0.66
   0   3   1  193.02    3.14
   1   3   1   12.46    0.61
   2   3   1  103.96    2.21
   3   3   1  337.97    5.45
   4   3   1  207.17    3.84
   5   3   1  213.52    5.00
   6   3   1    2.12    0.60
   7   3   1    4.74    0.88
   8   3   1   55.13    2.65
   9   3   1    1.96    1.06
  10   3   1   22.98    3.03
  11   3   1   59.16    5.55
 -15   4   1   13.32    3.42
 -14   4   1   12.39    2.30
 -13   4   1   76.97    4.77
 -12   4   1    2.67    0.81
 -11   4   1    3.79    0.87
 -10   4   1   11.30    1.26
  -9   4   1  204.83    4.33
  -8   4   1   76.34    2.23
  -7   4   1  201.05    3.95
  -6   4   1  193.44    3.05
  -5   4   1   25.96    0.88
  -4   4   1  169.67    3.07
  -3   4   1   11.52    0.50
  -2   4   1   17.03    0.59
  -1   4   1  450.28    7.48
   0   4   1  169.36    3.09
   1   4   1  405.05    5.42
   2   4   1   41.75    1.36
   3   4   1    2.67    0.44
   4   4   1   79.81    2.19
   5   4   1    1.19    0.50
   6   4   1    5.28    0.90
   7   4   1   54.69    2.62
   8   4   1  102.15    3.92
   9   4   1   23.84    4.32
  10   4   1   77.95    6.97
 -15   5   1    5.79    1.77
 -14   5   1    2.73    1.21
 -13   5   1   31.74    2.85
 -12   5   1   16.10    1.76
 -11   5   1   15.29    1.68
 -10   5   1   31.18    2.25
  -9   5   1    1.32    0.42
  -8   5   1  213.95    4.30
  -7   5   1   20.38    1.27
  -6   5   1   10.77    0.62
  -5   5   1  191.23    3.58
  -4   5   1  394.48    6.11
  -3   5   1  103.96    1.84
  -2   5   1   60.92    1.50
  -1   5   1   26.59    1.10
   0   5   1  199.85    3.20
   1   5   1   31.47    1.00
   2   5   1   10.56    0.86
   3   5   1    2.62    0.49
   4   5   1  203.27    4.25
   5   5   1   25.35    1.90
   6   5   1  132.41    4.39
   7   5   1    9.72    1.63
   8   5   1    1.05    0.89
   9   5   1   13.26    3.41
  10   5   1    1.65    1.99
 -15   6   1    1.63    1.27
 -14   6   1    2.86    1.22
 -13   6   1   65.62    3.31
 -12   6   1   26.51    2.37
 -11   6   1  133.55    4.41
 -10   6   1    3.37    0.79
  -9   6   1    1.12    0.41
  -8   6   1   67.49    2.12
  -7   6   1  116.60    3.34
  -6   6   1   38.64    1.29
  -5   6   1   30.97    1.15
  -4   6   1   40.35    1.36
  -3   6   1  332.66    4.76
  -2   6   1  191.32    3.51
  -1   6   1   10.40    0.81
   0   6   1   38.02    1.13
   1   6   1  275.20    4.23
   2   6   1    0.49    0.29
   3   6   1   22.15    1.72
   4   6   1    9.25    1.45
   5   6   1   16.50    2.06
   6   6   1   29.77    2.99
   7   6   1    2.23    1.01
   8   6   1    2.58    1.16
   9   6   1   66.60    7.85
 -15   7   1   77.18    4.81
 -14   7   1   21.96    2.37
 -13   7   1    2.22    0.78
 -12   7   1    9.51    1.35
 -11   7   1   55.28    2.74
 -10   7   1    5.22    0.87
  -9   7   1   28.36    1.80
  -8   7   1  175.95    4.68
  -7   7   1  145.86    3.97
  -6   7   1  268.27    4.81
  -5   7   1   10.19    0.84
  -4   7   1    3.37    0.51
  -3   7   1  203.13    3.70
  -2   7   1   18.23    1.01
  -1   7   1  116.46    2.77
   0   7   1  150.96    3.34
   1   7   1   31.91    1.88
   2   7   1  234.33    5.55
   3   7   1    6.11    1.00
   4   7   1    3.59    1.08
   5   7   1   15.89    2.20
   6   7   1   66.20    4.05
   7   7   1   23.75    2.95
   8   7   1    9.06    1.99
 -15   8   1    9.06    2.07
 -14   8   1    3.86    1.42
 -13   8   1    0.88    0.89
 -12   8   1  103.06    5.03
 -11   8   1   52.62    3.66
 -10   8   1  183.91    5.06
  -9   8   1   28.55    2.07
  -8   8   1    5.62    0.88
  -7   8   1   29.94    2.03
  -6   8   1    0.29    0.27
  -5   8   1    2.57    0.49
  -4   8   1   82.78    2.67
  -3   8   1  209.44    4.93
  -2   8   1   63.32    1.91
  -1   8   1  187.48    3.97
   0   8   1    5.80    0.74
   1   8   1   14.50    1.43
   2   8   1   32.44    2.28
   3   8   1    1.92    0.83
   4   8   1    1.21    0.78
   5   8   1   25.34    2.95
   6   8   1    5.14    1.59
   7   8   1   81.00    4.89
 -15   9   1   88.39    5.22
 -14   9   1   19.41    2.82
 -13   9   1   20.95    2.77
 -12   9   1    1.98    0.88
 -11   9   1   57.59    2.73
 -10   9   1   11.78    1.42
  -9   9   1    3.24    0.80
  -8   9   1   10.71    1.21
  -7   9   1  228.46    5.70
  -6   9   1   22.87    1.32
  -5   9   1  204.47    5.03
  -4   9   1    1.94    0.53
  -3   9   1    1.25    0.48
  -2   9   1   31.25    2.14
  -1   9   1   32.28    2.22
   0   9   1    6.53    0.88
   1   9   1    1.02    0.56
   2   9   1  120.33    4.08
   3   9   1   27.22    2.95
   4   9   1   60.32    4.24
   5   9   1    5.89    1.65
   6   9   1    2.44    1.40
 -15  10   1    4.67    1.66
 -14  10   1   67.50    5.38
 -13  10   1   22.87    2.94
 -12  10   1    0.73    0.80
 -11  10   1   31.88    2.51
 -10  10   1  129.23    4.35
  -9  10   1    1.32    0.58
  -8  10   1   31.74    2.33
  -7  10   1    5.27    0.98
  -6  10   1   13.02    1.19
  -5  10   1   31.47    1.97
  -4  10   1    3.42    0.77
  -3  10   1    4.82    0.92
  -2  10   1  189.22    5.13
  -1  10   1    9.63    1.31
   0  10   1  139.86    5.48
   1  10   1   14.62    2.13
   2  10   1    1.98    0.85
   3  10   1    1.18    0.85
   4  10   1   16.97    2.62
   5  10   1    4.04    1.52
 -15  11   1    1.45    1.79
 -14  11   1   70.71    5.52
 -13  11   1    6.30    1.67
 -12  11   1   51.95    4.34
 -11  11   1   36.52    2.81
 -10  11   1   12.22    1.59
  -9  11   1  118.99    4.19
  -8  11   1    2.69    0.80
  -7  11   1    2.79    0.79
  -6  11   1   15.62    1.63
  -5  11   1  136.73    4.21
  -4  11   1   54.07    2.58
  -3  11   1   50.31    2.70
  -2  11   1   60.93    2.82
  -1  11   1   32.45    2.54
   0  11   1   41.91    3.73
   1  11   1    1.47    0.97
   2  11   1    4.68    1.96
   3  11   1   86.76    7.08
 -14  12   1   52.60    4.94
 -13  12   1   16.99    2.57
 -12  12   1   75.16    3.55
 -11  12   1    1.93    0.89
 -10  12   1    1.31    0.72
  -9  12   1   30.84    2.57
  -8  12   1    2.19    0.80
  -7  12   1   11.35    1.86
  -6  12   1   30.14    2.34
  -5  12   1   12.13    1.54
  -4  12   1  104.13    3.93
  -3  12   1    1.75    0.73
  -2  12   1    1.47    0.74
  -1  12   1   56.35    4.50
   0  12   1   74.57    4.36
   1  12   1   21.37    4.15
   2  12   1    4.19    2.10
 -14  13   1    0.43    1.66
 -13  13   1    9.48    2.14
 -12  13   1   21.15    2.31
 -11  13   1    8.65    1.52
 -10  13   1    2.39    0.89
  -9  13   1   65.23    4.32
  -8  13   1   21.74    2.76
  -7  13   1   66.42    3.99
  -6  13   1    1.22    0.83
  -5  13   1   -0.03    0.62
  -4  13   1   24.90    2.36
  -3  13   1   21.69    2.27
  -2  13   1    3.46    1.32
  -1  13   1   16.82    2.52
   0  13   1    4.32    1.50
 -13  14   1   68.96    8.21
 -12  14   1    3.93    1.32
 -11  14   1   79.67    3.91
 -10  14   1   14.76    2.33
  -9  14   1    5.96    1.55
  -8  14   1    1.84    1.17
  -7  14   1   18.50    2.60
  -6  14   1    1.66    1.07
  -5  14   1   19.31    2.17
  -4  14   1   69.43    3.90
  -3  14   1   66.34    4.62
  -2  14   1   55.89    4.76
  -1  14   1    4.38    2.48
 -11  15   1   15.27    3.96
 -10  15   1    6.14    1.71
  -9  15   1    1.02    1.22
  -8  15   1   70.68    4.91
  -7  15   1    9.97    2.22
  -6  15   1   79.46    4.88
  -5  15   1    4.49    1.62
  -4  15   1    0.59    1.74
   5 -15   2    0.23    1.70
   6 -15   2   17.22    4.21
   7 -15   2   40.75    4.96
   8 -15   2   29.75    5.26
   9 -15   2   21.41    4.59
   2 -14   2   13.73    3.51
   3 -14   2   45.15    4.48
   4 -14   2    8.17    1.58
   5 -14   2    1.72    0.92
   6 -14   2   56.07    4.00
   7 -14   2    3.64    1.38
   8 -14   2   12.26    2.41
   9 -14   2   41.23    4.31
  10 -14   2    7.24    1.82
  11 -14   2   49.23    4.80
   0 -13   2    0.92    1.67
   1 -13   2    9.19    2.04
   2 -13   2    7.30    1.81
   3 -13   2    1.90    0.85
   4 -13   2   24.64    2.55
   5 -13   2   39.94    3.22
   6 -13   2   50.29    4.37
   7 -13   2   56.05    4.67
   8 -13   2   23.54    2.96
   9 -13   2   35.68    3.88
  10 -13   2   11.89    2.25
  11 -13   2   42.79    3.45
  12 -13   2    0.47    0.73
  13 -13   2    2.24    1.52
  -2 -12   2   24.92    4.64
  -1 -12   2    2.13    1.19
   0 -12   2   15.26    2.49
   1 -12   2    6.10    1.66
   2 -12   2  121.71    4.72
   3 -12   2    8.65    1.48
   4 -12   2   37.17    2.96
   5 -12   2    5.56    1.45
   6 -12   2   41.41    3.87
   7 -12   2    4.50    1.31
   8 -12   2    2.57    1.02
   9 -12   2   28.03    2.54
  10 -12   2    8.07    1.41
  11 -12   2   97.42    5.21
  12 -12   2   12.33    2.22
  13 -12   2    5.02    1.58
  14 -12   2   20.43    5.39
  -3 -11   2   57.97    4.91
  -2 -11   2   42.10    4.17
  -1 -11   2   93.91    5.17
   0 -11   2   20.07    2.82
   1 -11   2    6.58    1.29
   2 -11   2    1.36    0.65
   3 -11   2   34.15    2.73
   4 -11   2   56.64    3.02
   5 -11   2   50.52    3.62
   6 -11   2    4.03    1.18
   7 -11   2  344.84   10.32
   8 -11   2   20.40    2.07
   9 -11   2   45.51    2.90
  10 -11   2    4.34    1.26
  11 -11   2   15.40    2.25
  12 -11   2    5.85    1.57
  13 -11   2    5.92    1.62
  14 -11   2   47.37    4.73
  -5 -10   2   71.41    7.86
  -4 -10   2    7.62    1.94
  -3 -10   2   13.22    2.08
  -2 -10   2   12.14    2.11
  -1 -10   2   10.56    1.97
   0 -10   2  108.26    4.12
   1 -10   2   27.43    2.32
   2 -10   2   35.19    2.62
   3 -10   2   85.58    3.44
   4 -10   2   96.78    4.48
   5 -10   2   36.84    3.16
   6 -10   2    2.23    0.69
   7 -10   2   20.28    1.91
   8 -10   2   96.94    4.48
   9 -10   2   21.75    2.56
  10 -10   2  110.88    5.19
  11 -10   2    6.17    1.56
  12 -10   2  104.51    5.53
  13 -10   2    0.96    0.97
  14 -10   2    4.87    1.35
  15 -10   2    0.10    1.69
  -6  -9   2   19.92    4.05
  -5  -9   2   53.73    4.67
  -4  -9   2   36.45    3.64
  -3  -9   2   33.32    3.44
  -2  -9   2   43.39    3.67
  -1  -9   2   16.90    1.76
   0  -9   2   80.31    3.28
   1  -9   2   10.15    1.35
   2  -9   2   10.53    1.25
   3  -9   2  155.03    5.65
   4  -9   2   38.75    2.77
   5  -9   2   72.06    2.75
   6  -9   2   59.34    2.55
   7  -9   2   72.67    3.56
   8  -9   2   65.08    3.51
   9  -9   2   80.42    4.10
  10  -9   2   29.87    2.41
  11  -9   2    1.60    0.67
  12  -9   2    7.85    1.33
  13  -9   2   22.38    2.46
  14  -9   2    2.52    0.93
  15  -9   2   13.66    3.72
  -7  -8   2   29.59    4.10
  -6  -8   2   13.94    2.34
  -5  -8   2   25.80    3.02
  -4  -8   2    1.69    0.87
  -3  -8   2   20.88    2.56
  -2  -8   2  102.92    4.74
  -1  -8   2   64.80    2.78
   0  -8   2  113.48    3.74
   1  -8   2   17.44    1.62
   2  -8   2   32.02    2.03
   3  -8   2  120.24    4.51
   4  -8   2   32.43    1.74
   5  -8   2   34.20    1.85
   6  -8   2   27.07    2.37
   7  -8   2   59.04    2.37
   8  -8   2  113.04    3.67
   9  -8   2   10.49    1.36
  10  -8   2   34.55    2.61
  11  -8   2   35.05    2.78
  12  -8   2   32.73    2.80
  13  -8   2   41.43    4.04
  14  -8   2   58.25    5.08
  15  -8   2   45.25    5.19
  -8  -7   2   40.98    7.29
  -7  -7   2    0.83    0.99
  -6  -7   2   53.74    4.46
  -5  -7   2    2.56    0.84
  -4  -7   2  334.78    9.96
  -3  -7   2   17.12    2.17
  -2  -7   2   75.23    2.95
  -1  -7   2   58.29    2.45
   0  -7   2   85.16    3.01
   1  -7   2   13.09    1.30
   2  -7   2   28.93    1.76
   3  -7   2  103.93    2.95
   4  -7   2  132.32    2.89
   5  -7   2  255.92    5.41
   6  -7   2   93.50    2.67
   7  -7   2   87.45    3.03
   8  -7   2   16.10    1.58
   9  -7   2   13.63    1.88
  10  -7   2   81.08    4.10
  11  -7   2   66.49    3.84
  12  -7   2    3.95    1.25
  13  -7   2   51.87    4.70
  14  -7   2    3.57    1.42
  15  -7   2   26.73    3.71
  -8  -6   2   53.75    4.70
  -7  -6   2   52.90    4.40
  -6  -6   2   35.99    3.44
  -5  -6   2    1.96    0.73
  -4  -6   2    1.90    0.82
  -3  -6   2   59.42    2.52
  -2  -6   2   28.90    1.85
  -1  -6   2   92.39    3.00
   0  -6   2   21.02    1.42
   1  -6   2  323.83    5.49
   2  -6   2   13.11    1.01
   3  -6   2  156.14    3.08
   4  -6   2   16.63    1.07
   5  -6   2  164.04    3.41
   6  -6   2   19.49    1.15
   7  -6   2    9.86    1.03
   8  -6   2   35.08    1.96
   9  -6   2  158.17    5.76
  10  -6   2   96.74    4.51
  11  -6   2   57.65    3.56
  12  -6   2   40.88    3.82
  13  -6   2   46.92    4.41
  14  -6   2   13.73    2.53
  15  -6   2   17.85    4.27
  -9  -5   2    4.81    1.47
  -8  -5   2   49.82    4.35
  -7  -5   2    5.58    1.42
  -6  -5   2   61.47    2.84
  -5  -5   2   36.78    2.51
  -4  -5   2   72.26    3.55
  -3  -5   2   35.58    1.98
  -2  -5   2  252.68    5.58
  -1  -5   2  160.28    4.05
   0  -5   2    4.93    0.69
   1  -5   2   57.07    1.49
   2  -5   2   72.99    2.07
   3  -5   2   13.81    1.06
   4  -5   2   46.15    1.74
   5  -5   2    4.88    0.66
   6  -5   2  331.74    5.55
   7  -5   2   28.17    1.68
   8  -5   2  118.76    3.59
   9  -5   2   40.66    2.18
  10  -5   2   35.81    2.31
  11  -5   2    3.22    0.85
  12  -5   2    4.93    1.37
  13  -5   2   31.58    3.57
  14  -5   2   44.14    4.51
 -10  -4   2    5.95    1.72
  -9  -4   2   27.97    3.20
  -8  -4   2   36.13    3.53
  -7  -4   2   73.02    3.90
  -6  -4   2  100.44    3.51
  -5  -4   2   33.73    2.25
  -4  -4   2   32.85    1.57
  -3  -4   2  125.76    3.45
  -2  -4   2   16.64    1.13
  -1  -4   2   48.97    1.76
   0  -4   2  116.64    2.20
   1  -4   2  278.33    4.50
   2  -4   2  241.80    4.80
   3  -4   2  137.31    3.89
   4  -4   2  113.06    2.89
   5  -4   2   59.20    1.63
   6  -4   2   12.96    0.91
   7  -4   2  104.38    3.20
   8  -4   2   34.12    2.03
   9  -4   2   74.08    2.98
  10  -4   2    2.62    0.76
  11  -4   2  332.79    8.23
  12  -4   2    1.15    0.69
  13  -4   2   50.88    4.56
  14  -4   2    9.87    2.15
 -11  -3   2   48.54    4.51
 -10  -3   2    1.09    0.94
  -9  -3   2    8.57    1.66
  -8  -3   2   32.61    3.19
  -7  -3   2   84.16    3.35
  -6  -3   2  160.50    4.50
  -5  -3   2  114.14    2.96
  -4  -3   2  102.80    2.62
  -3  -3   2  153.52    3.21
  -2  -3   2   12.27    0.84
  -1  -3   2  133.65    3.05
   0  -3   2   37.97    1.30
   1  -3   2   84.55    2.16
   4  -3   2  272.21    5.32
   5  -3   2   69.89    2.08
   6  -3   2  154.40    3.61
   7  -3   2  122.71    3.23
   8  -3   2   37.41    2.16
   9  -3   2   59.37    2.66
  10  -3   2   20.43    1.96
  11  -3   2   17.18    1.95
  12  -3   2   29.93    2.67
  13  -3   2   11.40    1.79
  14  -3   2   51.03    4.72
 -12  -2   2   14.35    3.58
 -11  -2   2    7.93    1.91
 -10  -2   2  120.25    5.70
  -9  -2   2    2.38    1.05
  -8  -2   2   38.92    3.28
  -7  -2   2   12.99    1.36
  -6  -2   2   34.22    1.98
  -5  -2   2   27.21    1.37
  -4  -2   2   13.04    0.92
  -3  -2   2   74.45    1.84
  -2  -2   2  256.54    4.19
  -1  -2   2  261.89    4.16
   0  -2   2  409.46    6.03
   1  -2   2  195.15    4.56
   3  -2   2   85.10    2.14
   4  -2   2  249.62    4.16
   5  -2   2   12.70    1.02
   6  -2   2   15.82    1.10
   7  -2   2  242.08    5.38
   8  -2   2   29.34    2.59
   9  -2   2   70.43    2.99
  10  -2   2   96.66    3.79
  11  -2   2   44.36    3.14
  12  -2   2   10.02    1.55
  13  -2   2   40.32    3.35
  14  -2   2   21.79    3.16
 -12  -1   2    9.06    2.07
 -11  -1   2    5.21    1.50
 -10  -1   2    4.20    1.25
  -9  -1   2   31.06    3.00
  -8  -1   2   10.20    1.63
  -7  -1   2   18.06    1.61
  -6  -1   2   10.24    0.92
  -5  -1   2  326.74    5.60
  -4  -1   2   60.24    1.58
  -3  -1   2  274.10    4.47
  -2  -1   2   84.79    2.24
  -1  -1   2  197.19    3.79
   0  -1   2   55.24    1.43
   1  -1   2   53.66    1.46
   2  -1   2  194.05    3.78
   3  -1   2  258.33    4.79
   4  -1   2  134.00    2.56
   5  -1   2   47.63    1.77
   6  -1   2  161.53    4.03
   7  -1   2   92.82    2.93
   8  -1   2   56.23    3.11
   9  -1   2   64.59    2.92
  10  -1   2   16.63    1.85
  11  -1   2    7.12    1.30
  12  -1   2   97.70    4.29
  13  -1   2    3.36    1.19
 -13   0   2    2.59    1.40
 -12   0   2   14.00    2.42
 -11   0   2   11.40    2.03
 -10   0   2  114.55    5.15
  -9   0   2   79.54    4.10
  -8   0   2  113.42    3.56
  -7   0   2   88.26    2.45
  -6   0   2   20.33    1.15
  -5   0   2    5.72    0.60
  -4   0   2  116.65    2.38
  -3   0   2   40.12    1.03
  -2   0   2  410.91    7.05
  -1   0   2   54.64    1.37
   0   0   2  817.04   10.97
   1   0   2   53.13    1.34
   2   0   2  410.89    5.91
   3   0   2   38.00    1.22
   4   0   2  113.02    2.28
   5   0   2    4.81    0.70
   6   0   2   17.44    1.39
   7   0   2   88.61    2.97
   8   0   2  115.41    4.82
   9   0   2   85.49    4.33
  10   0   2  108.30    4.21
  11   0   2   17.82    2.06
  12   0   2   16.78    2.15
  13   0   2    1.33    1.30
 -13   1   2    1.25    1.10
 -12   1   2   90.45    4.95
 -11   1   2    7.39    1.61
 -10   1   2   19.19    2.38
  -9   1   2   63.24    3.45
  -8   1   2   55.39    2.30
  -7   1   2   95.09    2.48
  -6   1   2  164.89    3.40
  -5   1   2   50.12    1.47
  -4   1   2  133.96    2.59
  -3   1   2  259.52    4.89
  -2   1   2  193.52    3.19
  -1   1   2   54.29    1.50
   0   1   2   54.48    1.40
   1   1   2  195.57    3.83
   2   1   2   86.33    2.17
   3   1   2  276.17    4.56
   4   1   2   55.62    1.44
   5   1   2  324.33    6.73
   6   1   2   11.19    1.18
   7   1   2   15.14    1.45
   8   1   2   10.11    1.29
   9   1   2   23.23    2.68
  10   1   2    4.88    1.08
  11   1   2    6.31    1.36
  12   1   2    5.40    1.67
 -14   2   2   22.89    3.24
 -13   2   2   46.52    4.28
 -12   2   2    6.53    1.55
 -11   2   2   40.28    3.60
 -10   2   2  105.73    4.72
  -9   2   2   72.50    3.66
  -8   2   2   28.85    1.44
  -7   2   2  250.24    4.68
  -6   2   2   15.63    1.03
  -5   2   2   12.36    0.69
  -4   2   2  253.72    4.21
  -3   2   2   84.39    1.84
  -2   2   2  401.48    5.96
  -1   2   2  191.70    4.49
   0   2   2  416.70    6.04
   1   2   2  255.05    4.93
   2   2   2  257.36    4.90
   3   2   2   72.71    1.82
   4   2   2   12.52    0.77
   5   2   2   25.06    1.77
   6   2   2   36.97    1.98
   7   2   2   13.10    1.44
   8   2   2   29.58    2.30
   9   2   2    1.58    0.92
  10   2   2  118.59    5.78
  11   2   2    7.90    1.82
  12   2   2   16.20    4.14
 -14   3   2   53.56    4.81
 -13   3   2   10.77    2.13
 -12   3   2   27.72    3.16
 -11   3   2   15.74    2.24
 -10   3   2   21.11    2.42
  -9   3   2   58.96    2.04
  -8   3   2   37.72    1.56
  -7   3   2  127.27    2.50
  -6   3   2  152.69    2.74
  -5   3   2   74.31    2.05
  -4   3   2  272.38    4.52
  -3   3   2   41.98    1.17
  -2   3   2  262.99    4.13
  -1   3   2   88.53    2.15
   0   3   2   41.74    1.14
   1   3   2  134.21    2.52
   2   3   2   12.57    0.97
   3   3   2  159.00    3.20
   4   3   2  102.68    2.49
   5   3   2  111.07    3.51
   6   3   2  161.01    4.57
   7   3   2   86.49    3.30
   8   3   2   36.80    2.69
   9   3   2    9.93    1.97
  10   3   2    2.49    1.27
  11   3   2   46.17    4.52
 -14   4   2    8.36    2.00
 -13   4   2   39.01    3.90
 -12   4   2    1.60    0.88
 -11   4   2  326.49    9.91
 -10   4   2    2.25    0.66
  -9   4   2   76.91    2.38
  -8   4   2   35.53    1.52
  -7   4   2  104.41    2.43
  -6   4   2   13.21    0.90
  -5   4   2   61.04    1.61
  -4   4   2  115.39    2.43
  -3   4   2  140.38    2.66
  -2   4   2  248.31    4.18
  -1   4   2  281.92    4.55
   0   4   2  118.20    2.71
   1   4   2   49.22    1.40
   2   4   2   15.73    1.09
   3   4   2  127.30    2.92
   4   4   2   35.14    1.99
   5   4   2   37.86    2.07
   6   4   2   92.98    3.44
   7   4   2   68.84    3.01
   8   4   2   35.80    2.73
   9   4   2   25.40    3.72
  10   4   2    4.64    2.38
 -15   5   2   62.35    6.23
 -14   5   2   44.46    4.27
 -13   5   2   27.33    3.18
 -12   5   2    2.88    1.09
 -11   5   2    3.19    1.04
 -10   5   2   38.19    1.78
  -9   5   2   35.79    1.72
  -8   5   2  114.84    3.44
  -7   5   2   27.84    1.25
  -6   5   2  333.51    5.53
  -5   5   2    5.55    0.59
  -4   5   2   51.63    1.52
  -3   5   2   13.46    0.71
  -2   5   2   74.98    1.83
  -1   5   2   54.58    1.56
   0   5   2    5.01    0.55
   1   5   2  170.07    3.34
   2   5   2  248.53    4.69
   3   5   2   36.68    1.49
   4   5   2   75.04    2.84
   5   5   2   39.19    2.20
   6   5   2   60.53    2.83
   7   5   2    5.79    1.41
   8   5   2   44.64    3.94
   9   5   2    2.42    1.83
 -15   6   2   14.28    2.60
 -14   6   2    8.82    1.99
 -13   6   2   56.00    4.59
 -12   6   2   39.68    3.65
 -11   6   2   55.87    3.48
 -10   6   2   97.31    3.37
  -9   6   2  162.15    4.45
  -8   6   2   36.17    1.88
  -7   6   2   12.15    1.19
  -6   6   2   20.50    1.10
  -5   6   2  166.40    2.90
  -4   6   2   16.00    0.79
  -3   6   2  151.60    3.05
  -2   6   2   12.50    0.91
  -1   6   2  328.75    5.56
   0   6   2   19.68    1.20
   1   6   2   95.37    2.14
   2   6   2   28.24    1.40
   3   6   2   60.30    2.08
   4   6   2    1.88    0.82
   5   6   2    2.96    1.00
   6   6   2   39.22    3.54
   7   6   2   56.13    4.48
   8   6   2   51.68    4.55
 -15   7   2   31.16    3.68
 -14   7   2    3.91    1.43
 -13   7   2   44.93    4.14
 -12   7   2    5.95    1.47
 -11   7   2   61.74    3.64
 -10   7   2   81.59    3.15
  -9   7   2   12.16    1.34
  -8   7   2   16.72    1.54
  -7   7   2   88.92    2.98
  -6   7   2   93.03    2.45
  -5   7   2  238.02    4.61
  -4   7   2  123.16    2.89
  -3   7   2  104.47    2.46
  -2   7   2   27.40    1.27
  -1   7   2   12.46    1.00
   0   7   2   90.27    2.43
   1   7   2   56.94    2.33
   2   7   2   76.04    2.85
   3   7   2   21.24    2.34
   4   7   2  329.03    9.83
   5   7   2    3.39    1.14
   6   7   2   57.44    4.08
   7   7   2    1.86    1.16
   8   7   2   33.14    3.76
 -15   8   2   47.56    4.61
 -14   8   2   51.81    4.66
 -13   8   2   44.45    4.06
 -12   8   2   39.07    3.62
 -11   8   2   33.09    2.50
 -10   8   2   37.87    2.58
  -9   8   2    8.97    1.18
  -8   8   2  111.86    3.60
  -7   8   2   55.66    2.32
  -6   8   2   26.48    1.44
  -5   8   2   33.12    1.50
  -4   8   2   33.88    1.80
  -3   8   2  115.07    3.42
  -2   8   2   37.37    1.54
  -1   8   2   17.00    1.27
   0   8   2  110.02    3.49
   1   8   2   68.52    2.73
   2   8   2  103.77    3.54
   3   8   2   18.66    2.37
   4   8   2    3.44    1.19
   5   8   2   31.65    3.35
   6   8   2    9.28    1.94
   7   8   2   32.12    3.81
 -15   9   2   10.56    3.36
 -14   9   2    2.36    1.32
 -13   9   2   26.30    3.21
 -12   9   2    7.76    1.70
 -11   9   2    2.72    0.80
 -10   9   2   26.91    2.19
  -9   9   2   83.65    3.22
  -8   9   2   65.18    2.75
  -7   9   2   70.66    2.81
  -6   9   2   58.49    2.07
  -5   9   2   76.33    2.78
  -4   9   2   32.07    2.00
  -3   9   2  154.55    4.34
  -2   9   2   12.25    1.34
  -1   9   2    9.17    1.30
   0   9   2   83.03    3.10
   1   9   2   17.22    1.73
   2   9   2   43.70    3.26
   3   9   2   25.56    2.89
   4   9   2   33.99    3.48
   5   9   2   49.38    4.44
   6   9   2   18.19    2.91
 -15  10   2   -0.12    1.60
 -14  10   2    7.38    1.86
 -13  10   2    0.74    0.96
 -12  10   2  117.41    5.56
 -11  10   2    5.31    1.13
 -10  10   2  108.50    3.99
  -9  10   2   18.08    1.83
  -8  10   2   98.77    3.59
  -7  10   2   18.57    1.76
  -6  10   2    0.91    0.46
  -5  10   2   36.19    2.23
  -4  10   2   94.18    3.33
  -3  10   2   79.01    3.08
  -2  10   2   39.07    2.58
  -1  10   2   23.45    2.59
   0  10   2   92.16    4.56
   1  10   2    7.96    1.65
   2  10   2   12.51    2.92
   3  10   2   12.06    2.54
   4  10   2    9.30    1.96
   5  10   2   60.34    7.07
 -14  11   2   55.69    4.94
 -13  11   2    8.44    1.88
 -12  11   2    7.96    1.40
 -11  11   2   17.67    1.96
 -10  11   2    9.40    1.47
  -9  11   2   47.79    3.15
  -8  11   2   17.88    1.88
  -7  11   2  332.40    9.80
  -6  11   2    2.40    0.72
  -5  11   2   59.40    2.71
  -4  11   2   66.73    2.90
  -3  11   2   36.84    2.66
  -2  11   2    0.38    0.72
  -1  11   2    6.05    1.43
   0  11   2   15.97    2.34
   1  11   2   86.43    6.78
   2  11   2   38.43    5.56
   3  11   2   45.57    6.28
 -14  12   2   14.45    3.66
 -13  12   2    8.12    1.91
 -12  12   2   10.58    1.67
 -11  12   2   89.26    3.90
 -10  12   2   10.36    1.57
  -9  12   2   29.05    2.51
  -8  12   2    1.83    0.95
  -7  12   2    4.02    1.23
  -6  12   2   35.61    2.58
  -5  12   2    4.48    0.98
  -4  12   2   38.83    2.75
  -3  12   2    7.33    1.60
  -2  12   2  113.63    5.30
  -1  12   2    6.42    1.59
   0  12   2   12.55    2.21
   1  12   2    3.37    1.95
 -13  13   2    2.77    1.49
 -12  13   2    1.51    0.87
 -11  13   2   45.18    3.42
 -10  13   2   15.64    1.97
  -9  13   2   34.76    3.57
  -8  13   2   30.61    3.33
  -7  13   2   60.02    4.20
  -6  13   2   52.31    4.27
  -5  13   2   41.51    3.03
  -4  13   2   25.09    2.92
  -3  13   2    1.67    1.12
  -2  13   2    6.10    1.70
  -1  13   2    6.18    1.73
   0  13   2    3.24    2.88
 -12  14   2   27.09    4.72
 -11  14   2   49.65    4.55
 -10  14   2   10.69    2.24
  -9  14   2   44.71    4.14
  -8  14   2    9.70    1.97
  -7  14   2    3.05    1.27
  -6  14   2   58.17    4.71
  -5  14   2    2.30    1.27
  -4  14   2    7.99    1.86
  -3  14   2   52.92    4.59
  -2  14   2   16.32    2.81
 -10  15   2   69.68    9.18
  -9  15   2   13.76    3.45
  -8  15   2   27.82    5.00
  -5  15   2    0.16    2.01
   4 -14   3   35.56    4.12
   5 -14   3   21.20    3.14
   6 -14   3   15.37    2.19
   7 -14   3   22.98    2.54
   8 -14   3    0.70    0.99
   9 -14   3    0.83    1.00
  10 -14   3    9.03    2.12
   1 -13   3   21.95    3.30
   2 -13   3    8.49    2.02
   3 -13   3   25.44    3.29
   4 -13   3   23.14    3.15
   5 -13   3    0.26    0.65
   6 -13   3    5.05    1.21
   7 -13   3   64.62    4.67
   8 -13   3   38.00    3.92
   9 -13   3   61.84    5.09
  10 -13   3    5.21    1.54
  11 -13   3    3.99    1.42
  12 -13   3    9.73    1.79
  -1 -12   3   13.06    2.66
   0 -12   3   63.57    5.27
   1 -12   3   36.62    3.92
   2 -12   3   17.34    2.58
   3 -12   3    0.84    0.79
   4 -12   3  121.72    4.80
   5 -12   3    0.39    0.56
   6 -12   3   19.02    2.13
   7 -12   3   23.58    2.98
   8 -12   3   11.20    2.06
   9 -12   3   33.59    3.63
  10 -12   3    5.29    1.37
  11 -12   3   12.25    1.81
  12 -12   3   59.56    4.53
  13 -12   3   18.67    3.12
  -3 -11   3   79.03   11.41
  -2 -11   3    3.78    1.47
  -1 -11   3   13.56    2.48
   0 -11   3   41.36    4.05
   1 -11   3   11.92    2.06
   2 -11   3   34.68    3.58
   3 -11   3   25.01    2.88
   4 -11   3   44.76    3.15
   5 -11   3   83.86    3.62
   6 -11   3   22.14    2.70
   7 -11   3    4.33    1.20
   8 -11   3   13.11    2.11
   9 -11   3   87.04    3.78
  10 -11   3   10.56    1.93
  11 -11   3   37.78    3.76
  12 -11   3   27.43    3.34
  13 -11   3   10.37    2.26
  -4 -10   3    8.63    1.70
  -3 -10   3    7.62    1.51
  -2 -10   3    4.45    1.34
  -1 -10   3   10.34    1.96
   0 -10   3  144.57    6.18
   1 -10   3   20.17    2.58
   2 -10   3  150.57    6.08
   3 -10   3    8.24    1.23
   4 -10   3    7.05    1.23
   5 -10   3   11.45    1.83
   6 -10   3   25.53    2.71
   7 -10   3   12.05    1.47
   8 -10   3   24.36    2.19
   9 -10   3    3.93    1.15
  10 -10   3  133.40    5.97
  11 -10   3   14.22    2.36
  12 -10   3   11.20    2.14
  13 -10   3   28.76    3.45
  14 -10   3   33.51    4.14
  -5  -9   3    0.44    1.04
  -4  -9   3   60.19    5.02
  -3  -9   3   28.65    3.30
  -2  -9   3   80.51    4.60
  -1  -9   3    3.38    1.15
   0  -9   3    4.55    1.23
   1  -9   3   44.62    3.62
   2  -9   3   22.60    2.02
   3  -9   3    0.40    0.44
   4  -9   3    4.77    0.94
   5  -9   3  226.53    7.29
   6  -9   3   29.66    2.21
   7  -9   3  120.05    4.05
   8  -9   3    2.02    0.83
   9  -9   3    2.59    0.93
  10  -9   3   22.13    2.24
  11  -9   3   35.17    2.89
  12  -9   3    3.28    1.04
  13  -9   3   35.82    3.15
  14  -9   3   17.49    2.33
  -6  -8   3    2.35    1.27
  -5  -8   3   39.70    4.04
  -4  -8   3    6.51    1.34
  -3  -8   3   12.04    1.63
  -2  -8   3   27.62    2.88
  -1  -8   3    1.72    0.81
   0  -8   3    5.11    1.19
   1  -8   3  193.14    5.17
   2  -8   3   75.48    2.94
   3  -8   3  202.51    5.35
   4  -8   3   77.82    3.62
   5  -8   3   14.06    1.40
   6  -8   3    6.91    1.02
   7  -8   3   26.52    2.03
   8  -8   3    4.47    0.94
   9  -8   3   49.87    2.58
  10  -8   3  144.89    4.88
  11  -8   3   20.56    2.71
  12  -8   3  131.92    6.03
  13  -8   3    0.51    0.92
  14  -8   3   13.14    2.42
  -7  -7   3   26.21    3.45
  -6  -7   3   66.39    4.68
  -5  -7   3   18.33    2.53
  -4  -7   3    2.65    0.84
  -3  -7   3   11.66    1.54
  -2  -7   3  118.21    5.12
  -1  -7   3   21.82    2.36
   0  -7   3  111.60    4.67
   1  -7   3   80.70    2.89
   2  -7   3   11.24    1.19
   3  -7   3   94.15    3.18
   4  -7   3   19.04    1.26
   5  -7   3   11.48    1.04
   6  -7   3  244.98    4.92
   7  -7   3  118.32    3.32
   8  -7   3  203.41    6.55
   9  -7   3   20.24    2.37
  10  -7   3    6.26    1.34
  11  -7   3   40.99    3.86
  12  -7   3    0.68    0.82
  13  -7   3    1.23    0.91
  14  -7   3   27.11    3.57
  -8  -6   3   13.45    2.48
  -7  -6   3    1.79    1.07
  -6  -6   3   22.11    2.19
  -5  -6   3   22.23    2.19
  -4  -6   3   25.78    2.25
  -3  -6   3   24.96    2.06
  -2  -6   3    7.68    1.39
  -1  -6   3  248.54    7.39
   0  -6   3   45.67    2.06
   1  -6   3   24.17    1.55
   2  -6   3   50.57    1.65
   3  -6   3  251.97    4.72
   4  -6   3   60.29    1.91
   5  -6   3   52.05    1.85
   6  -6   3   49.38    1.75
   7  -6   3   77.40    2.85
   8  -6   3   70.68    2.86
   9  -6   3    1.28    0.55
  10  -6   3    5.96    1.34
  11  -6   3   78.16    4.44
  12  -6   3   17.13    2.63
  13  -6   3   64.77    5.35
  14  -6   3    1.28    1.16
  -9  -5   3   18.59    2.93
  -8  -5   3    0.52    0.99
  -7  -5   3    0.08    0.66
  -6  -5   3   79.12    3.42
  -5  -5   3   13.11    1.57
  -4  -5   3  221.54    7.22
  -3  -5   3   13.44    1.44
  -2  -5   3    9.86    1.21
  -1  -5   3   53.04    2.78
   0  -5   3  144.24    3.74
   1  -5   3   19.98    0.96
   2  -5   3   86.37    2.13
   3  -5   3   58.22    1.78
   4  -5   3  257.05    6.91
   5  -5   3  154.33    3.99
   6  -5   3   25.66    1.37
   7  -5   3   10.21    1.00
   8  -5   3  212.89    5.52
   9  -5   3    6.21    1.05
  10  -5   3   12.91    1.59
  11  -5   3   31.27    2.59
  12  -5   3   18.17    2.79
  13  -5   3   37.27    4.01
  14  -5   3    0.05    1.07
 -10  -4   3   39.82    4.22
  -9  -4   3   29.93    3.42
  -8  -4   3  135.61    6.06
  -7  -4   3   45.37    3.09
  -6  -4   3    5.57    1.05
  -5  -4   3    5.62    1.00
  -4  -4   3   74.58    2.94
  -3  -4   3   18.90    1.63
  -2  -4   3   59.81    2.35
  -1  -4   3  265.62    5.42
   0  -4   3  138.19    3.33
   1  -4   3  393.40    7.33
   2  -4   3   11.87    1.00
   3  -4   3   31.31    1.71
   4  -4   3  133.82    5.87
   5  -4   3   21.12    1.53
   6  -4   3   48.80    1.66
   7  -4   3   96.65    3.02
   8  -4   3   80.08    3.10
   9  -4   3  228.18    6.09
  10  -4   3   21.65    2.16
  11  -4   3    3.23    0.94
  12  -4   3   11.79    1.80
  13  -4   3   57.92    5.15
  14  -4   3    4.79    1.79
 -11  -3   3   50.48    5.58
 -10  -3   3   28.79    3.45
  -9  -3   3    1.96    1.02
  -8  -3   3   26.59    3.01
  -7  -3   3    7.17    1.21
  -6  -3   3    1.28    0.59
  -5  -3   3  209.29    5.42
  -4  -3   3   92.41    3.19
  -3  -3   3  243.18    5.64
  -2  -3   3   55.85    2.18
  -1  -3   3   31.04    1.08
   0  -3   3   73.43    1.83
   1  -3   3   34.98    1.19
   2  -3   3   85.04    2.40
   3  -3   3   73.72    2.21
   4  -3   3  395.34    7.41
   5  -3   3   80.70    2.12
   6  -3   3  251.09    5.59
   7  -3   3   19.09    1.54
   8  -3   3   16.89    2.12
   9  -3   3   24.77    2.65
  10  -3   3   12.01    1.63
  11  -3   3   13.68    1.83
  12  -3   3   35.49    3.07
  13  -3   3    8.23    1.66
  14  -3   3   83.99    7.35
 -11  -2   3    8.60    2.01
 -10  -2   3   15.54    2.47
  -9  -2   3   30.40    3.25
  -8  -2   3  148.63    5.99
  -7  -2   3   19.85    1.84
  -6  -2   3   72.31    2.88
  -5  -2   3   12.41    1.33
  -4  -2   3   49.56    2.11
  -3  -2   3   79.69    2.59
  -2  -2   3   12.77    1.09
  -1  -2   3   86.08    1.81
   0  -2   3  327.92    5.08
   1  -2   3   74.33    2.04
   2  -2   3  324.19    6.03
   3  -2   3   33.27    1.18
   4  -2   3   11.70    0.99
   5  -2   3   56.93    1.71
   6  -2   3   62.52    2.33
   7  -2   3    9.43    1.12
   8  -2   3    7.19    1.47
   9  -2   3  114.98    5.20
  10  -2   3   26.71    2.43
  11  -2   3   99.35    4.20
  12  -2   3    6.67    1.38
  13  -2   3    1.38    0.98
 -12  -1   3   25.88    3.49
 -11  -1   3   35.09    3.81
 -10  -1   3   11.63    1.99
  -9  -1   3   21.07    2.55
  -8  -1   3   49.59    2.49
  -7  -1   3  186.94    5.10
  -6  -1   3   77.98    2.91
  -5  -1   3   25.22    1.63
  -4  -1   3   20.52    1.48
  -3  -1   3  407.65    7.58
  -2  -1   3   32.89    1.40
  -1  -1   3   71.22    2.03
   0  -1   3   58.07    1.64
   1  -1   3   58.71    1.44
   2  -1   3   72.37    2.00
   3  -1   3   86.35    1.96
   4  -1   3   29.94    1.30
   5  -1   3  266.44    4.78
   6  -1   3   54.36    2.26
   7  -1   3  243.27    5.84
   8  -1   3   19.91    2.36
   9  -1   3    0.68    0.60
  10  -1   3    3.86    1.27
  11  -1   3   10.20    1.68
  12  -1   3   11.50    1.78
  13  -1   3    9.10    1.75
 -12   0   3   57.10    5.03
 -11   0   3   42.26    4.02
 -10   0   3  138.23    5.96
  -9   0   3    2.79    1.07
  -8   0   3    5.20    0.95
  -7   0   3  124.25    3.81
  -6   0   3   49.25    2.12
  -5   0   3  155.28    4.00
  -4   0   3  137.18    3.54
  -3   0   3   70.87    2.21
  -2   0   3  327.42    5.96
  -1   0   3   56.13    1.40
   0   0   3    0.08    0.12
   1   0   3   59.30    1.70
   2   0   3  324.27    5.12
   3   0   3   73.13    1.62
   4   0   3  142.13    3.33
   5   0   3  155.61    4.14
   6   0   3   47.42    2.14
   7   0   3  116.36    3.80
   8   0   3    5.27    1.34
   9   0   3    3.74    1.22
  10   0   3  129.56    6.09
  11   0   3   43.22    3.37
  12   0   3   67.07    4.50
 -13   1   3   10.15    2.09
 -12   1   3   11.62    2.21
 -11   1   3    9.39    1.80
 -10   1   3    2.97    1.04
  -9   1   3    0.93    0.51
  -8   1   3   26.78    2.04
  -7   1   3  232.32    5.71
  -6   1   3   57.28    2.24
  -5   1   3  265.12    5.70
  -4   1   3   29.06    1.18
  -3   1   3   85.38    2.04
  -2   1   3   74.23    1.70
  -1   1   3   59.84    1.84
   0   1   3   58.34    1.71
   1   1   3   74.09    1.72
   2   1   3   30.43    1.38
   3   1   3  402.73    7.43
   4   1   3   19.16    1.06
   5   1   3   21.59    1.72
   6   1   3   78.59    2.97
   7   1   3  192.82    5.25
   8   1   3   50.51    2.77
   9   1   3   19.55    2.58
  10   1   3    9.97    2.07
  11   1   3   30.37    2.92
  12   1   3   28.55    3.82
 -13   2   3    3.20    1.33
 -12   2   3    2.98    1.17
 -11   2   3   80.97    4.53
 -10   2   3   25.07    2.78
  -9   2   3  123.68    3.99
  -8   2   3    4.04    0.76
  -7   2   3   11.15    1.01
  -6   2   3   58.59    1.88
  -5   2   3   60.39    1.80
  -4   2   3   12.65    0.89
  -3   2   3   32.98    1.12
  -2   2   3  318.91    4.96
  -1   2   3   76.31    2.12
   0   2   3  320.37    5.19
   1   2   3   87.31    1.85
   2   2   3   10.69    1.00
   3   2   3   78.79    2.41
   4   2   3   51.00    2.22
   5   2   3   10.79    1.31
   6   2   3   68.45    2.88
   7   2   3   19.99    1.90
   8   2   3  139.35    4.69
   9   2   3   39.60    3.84
  10   2   3   18.05    2.64
  11   2   3    6.00    1.79
 -14   3   3   70.91    8.15
 -13   3   3    4.79    1.47
 -12   3   3   32.48    3.46
 -11   3   3   13.09    2.12
 -10   3   3   15.34    2.13
  -9   3   3   29.27    2.15
  -8   3   3   15.33    1.51
  -7   3   3   20.23    1.33
  -6   3   3  254.19    4.70
  -5   3   3   81.22    2.11
  -4   3   3  405.62    6.36
  -3   3   3   75.32    1.80
  -2   3   3   82.73    2.39
  -1   3   3   33.78    1.20
   0   3   3   75.26    1.85
   1   3   3   30.38    1.43
   2   3   3   59.03    2.11
   3   3   3  245.09    5.41
   4   3   3   98.74    3.32
   5   3   3  202.80    5.44
   6   3   3    0.73    0.50
   7   3   3    8.40    1.30
   8   3   3   25.93    2.38
   9   3   3    2.07    1.14
  10   3   3   30.09    3.57
  11   3   3   45.81    6.32
 -14   4   3    7.19    1.96
 -13   4   3   59.17    4.83
 -12   4   3    5.52    1.37
 -11   4   3    3.32    1.10
 -10   4   3   26.52    2.09
  -9   4   3  226.43    5.71
  -8   4   3   74.61    2.80
  -7   4   3   95.74    2.56
  -6   4   3   51.80    1.73
  -5   4   3   18.00    1.12
  -4   4   3  139.84    2.90
  -3   4   3   29.55    1.07
  -2   4   3   11.77    0.87
  -1   4   3  398.66    6.37
   0   4   3  138.06    2.86
   1   4   3  269.93    5.73
   2   4   3   58.93    2.20
   3   4   3   18.34    1.31
   4   4   3   76.32    2.97
   5   4   3    7.07    1.13
   6   4   3    5.26    1.05
   7   4   3   45.28    2.88
   8   4   3  128.08    4.69
   9   4   3   29.03    3.58
  10   4   3   36.18    6.87
 -14   5   3    0.86    1.07
 -13   5   3   35.84    3.72
 -12   5   3   20.69    2.73
 -11   5   3   26.50    2.82
 -10   5   3   16.20    1.70
  -9   5   3    4.24    0.84
  -8   5   3  209.40    5.28
  -7   5   3    9.84    0.91
  -6   5   3   23.98    1.24
  -5   5   3  149.74    3.22
  -4   5   3  266.98    4.72
  -3   5   3   56.33    1.76
  -2   5   3   80.04    2.11
  -1   5   3   18.70    1.06
   0   5   3  152.22    3.43
   1   5   3   58.96    2.24
   2   5   3   12.09    1.26
   3   5   3   17.07    1.66
   4   5   3  227.68    5.88
   5   5   3   16.72    1.70
   6   5   3   78.69    3.45
   7   5   3   -0.18    0.69
   8   5   3   -0.53    0.80
   9   5   3   11.91    3.39
 -14   6   3    1.90    1.30
 -13   6   3   67.56    4.70
 -12   6   3   19.51    2.59
 -11   6   3   82.09    3.37
 -10   6   3    5.30    1.00
  -9   6   3    1.12    0.53
  -8   6   3   76.46    2.87
  -7   6   3   79.74    2.32
  -6   6   3   46.99    1.67
  -5   6   3   57.66    1.82
  -4   6   3   58.27    1.58
  -3   6   3  249.46    4.65
  -2   6   3   50.56    1.72
  -1   6   3   25.44    1.34
   0   6   3   49.78    2.08
   1   6   3  238.18    5.73
   2   6   3    5.45    0.80
   3   6   3   28.29    2.19
   4   6   3   21.49    2.49
   5   6   3   22.82    2.71
   6   6   3   18.20    2.55
   7   6   3    2.70    1.21
   8   6   3   12.73    2.38
 -14   7   3   29.93    5.06
 -13   7   3    2.66    1.18
 -12   7   3   -0.31    0.66
 -11   7   3   41.59    2.86
 -10   7   3    8.22    1.28
  -9   7   3   22.83    1.94
  -8   7   3  187.79    4.98
  -7   7   3  123.01    3.16
  -6   7   3  240.62    4.78
  -5   7   3   10.31    0.94
  -4   7   3   18.95    1.50
  -3   7   3   96.62    2.57
  -2   7   3   10.76    0.98
  -1   7   3   76.35    2.78
   0   7   3  124.02    3.73
   1   7   3   26.37    2.00
   2   7   3  114.28    3.85
   3   7   3   13.06    1.92
   4   7   3    2.51    1.00
   5   7   3   17.27    2.45
   6   7   3   69.98    4.69
   7   7   3   21.28    2.95
 -14   8   3   12.73    3.56
 -13   8   3    0.98    1.20
 -12   8   3  125.72    5.99
 -11   8   3   21.38    2.11
 -10   8   3  147.44    4.64
  -9   8   3   46.70    2.46
  -8   8   3    6.28    1.00
  -7   8   3   29.36    1.92
  -6   8   3    5.13    0.71
  -5   8   3   15.86    1.48
  -4   8   3   75.62    2.78
  -3   8   3  206.75    5.17
  -2   8   3   75.06    3.57
  -1   8   3  195.22    4.98
   0   8   3    7.43    1.14
   1   8   3    2.43    0.74
   2   8   3   21.86    2.56
   3   8   3    9.94    1.81
   4   8   3    6.60    1.58
   5   8   3   32.29    3.56
   6   8   3    1.21    1.11
 -14   9   3   20.64    4.20
 -13   9   3   40.82    5.80
 -12   9   3    1.62    1.03
 -11   9   3   30.18    2.99
 -10   9   3   27.84    2.90
  -9   9   3    3.11    1.11
  -8   9   3    2.26    0.87
  -7   9   3  116.92    4.90
  -6   9   3   26.59    2.01
  -5   9   3  230.66    5.64
  -4   9   3    5.40    0.93
  -3   9   3    0.95    0.55
  -2   9   3   18.72    2.23
  -1   9   3   47.55    3.25
   0   9   3    3.02    1.03
   1   9   3    3.13    0.89
   2   9   3   87.95    4.59
   3   9   3   32.45    3.31
   4   9   3   63.82    5.05
   5   9   3    0.76    1.12
 -14  10   3   33.64    5.99
 -13  10   3   34.97    5.55
 -12  10   3   15.41    2.36
 -11  10   3   12.66    2.09
 -10  10   3  131.92    5.66
  -9  10   3    4.08    1.22
  -8  10   3   22.95    2.63
  -7  10   3   14.01    2.04
  -6  10   3   25.60    2.05
  -5  10   3   15.38    1.65
  -4  10   3    5.95    1.02
  -3  10   3    6.27    1.35
  -2  10   3  150.24    5.74
  -1  10   3   20.94    2.49
   0  10   3  141.28    5.73
   1  10   3   10.64    2.84
   2  10   3    5.28    2.20
   3  10   3   10.95    3.04
   4  10   3    5.64    2.44
 -13  11   3    6.69    2.44
 -12  11   3   37.29    3.71
 -11  11   3   43.99    4.04
 -10  11   3   11.01    2.02
  -9  11   3   92.28    4.66
  -8  11   3   13.41    2.19
  -7  11   3    4.04    1.21
  -6  11   3   26.30    2.22
  -5  11   3   76.35    3.24
  -4  11   3   35.42    3.26
  -3  11   3   19.73    2.50
  -2  11   3   37.04    3.46
  -1  11   3   13.37    2.14
   0  11   3   39.15    3.67
   1  11   3   12.60    3.27
   2  11   3    3.00    2.02
 -13  12   3   32.19    5.72
 -12  12   3   58.36    4.88
 -11  12   3   14.00    2.32
 -10  12   3    2.93    1.16
  -9  12   3   26.74    3.10
  -8  12   3    9.14    1.85
  -7  12   3   21.01    2.71
  -6  12   3   19.82    2.01
  -5  12   3   -0.37    0.68
  -4  12   3  128.50    5.61
  -3  12   3    2.87    1.18
  -2  12   3   18.80    2.60
  -1  12   3   28.96    3.32
   0  12   3   59.76    6.89
 -12  13   3   15.41    2.68
 -11  13   3    2.08    1.30
 -10  13   3    7.44    1.79
  -9  13   3   64.98    4.49
  -8  13   3   37.01    3.76
  -7  13   3   68.58    4.22
  -6  13   3    1.83    1.72
  -5  13   3   -0.07    0.84
  -4  13   3   25.81    3.14
  -3  13   3   29.11    3.32
  -2  13   3    9.67    2.00
  -1  13   3   20.33    2.82
 -11  14   3   77.18    8.97
 -10  14   3   13.01    2.43
  -9  14   3    0.29    1.08
  -8  14   3    2.51    2.09
  -7  14   3   19.74    4.24
  -6  14   3   12.53    3.31
  -5  14   3   20.89    2.84
  -4  14   3   43.10    4.14
  -3  14   3   43.88    4.70
   3 -13   4    1.04    1.18
   4 -13   4    6.85    1.87
   5 -13   4   44.60    4.40
   6 -13   4   84.55    5.11
   7 -13   4    6.51    1.80
   8 -13   4   29.30    2.85
   9 -13   4   11.15    2.28
  10 -13   4    5.27    1.70
  11 -13   4   16.77    4.19
   0 -12   4    5.36    2.71
   1 -12   4    1.60    1.23
   2 -12   4  111.45    5.95
   3 -12   4    3.09    1.32
   4 -12   4   22.98    2.96
   5 -12   4    1.76    1.03
   6 -12   4   14.85    2.37
   7 -12   4    0.11    0.60
   8 -12   4   18.48    2.16
   9 -12   4   31.97    3.60
  10 -12   4   71.73    4.63
  11 -12   4   90.71    5.31
  12 -12   4    2.98    1.22
  -1 -11   4   78.57    5.46
   0 -11   4    3.71    1.45
   1 -11   4    5.44    1.55
   2 -11   4   12.53    2.18
   3 -11   4   22.37    2.85
   4 -11   4    0.79    0.72
   5 -11   4   28.35    3.15
   6 -11   4   11.70    1.67
   7 -11   4  213.15    6.42
   8 -11   4   16.87    2.45
   9 -11   4   28.26    3.25
  10 -11   4    1.36    0.79
  11 -11   4    8.23    1.94
  12 -11   4    1.41    1.15
  13 -11   4   -0.26    1.47
  -3 -10   4    5.42    1.45
  -2 -10   4   71.88    5.64
  -1 -10   4    1.82    0.92
   0 -10   4   16.00    2.43
   1 -10   4   10.03    1.93
   2 -10   4   21.36    2.71
   3 -10   4   65.68    3.95
   4 -10   4   82.91    4.37
   5 -10   4   31.46    2.57
   6 -10   4   21.93    2.15
   7 -10   4   24.26    2.78
   8 -10   4    7.71    1.62
   9 -10   4    6.33    1.24
  10 -10   4   13.90    2.31
  11 -10   4    8.00    1.86
  12 -10   4  123.62    6.25
  13 -10   4    0.72    1.05
  -4  -9   4   10.59    1.80
  -3  -9   4   32.29    3.64
  -2  -9   4   26.00    3.16
  -1  -9   4    6.67    1.31
   0  -9   4   64.41    4.05
   1  -9   4    6.58    1.47
   2  -9   4   24.85    2.78
   3  -9   4   90.70    4.44
   4  -9   4    7.34    1.49
   5  -9   4   58.19    2.78
   6  -9   4   23.22    2.08
   7  -9   4   42.33    2.84
   8  -9   4   44.82    3.03
   9  -9   4   79.26    4.30
  10  -9   4   12.37    2.11
  11  -9   4   13.83    2.08
  12  -9   4    3.52    1.14
  13  -9   4    4.16    1.20
  -6  -8   4    0.12    1.56
  -5  -8   4   24.86    2.60
  -4  -8   4   21.29    2.34
  -3  -8   4   12.46    1.62
  -2  -8   4    6.13    1.22
  -1  -8   4   46.46    3.89
   0  -8   4  160.24    6.28
   1  -8   4   22.38    2.49
   2  -8   4   15.32    2.02
   3  -8   4   34.84    2.99
   4  -8   4   27.54    2.13
   5  -8   4  131.19    4.14
   6  -8   4    0.56    0.43
   7  -8   4    2.83    0.66
   8  -8   4  165.00    5.09
   9  -8   4    9.04    1.41
  10  -8   4   26.46    2.47
  11  -8   4   20.88    2.81
  12  -8   4   28.08    3.37
  13  -8   4   50.13    4.82
  14  -8   4   42.73    9.17
  -7  -7   4    2.17    1.97
  -6  -7   4    7.05    1.50
  -5  -7   4    0.88    0.79
  -4  -7   4  202.62    7.88
  -3  -7   4   28.59    3.08
  -2  -7   4   39.42    2.88
  -1  -7   4    2.06    0.62
   0  -7   4   19.89    1.87
   1  -7   4   13.43    1.85
   2  -7   4    2.19    0.79
   3  -7   4   33.13    2.06
   4  -7   4  155.62    4.35
   5  -7   4  118.71    2.87
   6  -7   4   55.66    1.75
   7  -7   4   20.55    1.63
   8  -7   4   23.74    2.60
   9  -7   4   22.66    2.54
  10  -7   4   59.89    4.21
  11  -7   4    0.59    0.81
  12  -7   4    3.00    1.34
  13  -7   4   77.54    5.06
  -8  -6   4   36.11    5.89
  -7  -6   4   81.80    5.00
  -6  -6   4   15.90    2.00
  -5  -6   4   11.59    1.66
  -4  -6   4   19.74    2.01
  -3  -6   4   23.85    2.16
  -2  -6   4    0.61    0.57
  -1  -6   4   52.31    2.55
   0  -6   4   10.71    1.31
   1  -6   4  319.17    8.61
   2  -6   4    2.42    0.75
   3  -6   4   13.75    1.10
   4  -6   4    7.11    0.82
   5  -6   4   14.01    0.97
   6  -6   4    9.36    0.89
   7  -6   4   12.49    1.45
   8  -6   4   20.86    1.93
   9  -6   4   84.41    3.53
  10  -6   4   80.35    4.49
  11  -6   4   30.12    3.41
  12  -6   4   16.47    2.68
  13  -6   4    5.74    1.78
  -8  -5   4   52.53    4.76
  -7  -5   4    1.35    0.89
  -6  -5   4   29.62    2.66
  -5  -5   4   27.55    2.41
  -4  -5   4   56.48    2.80
  -3  -5   4  125.23    4.18
  -2  -5   4  116.55    3.91
  -1  -5   4   14.06    1.45
   0  -5   4    1.10    0.48
   1  -5   4    7.63    1.02
   2  -5   4   29.55    1.44
   3  -5   4   10.69    0.94
   4  -5   4   47.96    1.99
   5  -5   4    0.23    0.30
   6  -5   4  312.98    5.85
   7  -5   4    3.06    0.67
   8  -5   4   33.33    3.03
   9  -5   4    4.63    1.03
  10  -5   4   25.23    2.40
  11  -5   4   10.90    1.71
  12  -5   4    0.10    0.92
  13  -5   4   18.28    3.08
  -9  -4   4    6.67    1.80
  -8  -4   4   27.25    3.28
  -7  -4   4    1.09    0.77
  -6  -4   4   76.11    3.39
  -5  -4   4    5.21    1.01
  -4  -4   4   26.26    2.12
  -3  -4   4  150.45    4.41
  -2  -4   4    8.15    1.09
  -1  -4   4   43.89    2.02
   0  -4   4   35.76    1.76
   1  -4   4   56.24    2.19
   2  -4   4  159.14    3.43
   3  -4   4  373.01    7.25
   4  -4   4   34.70    1.64
   5  -4   4    8.18    0.83
   6  -4   4    3.29    0.72
   7  -4   4   32.98    2.09
   8  -4   4   26.96    2.76
   9  -4   4   52.69    3.70
  10  -4   4   26.33    2.41
  11  -4   4  215.65    6.72
  12  -4   4   17.57    2.21
  13  -4   4   10.46    2.19
 -10  -3   4    0.89    1.07
  -9  -3   4    3.91    1.37
  -8  -3   4   22.97    2.43
  -7  -3   4   63.47    3.10
  -6  -3   4   95.15    3.65
  -5  -3   4   30.71    2.29
  -4  -3   4   33.06    2.11
  -3  -3   4   10.61    1.23
  -2  -3   4   10.67    1.16
  -1  -3   4  367.34    7.43
   0  -3   4   29.20    1.63
   1  -3   4    3.52    0.49
   2  -3   4  159.61    3.33
   3  -3   4   28.89    1.25
   4  -3   4   59.31    1.87
   5  -3   4   31.17    1.34
   6  -3   4   11.59    1.32
   7  -3   4  143.27    4.34
   8  -3   4  132.81    5.50
   9  -3   4   23.27    2.77
  10  -3   4   22.33    2.81
  11  -3   4   12.49    1.81
  12  -3   4   25.79    2.73
  13  -3   4    6.40    1.68
 -11  -2   4    1.46    1.77
 -10  -2   4  116.66    6.00
  -9  -2   4   12.31    2.13
  -8  -2   4   30.70    2.55
  -7  -2   4   28.09    2.40
  -6  -2   4   18.61    1.77
  -5  -2   4    3.11    0.73
  -4  -2   4    4.87    0.87
  -3  -2   4   31.21    1.86
  -2  -2   4  158.83    4.07
  -1  -2   4  163.77    3.88
   0  -2   4   38.11    1.56
   1  -2   4   71.60    1.90
   2  -2   4   37.80    1.32
   3  -2   4    4.11    0.56
   4  -2   4  160.72    3.38
   5  -2   4   11.72    1.16
   6  -2   4    8.59    1.13
   7  -2   4  120.10    3.91
   8  -2   4    0.92    0.73
   9  -2   4   38.99    3.69
  10  -2   4    6.58    1.70
  11  -2   4   26.66    2.68
  12  -2   4   73.07    4.44
  13  -2   4   16.83    4.19
 -11  -1   4    0.78    1.14
 -10  -1   4    4.02    1.45
  -9  -1   4   10.28    1.88
  -8  -1   4    6.40    1.16
  -7  -1   4   26.44    2.16
  -6  -1   4   11.66    1.42
  -5  -1   4  306.26    6.89
  -4  -1   4    9.16    1.11
  -3  -1   4   60.49    2.21
  -2  -1   4    4.04    0.61
  -1  -1   4   69.41    1.87
   0  -1   4   22.55    1.04
   1  -1   4   21.71    0.96
   2  -1   4   69.08    2.16
   3  -1   4  159.56    3.25
   4  -1   4  367.00    7.36
   5  -1   4   43.97    2.54
   6  -1   4   12.68    1.43
   7  -1   4   54.72    2.61
   8  -1   4    2.20    0.95
   9  -1   4   38.86    3.80
  10  -1   4    9.09    1.89
  11  -1   4    2.88    1.30
  12  -1   4   78.95    4.25
 -11   0   4    7.44    1.94
 -10   0   4   17.51    2.59
  -9   0   4   69.52    3.23
  -8   0   4  168.33    5.05
  -7   0   4   22.48    1.92
  -6   0   4    8.38    1.12
  -5   0   4    0.61    0.41
  -4   0   4   34.94    1.84
  -3   0   4   32.92    1.30
  -2   0   4   40.13    1.41
  -1   0   4   21.91    1.53
   0   0   4  925.51   15.59
   1   0   4   20.96    1.24
   2   0   4   37.10    1.30
   3   0   4   31.10    1.63
   4   0   4   32.96    1.70
   5   0   4    0.53    0.44
   6   0   4    8.80    1.24
   7   0   4   18.43    1.85
   8   0   4  153.34    6.50
   9   0   4   69.74    4.38
  10   0   4   18.19    2.76
  11   0   4    4.61    1.67
  12   0   4    3.65    2.09
 -12   1   4   83.92    7.43
 -11   1   4    4.25    1.89
 -10   1   4    4.85    1.27
  -9   1   4   50.44    2.96
  -8   1   4    3.56    0.80
  -7   1   4   56.92    2.16
  -6   1   4   14.42    1.16
  -5   1   4   44.38    1.67
  -4   1   4  351.60    7.49
  -3   1   4  153.00    4.04
  -2   1   4   68.26    2.34
  -1   1   4   20.94    1.47
   0   1   4   24.19    1.34
   1   1   4   68.86    1.87
   2   1   4    3.91    0.71
   3   1   4   56.67    2.20
   4   1   4    6.81    1.30
   5   1   4  299.80    7.15
   6   1   4   11.41    1.44
   7   1   4   25.83    2.22
   8   1   4    8.69    1.87
   9   1   4    7.04    1.78
  10   1   4    6.94    1.82
  11   1   4    0.33    1.15
 -12   2   4   75.42    6.81
 -11   2   4   25.46    4.69
 -10   2   4    6.40    1.56
  -9   2   4   35.48    3.24
  -8   2   4    0.65    0.72
  -7   2   4  116.46    3.75
  -6   2   4    9.42    1.14
  -5   2   4   10.40    1.17
  -4   2   4  157.43    4.21
  -3   2   4    3.35    0.67
  -2   2   4   37.17    1.66
  -1   2   4   69.63    2.24
   0   2   4   40.27    1.40
   1   2   4  155.88    4.06
   2   2   4  155.54    4.16
   3   2   4   31.71    1.77
   4   2   4    4.19    1.03
   5   2   4    3.03    0.77
   6   2   4   18.05    1.86
   7   2   4   26.97    2.29
   8   2   4   26.10    2.48
   9   2   4   14.48    2.48
  10   2   4  116.86    6.27
  11   2   4    0.73    1.87
 -13   3   4    5.39    2.58
 -12   3   4   28.83    5.07
 -11   3   4   14.43    3.30
 -10   3   4   26.89    2.96
  -9   3   4   23.39    2.64
  -8   3   4  128.10    5.18
  -7   3   4  142.85    4.23
  -6   3   4   13.06    1.36
  -5   3   4   28.86    1.91
  -4   3   4   56.71    2.26
  -3   3   4   29.14    1.61
  -2   3   4  163.72    3.98
  -1   3   4    4.43    0.58
   0   3   4   31.69    1.90
   1   3   4  363.72    7.55
   2   3   4    9.62    1.11
   3   3   4   12.07    1.25
   4   3   4   30.68    2.34
   5   3   4   33.65    2.55
   6   3   4   90.17    3.70
   7   3   4   68.90    3.44
   8   3   4   20.01    2.21
   9   3   4    3.35    1.43
  10   3   4    1.31    1.56
 -13   4   4   19.10    4.31
 -12   4   4   20.57    4.40
 -11   4   4  217.77   11.64
 -10   4   4   22.53    2.68
  -9   4   4   53.50    3.28
  -8   4   4   29.86    2.81
  -7   4   4   34.18    2.10
  -6   4   4    3.77    0.70
  -5   4   4    6.92    0.95
  -4   4   4   36.51    1.77
  -3   4   4  367.83    7.38
  -2   4   4  163.06    3.55
  -1   4   4   59.44    1.99
   0   4   4   35.92    1.83
   1   4   4   45.93    2.07
   2   4   4   10.09    1.19
   3   4   4  150.49    5.58
   4   4   4   29.40    2.27
   5   4   4    5.95    1.16
   6   4   4   90.58    3.72
   7   4   4    0.53    0.66
   8   4   4   30.58    2.82
   9   4   4    4.27    1.71
 -13   5   4   32.23    5.67
 -12   5   4    0.09    0.99
 -11   5   4   13.11    2.19
 -10   5   4   26.64    2.86
  -9   5   4    5.88    1.41
  -8   5   4   35.82    3.16
  -7   5   4    2.39    0.65
  -6   5   4  311.00    6.83
  -5   5   4    0.49    0.40
  -4   5   4   41.49    1.93
  -3   5   4   11.03    1.02
  -2   5   4   31.27    1.55
  -1   5   4    8.21    1.07
   0   5   4    1.18    0.54
   1   5   4   14.54    1.46
   2   5   4  107.48    3.61
   3   5   4  135.74    4.38
   4   5   4   52.75    2.83
   5   5   4   24.92    2.31
   6   5   4   29.74    2.65
   7   5   4    2.87    1.37
   8   5   4   45.34    4.62
 -13   6   4    8.18    2.82
 -12   6   4   22.39    4.06
 -11   6   4   31.42    3.31
 -10   6   4   77.96    4.17
  -9   6   4   81.83    4.15
  -8   6   4   19.41    2.29
  -7   6   4   12.40    1.39
  -6   6   4    9.18    1.18
  -5   6   4   13.92    1.38
  -4   6   4    7.03    0.84
  -3   6   4   10.52    1.01
  -2   6   4    2.04    0.63
  -1   6   4  312.31    6.92
   0   6   4    9.05    1.21
   1   6   4   55.23    2.49
   2   6   4    0.97    0.64
   3   6   4   28.38    2.33
   4   6   4   25.75    2.44
   5   6   4    9.25    1.89
   6   6   4   16.52    2.55
   7   6   4   82.11    5.02
 -13   7   4   84.50    7.34
 -12   7   4    0.87    1.31
 -11   7   4   -0.01    0.78
 -10   7   4   67.15    3.84
  -9   7   4   34.01    3.19
  -8   7   4   24.97    2.67
  -7   7   4   20.18    1.77
  -6   7   4   54.92    2.45
  -5   7   4  120.48    3.74
  -4   7   4  158.05    4.31
  -3   7   4   31.13    1.99
  -2   7   4    2.94    0.73
  -1   7   4   12.38    1.43
   0   7   4   18.16    1.73
   1   7   4    2.99    0.81
   2   7   4   51.17    3.56
   3   7   4   23.86    2.77
   4   7   4  210.72    7.96
   5   7   4   -0.46    0.79
   6   7   4    8.92    2.03
   7   7   4    2.66    1.97
 -13   8   4   62.68    7.38
 -12   8   4   20.75    2.82
 -11   8   4   21.05    2.74
 -10   8   4   25.10    2.86
  -9   8   4    7.16    1.54
  -8   8   4  160.35    6.12
  -7   8   4    3.73    1.07
  -6   8   4    0.86    0.52
  -5   8   4  133.60    4.08
  -4   8   4   26.44    2.65
  -3   8   4   38.78    3.16
  -2   8   4   15.59    2.05
  -1   8   4   23.15    2.05
   0   8   4  169.56    4.95
   1   8   4   39.26    2.74
   2   8   4    6.33    1.56
   3   8   4   18.46    2.58
   4   8   4   22.78    2.98
   5   8   4   27.28    3.44
 -13   9   4    4.50    2.22
 -12   9   4    5.27    1.66
 -11   9   4   12.23    2.13
 -10   9   4    8.52    1.84
  -9   9   4   72.46    4.12
  -8   9   4   48.37    3.90
  -7   9   4   43.14    3.64
  -6   9   4   27.54    2.15
  -5   9   4   57.29    2.68
  -4   9   4    7.93    1.52
  -3   9   4   96.61    4.45
  -2   9   4   26.69    2.84
  -1   9   4   10.93    1.80
   0   9   4   72.82    4.00
   1   9   4    6.14    2.22
   2   9   4   23.34    2.88
   3   9   4   32.86    3.61
   4   9   4    9.64    2.05
 -13  10   4    0.73    1.61
 -12  10   4  112.95    5.72
 -11  10   4    5.12    1.49
 -10  10   4   14.97    2.36
  -9  10   4    9.44    1.86
  -8  10   4    4.32    1.35
  -7  10   4   19.79    2.39
  -6  10   4   22.61    2.06
  -5  10   4   29.20    2.99
  -4  10   4   79.74    4.14
  -3  10   4   60.01    3.64
  -2  10   4   26.66    2.89
  -1  10   4   10.58    1.88
   0  10   4   16.00    2.36
   1  10   4    4.28    2.11
   2  10   4   64.21    7.10
   3  10   4    7.04    2.63
 -13  11   4    1.31    2.11
 -12  11   4    1.66    1.30
 -11  11   4    7.12    1.79
 -10  11   4    3.21    1.21
  -9  11   4   25.04    2.98
  -8  11   4   15.39    2.36
  -7  11   4  221.12    7.89
  -6  11   4   10.05    1.81
  -5  11   4   36.06    3.44
  -4  11   4    0.83    0.81
  -3  11   4   26.21    3.02
  -2  11   4    9.89    1.77
  -1  11   4    6.64    1.68
   0  11   4    6.37    2.35
   1  11   4   82.63    7.14
 -12  12   4    3.39    1.50
 -11  12   4   85.17    4.99
 -10  12   4   73.87    4.62
  -9  12   4   23.77    3.08
  -8  12   4   18.44    3.34
  -7  12   4    0.76    1.36
  -6  12   4   19.11    3.90
  -5  12   4    0.74    0.95
  -4  12   4   26.95    3.15
  -3  12   4    1.08    1.05
  -2  12   4  121.11    5.83
  -1  12   4    1.82    1.32
 -11  13   4   17.90    3.96
 -10  13   4    7.09    1.84
  -9  13   4    6.07    2.71
  -8  13   4   17.25    4.11
  -7  13   4    7.65    2.78
  -6  13   4   88.00    7.17
  -5  13   4   45.31    4.17
  -4  13   4    4.33    1.51
  -3  13   4    1.39    1.30
  -2  13   4    1.60    2.05
   6 -13   5    2.06    1.83
   7 -13   5   15.52    3.72
   2 -12   5   14.98    3.78
   3 -12   5    3.05    1.22
   4 -12   5  109.46    5.71
   5 -12   5    1.46    1.15
   6 -12   5   18.40    2.68
   7 -12   5   48.48    4.44
   8 -12   5   16.69    2.48
   9 -12   5   16.03    2.69
  10 -12   5    1.95    1.77
   0 -11   5    0.44    1.77
   1 -11   5   22.96    3.16
   2 -11   5    5.31    1.30
   3 -11   5    7.10    1.43
   4 -11   5   23.81    3.05
   5 -11   5   37.23    3.72
   6 -11   5   44.62    4.07
   7 -11   5    1.92    1.06
   8 -11   5   21.78    2.84
   9 -11   5   24.66    2.78
  10 -11   5    4.70    1.63
  11 -11   5    0.99    1.10
  -2 -10   5    5.37    2.54
  -1 -10   5    5.12    1.35
   0 -10   5  147.18    6.69
   1 -10   5   37.78    3.11
   2 -10   5  109.22    5.43
   3 -10   5    2.72    0.85
   4 -10   5    1.74    0.79
   5 -10   5   19.73    2.45
   6 -10   5   45.22    3.89
   7 -10   5   23.20    2.17
   8 -10   5   19.82    2.29
   9 -10   5   10.29    2.02
  10 -10   5  137.33    5.59
  11 -10   5   24.92    3.36
  12 -10   5   13.95    2.61
  -3  -9   5   14.35    2.09
  -2  -9   5   24.48    3.07
  -1  -9   5    9.99    1.63
   0  -9   5    2.95    1.00
   1  -9   5    1.12    0.77
   2  -9   5    0.18    0.56
   3  -9   5    1.82    0.77
   4  -9   5   10.46    1.43
   5  -9   5   24.58    2.72
   6  -9   5    6.42    1.17
   7  -9   5   71.29    3.95
   8  -9   5    7.06    1.32
   9  -9   5    1.14    0.78
  10  -9   5   41.80    4.07
  11  -9   5    3.27    1.33
  12  -9   5    3.70    1.53
  -4  -8   5   18.90    2.39
  -3  -8   5   20.39    2.29
  -2  -8   5   18.06    2.10
  -1  -8   5    6.78    1.26
   0  -8   5    8.06    1.40
   1  -8   5   69.30    3.28
   2  -8   5  115.35    4.20
   3  -8   5  221.98    7.54
   4  -8   5   25.59    2.67
   5  -8   5    9.77    1.37
   6  -8   5   20.26    1.66
   7  -8   5   12.02    1.34
   8  -8   5    5.70    1.03
   9  -8   5    0.40    0.59
  10  -8   5  100.28    4.37
  11  -8   5    3.84    1.45
  12  -8   5  101.84    5.81
  -6  -7   5   17.61    4.04
  -5  -7   5   32.83    5.42
  -4  -7   5    1.02    0.86
  -3  -7   5   24.51    2.89
  -2  -7   5   70.77    3.37
  -1  -7   5   10.15    1.47
   0  -7   5   10.59    1.53
   1  -7   5    7.66    1.23
   2  -7   5   12.82    1.54
   3  -7   5   32.21    2.35
   4  -7   5   14.19    1.56
   5  -7   5    2.66    0.63
   6  -7   5  294.41    4.28
   7  -7   5   14.31    1.29
   8  -7   5   72.45    3.82
   9  -7   5   -0.32    0.54
  10  -7   5    2.51    1.20
  11  -7   5   25.44    3.36
  12  -7   5    1.15    1.12
  -6  -6   5   13.58    2.53
  -5  -6   5   47.06    6.42
  -4  -6   5   40.78    3.92
  -3  -6   5    5.85    1.20
  -2  -6   5   22.32    2.15
  -1  -6   5  282.22    7.18
   0  -6   5   11.99    1.47
   1  -6   5   35.02    2.43
   2  -6   5   26.45    2.07
   3  -6   5  151.97    4.39
   4  -6   5    1.34    0.46
   5  -6   5   81.36    2.16
   6  -6   5   10.17    1.02
   7  -6   5    6.97    1.49
   8  -6   5  125.09    4.44
   9  -6   5    0.59    0.61
  10  -6   5    4.28    1.31
  11  -6   5   34.58    3.86
  12  -6   5   19.98    2.96
  -7  -5   5    0.93    1.23
  -6  -5   5   40.69    3.99
  -5  -5   5   21.92    2.88
  -4  -5   5   19.51    2.65
  -3  -5   5   10.00    1.87
  -2  -5   5    4.60    1.27
  -1  -5   5   74.21    3.96
   0  -5   5    6.79    1.35
   1  -5   5   14.19    1.91
   2  -5   5   73.75    3.58
   3  -5   5    2.88    0.72
   4  -5   5  189.21    4.90
   5  -5   5    8.18    1.06
   6  -5   5   26.57    2.17
   7  -5   5   12.65    1.51
   8  -5   5  215.48    7.84
   9  -5   5   10.48    1.98
  10  -5   5   20.12    2.27
  11  -5   5   46.58    3.60
  12  -5   5   37.37    4.16
  -8  -4   5   91.30    7.86
  -7  -4   5   26.90    3.31
  -6  -4   5    4.20    1.29
  -5  -4   5    8.56    1.78
  -4  -4   5   24.39    2.88
  -3  -4   5   14.67    2.06
  -2  -4   5    2.68    0.97
  -1  -4   5  175.05    6.22
   0  -4   5    3.61    1.04
   1  -4   5  338.46    9.14
   2  -4   5    2.23    0.62
   3  -4   5   13.31    1.37
   4  -4   5    3.11    0.63
   5  -4   5   13.52    1.42
   6  -4   5   28.64    2.29
   7  -4   5   29.10    2.34
   8  -4   5   25.98    3.01
   9  -4   5   18.28    2.56
  10  -4   5   38.90    3.82
  11  -4   5    1.88    1.00
  12  -4   5   16.52    2.27
  -9  -3   5    0.85    1.84
  -8  -3   5    6.85    1.73
  -7  -3   5    2.38    1.26
  -6  -3   5    0.90    0.85
  -5  -3   5  224.27    7.87
  -4  -3   5   33.52    3.18
  -3  -3   5  131.96    5.49
  -2  -3   5    1.62    0.74
  -1  -3   5   12.61    1.76
   0  -3   5   69.05    3.33
   1  -3   5   34.89    2.07
   2  -3   5   34.35    1.91
   3  -3   5   73.64    2.63
   4  -3   5  341.08    7.46
   5  -3   5   75.92    3.73
   6  -3   5  149.08    4.69
   7  -3   5   15.23    1.69
   8  -3   5   10.53    1.99
   9  -3   5    8.46    1.83
  10  -3   5   32.02    3.65
  11  -3   5   20.71    3.07
  12  -3   5   16.58    2.28
  -9  -2   5    5.33    2.34
  -8  -2   5   99.62    5.24
  -7  -2   5    0.88    0.90
  -6  -2   5  122.49    5.48
  -5  -2   5   13.45    2.05
  -4  -2   5   28.61    2.84
  -3  -2   5   72.24    3.68
  -2  -2   5    2.57    0.85
  -1  -2   5   37.58    2.21
   0  -2   5   72.43    2.73
   1  -2   5   53.72    2.24
   2  -2   5   72.64    2.59
   3  -2   5   35.83    2.11
   4  -2   5    2.77    0.69
   5  -2   5    3.18    0.96
   6  -2   5    1.95    0.70
   7  -2   5    1.69    0.69
   8  -2   5   18.52    2.57
   9  -2   5   70.76    4.40
  10  -2   5   15.34    2.59
  11  -2   5   27.90    3.57
  12  -2   5    2.16    2.00
 -10  -1   5   19.69    4.37
  -9  -1   5   36.32    3.80
  -8  -1   5    0.53    0.97
  -7  -1   5   64.52    3.92
  -6  -1   5    5.79    1.45
  -5  -1   5   29.43    2.96
  -4  -1   5   12.95    1.86
  -3  -1   5  339.71    7.62
  -2  -1   5   34.09    2.09
  -1  -1   5   51.08    2.26
   0  -1   5   73.64    2.68
   1  -1   5   74.65    2.60
   2  -1   5   55.17    2.82
   3  -1   5   37.19    2.14
   4  -1   5   14.35    1.46
   5  -1   5  178.57    6.35
   6  -1   5   79.87    3.36
   7  -1   5  276.13    7.28
   8  -1   5   10.82    2.07
   9  -1   5    4.80    1.50
  10  -1   5    7.49    1.99
  11  -1   5    4.00    1.70
 -10   0   5  150.68    9.93
  -9   0   5    3.28    1.35
  -8   0   5    7.62    1.38
  -7   0   5   15.44    1.77
  -6   0   5   10.90    1.37
  -5   0   5    6.22    1.11
  -4   0   5    2.74    0.75
  -3   0   5   73.68    2.86
  -2   0   5   77.55    2.84
  -1   0   5   71.42    2.66
   0   0   5    0.31    0.33
   1   0   5   74.65    3.33
   2   0   5   76.45    2.85
   3   0   5   73.12    2.79
   4   0   5    4.31    1.08
   5   0   5    6.41    1.36
   6   0   5   11.49    1.53
   7   0   5   11.25    1.55
   8   0   5    5.18    1.51
   9   0   5    3.29    1.36
  10   0   5  141.32    6.99
  11   0   5    2.42    1.92
 -11   1   5    1.66    1.48
 -10   1   5    6.59    1.77
  -9   1   5    8.37    1.80
  -8   1   5   10.93    1.99
  -7   1   5  277.77    7.14
  -6   1   5   79.02    3.22
  -5   1   5  187.44    5.15
  -4   1   5   12.31    1.41
  -3   1   5   40.71    2.14
  -2   1   5   50.54    2.22
  -1   1   5   73.67    2.63
   0   1   5   71.95    3.35
   1   1   5   52.13    2.37
   2   1   5   39.49    2.08
   3   1   5  337.29    7.47
   4   1   5   13.77    1.93
   5   1   5   28.76    2.35
   6   1   5    8.34    1.34
   7   1   5   68.34    3.33
   8   1   5   -0.06    0.71
   9   1   5   42.00    4.40
  10   1   5   29.49    3.83
 -11   2   5   22.69    4.40
 -10   2   5   22.95    2.93
  -9   2   5   72.88    4.21
  -8   2   5   19.54    2.55
  -7   2   5    4.07    0.96
  -6   2   5    1.52    0.65
  -5   2   5    2.14    0.68
  -4   2   5    2.19    0.67
  -3   2   5   35.01    2.09
  -2   2   5   72.20    2.65
  -1   2   5   57.44    2.99
   0   2   5   74.08    2.87
   1   2   5   33.63    2.07
   2   2   5    3.58    0.80
   3   2   5   74.88    3.85
   4   2   5   27.52    2.77
   5   2   5   10.97    1.50
   6   2   5  118.35    4.44
   7   2   5    1.46    0.78
   8   2   5  101.79    5.65
   9   2   5    5.36    1.69
  10   2   5   10.64    3.48
 -12   3   5   17.70    4.17
 -11   3   5   22.93    4.49
 -10   3   5   20.63    2.64
  -9   3   5    6.32    1.61
  -8   3   5   10.55    1.84
  -7   3   5   17.79    1.80
  -6   3   5  143.47    4.42
  -5   3   5   75.36    2.96
  -4   3   5  336.89    7.46
  -3   3   5   75.53    2.77
  -2   3   5   36.63    2.03
  -1   3   5   33.95    2.09
   0   3   5   72.52    2.88
   1   3   5   16.38    1.65
   2   3   5    3.78    0.81
   3   3   5  141.92    5.70
   4   3   5   29.56    2.99
   5   3   5  227.68    6.51
   6   3   5    0.07    0.60
   7   3   5    3.35    1.04
   8   3   5    9.41    2.22
   9   3   5    2.74    1.50
 -12   4   5   21.78    4.55
 -11   4   5    1.61    1.25
 -10   4   5   44.89    4.02
  -9   4   5   22.60    2.72
  -8   4   5   26.21    2.88
  -7   4   5   35.81    2.52
  -6   4   5   27.89    2.18
  -5   4   5   13.48    1.48
  -4   4   5    3.48    0.79
  -3   4   5   12.97    1.32
  -2   4   5    2.86    0.77
  -1   4   5  345.61    7.67
   0   4   5    3.53    0.84
   1   4   5  183.06    5.08
   2   4   5    1.28    0.62
   3   4   5   10.57    1.86
   4   4   5   26.86    2.46
   5   4   5   14.15    1.86
   6   4   5    3.21    0.98
   7   4   5   30.47    2.87
   8   4   5   90.41    5.66
 -12   5   5   50.97    6.89
 -11   5   5   46.43    4.25
 -10   5   5   18.29    2.59
  -9   5   5   14.15    2.22
  -8   5   5  223.89    7.72
  -7   5   5   12.58    1.52
  -6   5   5   31.34    2.32
  -5   5   5    7.37    1.12
  -4   5   5  186.86    4.98
  -3   5   5    2.83    0.80
  -2   5   5   76.03    3.02
  -1   5   5   13.70    1.51
   0   5   5    6.92    1.07
   1   5   5   84.01    3.25
   2   5   5    1.46    0.85
   3   5   5   15.81    2.23
   4   5   5   18.68    2.12
   5   5   5   20.04    2.26
   6   5   5   42.69    3.28
   7   5   5    0.31    1.02
 -12   6   5   28.92    5.09
 -11   6   5   35.01    3.64
 -10   6   5    3.80    1.26
  -9   6   5   -0.01    0.78
  -8   6   5  123.29    5.32
  -7   6   5    5.38    1.05
  -6   6   5   11.94    1.44
  -5   6   5   80.44    3.11
  -4   6   5    2.58    0.76
  -3   6   5  142.26    4.42
  -2   6   5   30.36    2.29
  -1   6   5   32.09    2.44
   0   6   5   11.10    1.47
   1   6   5  299.30    7.21
   2   6   5   22.95    2.75
   3   6   5    6.81    1.32
   4   6   5   46.01    3.44
   5   6   5   40.97    4.01
   6   6   5   16.27    2.66
   7   6   5    2.69    2.09
 -12   7   5    1.02    1.32
 -11   7   5   24.24    3.07
 -10   7   5    4.11    1.40
  -9   7   5    0.90    0.84
  -8   7   5   63.57    3.83
  -7   7   5   11.78    1.57
  -6   7   5  291.98    7.05
  -5   7   5    2.49    0.90
  -4   7   5   14.54    2.05
  -3   7   5   28.82    2.33
  -2   7   5   10.61    1.39
  -1   7   5    6.80    1.12
   0   7   5   13.46    1.65
   1   7   5   10.22    1.84
   2   7   5   76.99    4.44
   3   7   5   23.45    2.97
   4   7   5    2.07    1.09
   5   7   5   46.31    4.43
 -12   8   5  102.67    5.58
 -11   8   5    8.47    1.96
 -10   8   5  103.04    5.29
  -9   8   5    0.58    0.75
  -8   8   5    7.05    1.57
  -7   8   5   13.42    1.99
  -6   8   5   17.69    2.36
  -5   8   5   13.10    2.00
  -4   8   5   27.84    2.98
  -3   8   5  230.92    7.71
  -2   8   5  127.18    5.35
  -1   8   5   65.96    3.83
   0   8   5    6.13    1.15
   1   8   5    8.71    1.71
   2   8   5   23.98    2.98
   3   8   5   18.53    2.61
   4   8   5   22.30    3.20
 -12   9   5    2.17    1.50
 -11   9   5    2.54    1.21
 -10   9   5   36.52    3.80
  -9   9   5    2.99    1.18
  -8   9   5   12.24    1.99
  -7   9   5   71.93    6.02
  -6   9   5    7.07    1.58
  -5   9   5   25.83    2.88
  -4   9   5   13.14    2.04
  -3   9   5    1.43    0.89
  -2   9   5    1.37    0.93
  -1   9   5    1.31    1.00
   0   9   5    4.21    1.84
   1   9   5    5.54    2.26
   2   9   5   24.50    4.56
   3   9   5   18.28    4.09
 -12  10   5   14.53    2.74
 -11  10   5   27.63    3.49
 -10  10   5  142.10    6.51
  -9  10   5   14.81    2.41
  -8  10   5   13.70    3.37
  -7  10   5   16.49    3.50
  -6  10   5   45.83    3.99
  -5  10   5   20.86    2.66
  -4  10   5    4.28    1.29
  -3  10   5    4.43    1.45
  -2  10   5  117.14    5.48
  -1  10   5   40.70    3.96
   0  10   5  147.32    9.55
   1  10   5    3.74    2.14
 -11  11   5    1.58    1.37
 -10  11   5    4.27    1.55
  -9  11   5   32.90    5.16
  -8  11   5   27.04    4.68
  -7  11   5    0.60    1.44
  -6  11   5   41.00    3.83
  -5  11   5   39.39    3.76
  -4  11   5   24.37    3.07
  -3  11   5    7.46    1.77
  -2  11   5    4.35    1.51
  -1  11   5   28.59    4.82
  -9  12   5   17.95    4.10
  -8  12   5   13.83    3.70
  -7  12   5   45.00    6.37
  -6  12   5   18.46    4.16
  -5  12   5    1.40    1.18
  -4  12   5   98.35    5.41
  -3  12   5    0.86    1.27
  -2  12   5   19.54    4.19
   3 -11   6    9.17    3.33
   4 -11   6   34.89    3.81
   5 -11   6   20.22    2.88
   6 -11   6    0.74    1.15
   7 -11   6  109.33    8.28
   1 -10   6    3.81    1.53
   2 -10   6   30.97    3.68
   3 -10   6   42.77    4.21
   4 -10   6   51.86    4.46
   5 -10   6   30.73    3.36
   6 -10   6    3.60    1.33
  -1  -9   6    1.97    1.28
   0  -9   6   15.97    2.63
   1  -9   6    2.02    1.22
   2  -9   6   -0.03    0.80
   3  -9   6   26.75    3.10
   4  -9   6    6.28    1.63
   5  -9   6   20.91    2.23
   6  -9   6   43.64    3.87
  -2  -8   6   65.84    7.86
  -1  -8   6   40.32    3.91
   0  -8   6   61.50    5.04
   1  -8   6   21.74    2.85
   2  -8   6    5.83    1.50
   3  -8   6   28.34    3.18
   4  -8   6   27.05    2.94
   5  -8   6   42.93    3.03
   6  -8   6    2.09    0.99
   9  -8   6    5.73    2.38
  10  -8   6   35.99    3.19
  11  -8   6    5.31    1.44
  -4  -7   6   91.87   10.90
  -3  -7   6   10.33    2.26
  -2  -7   6   15.80    2.58
  -1  -7   6   35.24    3.66
   0  -7   6   18.16    2.55
   1  -7   6   -0.01    0.69
   2  -7   6   13.13    2.07
   3  -7   6   20.89    2.59
   4  -7   6   63.78    3.06
   5  -7   6   48.10    3.18
   6  -7   6   22.19    2.21
   7  -7   6   19.20    2.04
   8  -7   6   24.11    2.77
   9  -7   6    0.20    0.92
  10  -7   6   50.85    4.82
  11  -7   6   41.81    4.49
  -5  -6   6    1.10    1.21
  -4  -6   6    1.95    1.22
  -3  -6   6   44.64    6.32
  -2  -6   6    0.32    0.87
  -1  -6   6   17.56    2.45
   0  -6   6   11.10    1.97
   1  -6   6  177.39    6.75
   2  -6   6    3.31    1.14
   3  -6   6   89.61    3.57
   4  -6   6    6.50    1.47
   5  -6   6   31.30    2.50
   6  -6   6   11.58    1.61
   7  -6   6    0.27    0.80
   8  -6   6    9.90    1.94
   9  -6   6   31.27    2.87
  10  -6   6   56.54    5.01
  11  -6   6   17.14    2.94
  -6  -5   6   17.66    2.89
  -5  -5   6   27.51    3.35
  -4  -5   6   16.93    2.58
  -3  -5   6   32.69    3.54
  -2  -5   6   36.83    3.66
  -1  -5   6   27.44    3.01
   0  -5   6    0.88    0.70
   1  -5   6   29.26    2.41
   2  -5   6   13.05    1.52
   3  -5   6    3.53    1.03
   4  -5   6   48.07    3.34
   5  -5   6    1.45    0.69
   6  -5   6  177.03    5.54
   7  -5   6   14.58    2.32
   8  -5   6   22.04    2.89
   9  -5   6    8.02    1.92
  10  -5   6   28.74    2.86
  11  -5   6   -0.99    0.82
  -7  -4   6   36.74    4.33
  -6  -4   6   55.68    4.86
  -5  -4   6    4.08    1.58
  -4  -4   6   29.38    3.39
  -3  -4   6   67.02    4.11
  -2  -4   6    5.11    1.44
  -1  -4   6   51.58    3.60
   0  -4   6   19.59    1.96
   1  -4   6   53.85    2.62
   2  -4   6   31.49    2.37
   3  -4   6   89.21    4.19
   4  -4   6   18.66    1.87
   5  -4   6   29.91    3.03
   6  -4   6    8.44    1.64
   7  -4   6   18.91    2.08
   8  -4   6   26.02    3.17
   9  -4   6   20.77    2.95
  10  -4   6    1.30    1.11
  11  -4   6   94.60    5.57
  -8  -3   6   12.29    3.67
  -7  -3   6   43.91    4.36
  -6  -3   6   28.01    3.36
  -5  -3   6   25.50    3.05
  -4  -3   6   25.35    2.95
  -3  -3   6   85.74    4.54
  -2  -3   6    3.74    0.95
  -1  -3   6   80.33    3.35
   0  -3   6   22.59    2.03
   1  -3   6    5.92    1.06
   2  -3   6  107.27    4.71
   3  -3   6   23.81    2.49
   4  -3   6   53.51    2.73
   5  -3   6   13.69    2.05
   6  -3   6   87.58    4.53
   7  -3   6   77.44    3.51
   8  -3   6   37.99    3.92
   9  -3   6   44.27    4.40
  10  -3   6    9.93    2.25
  11  -3   6   13.11    3.52
  -8  -2   6   28.92    3.53
  -7  -2   6    1.80    1.01
  -6  -2   6    8.67    1.54
  -5  -2   6   12.95    1.76
  -4  -2   6    8.76    1.40
  -3  -2   6   12.23    1.61
  -2  -2   6   27.92    2.29
  -1  -2   6  109.48    3.88
   0  -2   6   60.61    2.72
   1  -2   6   92.27    4.27
   2  -2   6   59.91    3.34
   3  -2   6    6.34    1.11
   4  -2   6   32.53    3.16
   5  -2   6    3.91    1.17
   6  -2   6    7.25    1.30
   7  -2   6   50.49    3.47
   8  -2   6    3.33    1.44
   9  -2   6   15.02    2.50
  10  -2   6   53.65    5.10
  -9  -1   6    9.70    2.26
  -8  -1   6    3.94    1.46
  -7  -1   6   22.95    2.39
  -6  -1   6    1.36    0.74
  -5  -1   6  177.84    5.59
  -4  -1   6   26.24    2.32
  -3  -1   6   54.03    2.89
  -2  -1   6    4.02    0.95
  -1  -1   6   98.52    3.52
   0  -1   6   17.46    2.14
   1  -1   6   16.94    2.18
   2  -1   6   95.77    3.56
   3  -1   6  116.47    3.98
   4  -1   6   81.30    4.26
   5  -1   6   49.85    3.58
   6  -1   6   32.31    2.77
   7  -1   6   20.35    2.21
   8  -1   6   32.80    3.54
   9  -1   6   40.86    4.34
  10  -1   6    2.98    1.45
  -9   0   6   18.45    2.93
  -8   0   6   68.69    4.82
  -7   0   6   16.08    1.98
  -6   0   6    7.60    1.38
  -5   0   6    3.03    0.88
  -4   0   6   17.27    1.80
  -3   0   6   21.08    1.99
  -2   0   6   67.77    2.87
  -1   0   6   19.14    2.30
   0   0   6  175.24    8.45
   1   0   6   17.97    1.81
   2   0   6   64.63    2.92
   3   0   6   21.91    2.04
   4   0   6   16.70    2.29
   5   0   6    1.90    0.96
   6   0   6    9.03    1.48
   7   0   6   15.20    1.96
   8   0   6   68.85    4.99
   9   0   6   15.61    2.80
 -10   1   6    3.05    1.55
  -9   1   6   35.10    3.78
  -8   1   6   37.94    3.87
  -7   1   6   19.38    2.16
  -6   1   6   36.00    2.78
  -5   1   6   50.21    3.03
  -4   1   6   84.73    3.41
  -3   1   6  111.37    3.90
  -2   1   6   89.41    4.30
  -1   1   6   17.51    2.25
   0   1   6   15.95    2.05
   1   1   6   92.72    3.56
   2   1   6    5.50    1.09
   3   1   6   50.24    3.64
   4   1   6   24.35    2.86
   5   1   6  169.16    6.82
   6   1   6   -0.39    0.52
   7   1   6   28.40    2.76
   8   1   6    5.06    1.70
   9   1   6    8.23    2.14
 -10   2   6   57.40    4.99
  -9   2   6   19.34    2.80
  -8   2   6    0.43    0.85
  -7   2   6   44.07    3.14
  -6   2   6    5.12    1.03
  -5   2   6    4.49    0.99
  -4   2   6   34.36    2.50
  -3   2   6    7.78    1.20
  -2   2   6   60.80    3.50
  -1   2   6   93.61    4.33
   0   2   6   63.46    2.91
   1   2   6  112.01    3.94
   2   2   6   33.53    2.55
   3   2   6   13.25    2.14
   4   2   6    6.62    1.50
   5   2   6   13.36    1.82
   6   2   6    6.58    1.40
   7   2   6    1.46    0.96
   8   2   6   37.85    4.23
 -11   3   6   11.05    3.23
 -10   3   6   12.34    2.01
  -9   3   6   46.25    4.26
  -8   3   6   40.01    3.87
  -7   3   6   67.25    3.22
  -6   3   6   94.64    3.73
  -5   3   6   14.05    1.65
  -4   3   6   52.32    2.76
  -3   3   6   21.90    2.56
  -2   3   6  118.58    5.00
  -1   3   6    4.80    1.00
   0   3   6   22.17    2.11
   1   3   6   81.85    3.41
   2   3   6    3.64    1.08
   3   3   6   84.11    4.59
   4   3   6   20.02    2.64
   5   3   6   25.66    2.55
   6   3   6   33.51    2.99
   7   3   6   51.95    3.88
   8   3   6    7.25    3.21
 -11   4   6  102.54    5.77
 -10   4   6    1.11    1.13
  -9   4   6   19.11    2.74
  -8   4   6   22.72    2.86
  -7   4   6   22.02    2.16
  -6   4   6    7.26    1.24
  -5   4   6   24.96    2.20
  -4   4   6   14.88    2.15
  -3   4   6   90.90    4.36
  -2   4   6   30.58    2.46
  -1   4   6   49.97    3.03
   0   4   6   19.10    1.99
   1   4   6   49.55    2.71
   2   4   6    8.87    1.73
   3   4   6   72.34    4.32
   4   4   6   29.83    2.79
   5   4   6    5.50    1.32
   6   4   6   59.50    4.15
   7   4   6   33.44    3.34
 -11   5   6   -0.39    1.15
 -10   5   6   30.91    3.56
  -9   5   6    3.75    1.44
  -8   5   6   24.14    2.99
  -7   5   6   14.16    1.74
  -6   5   6  180.87    5.42
  -5   5   6    0.62    0.72
  -4   5   6   52.39    2.87
  -3   5   6    3.96    1.00
  -2   5   6   13.31    1.63
  -1   5   6   26.40    2.35
   0   5   6    2.38    0.81
   1   5   6   32.05    2.58
   2   5   6   44.54    4.02
   3   5   6   42.19    3.94
   4   5   6   17.75    2.10
   5   5   6   32.43    3.03
   6   5   6   15.74    2.21
 -11   6   6   17.57    2.89
 -10   6   6   56.91    4.85
  -9   6   6   29.04    3.37
  -8   6   6   10.52    1.99
  -7   6   6    0.45    0.62
  -6   6   6    8.40    1.71
  -5   6   6   32.43    3.30
  -4   6   6    8.11    1.31
  -3   6   6   80.20    3.49
  -2   6   6    7.40    1.33
  -1   6   6  186.38    5.58
   0   6   6   10.47    1.55
   1   6   6   22.36    2.88
   2   6   6    1.07    0.97
   3   6   6   48.35    3.59
   4   6   6    1.26    1.11
   5   6   6   -1.64    0.96
 -11   7   6   40.44    4.23
 -10   7   6   47.24    4.49
  -9   7   6    1.44    1.16
  -8   7   6   24.47    3.04
  -7   7   6   15.19    3.41
  -6   7   6   16.80    2.38
  -5   7   6   51.70    4.22
  -4   7   6   69.08    4.03
  -3   7   6   24.30    2.82
  -2   7   6   11.70    1.63
  -1   7   6    0.76    0.70
   0   7   6   16.67    1.97
   1   7   6   36.35    3.66
   2   7   6   17.94    2.74
   3   7   6   14.98    2.53
   4   7   6  111.41    6.05
 -11   8   6    7.67    2.05
 -10   8   6   35.27    3.79
  -9   8   6    6.15    1.71
  -8   8   6   53.30    6.66
  -7   8   6   37.39    5.53
  -6   8   6    0.70    0.96
  -5   8   6   45.86    4.09
  -4   8   6   30.39    3.26
  -3   8   6   20.14    2.67
  -2   8   6    5.62    1.41
  -1   8   6   23.99    2.90
   0   8   6   82.67    6.81
   1   8   6   47.51    4.90
   2   8   6   55.91    4.96
   3   8   6    9.64    3.34
 -10   9   6    7.59    2.03
  -9   9   6   15.90    3.75
  -8   9   6   32.23    5.16
  -7   9   6   13.41    3.27
  -6   9   6   40.92    3.89
  -5   9   6   23.51    2.97
  -4   9   6    4.41    1.49
  -3   9   6   27.52    3.24
  -2   9   6    0.53    0.98
  -1   9   6    4.25    1.53
   0   9   6   18.65    4.01
   1   9   6    2.80    2.12
  -9  10   6    1.04    1.88
  -8  10   6   68.16    7.75
  -7  10   6   12.74    3.52
  -6  10   6    3.07    1.48
  -5  10   6   28.53    3.33
  -4  10   6   63.55    5.07
  -3  10   6   49.02    4.40
  -2  10   6   36.72    3.90
  -1  10   6    3.39    2.09
  -6  11   6    1.95    1.72
  -5  11   6   15.39    2.61
  -4  11   6   37.79    4.01
  -3  11   6   10.59    2.20
   2  -9   7    1.50    1.74
   3  -9   7    0.71    0.86
   4  -9   7    3.64    1.48
   5  -9   7   66.86    5.18
   0  -8   7    1.54    1.77
   1  -8   7   82.95    4.95
   2  -8   7   21.76    2.46
   3  -8   7   86.87    4.90
   4  -8   7   25.68    3.18
   5  -8   7    0.99    0.87
   6  -8   7   11.97    3.57
  -2  -7   7   37.21    6.33
  -1  -7   7    8.95    2.02
   0  -7   7   23.19    2.97
   1  -7   7   10.39    1.69
   2  -7   7    5.14    1.21
   3  -7   7   10.86    2.08
   4  -7   7    2.29    1.14
   5  -7   7    3.22    1.22
   6  -7   7   77.44    4.66
   7  -7   7   24.26    3.13
   8  -7   7   89.96    7.61
   9  -7   7    2.06    1.31
  -3  -6   7   14.88    3.62
  -2  -6   7   12.54    2.36
  -1  -6   7   80.51    4.83
   0  -6   7   24.11    2.49
   1  -6   7    7.17    1.39
   2  -6   7    9.22    1.96
   3  -6   7   87.12    4.73
   4  -6   7    2.47    1.25
   5  -6   7   25.68    3.14
   6  -6   7   20.01    2.28
   7  -6   7   10.05    1.78
   8  -6   7   16.41    2.71
   9  -6   7    0.02    0.85
  -4  -5   7   67.23    5.51
  -3  -5   7    1.42    1.00
  -2  -5   7    3.50    1.04
  -1  -5   7   26.33    2.54
   0  -5   7   24.19    2.45
   1  -5   7    5.53    1.59
   2  -5   7   53.99    4.48
   3  -5   7    4.08    1.30
   4  -5   7   76.62    3.60
   5  -5   7   25.32    3.07
   6  -5   7    9.45    1.57
   7  -5   7    5.07    1.56
   8  -5   7   66.24    5.48
   9  -5   7    4.28    1.68
  -5  -4   7    2.98    1.29
  -4  -4   7   25.15    2.61
  -3  -4   7    2.04    0.96
  -2  -4   7    2.82    0.93
  -1  -4   7   82.30    3.72
   0  -4   7   19.72    2.69
   1  -4   7  163.06    6.57
   2  -4   7    2.46    1.05
   3  -4   7    1.35    0.86
   4  -4   7   17.01    2.45
   5  -4   7    6.46    1.57
   6  -4   7    8.19    1.87
   7  -4   7   12.75    2.43
   8  -4   7   26.61    3.43
   9  -4   7   73.64    5.37
  -6  -3   7    0.87    1.00
  -5  -3   7   84.76    4.26
  -4  -3   7   14.23    2.03
  -3  -3   7   88.34    3.99
  -2  -3   7    5.00    1.19
  -1  -3   7    0.94    0.71
   0  -3   7    6.76    1.61
   1  -3   7    2.95    1.24
   2  -3   7    0.47    0.71
   3  -3   7    9.39    1.46
   4  -3   7  164.95    6.69
   5  -3   7   59.85    4.69
   6  -3   7   89.15    4.95
   7  -3   7    0.07    0.97
   8  -3   7    0.41    1.08
   9  -3   7   13.71    3.78
  -7  -2   7   -0.33    1.42
  -6  -2   7   19.85    2.35
  -5  -2   7    2.49    1.04
  -4  -2   7    8.05    1.47
  -3  -2   7   54.27    3.63
  -2  -2   7    3.48    0.95
  -1  -2   7    0.70    0.77
   0  -2   7   54.98    3.87
   1  -2   7   17.66    2.49
   2  -2   7   61.49    3.22
   3  -2   7    3.55    1.00
   4  -2   7    1.92    0.94
   5  -2   7    4.39    1.42
   6  -2   7    1.61    0.96
   7  -2   7    3.96    1.28
   8  -2   7    9.60    2.16
  -7  -1   7   80.40    4.11
  -6  -1   7   12.41    1.86
  -5  -1   7    7.07    1.40
  -4  -1   7    8.60    1.45
  -3  -1   7  150.27    5.15
  -2  -1   7    6.47    1.66
  -1  -1   7   22.46    2.67
   0  -1   7   41.73    3.76
   1  -1   7   43.82    3.74
   2  -1   7   20.06    2.11
   3  -1   7    0.69    0.74
   4  -1   7    0.26    0.69
   5  -1   7   70.78    4.49
   6  -1   7   26.45    2.72
   7  -1   7   75.63    4.11
   8  -1   7    5.74    1.92
  -8   0   7    2.15    1.53
  -7   0   7   25.23    2.66
  -6   0   7   19.55    2.21
  -5   0   7   21.93    2.31
  -4   0   7   18.05    2.03
  -3   0   7    8.24    1.80
  -2   0   7   56.76    3.99
  -1   0   7   40.13    3.65
   0   0   7    0.70    0.79
   1   0   7   43.04    3.15
   2   0   7   62.57    3.48
   3   0   7    7.81    1.74
   4   0   7   15.99    2.48
   5   0   7   29.94    3.45
   6   0   7   19.92    2.37
   7   0   7   21.61    2.49
  -8   1   7    6.40    1.74
  -7   1   7   74.88    4.11
  -6   1   7   26.77    2.63
  -5   1   7   82.88    3.77
  -4   1   7    2.09    1.17
  -3   1   7    0.47    0.81
  -2   1   7   20.86    2.64
  -1   1   7   40.07    3.73
   0   1   7   39.50    2.96
   1   1   7   17.49    2.01
   2   1   7    5.05    1.20
   3   1   7  149.59    6.61
   4   1   7    4.32    1.36
   5   1   7    7.57    1.71
   6   1   7    6.64    1.46
   7   1   7   77.86    4.36
  -9   2   7   25.70    3.62
  -8   2   7    9.38    2.14
  -7   2   7    4.11    1.19
  -6   2   7    2.59    0.96
  -5   2   7    4.24    1.37
  -4   2   7    2.43    1.22
  -3   2   7    5.30    1.48
  -2   2   7   61.10    3.84
  -1   2   7   17.09    2.02
   0   2   7   64.37    3.36
   1   2   7    0.62    0.69
   2   2   7    4.24    1.32
   3   2   7   59.22    4.79
   4   2   7    7.81    1.83
   5   2   7    3.26    1.15
   6   2   7   18.40    2.38
   7   2   7    1.41    1.82
  -9   3   7   10.55    2.25
  -8   3   7    0.37    1.03
  -7   3   7    1.18    0.92
  -6   3   7   89.00    4.91
  -5   3   7   58.89    4.17
  -4   3   7  144.05    6.36
  -3   3   7    9.45    1.93
  -2   3   7    0.95    0.70
  -1   3   7    2.98    0.94
   0   3   7    5.94    1.24
   1   3   7    0.65    0.73
   2   3   7    4.84    1.45
   3   3   7   78.45    4.82
   4   3   7   19.31    2.83
   5   3   7   72.46    4.43
   6   3   7   -0.41    0.99
  -9   4   7   56.74    4.99
  -8   4   7   28.82    3.45
  -7   4   7   12.19    2.26
  -6   4   7    6.42    1.68
  -5   4   7    6.72    1.67
  -4   4   7   16.86    2.49
  -3   4   7    1.00    0.69
  -2   4   7    0.93    0.74
  -1   4   7  155.95    5.36
   0   4   7   18.11    2.09
   1   4   7   84.01    4.80
   2   4   7    3.86    1.31
   3   4   7    1.30    1.13
   4   4   7   24.06    2.61
   5   4   7    4.98    1.40
  -9   5   7    6.94    1.80
  -8   5   7   81.27    7.10
  -7   5   7    3.17    2.27
  -6   5   7    9.03    1.95
  -5   5   7   23.73    3.00
  -4   5   7   79.02    3.77
  -3   5   7    6.45    1.33
  -2   5   7   58.95    3.54
  -1   5   7    8.53    1.50
   0   5   7   27.95    2.63
   1   5   7   30.13    3.40
   2   5   7    2.15    1.22
   3   5   7    2.21    1.21
   4   5   7   64.64    4.46
  -9   6   7   -1.27    1.85
  -8   6   7   12.68    3.45
  -7   6   7    8.65    3.04
  -6   6   7   25.34    3.13
  -5   6   7   25.11    3.10
  -4   6   7    3.59    1.34
  -3   6   7   88.07    3.94
  -2   6   7    9.80    1.63
  -1   6   7    9.29    1.54
   0   6   7   23.61    3.07
   1   6   7   72.18    5.14
   2   6   7   13.68    2.45
   3   6   7    9.86    1.92
  -8   7   7   82.60    7.37
  -7   7   7   19.07    4.11
  -6   7   7   77.69    4.70
  -5   7   7    3.56    1.44
  -4   7   7    1.37    1.08
  -3   7   7   16.33    2.61
  -2   7   7    3.02    1.32
  -1   7   7   13.87    2.50
   0   7   7   22.48    3.12
   1   7   7    8.04    1.98
   2   7   7   23.90    4.75
  -7   8   7    6.86    2.70
  -6   8   7   12.68    2.36
  -5   8   7    1.14    1.30
  -4   8   7   28.67    3.45
  -3   8   7   72.76    5.10
  -2   8   7   21.20    2.98
  -1   8   7   83.86    7.31
  -6   9   7   13.55    3.83
  -5   9   7   69.42    5.45
  -4   9   7    4.50    1.65
  -3   9   7    0.05    1.20
  -2   9   7    0.79    1.97
   2  -6   8    5.24    1.68
   3  -6   8   37.56    3.82
   4  -6   8    1.17    1.27
   5  -6   8    3.43    1.47
   6  -6   8    2.25    1.56
   0  -5   8    2.45    1.37
   1  -5   8    8.94    2.10
   2  -5   8    7.63    1.98
   3  -5   8    1.27    0.97
   4  -5   8   31.29    3.59
   5  -5   8    3.85    1.46
   6  -5   8  105.25    4.92
  -1  -4   8   28.04    4.91
   0  -4   8    6.98    1.84
   1  -4   8   11.98    2.27
   2  -4   8   26.92    3.22
   3  -4   8   84.90    4.16
   4  -4   8    4.29    1.51
   5  -4   8   11.27    2.24
   6  -4   8    6.94    1.56
  -3  -3   8   30.98    5.97
  -2  -3   8   -0.65    1.05
  -1  -3   8   93.13    5.34
   0  -3   8    7.32    1.88
   1  -3   8    1.57    1.18
   2  -3   8   57.95    3.93
   3  -3   8    5.70    1.71
   4  -3   8   13.64    2.34
   5  -3   8    6.09    1.71
   6  -3   8   36.98    3.33
  -4  -2   8    6.16    2.59
  -3  -2   8    5.26    1.71
  -2  -2   8   34.56    3.71
  -1  -2   8   55.13    4.75
   0  -2   8   10.84    2.13
   1  -2   8   30.67    3.40
   2  -2   8    8.33    1.57
   3  -2   8    0.99    0.97
   4  -2   8   33.96    3.70
   5  -2   8    0.65    1.02
   6  -2   8    0.68    1.33
  -5  -1   8  115.68    8.81
  -4  -1   8    9.02    2.09
  -3  -1   8   11.35    2.32
  -2  -1   8    1.36    1.24
  -1  -1   8   29.35    3.38
   0  -1   8    5.61    1.65
   1  -1   8    6.17    1.37
   2  -1   8   29.88    3.57
   3  -1   8   69.17    4.89
   4  -1   8   85.34    5.19
   5  -1   8   29.35    3.59
   6  -1   8    1.91    1.93
  -6   0   8    6.71    3.98
  -5   0   8    4.29    1.81
  -4   0   8    8.13    2.00
  -3   0   8    4.64    1.52
  -2   0   8    8.71    1.83
  -1   0   8    4.47    1.54
   0   0   8  199.28    6.54
   1   0   8    5.18    1.29
   2   0   8    7.51    1.82
   3   0   8   10.64    2.18
   4   0   8    5.20    1.59
   5   0   8    4.01    1.59
   6   0   8    0.60    1.56
  -6   1   8    4.20    2.29
  -5   1   8   24.07    3.17
  -4   1   8   82.92    5.01
  -3   1   8   66.07    5.22
  -2   1   8   34.05    3.72
  -1   1   8    4.93    1.29
   0   1   8    5.97    1.35
   1   1   8   34.49    3.06
   2   1   8    0.98    1.11
   3   1   8   11.99    2.36
   4   1   8    7.98    2.03
   5   1   8  106.40    8.23
  -6   2   8    2.18    2.05
  -5   2   8   -0.09    1.07
  -4   2   8   36.01    3.95
  -3   2   8    1.36    1.25
  -2   2   8    9.22    1.67
  -1   2   8   37.80    3.22
   0   2   8    7.75    1.57
   1   2   8   61.51    5.10
   2   2   8   32.10    3.78
   3   2   8    6.89    1.90
   4   2   8    4.83    2.35
  -6   3   8   35.22    5.43
  -5   3   8    7.47    1.90
  -4   3   8   11.79    2.35
  -3   3   8   10.74    1.82
  -2   3   8   64.56    4.18
  -1   3   8    0.98    0.98
   0   3   8    4.94    1.32
   1   3   8   85.48    5.29
   2   3   8   -0.15    1.12
   3   3   8   40.76    4.31
  -6   4   8    9.81    3.10
  -5   4   8    8.27    2.04
  -4   4   8    6.63    1.52
  -3   4   8   87.62    4.39
  -2   4   8   27.29    2.78
  -1   4   8   14.04    2.09
   0   4   8    4.70    1.62
   1   4   8   32.19    3.73
   2   4   8    0.21    1.56
  -6   5   8  109.42    8.37
  -5   5   8    3.67    1.73
  -4   5   8   34.39    3.14
  -3   5   8    1.58    1.01
  -2   5   8    6.26    1.46
  -1   5   8   10.26    1.84
   0   5   8    2.93    1.46
   1   5   8    4.70    2.41
  -6   6   8    1.77    2.14
  -5   6   8    1.64    2.08
  -4   6   8    0.68    1.28
  -3   6   8   35.16    3.87
  -2   6   8    5.80    1.86
  -1   6   8  110.83    8.63
   0   6   8    3.28    2.34
   0   0   0    0.00    0.00
;
_shelx_hkl_checksum              41595
loop_
_space_group_symop_operation_xyz
'x, y, z'
'-y, x-y, z'
'-x+y, -x, z'
'-x, -y, z+1/2'
'y, -x+y, z+1/2'
'x-y, x, z+1/2'
loop_
_atom_site_label
_atom_site_type_symbol
_atom_site_fract_x
_atom_site_fract_y
_atom_site_fract_z
_atom_site_U_iso_or_equiv
_atom_site_adp_type
_atom_site_occupancy
_atom_site_site_symmetry_order
_atom_site_calc_flag
_atom_site_refinement_flags_posn
_atom_site_refinement_flags_adp
_atom_site_refinement_flags_occupancy
_atom_site_disorder_assembly
_atom_site_disorder_group
La La 0.12671(3) 0.35582(3) 0.01251(11) 0.00969(8) Uani 1 1 d . . . . .
NiA Ni 0.0000 0.0000 0.2489(9) 0.0116(5) Uani 0.478(3) 3 d S T P . .
NiB Ni 0.0000 0.0000 0.020(18) 0.0116(5) Uani 0.022(3) 3 d S T P . .
Ge Ge 0.3333 0.6667 0.59400(19) 0.0103(2) Uani 1 3 d S T P . .
S1 S 0.24042(15) 0.15496(15) 0.0000(4) 0.0149(3) Uani 1 1 d . . . . .
S2 S 0.52159(17) 0.10625(17) 0.2408(3) 0.0116(3) Uani 1 1 d . . . . .
S3 S 0.3333 0.6667 0.2202(5) 0.0121(5) Uani 1 3 d S T P . .
loop_
_atom_site_aniso_label
_atom_site_aniso_U_11
_atom_site_aniso_U_22
_atom_site_aniso_U_33
_atom_site_aniso_U_23
_atom_site_aniso_U_13
_atom_site_aniso_U_12
La 0.01023(13) 0.00863(13) 0.01019(13) 0.00065(19) 0.00081(19) 0.00470(10)
NiA 0.0107(7) 0.0107(7) 0.0135(13) 0.000 0.000 0.0054(3)
NiB 0.0107(7) 0.0107(7) 0.0135(13) 0.000 0.000 0.0054(3)
Ge 0.0115(3) 0.0115(3) 0.0079(4) 0.000 0.000 0.00574(15)
S1 0.0137(6) 0.0113(5) 0.0216(7) 0.0018(9) -0.0004(9) 0.0076(5)
S2 0.0103(6) 0.0114(6) 0.0121(6) 0.0007(5) -0.0012(5) 0.0047(5)
S3 0.0136(7) 0.0136(7) 0.0091(11) 0.000 0.000 0.0068(4)
loop_
_atom_type_symbol
_atom_type_description
_atom_type_scat_dispersion_real
_atom_type_scat_dispersion_imag
_atom_type_scat_source
S S 0.1246 0.1234 'International Tables Vol C Tables 4.2.6.8 and 6.1.1.4'
Ni Ni 0.3393 1.1124 'International Tables Vol C Tables 4.2.6.8 and 6.1.1.4'
Ge Ge 0.1547 1.8001 'International Tables Vol C Tables 4.2.6.8 and 6.1.1.4'
La La -0.2871 2.4523 'International Tables Vol C Tables 4.2.6.8 and 6.1.1.4'
loop_
_geom_angle_atom_site_label_1
_geom_angle_atom_site_label_2
_geom_angle_atom_site_label_3
_geom_angle
_geom_angle_site_symmetry_1
_geom_angle_site_symmetry_3
S1 La S1 82.91(5) . 2
S1 La S2 142.48(6) . 5_564
S1 La S2 108.98(5) 2 5_564
S1 La S1 76.43(5) . 6
S1 La S1 76.39(5) 2 6
S2 La S1 140.31(4) 5_564 6
S1 La S2 75.61(5) . 6_554
S1 La S2 140.50(6) 2 6_554
S2 La S2 73.20(6) 5_564 6_554
S1 La S2 128.05(4) 6 6_554
S1 La S2 143.77(5) . 2
S1 La S2 71.89(4) 2 2
S2 La S2 72.14(3) 5_564 2
S1 La S2 72.67(4) 6 2
S2 La S2 139.47(4) 6_554 2
S1 La S3 116.49(3) . .
S1 La S3 150.07(5) 2 .
S2 La S3 70.36(5) 5_564 .
S1 La S3 85.97(6) 6 .
S2 La S3 69.11(5) 6_554 .
S2 La S3 79.91(4) 2 .
S1 La S1 74.25(5) . 6_554
S1 La S1 74.21(5) 2 6_554
S2 La S1 75.20(4) 5_564 6_554
S1 La S1 140.46(5) 6 6_554
S2 La S1 68.28(4) 6_554 6_554
S2 La S1 120.87(4) 2 6_554
S3 La S1 131.03(6) . 6_554
S1 La NiB 41.53(10) . .
S1 La NiB 41.52(11) 2 .
S2 La NiB 140.5(16) 5_564 .
S1 La NiB 69.0(19) 6 .
S2 La NiB 111.9(10) 6_554 .
S2 La NiB 108.1(9) 2 .
S3 La NiB 149.1(15) . .
S1 La NiB 71.4(19) 6_554 .
S1 La NiA 47.25(5) . .
S1 La NiA 47.24(5) 2 .
S2 La NiA 156.19(5) 5_564 .
S1 La NiA 46.66(8) 6 .
S2 La NiA 122.83(4) 6_554 .
S2 La NiA 96.93(5) 2 .
S3 La NiA 129.75(9) . .
S1 La NiA 93.80(8) 6_554 .
NiB La NiA 22.4(19) . .
S1 La NiA 46.59(5) . 4_554
S1 La NiA 46.58(5) 2 4_554
S2 La NiA 117.34(8) 5_564 4_554
S1 La NiA 95.23(8) 6 4_554
S2 La NiA 96.17(6) 6_554 4_554
S2 La NiA 118.14(4) 2 4_554
S3 La NiA 161.462(14) . 4_554
S1 La NiA 45.24(8) 6_554 4_554
NiB La NiA 26.2(19) . 4_554
NiA La NiA 48.563(5) . 4_554
NiB NiA NiB 180.000(14) . 4
NiB NiA S1 56.38(10) . 3
NiB NiA S1 123.62(10) 4 3
NiB NiA S1 56.38(10) . 2
NiB NiA S1 123.62(10) 4 2
S1 NiA S1 92.30(14) 3 2
NiB NiA S1 56.38(10) . .
NiB NiA S1 123.62(10) 4 .
S1 NiA S1 92.30(14) 3 .
S1 NiA S1 92.30(14) 2 .
NiB NiA S1 123.86(10) . 6
NiB NiA S1 56.14(10) 4 6
S1 NiA S1 179.8(2) 3 6
S1 NiA S1 87.86(2) 2 6
S1 NiA S1 87.86(2) . 6
NiB NiA S1 123.86(10) . 5
NiB NiA S1 56.14(10) 4 5
S1 NiA S1 87.86(2) 3 5
S1 NiA S1 179.8(2) 2 5
S1 NiA S1 87.86(2) . 5
S1 NiA S1 91.97(14) 6 5
NiB NiA S1 123.86(10) . 4
NiB NiA S1 56.14(10) 4 4
S1 NiA S1 87.86(2) 3 4
S1 NiA S1 87.86(2) 2 4
S1 NiA S1 179.8(2) . 4
S1 NiA S1 91.97(14) 6 4
S1 NiA S1 91.97(14) 5 4
NiB NiA NiA 0.000(1) . 4_554
NiB NiA NiA 180.000(14) 4 4_554
S1 NiA NiA 56.38(10) 3 4_554
S1 NiA NiA 56.38(10) 2 4_554
S1 NiA NiA 56.38(10) . 4_554
S1 NiA NiA 123.86(10) 6 4_554
S1 NiA NiA 123.86(10) 5 4_554
S1 NiA NiA 123.86(10) 4 4_554
NiB NiA NiA 180.0 . 4
NiB NiA NiA 0.000(14) 4 4
S1 NiA NiA 123.62(10) 3 4
S1 NiA NiA 123.62(10) 2 4
S1 NiA NiA 123.62(10) . 4
S1 NiA NiA 56.14(10) 6 4
S1 NiA NiA 56.14(10) 5 4
S1 NiA NiA 56.14(10) 4 4
NiA NiA NiA 180.0 4_554 4
NiB NiA La 66.89(8) . .
NiB NiA La 113.11(8) 4 .
S1 NiA La 123.26(18) 3 .
S1 NiA La 53.14(5) 2 .
S1 NiA La 53.07(5) . .
S1 NiA La 56.97(5) 6 .
S1 NiA La 126.88(4) 5 .
S1 NiA La 126.95(4) 4 .
NiA NiA La 66.89(8) 4_554 .
NiA NiA La 113.11(8) 4 .
NiB NiA La 66.89(8) . 2
NiB NiA La 113.11(8) 4 2
S1 NiA La 53.14(5) 3 2
S1 NiA La 53.07(5) 2 2
S1 NiA La 123.27(18) . 2
S1 NiA La 126.88(4) 6 2
S1 NiA La 126.95(4) 5 2
S1 NiA La 56.97(5) 4 2
NiA NiA La 66.89(8) 4_554 2
NiA NiA La 113.11(8) 4 2
La NiA La 105.60(9) . 2
NiA NiB NiA 180.0 . 4_554
NiA NiB S1 93(3) . 3
NiA NiB S1 87(3) 4_554 3
NiA NiB S1 93(3) . 2
NiA NiB S1 87(3) 4_554 2
S1 NiB S1 119.7(5) 3 2
NiA NiB S1 93(3) . .
NiA NiB S1 87(3) 4_554 .
S1 NiB S1 119.7(5) 3 .
S1 NiB S1 119.7(5) 2 .
NiA NiB NiB 0.0 . 4
NiA NiB NiB 180.0 4_554 4
S1 NiB NiB 93(3) 3 4
S1 NiB NiB 93(3) 2 4
S1 NiB NiB 93(3) . 4
NiA NiB NiB 180.0 . 4_554
NiA NiB NiB 0.0 4_554 4_554
S1 NiB NiB 87(3) 3 4_554
S1 NiB NiB 87(3) 2 4_554
S1 NiB NiB 87(3) . 4_554
NiB NiB NiB 180.0 4 4_554
NiA NiB La 90.7(19) . .
NiA NiB La 89.3(19) 4_554 .
S1 NiB La 176(5) 3 .
S1 NiB La 60.05(7) 2 .
S1 NiB La 59.96(7) . .
NiB NiB La 90.7(19) 4 .
NiB NiB La 89.3(19) 4_554 .
NiA NiB La 90.7(19) . 2
NiA NiB La 89.3(19) 4_554 2
S1 NiB La 60.05(7) 3 2
S1 NiB La 59.96(7) 2 2
S1 NiB La 176(5) . 2
NiB NiB La 90.7(19) 4 2
NiB NiB La 89.3(19) 4_554 2
La NiB La 119.98(9) . 2
NiA NiB La 90.7(19) . 3
NiA NiB La 89.3(19) 4_554 3
S1 NiB La 59.96(7) 3 3
S1 NiB La 176(5) 2 3
S1 NiB La 60.05(7) . 3
NiB NiB La 90.7(19) 4 3
NiB NiB La 89.3(19) 4_554 3
La NiB La 119.98(9) . 3
La NiB La 119.98(9) 2 3
S3 Ge S2 112.58(5) . 6
S3 Ge S2 112.57(5) . 4_665
S2 Ge S2 106.20(5) 6 4_665
S3 Ge S2 112.57(5) . 5_565
S2 Ge S2 106.20(5) 6 5_565
S2 Ge S2 106.20(5) 4_665 5_565
NiB S1 NiA 31(3) . .
NiB S1 NiA 37(3) . 4_554
NiA S1 NiA 67.48(3) . 4_554
NiB S1 La 78.50(6) . .
NiA S1 La 79.68(4) . .
NiA S1 La 81.35(4) 4_554 .
NiB S1 La 78.43(6) . 3
NiA S1 La 79.62(4) . 3
NiA S1 La 81.29(4) 4_554 3
La S1 La 156.87(6) . 3
NiB S1 La 113(3) . 5_554
NiA S1 La 143.85(12) . 5_554
NiA S1 La 76.37(11) 4_554 5_554
La S1 La 95.35(6) . 5_554
La S1 La 95.29(6) 3 5_554
NiB S1 La 106(3) . 5
NiA S1 La 75.69(11) . 5
NiA S1 La 143.17(12) 4_554 5
La S1 La 92.42(6) . 5
La S1 La 92.36(6) 3 5
La S1 La 140.46(5) 5_554 5
Ge S2 La 91.55(5) 4_664 6_655
Ge S2 La 89.03(5) 4_664 5
La S2 La 110.26(5) 6_655 5
Ge S2 La 122.64(6) 4_664 3
La S2 La 140.67(5) 6_655 3
La S2 La 90.79(4) 5 3
Ge S3 La 113.14(5) . 3_565
Ge S3 La 113.14(5) . 2_665
La S3 La 105.56(5) 3_565 2_665
Ge S3 La 113.14(5) . .
La S3 La 105.56(5) 3_565 .
La S3 La 105.56(5) 2_665 .
loop_
_geom_bond_atom_site_label_1
_geom_bond_atom_site_label_2
_geom_bond_distance
_geom_bond_site_symmetry_2
La S1 2.8420(13) .
La S1 2.8452(13) 2
La S2 2.9300(15) 5_564
La S1 3.017(3) 6
La S2 3.0273(16) 6_554
La S2 3.0594(15) 2
La S3 3.0690(11) .
La S1 3.154(3) 6_554
La NiB 3.2172(15) .
La NiA 3.498(2) .
La NiA 3.563(2) 4_554
NiA NiB 1.33(11) .
NiA NiB 1.57(11) 4
NiA S1 2.611(3) 3
NiA S1 2.611(3) 2
NiA S1 2.611(3) .
NiA S1 2.618(3) 6
NiA S1 2.618(3) 5
NiA S1 2.618(3) 4
NiA NiA 2.90389(10) 4_554
NiA NiA 2.90391(10) 4
NiA La 3.498(2) 2
NiB NiA 1.57(11) 4_554
NiB S1 2.177(6) 3
NiB S1 2.177(6) 2
NiB S1 2.177(6) .
NiB NiB 2.90388(10) 4
NiB NiB 2.90392(10) 4_554
NiB La 3.2172(14) 2
NiB La 3.2172(14) 3
Ge S3 2.171(3) .
Ge S2 2.2213(16) 6
Ge S2 2.2214(16) 4_665
Ge S2 2.2214(16) 5_565
S1 NiA 2.618(3) 4_554
S1 La 2.8452(13) 3
S1 La 3.017(3) 5_554
S1 La 3.154(3) 5
S2 Ge 2.2213(16) 4_664
S2 La 2.9299(15) 6_655
S2 La 3.0273(16) 5
S2 La 3.0595(15) 3
S3 La 3.0690(11) 3_565
S3 La 3.0690(11) 2_665
