#------------------------------------------------------------------------------
#$Date: 2021-02-22 10:09:13 +0200 (Mon, 22 Feb 2021) $
#$Revision: 262126 $
#$URL: file:///home/coder/svn-repositories/cod/cif/1/56/05/1560509.cif $
#------------------------------------------------------------------------------
#
# This file is available in the Crystallography Open Database (COD),
# http://www.crystallography.net/
#
# All data on this site have been placed in the public domain by the
# contributors.
#
data_1560509
loop_
_publ_author_name
'Konatham, Satish'
'Vidyasagar, Kanamaluru'
_publ_section_title
;
 Syntheses and structural characterization of vanado-tellurites and
 vanadyl-selenites: SrVTeO 5 (OH), Cd 2 V 2 Te 2 O 11 , Ca 3 VSe 4 O 13
 &#x00B7;H 2 O and Ba 2 VSe 3 O 10
;
_journal_name_full               'Journal of Solid State Chemistry'
_journal_page_first              39
_journal_page_last               45
_journal_paper_doi               10.1016/j.jssc.2017.02.017
_journal_volume                  249
_journal_year                    2017
_chemical_formula_moiety         'Cd2 O11 Te2 V2'
_chemical_formula_sum            'Cd2 O11 Te2 V2'
_chemical_formula_weight         757.90
_space_group_crystal_system      triclinic
_space_group_IT_number           2
_space_group_name_Hall           '-P 1'
_space_group_name_H-M_alt        'P -1'
_atom_sites_solution_hydrogens   .
_cell_angle_alpha                80.268(3)
_cell_angle_beta                 73.866(3)
_cell_angle_gamma                78.544(3)
_cell_formula_units_Z            1
_cell_length_a                   5.3673(3)
_cell_length_b                   5.7139(3)
_cell_length_c                   9.0124(5)
_cell_measurement_reflns_used    957
_cell_measurement_temperature    296(2)
_cell_measurement_theta_max      26.23
_cell_measurement_theta_min      2.37
_cell_volume                     258.31(2)
_computing_cell_refinement       APEXII,Bruker,2004
_computing_data_collection       APEXII,Bruker,2004
_computing_data_reduction        SAINT,Bruker,2004
_computing_molecular_graphics    'ORTEP-3 (Farrugia, 1997)'
_computing_publication_material  'SHELXL-97 (Sheldrick, 1997)'
_computing_structure_refinement  'SHELXL-2014/7 (Sheldrick, 2014)'
_computing_structure_solution    'SHELXL-2014/7 (Sheldrick, 2014)'
_diffrn_ambient_temperature      296(2)
_diffrn_measured_fraction_theta_full 0.998
_diffrn_measured_fraction_theta_max 0.990
_diffrn_measurement_device_type  'Bruker ApexII ccd area detector'
_diffrn_measurement_method       'phi and omega scans'
_diffrn_radiation_type           MoK\a
_diffrn_radiation_wavelength     0.71073
_diffrn_reflns_av_R_equivalents  0.0550
_diffrn_reflns_av_unetI/netI     0.0585
_diffrn_reflns_Laue_measured_fraction_full 0.998
_diffrn_reflns_Laue_measured_fraction_max 0.990
_diffrn_reflns_limit_h_max       6
_diffrn_reflns_limit_h_min       -6
_diffrn_reflns_limit_k_max       7
_diffrn_reflns_limit_k_min       -7
_diffrn_reflns_limit_l_max       11
_diffrn_reflns_limit_l_min       -9
_diffrn_reflns_number            4431
_diffrn_reflns_point_group_measured_fraction_full 0.998
_diffrn_reflns_point_group_measured_fraction_max 0.990
_diffrn_reflns_theta_full        25.242
_diffrn_reflns_theta_max         27.217
_diffrn_reflns_theta_min         2.370
_diffrn_source                   'fine-focus sealed tube'
_exptl_absorpt_coefficient_mu    11.396
_exptl_absorpt_correction_type   multi-scan
_exptl_absorpt_process_details   SADABS(Bruker,2004)
_exptl_crystal_colour            Colourless
_exptl_crystal_density_diffrn    4.872
_exptl_crystal_density_method    'not measured'
_exptl_crystal_description       Rectangular
_exptl_crystal_F_000             334
_exptl_crystal_size_max          0.150
_exptl_crystal_size_mid          0.120
_exptl_crystal_size_min          0.080
_exptl_transmission_factor_max   0.402
_exptl_transmission_factor_min   0.211
_refine_diff_density_max         1.307
_refine_diff_density_min         -1.298
_refine_diff_density_rms         0.341
_refine_ls_extinction_coef       .
_refine_ls_extinction_method     none
_refine_ls_goodness_of_fit_ref   1.059
_refine_ls_hydrogen_treatment    undef
_refine_ls_matrix_type           full
_refine_ls_number_parameters     79
_refine_ls_number_reflns         1145
_refine_ls_number_restraints     0
_refine_ls_restrained_S_all      1.059
_refine_ls_R_factor_all          0.0509
_refine_ls_R_factor_gt           0.0347
_refine_ls_shift/su_max          0.021
_refine_ls_shift/su_mean         0.001
_refine_ls_structure_factor_coef Fsqd
_refine_ls_weighting_details
'w=1/[\s^2^(Fo^2^)+(0.0291P)^2^] where P=(Fo^2^+2Fc^2^)/3'
_refine_ls_weighting_scheme      calc
_refine_ls_wR_factor_gt          0.0694
_refine_ls_wR_factor_ref         0.0769
_reflns_Friedel_coverage         0.000
_reflns_Friedel_fraction_full    .
_reflns_Friedel_fraction_max     .
_reflns_number_gt                898
_reflns_number_total             1145
_reflns_threshold_expression     'I > 2\s(I)'
_cod_data_source_file            JSSC-2017-249-39.cif
_cod_data_source_block           Cd2V2Te2O11
_cod_database_code               1560509
_shelx_space_group_comment
;
The symmetry employed for this shelxl refinement is uniquely defined
by the following loop, which should always be used as a source of
symmetry information in preference to the above space-group names.
They are only intended as comments.
;
_shelx_estimated_absorpt_t_min   0.280
_shelx_estimated_absorpt_t_max   0.463
_shelx_res_file
;
TITL 822a in P-1
    shelx.res
    created by SHELXL-2016/6 at 19:38:48 on 09-Dec-2016
CELL  0.71073   5.3673   5.7139   9.0124   80.268   73.866   78.544
ZERR     1.00   0.0003   0.0003   0.0005    0.003    0.003    0.003
LATT   1
SFAC  O        3.04850 13.27711  2.28680  5.70111   1.54630   0.32390 =
         0.86700  32.90894   0.25080   0.011   0.006    32.500   0.660  15.999
SFAC  V       10.29711  6.86571  7.35111  0.43850   2.07030  26.89383 =
         2.05710 102.47810   1.21990   0.301   0.529  2200.000   1.310  50.942
SFAC  CD      19.22142  0.59460 17.64442  6.90891   4.46100  24.70084 =
         1.60290  87.48257   5.06941  -0.808   1.202  5180.000   1.490 112.411
SFAC  TE      19.96442  4.81742 19.01382  0.42089   6.14488  28.52844 =
         2.52390  70.84036   4.35200  -0.531   1.675  7160.000   1.370 127.600
UNIT  11 2 2 2
MERG   2
FMAP   2
SIZE     0.080   0.120   0.150
ACTA
L.S.   4
TEMP    23.00
WGHT    0.029100
FVAR       0.16664
CD1   3    0.262210    0.261291    0.961340    11.00000    0.01176    0.00952 =
         0.01590   -0.00049   -0.00324    0.00228
TE1   4    0.344110    0.808405    0.738071    11.00000    0.01094    0.00985 =
         0.00920   -0.00114   -0.00287   -0.00083
V1    2    0.137682    0.708354    0.344905    11.00000    0.00967    0.01441 =
         0.01221    0.00233   -0.00147    0.00215
O1    1    0.257188    0.889190    0.414822    11.00000    0.03260    0.03358 =
         0.02915   -0.00975   -0.00998   -0.00661
O2    1    0.000000    0.500000    0.500000    10.50000    0.03605    0.03232 =
         0.02891    0.01322    0.00532   -0.00998
O3    1    0.096042    0.120940    0.754489    11.00000    0.01335    0.01164 =
         0.02422   -0.00164   -0.00891    0.00977
O4    1    0.390134    0.558654    0.220270    11.00000    0.01515    0.01028 =
         0.01853   -0.00070    0.00110   -0.00090
O5    1    0.440699    0.889653    0.902131    11.00000    0.01957    0.02319 =
         0.01350   -0.00160   -0.01139    0.00341
O6    1    0.083986    0.629145    0.850763    11.00000    0.01678    0.00726 =
         0.02394   -0.00358   -0.00255   -0.00139
HKLF    4




REM  822a in P-1
REM R1 =  0.0347 for     898 Fo > 4sig(Fo)  and  0.0509 for all    1145 data
REM     79 parameters refined using      0 restraints

END

WGHT      0.0287      0.0000

REM Highest difference peak  1.307,  deepest hole -1.298,  1-sigma level  0.341
Q1    1   0.3427  0.2706  0.7930  11.00000  0.05    1.31
Q2    1   0.0390  0.6871  0.6579  11.00000  0.05    1.26
Q3    1   0.3497  1.0751  0.4434  11.00000  0.05    1.25
Q4    1   0.0809  0.0236  1.0415  11.00000  0.05    1.19
Q5    1   0.0610  0.1937  0.9138  11.00000  0.05    1.16
Q6    1   0.2605  0.7937  0.3364  11.00000  0.05    1.13
Q7    1   0.1429  0.6352  0.9383  11.00000  0.05    1.10
Q8    1   0.3386  0.8466  0.4994  11.00000  0.05    1.09
Q9    1   0.2321  0.1865  0.7548  11.00000  0.05    1.06
Q10   1   0.1493  0.8168  0.4693  11.00000  0.05    1.05
Q11   1   0.2220  0.8059  0.9008  11.00000  0.05    1.04
Q12   1   0.1644  0.8204  0.5852  11.00000  0.05    1.03
Q13   1   0.3815  0.9098  0.2637  11.00000  0.05    1.02
Q14   1   0.6132  0.6636  0.9162  11.00000  0.05    1.01
Q15   1   0.3130  0.9483  0.3861  11.00000  0.05    1.00
Q16   1   0.1596  0.9755  0.2855  11.00000  0.05    0.99
Q17   1   0.1286  0.0084  0.6446  11.00000  0.05    0.99
Q18   1   0.0679  0.3382  1.0010  11.00000  0.05    0.98
Q19   1   0.1895  0.5036  0.5416  11.00000  0.05    0.98
Q20   1   0.4243  1.0616  0.7607  11.00000  0.05    0.98
;
_shelx_res_checksum              95580
_shelx_hkl_file
;
  -1   0   0   18.53    1.93
  -1   0   0   12.86    1.34
  -1   0   0   16.67    1.44
   1   0   0   19.83    1.55
   1   0   0   17.45    1.39
  -2   0   0  239.99   10.48
  -2   0   0  245.46   10.96
  -2   0   0  246.90   10.34
   2   0   0  241.82   10.09
   2   0   0  248.21   10.38
  -3   0   0   89.55    6.00
  -3   0   0  108.48    6.74
  -3   0   0   97.40    5.92
   3   0   0   97.55    5.85
  -4   0   0    6.26    2.01
  -4   0   0    8.86    2.48
  -4   0   0    9.09    2.59
   4   0   0    7.08    2.03
   4   0   0   12.19    2.53
  -5   0   0   21.44    3.56
  -5   0   0   28.77    4.67
   5   0   0   29.13    4.21
  -6   0   0   -0.26    1.93
  -6   1   0   -1.01    2.29
   5  -1   0  182.14   11.06
  -5   1   0  182.81   11.66
  -5   1   0  179.09   11.20
   4  -1   0    7.28    2.51
   4  -1   0   10.28    3.00
  -4   1   0    6.90    2.62
  -4   1   0    8.49    2.53
  -4   1   0    9.39    2.72
   3  -1   0  121.91    7.30
   3  -1   0  116.53    7.97
  -3   1   0  108.47    7.43
  -3   1   0  118.65    7.34
  -3   1   0  112.16    7.10
   2  -1   0   16.35    2.64
   2  -1   0   12.22    2.53
  -2   1   0   10.17    1.96
  -2   1   0   12.01    2.39
  -2   1   0   12.05    2.28
   1  -1   0  104.43    5.45
   1  -1   0   96.61    5.22
  -1   1   0   88.37    4.95
  -1   1   0   95.28    5.25
  -1   1   0   95.97    5.49
  -1   1   0   98.05    5.21
   0  -1   0   10.46    1.41
   0  -1   0    9.12    1.48
   0  -1   0    8.39    1.41
   0  -1   0   10.75    1.47
   0   1   0   11.88    1.72
   0   1   0    9.18    1.41
   0   1   0   16.23    2.10
   0   1   0   12.00    1.53
  -1  -1   0    0.26    0.59
  -1  -1   0    0.79    0.63
  -1  -1   0   -0.04    0.55
  -1  -1   0    0.63    0.59
  -1  -1   0    0.07    0.71
   1   1   0    0.94    0.58
   1   1   0    0.25    0.45
   1   1   0    0.73    0.79
   1   1   0   -0.63    0.37
  -2  -1   0   71.50    4.27
  -2  -1   0   73.59    3.96
  -2  -1   0   70.88    4.82
  -2  -1   0   66.56    4.05
   2   1   0   69.26    3.59
   2   1   0   68.34    3.77
   2   1   0   70.97    3.87
  -3  -1   0  311.60   13.50
  -3  -1   0  319.39   14.35
  -3  -1   0  301.61   13.19
   3   1   0  296.07   12.65
   3   1   0  309.29   12.38
   3   1   0  306.00   12.78
  -4  -1   0    3.40    1.41
  -4  -1   0    2.35    1.88
  -4  -1   0   -0.37    1.13
   4   1   0   -0.28    0.83
  -5  -1   0  227.21   14.12
  -5  -1   0  234.42   12.75
  -6  -1   0   23.34    4.76
   5  -2   0   43.50    6.51
  -5   2   0   26.22    6.06
  -5   2   0   49.11    6.88
   4  -2   0   15.67    3.70
   4  -2   0   14.35    4.17
  -4   2   0   11.69    3.55
  -4   2   0    9.31    3.24
  -4   2   0    7.60    2.94
  -4   2   0    6.99    2.40
   3  -2   0    5.58    2.46
   3  -2   0   10.80    2.99
  -3   2   0    1.78    1.66
  -3   2   0    3.80    2.11
  -3   2   0    3.36    1.96
  -3   2   0    6.56    2.47
   2  -2   0  753.30   29.69
   2  -2   0  715.20   29.99
  -2   2   0  732.84   29.89
  -2   2   0  766.29   30.49
  -2   2   0  748.88   29.43
  -2   2   0  758.98   30.24
  -2   2   0  748.26   29.75
   1  -2   0   11.79    2.44
   1  -2   0   13.70    2.58
  -1   2   0   14.11    2.83
  -1   2   0    8.83    2.15
  -1   2   0   17.63    2.93
  -1   2   0   13.97    2.29
  -1   2   0   12.28    2.54
   0  -2   0  567.27   22.21
   0  -2   0  562.37   22.36
   0  -2   0  611.01   22.10
   0   2   0  599.17   21.96
   0   2   0  530.11   22.55
   0   2   0  581.32   22.63
   0   2   0  527.21   22.24
  -1  -2   0   74.58    5.40
  -1  -2   0   86.69    5.06
  -1  -2   0   86.05    4.91
  -1  -2   0   91.48    4.18
  -1  -2   0   82.44    5.52
   1   2   0   93.84    4.79
   1   2   0   93.97    4.86
   1   2   0   92.54    5.28
   1   2   0   97.44    5.17
   1   2   0   92.44    5.54
  -2  -2   0    6.41    1.43
  -2  -2   0    8.34    1.87
  -2  -2   0    6.75    1.65
  -2  -2   0    6.79    1.72
  -2  -2   0    6.30    1.65
  -2  -2   0    8.72    1.97
   2   2   0    6.31    1.31
   2   2   0    7.03    1.37
   2   2   0    9.25    1.39
   2   2   0    6.51    1.95
  -3  -2   0   98.26    6.54
  -3  -2   0   97.53    5.93
  -3  -2   0   98.38    6.26
  -3  -2   0  101.18    4.85
  -3  -2   0   96.75    6.26
   3   2   0   96.30    5.13
   3   2   0   94.92    4.79
   3   2   0   94.95    5.15
  -4  -2   0   12.75    2.99
  -4  -2   0    4.93    2.12
  -4  -2   0   14.92    3.44
  -4  -2   0    9.15    2.27
  -5  -2   0    4.98    2.02
  -5  -2   0    6.21    2.98
  -6  -2   0   -0.76    1.83
   5  -3   0   93.20   11.05
  -5   3   0   91.47   11.19
  -5   3   0  104.49   11.14
   4  -3   0   27.36    5.59
   4  -3   0   22.22    4.96
  -4   3   0   14.75    3.95
  -4   3   0   16.99    4.89
   3  -3   0    0.86    1.86
   3  -3   0    1.08    1.95
  -3   3   0    0.06    1.98
  -3   3   0    0.24    1.51
  -3   3   0   -0.03    1.83
  -3   3   0   -0.40    3.18
   2  -3   0    3.71    2.09
   2  -3   0    5.58    2.49
  -2   3   0    5.31    2.33
  -2   3   0    6.86    2.25
  -2   3   0    3.90    2.12
  -2   3   0    6.05    2.48
   1  -3   0    8.11    2.47
   1  -3   0    7.00    3.62
   1  -3   0    6.77    2.31
  -1   3   0   10.10    2.66
  -1   3   0   11.29    2.24
  -1   3   0    5.90    2.51
  -1   3   0    8.57    3.01
  -1   3   0    8.02    2.10
   0  -3   0   55.96    4.71
   0  -3   0   51.70    4.42
   0  -3   0   66.55    6.05
   0   3   0   35.11    4.64
   0   3   0   67.81    6.88
   0   3   0   47.13    2.44
   0   3   0   59.14    6.03
  -1  -3   0  203.76   10.28
  -1  -3   0  205.31   10.77
  -1  -3   0  215.30   11.00
   1   3   0  217.11   10.89
   1   3   0  208.14   10.20
   1   3   0  223.02   10.09
   1   3   0  202.43   10.76
  -2  -3   0   -0.31    0.94
  -2  -3   0   -0.50    0.80
  -2  -3   0    1.20    1.11
  -2  -3   0    0.36    0.91
  -2  -3   0   -0.12    1.29
   2   3   0    1.71    1.46
   2   3   0    0.34    0.88
   2   3   0    1.30    0.91
   2   3   0    0.54    0.94
  -3  -3   0  388.89   17.08
  -3  -3   0  379.38   15.26
  -3  -3   0  309.86   16.61
  -3  -3   0  355.53   16.71
  -3  -3   0  399.36   16.99
   3   3   0  388.57   18.12
  -4  -3   0   11.28    2.80
  -4  -3   0    6.62    2.09
  -4  -3   0   17.40    3.71
  -4  -3   0   21.79    4.31
   4   3   0   17.33    2.19
  -5  -3   0  100.61    8.99
  -5  -3   0  107.53    8.37
  -6  -3   0   41.22    6.43
   4  -4   0  109.32   11.40
  -4   4   0   94.72   11.96
  -4   4   0   96.13   10.32
   3  -4   0    1.73    1.96
   3  -4   0    3.31    3.04
  -3   4   0    3.15    2.52
  -3   4   0    1.19    1.92
   2  -4   0  407.24   20.87
   2  -4   0  405.48   20.11
  -2   4   0  401.65   19.66
  -2   4   0  420.38   21.62
   1  -4   0   78.69    8.32
   1  -4   0   63.92    7.29
  -1   4   0   76.42    8.75
  -1   4   0   63.35    4.73
  -1   4   0   79.45    9.44
  -1   4   0   57.74    6.48
   0  -4   0   66.24    6.85
   0  -4   0   68.64    7.03
   0   4   0   63.71    7.57
   0   4   0   74.92    8.25
  -1  -4   0   95.80    7.12
  -1  -4   0   85.31    6.63
  -1  -4   0   94.17    7.11
   1   4   0   83.07    7.03
   1   4   0   86.21    7.16
  -2  -4   0   19.84    1.87
  -2  -4   0   18.30    3.56
  -2  -4   0   11.68    3.11
  -2  -4   0   14.81    3.39
   2   4   0   13.42    3.40
   2   4   0   17.86    3.46
   2   4   0   17.30    3.13
  -3  -4   0    7.09    2.72
  -3  -4   0   11.30    3.22
  -3  -4   0    8.34    2.31
  -3  -4   0    6.51    3.00
   3   4   0   12.11    3.52
   3   4   0    5.82    1.61
  -4  -4   0    2.48    1.96
  -5  -4   0    6.24    2.63
  -6  -4   0   26.12    5.56
  -4   5   0    5.28    3.37
   3  -5   0    8.86    4.43
   3  -5   0    6.26    3.69
  -3   5   0    9.50    3.65
  -3   5   0    3.66    3.48
   2  -5   0    9.04    3.97
   2  -5   0    6.92    3.55
  -2   5   0   12.82    3.54
  -2   5   0   11.76    4.73
   1  -5   0    1.91    2.38
   1  -5   0    2.89    2.39
  -1   5   0    1.24    2.65
  -1   5   0    5.21    2.44
   0  -5   0    0.49    1.56
   0  -5   0    3.94    2.63
   0   5   0    2.56    1.73
   0   5   0   -0.44    2.17
  -1  -5   0  192.11   11.91
  -1  -5   0  181.69   11.75
   1   5   0  194.36   12.46
   1   5   0  182.93   12.46
   1   5   0  201.48   10.67
  -2  -5   0    6.92    2.68
  -2  -5   0    7.24    3.58
  -2  -5   0   10.96    3.36
   2   5   0    9.17    2.78
   2   5   0    2.71    2.11
   2   5   0    2.18    2.04
  -3  -5   0  184.53   12.43
  -3  -5   0  213.06   12.65
   3   5   0  192.56   12.92
  -4  -5   0   75.16    8.71
  -4  -5   0   58.29    8.58
   4   5   0   61.11    8.89
  -5  -5   0    9.40    3.68
   2  -6   0   84.80   10.45
   2  -6   0   90.19   11.64
  -2   6   0   84.01   11.81
   1  -6   0   38.79    7.21
   1  -6   0   34.43    6.54
  -1   6   0   39.67    8.46
   0  -6   0    3.04    2.68
   0  -6   0    5.41    3.04
   0   6   0    4.23    3.89
  -1  -6   0   14.61    4.09
  -1  -6   0   20.21    4.91
   1   6   0    7.16    3.83
  -2  -6   0    2.42    2.50
  -2  -6   0    4.07    2.55
   2   6   0    6.26    3.26
  -3  -6   0   -0.85    2.14
  -3  -6   0    3.05    2.69
   3   6   0    1.63    2.65
  -4  -6   0    2.34    3.00
  -4  -6   0    1.84    2.61
   4   6   0    0.21    2.77
   0  -7   0    2.29    3.46
   0  -7   0    0.52    2.71
  -1  -7   0  159.26   14.69
  -1  -7   0   94.43   11.61
  -2  -7   0   21.02    5.64
  -2  -7   0   39.03    7.34
   2   7   0   38.17    7.66
  -1  -7   1   13.14    4.56
  -1  -7   1    5.60    3.67
   0  -7   1   52.75    8.79
   0  -7   1   47.37    8.07
   4   6  -1   87.68   11.76
  -4  -6   1   90.08    9.70
  -4  -6   1  116.76   12.15
   3   6  -1    1.95    2.68
  -3  -6   1    4.61    2.85
  -3  -6   1    2.65    2.59
   2   6  -1   43.96    7.83
  -2  -6   1   41.65    6.89
  -2  -6   1   61.06    7.45
   1   6  -1   -0.48    2.20
  -1  -6   1   -0.67    1.91
  -1  -6   1    0.13    2.35
   0   6  -1   10.42    4.61
   0  -6   1    6.45    3.63
   0  -6   1   11.69    4.13
  -1   6  -1    5.07    3.91
   1  -6   1    1.34    2.85
   1  -6   1   -1.51    1.98
  -2   6  -1    3.21    3.48
   2  -6   1    5.20    4.06
   2  -6   1    0.53    2.72
  -5  -5   1   11.66    3.71
  -4  -5   1   26.63    5.26
  -4  -5   1   42.02    6.57
   3   5  -1    0.43    1.88
  -3  -5   1    1.57    1.86
  -3  -5   1    0.08    2.11
   2   5  -1   73.65    4.69
   2   5  -1   64.67    5.64
   2   5  -1   61.96    8.18
  -2  -5   1   88.80    8.47
  -2  -5   1   82.19    8.63
   1   5  -1  110.41    8.17
   1   5  -1  105.23    6.85
   1   5  -1  110.37    9.64
  -1  -5   1  104.42    8.24
  -1  -5   1  107.81    8.13
   0   5  -1   46.09    7.10
   0   5  -1   41.03    5.01
   0  -5   1   33.40    5.70
   0  -5   1   45.10    6.58
  -1   5  -1  275.18   17.47
  -1   5  -1  306.71   15.86
   1  -5   1  311.14   16.95
   1  -5   1  292.03   16.62
  -2   5  -1    0.43    1.82
  -2   5  -1   -0.37    2.29
   2  -5   1   -2.45    1.56
   2  -5   1    1.39    2.52
  -3   5  -1   47.00    7.38
  -3   5  -1   50.87    9.24
   3  -5   1   41.73    8.04
   3  -5   1   35.18    6.64
  -4   5  -1    4.90    4.41
   4  -5   1    5.25    3.99
  -5  -4   1    1.69    1.73
  -4  -4   1  130.70    7.82
  -4  -4   1  124.81    8.89
   3   4  -1    5.16    2.40
  -3  -4   1    2.48    1.91
  -3  -4   1    1.38    1.97
  -3  -4   1    1.05    1.59
  -3  -4   1    2.05    1.71
  -3  -4   1    4.14    2.17
   2   4  -1    5.75    2.71
   2   4  -1    5.42    1.25
  -2  -4   1    8.14    2.45
  -2  -4   1    5.28    2.22
  -2  -4   1    7.49    2.25
  -2  -4   1    3.18    1.04
  -2  -4   1    5.21    1.99
   1   4  -1    9.09    2.61
   1   4  -1    5.46    1.57
   1   4  -1    6.17    2.47
   1   4  -1    9.87    3.14
  -1  -4   1   12.09    2.79
  -1  -4   1    9.86    2.55
  -1  -4   1   10.20    2.96
  -1  -4   1    3.95    2.22
   0   4  -1   31.66    5.02
   0   4  -1   42.25    6.11
   0   4  -1   32.24    4.07
   0  -4   1   26.43    4.09
   0  -4   1   35.15    4.84
   0  -4   1   51.98    6.37
  -1   4  -1   28.30    5.61
  -1   4  -1   31.28    3.54
  -1   4  -1   28.96    5.17
  -1   4  -1   33.20    4.57
   1  -4   1   25.81    4.49
   1  -4   1   25.40    4.39
  -2   4  -1   35.77    5.45
  -2   4  -1   42.40    7.19
   2  -4   1   30.78    5.57
   2  -4   1   47.07    6.84
  -3   4  -1   71.96    9.70
  -3   4  -1   63.34    7.57
   3  -4   1   64.13    8.61
   3  -4   1   76.85    9.32
  -4   4  -1  150.41   12.92
  -4   4  -1  142.47   11.40
   4  -4   1  155.38   15.03
   4  -4   1  159.05   12.40
  -6  -3   1   24.14    4.77
  -5  -3   1   23.22    4.22
  -4  -3   1  113.36    7.53
  -4  -3   1  100.21    7.13
  -4  -3   1  109.71    6.48
  -4  -3   1  120.47    9.16
  -3  -3   1   29.19    4.25
  -3  -3   1   22.48    4.23
  -3  -3   1   32.03    4.16
  -3  -3   1   27.53    3.68
  -3  -3   1   28.51    3.70
   2   3  -1   65.93    3.47
   2   3  -1   66.38    3.10
   2   3  -1   64.23    3.48
   2   3  -1   69.28    6.11
   2   3  -1   68.96    3.18
  -2  -3   1   64.38    5.25
  -2  -3   1   66.85    4.76
  -2  -3   1   75.05    5.43
  -2  -3   1   65.80    4.44
  -2  -3   1   68.43    5.45
   1   3  -1  618.82   23.51
   1   3  -1  579.32   25.85
   1   3  -1  616.25   23.49
   1   3  -1  609.55   23.11
   1   3  -1  635.41   25.61
   1   3  -1  626.61   24.15
  -1  -3   1  607.64   24.70
  -1  -3   1  633.34   24.65
  -1  -3   1  634.66   25.74
  -1  -3   1  618.61   24.25
   0   3  -1   -0.27    1.15
   0   3  -1   -0.10    0.96
   0   3  -1    0.66    0.86
   0   3  -1    2.06    1.62
   0  -3   1   -0.46    0.99
   0  -3   1    1.43    1.26
   0  -3   1    0.57    1.00
   0  -3   1    1.20    1.39
  -1   3  -1  253.81   12.87
  -1   3  -1  251.16   11.29
  -1   3  -1  258.02   13.51
  -1   3  -1  252.22   12.25
  -1   3  -1  244.06   13.34
   1  -3   1  260.58   12.95
   1  -3   1  262.40   12.96
  -2   3  -1   24.43    4.77
  -2   3  -1   15.94    3.08
  -2   3  -1    6.77    2.84
  -2   3  -1   18.73    4.19
   2  -3   1   16.88    3.62
   2  -3   1   18.02    3.89
  -3   3  -1    1.88    1.51
  -3   3  -1   -0.14    1.76
  -3   3  -1    2.70    2.40
   3  -3   1   -0.84    1.50
   3  -3   1    0.27    1.96
  -4   3  -1    0.83    2.06
  -4   3  -1   -1.92    1.61
   4  -3   1   -0.45    1.70
   4  -3   1    1.71    2.40
  -5   3  -1    3.13    3.34
  -5   3  -1    3.56    3.09
   5  -3   1    2.26    2.84
  -6  -2   1  120.17    9.48
  -5  -2   1    0.37    1.35
  -5  -2   1    1.39    2.41
  -4  -2   1   88.88    6.17
  -4  -2   1   87.11    6.54
  -4  -2   1   86.47    6.40
  -4  -2   1   94.04    8.18
  -3  -2   1   -0.18    0.70
  -3  -2   1    0.34    0.99
  -3  -2   1   -0.81    1.45
  -3  -2   1   -0.78    0.79
   2   2  -1   41.69    5.19
  -2  -2   1   42.65    3.12
  -2  -2   1   45.97    5.04
  -2  -2   1   39.43    3.23
  -2  -2   1   39.14    3.43
  -2  -2   1   45.24    3.15
   1   2  -1    4.60    1.69
   1   2  -1    5.57    0.88
   1   2  -1    5.90    1.08
   1   2  -1    5.20    0.92
  -1  -2   1    7.26    1.73
  -1  -2   1    7.12    1.38
  -1  -2   1    3.74    1.51
  -1  -2   1    4.57    1.35
   0   2  -1   -0.38    0.73
   0   2  -1   -0.24    0.36
   0   2  -1   -0.23    0.94
   0   2  -1    0.50    1.05
   0   2  -1    0.30    0.45
   0   2  -1    0.06    0.75
   0  -2   1    0.32    1.10
   0  -2   1   -0.04    0.41
   0  -2   1    0.23    0.74
   0  -2   1    0.12    0.91
   0  -2   1    0.08    0.77
  -1   2  -1  271.68   12.59
  -1   2  -1  260.08   12.08
  -1   2  -1  252.42   12.51
  -1   2  -1  249.93   11.37
  -1   2  -1  283.49   11.95
  -1   2  -1  265.16   12.28
   1  -2   1  271.94   12.29
   1  -2   1  287.19   12.44
   1  -2   1  260.45   12.66
  -2   2  -1  328.71   15.69
  -2   2  -1  357.14   16.26
  -2   2  -1  340.96   16.54
  -2   2  -1  353.51   15.54
  -2   2  -1  334.91   16.13
   2  -2   1  355.23   16.06
   2  -2   1  353.11   16.26
  -3   2  -1   15.94    3.20
  -3   2  -1    8.39    2.82
  -3   2  -1   19.52    3.89
   3  -2   1    9.83    2.97
   3  -2   1   12.23    3.27
  -4   2  -1  309.16   16.47
  -4   2  -1  329.80   16.26
  -4   2  -1  322.38   16.86
   4  -2   1  306.91   16.10
   4  -2   1  246.97   16.41
  -5   2  -1    5.08    2.59
   5  -2   1    7.21    3.22
  -6   2  -1   62.70    8.69
  -6   2  -1   45.34    8.80
  -6  -1   1   66.41    7.59
  -5  -1   1    3.70    2.99
  -5  -1   1    0.89    1.17
   4   1  -1   81.38    4.24
  -4  -1   1   74.97    5.80
  -4  -1   1   83.15    6.38
  -4  -1   1   76.65    5.64
   3   1  -1  270.05   10.57
   3   1  -1  279.73   10.57
  -3  -1   1  277.89   12.04
  -3  -1   1  277.99   11.83
  -3  -1   1  288.08   12.76
  -3  -1   1  258.38   14.29
  -2  -1   1   52.89    4.86
  -2  -1   1   51.58    3.25
  -2  -1   1   51.78    3.08
  -2  -1   1   55.62    3.03
   1   1  -1  880.07   35.66
  -1  -1   1  976.79   33.39
  -1  -1   1  979.48   35.89
  -1  -1   1 1000.00   33.56
  -1  -1   1  967.11   33.48
   0   1  -1   14.20    1.73
   0   1  -1   15.01    1.45
   0   1  -1   18.02    1.35
   0   1  -1   19.28    2.30
   0   1  -1   15.46    1.57
   0   1  -1   17.68    1.39
   0  -1   1   15.06    1.58
   0  -1   1   14.74    1.61
   0  -1   1   16.30    1.53
   0  -1   1   16.25    1.66
   0  -1   1   14.04    1.45
   0  -1   1   18.39    2.42
  -1   1  -1  149.34    7.27
  -1   1  -1  147.76    7.17
  -1   1  -1  151.91    7.11
  -1   1  -1  147.88    6.87
  -1   1  -1  150.21    6.99
   1  -1   1  148.08    6.85
   1  -1   1  142.66    7.04
   1  -1   1  148.87    7.24
   1  -1   1  143.93    7.29
   1  -1   1  148.19    7.14
  -2   1  -1    1.81    1.38
  -2   1  -1    3.20    1.28
  -2   1  -1    4.03    1.60
  -2   1  -1    1.62    1.02
  -2   1  -1    3.12    1.30
   2  -1   1    2.18    1.20
   2  -1   1    0.59    1.27
   2  -1   1    0.37    1.12
  -3   1  -1   18.64    3.09
  -3   1  -1   23.87    3.93
  -3   1  -1   28.39    3.96
  -3   1  -1   24.45    3.73
   3  -1   1   25.95    3.53
   3  -1   1   23.09    4.26
   3  -1   1   29.39    4.00
  -4   1  -1   -1.39    1.04
  -4   1  -1    2.27    2.29
  -4   1  -1    4.34    1.97
   4  -1   1    3.85    2.03
   4  -1   1    0.79    1.98
  -5   1  -1    2.36    1.81
  -5   1  -1    1.25    1.83
   5  -1   1    0.15    2.13
   5  -1   1    1.96    1.76
  -6   1  -1   14.98    4.30
  -6   0   1   73.38    8.61
  -5   0   1    2.75    1.92
   4   0  -1    0.31    1.02
   4   0  -1   -0.31    0.96
  -4   0   1   -1.18    1.08
  -4   0   1    2.44    1.56
  -4   0   1    1.52    1.16
   3   0  -1    6.36    1.42
   3   0  -1    4.36    1.36
  -3   0   1    2.76    1.30
  -3   0   1    4.66    1.66
  -3   0   1    3.63    1.31
   2   0  -1   22.66    2.19
   2   0  -1   18.00    2.07
  -2   0   1   16.00    2.04
  -2   0   1   17.22    2.20
  -2   0   1   19.89    2.34
   1   0  -1  268.48    9.73
  -1   0   1  268.68   10.07
  -1   0   1  257.25    9.93
   0   0  -1   91.13    3.65
   0   0  -1   85.66    3.65
   0   0  -1   97.21    3.63
   0   0   1   88.31    4.61
   0   0   1   96.17    3.72
   0   0   1   96.79    3.80
   0   0   1   88.02    3.65
  -1   0  -1   53.95    2.74
  -1   0  -1   53.40    3.42
  -1   0  -1   49.98    2.95
  -1   0  -1   52.80    3.47
  -1   0  -1   48.70    3.00
   1   0   1   51.06    3.40
   1   0   1   51.13    2.77
   1   0   1   55.19    3.01
   1   0   1   57.78    3.60
   1   0   1   52.13    3.12
  -2   0  -1  445.40   17.49
  -2   0  -1  437.37   16.52
  -2   0  -1  462.02   18.56
  -2   0  -1  346.84   17.57
  -2   0  -1  441.73   17.28
   2   0   1  459.97   17.23
   2   0   1  461.54   17.53
  -3   0  -1    9.22    2.17
  -3   0  -1    8.24    2.37
  -3   0  -1   10.08    2.21
  -3   0  -1    8.22    1.71
   3   0   1    6.32    1.69
   3   0   1    8.93    2.30
   3   0   1    8.74    2.28
  -4   0  -1  324.21   16.13
  -4   0  -1  322.95   13.87
  -4   0  -1  307.51   15.34
  -4   0  -1  298.17   14.98
   4   0   1  330.35   15.18
   4   0   1  305.50   15.18
  -5   0  -1   28.14    3.76
  -5   0  -1   21.91    4.14
   5   0   1   20.21    4.07
   5   0   1    9.22    2.77
  -6   0  -1   10.41    3.95
  -6   1   1   74.95    8.98
  -5   1   1   43.69    6.16
  -5   1   1   56.16    9.60
   4  -1  -1   33.08    4.53
   4  -1  -1   27.93    3.99
  -4   1   1   32.98    5.09
  -4   1   1   21.55    3.84
  -4   1   1   23.46    4.21
   3  -1  -1  578.11   23.94
  -3   1   1  640.32   24.99
  -3   1   1  585.96   24.20
  -3   1   1  590.15   24.66
   2  -1  -1   57.04    4.42
   2  -1  -1   62.43    4.35
  -2   1   1   51.96    4.17
  -2   1   1   64.13    4.32
  -2   1   1   70.98    4.72
   1  -1  -1  414.63   16.95
   1  -1  -1  425.39   16.81
  -1   1   1  438.56   16.89
  -1   1   1  448.67   17.02
  -1   1   1  439.34   17.14
   0  -1  -1   26.97    2.62
   0  -1  -1   26.64    2.15
   0  -1  -1   28.43    2.42
   0   1   1   33.66    2.73
   0   1   1   31.42    2.21
   0   1   1   35.36    2.63
  -1  -1  -1   -0.10    0.80
  -1  -1  -1    0.97    0.88
  -1  -1  -1    0.52    0.80
  -1  -1  -1    0.39    0.87
   1   1   1   -0.14    0.88
   1   1   1    0.48    0.76
   1   1   1   -0.63    0.79
   1   1   1    0.62    0.71
  -2  -1  -1    4.49    1.43
  -2  -1  -1    4.47    1.15
  -2  -1  -1    5.07    1.49
  -2  -1  -1    5.22    1.69
  -2  -1  -1    2.95    1.25
   2   1   1    5.21    1.37
   2   1   1    3.65    1.31
   2   1   1    3.69    1.15
  -3  -1  -1    1.85    1.34
  -3  -1  -1    0.25    0.87
  -3  -1  -1    0.71    0.98
   3   1   1    0.31    0.72
   3   1   1   -0.94    0.65
   3   1   1   -0.92    0.74
  -4  -1  -1    9.18    2.56
  -4  -1  -1   10.63    2.54
  -4  -1  -1   12.50    3.41
   4   1   1   11.31    2.56
  -5  -1  -1   48.75    7.51
  -5  -1  -1   41.47    5.41
   5   1   1   48.70    5.45
  -6  -1  -1    3.42    2.56
  -5   2   1    0.16    2.15
  -5   2   1   -0.74    1.69
   4  -2  -1   13.79    3.88
   4  -2  -1    6.71    2.60
  -4   2   1    1.54    1.89
  -4   2   1    2.35    2.00
  -4   2   1    5.72    2.67
   3  -2  -1   83.62    7.17
   3  -2  -1   93.87    6.86
  -3   2   1  101.00    7.82
  -3   2   1   95.49    6.97
  -3   2   1   97.10    7.39
   2  -2  -1    2.92    1.59
   2  -2  -1    0.55    1.12
  -2   2   1    3.63    1.77
  -2   2   1    1.23    1.20
  -2   2   1    0.58    1.01
  -2   2   1    1.28    1.17
   1  -2  -1  272.06   12.92
   1  -2  -1  274.45   12.67
   1  -2  -1  297.65   13.32
  -1   2   1  287.96   12.87
  -1   2   1  277.74   12.58
  -1   2   1  277.86   13.09
   0  -2  -1  369.24   15.86
   0  -2  -1  367.30   15.58
   0  -2  -1  362.21   15.25
   0   2   1  346.95   14.95
   0   2   1  393.54   15.89
   0   2   1  376.11   16.06
  -1  -2  -1   -0.34    0.71
  -1  -2  -1    0.98    1.01
  -1  -2  -1    0.13    1.43
  -1  -2  -1    2.52    1.42
   1   2   1    1.11    1.27
   1   2   1    0.19    0.78
   1   2   1   -0.13    0.82
   1   2   1    0.42    1.02
   1   2   1   -0.18    0.72
  -2  -2  -1  696.91   26.72
  -2  -2  -1  687.92   26.63
  -2  -2  -1  675.55   26.90
  -2  -2  -1  679.71   26.65
   2   2   1  681.39   26.05
   2   2   1  706.04   25.00
   2   2   1  703.25   26.31
   2   2   1  695.26   26.09
   2   2   1  663.50   25.77
  -3  -2  -1   68.95    5.28
  -3  -2  -1   68.87    5.31
  -3  -2  -1   66.93    5.07
  -3  -2  -1   71.13    4.60
   3   2   1   68.79    4.46
   3   2   1   64.46    4.56
  -4  -2  -1  131.99    8.79
  -4  -2  -1  144.91    8.63
  -4  -2  -1  148.04    8.07
  -4  -2  -1  120.00    8.75
   4   2   1  125.38    7.51
  -5  -2  -1   21.45    3.89
  -5  -2  -1   20.97    3.97
   5   2   1   17.35    3.18
  -6  -2  -1   13.52    3.78
  -5   3   1   96.01   10.42
  -5   3   1  111.40   12.90
   4  -3  -1    3.62    2.50
  -4   3   1    0.12    2.02
  -4   3   1    1.40    1.77
   3  -3  -1  193.08   13.23
   3  -3  -1  240.96   13.40
  -3   3   1  247.32   13.43
  -3   3   1  248.56   15.60
  -3   3   1  243.69   13.90
  -3   3   1  223.06   13.90
   2  -3  -1   34.66    5.13
   2  -3  -1   58.22    6.75
  -2   3   1   41.20    4.98
  -2   3   1   35.51    5.32
  -2   3   1   54.84    6.46
   1  -3  -1   40.30    4.99
   1  -3  -1   39.33    5.20
  -1   3   1   46.92    5.36
  -1   3   1   40.88    5.50
   0  -3  -1   19.02    3.23
   0  -3  -1   16.16    3.12
   0  -3  -1   16.01    3.44
   0   3   1   15.21    3.59
   0   3   1   17.56    3.23
   0   3   1   12.15    2.67
   0   3   1   17.16    3.32
  -1  -3  -1    4.07    1.70
  -1  -3  -1    5.54    2.09
  -1  -3  -1    7.99    2.31
   1   3   1    7.15    2.10
   1   3   1    6.58    2.24
   1   3   1    8.86    1.38
   1   3   1    6.66    2.41
   1   3   1    8.85    2.08
  -2  -3  -1   13.87    3.07
  -2  -3  -1   12.72    2.23
  -2  -3  -1   14.62    2.80
  -2  -3  -1    6.36    2.44
   2   3   1   15.20    2.55
   2   3   1   12.78    2.61
   2   3   1   18.35    2.70
   2   3   1   15.09    2.71
  -3  -3  -1   -0.24    1.31
  -3  -3  -1   -1.40    1.25
  -3  -3  -1    0.61    1.47
  -3  -3  -1    0.98    1.50
   3   3   1    0.30    0.89
   3   3   1    0.14    1.26
  -4  -3  -1   10.83    3.06
  -4  -3  -1   18.39    3.59
  -4  -3  -1   15.30    3.85
   4   3   1   10.98    2.39
  -5  -3  -1  148.27   10.37
  -6  -3  -1    1.50    2.53
   4  -4  -1   -1.26    1.98
  -4   4   1   -2.00    1.60
  -4   4   1    0.32    1.99
   3  -4  -1   99.61   10.42
   3  -4  -1   88.03   10.17
  -3   4   1   90.25   11.04
  -3   4   1  102.24   10.02
   2  -4  -1   58.17    7.16
   2  -4  -1   68.43    8.25
  -2   4   1   57.15    8.06
  -2   4   1   52.29    6.29
   1  -4  -1    2.32    2.09
   1  -4  -1    5.30    2.65
  -1   4   1    2.32    2.27
  -1   4   1    3.61    2.70
   0  -4  -1  333.10   16.24
   0  -4  -1  329.20   16.67
   0   4   1  343.19   17.20
   0   4   1  299.05   16.83
   0   4   1  316.61   13.33
  -1  -4  -1   55.89    6.73
  -1  -4  -1   42.96    5.53
  -1  -4  -1   49.86    5.75
   1   4   1   43.27    5.64
   1   4   1   43.62    6.56
  -2  -4  -1  347.43   17.23
  -2  -4  -1  385.02   15.20
  -2  -4  -1  373.92   18.45
  -2  -4  -1  350.05   18.49
   2   4   1  392.75   17.60
   2   4   1  371.56   17.76
   2   4   1  405.97   17.83
  -3  -4  -1   35.55    4.60
  -3  -4  -1   30.42    5.69
  -3  -4  -1   42.05    5.75
  -3  -4  -1   35.55    5.63
   3   4   1   38.88    4.75
   3   4   1   47.30    5.88
  -4  -4  -1    3.56    2.21
   4   4   1    3.11    1.56
  -5  -4  -1   22.13    4.66
  -6  -4  -1   10.39    3.95
   3  -5  -1   55.77    9.06
   3  -5  -1   26.69    6.06
  -3   5   1   47.18    8.63
  -3   5   1   35.93    6.40
   2  -5  -1   14.56    4.68
   2  -5  -1   17.49    4.44
  -2   5   1   13.45    3.72
  -2   5   1   11.15    4.43
   1  -5  -1    0.35    1.60
   1  -5  -1    0.31    1.93
  -1   5   1    0.27    1.49
  -1   5   1    0.30    2.22
   0  -5  -1   23.63    5.10
   0  -5  -1   21.25    4.55
   0   5   1   19.62    5.14
  -1  -5  -1    6.05    2.65
  -1  -5  -1    3.41    2.45
   1   5   1    6.21    3.12
   1   5   1    2.45    2.61
  -2  -5  -1   22.05    4.86
  -2  -5  -1   20.84    4.12
   2   5   1   28.18    5.00
   2   5   1   32.14    5.41
   2   5   1   20.11    4.28
  -3  -5  -1   76.79    9.07
  -3  -5  -1   60.70    8.29
   3   5   1   67.93    5.81
   3   5   1   64.28    8.15
  -4  -5  -1   -1.43    2.39
  -4  -5  -1    1.97    2.30
   4   5   1   -0.09    1.97
  -5  -5  -1  111.32   11.55
   2  -6  -1  105.65   12.43
   2  -6  -1   64.09    9.33
  -2   6   1   73.27   11.00
  -2   6   1   79.19   10.89
   1  -6  -1    9.64    4.01
   1  -6  -1   10.84    4.43
  -1   6   1   10.41    3.61
  -1   6   1   20.00    5.99
   0  -6  -1  237.26   14.98
   0  -6  -1  242.43   15.61
   0   6   1  229.51   14.75
   0   6   1  151.02   16.60
  -1  -6  -1   61.46    8.14
  -1  -6  -1   50.42    7.35
   1   6   1   51.32    8.60
  -2  -6  -1   29.38    5.87
  -2  -6  -1   37.35    6.50
   2   6   1   28.54    6.09
   2   6   1   33.01    6.26
  -3  -6  -1   32.95    6.62
  -3  -6  -1   30.32    6.27
   3   6   1   19.40    4.92
  -4  -6  -1   15.98    4.89
  -4  -6  -1   15.82    4.87
   4   6   1   15.31    4.61
   0  -7  -1   15.44    5.60
   0  -7  -1    5.05    3.82
  -1  -7  -1    9.12    3.96
  -1  -7  -1    2.65    3.32
  -2  -7  -1    0.11    2.81
  -2  -7  -1    0.02    2.10
   2   7   1   -0.37    2.54
  -3  -7  -1  121.12   13.20
  -3  -7  -1  101.53   11.89
   3   7   1   86.52   11.80
   3   6  -2   38.94    8.18
  -3  -6   2   53.97    7.60
  -3  -6   2   54.83    6.90
   2   6  -2   67.15   10.07
  -2  -6   2   82.52    9.42
  -2  -6   2   64.97    7.41
   1   6  -2   11.73    4.69
  -1  -6   2   10.60    3.62
  -1  -6   2    8.10    3.26
   0   6  -2   72.45   10.35
   0  -6   2   79.12    9.29
   0  -6   2  104.40   10.23
   1  -6   2    7.55    3.59
   1  -6   2   -3.47    2.43
  -2   6  -2    8.32    4.78
   2  -6   2    2.27    3.07
   2  -6   2    7.18    3.89
  -4  -5   2    2.09    2.14
  -4  -5   2    2.64    2.24
   3   5  -2    7.27    3.68
  -3  -5   2   15.08    3.71
  -3  -5   2   20.45    4.63
  -3  -5   2   15.50    3.44
   2   5  -2   35.71    6.68
  -2  -5   2   32.05    4.66
  -2  -5   2   29.32    5.39
  -2  -5   2   36.78    5.39
   1   5  -2   30.71    6.26
   1   5  -2   30.56    4.43
   1   5  -2   28.50    3.39
  -1  -5   2   23.03    4.66
  -1  -5   2   24.25    4.38
  -1  -5   2   24.65    5.23
   0   5  -2  145.30   11.83
   0   5  -2  156.76   11.00
   0   5  -2  141.45    8.66
   0  -5   2  148.94   10.33
   0  -5   2  151.35   10.31
  -1   5  -2   39.80    5.52
  -1   5  -2   59.52    8.57
   1  -5   2   33.39    5.70
   1  -5   2   43.67    6.66
  -2   5  -2   53.97    7.07
  -2   5  -2   39.70    7.55
   2  -5   2   56.48    8.03
   2  -5   2   42.74    7.25
  -3   5  -2  158.38   16.60
   3  -5   2  169.74   13.40
   3  -5   2  193.61   14.51
  -5  -4   2   74.38    7.49
  -4  -4   2   36.17    4.92
  -4  -4   2   39.14    5.25
   3   4  -2   39.93    6.93
  -3  -4   2   39.89    5.10
  -3  -4   2   39.40    5.60
  -3  -4   2   37.02    5.01
   2   4  -2  212.19   13.70
  -2  -4   2  211.14   11.28
  -2  -4   2  223.30   11.41
  -2  -4   2  228.15   10.24
  -2  -4   2  214.80    9.56
  -2  -4   2  209.18   12.74
  -2  -4   2  225.28   11.37
   1   4  -2    9.66    2.30
   1   4  -2   13.72    3.81
   1   4  -2   14.12    1.99
  -1  -4   2   16.82    3.26
  -1  -4   2   18.18    3.48
  -1  -4   2   11.55    3.37
  -1  -4   2   14.93    2.85
   0   4  -2  110.83    6.63
   0   4  -2  112.19    8.04
   0   4  -2  109.98    8.79
   0  -4   2  107.36    7.79
   0  -4   2  106.98    8.75
   0  -4   2  114.56    7.90
   0  -4   2  112.10    7.82
  -1   4  -2   -0.71    0.82
  -1   4  -2   -0.04    1.10
  -1   4  -2    1.62    2.02
  -1   4  -2    0.51    1.73
   1  -4   2   -0.55    1.43
   1  -4   2   -1.06    1.29
  -2   4  -2   21.07    3.94
  -2   4  -2   14.26    4.43
   2  -4   2   18.79    4.23
   2  -4   2   34.45    5.83
  -3   4  -2   35.18    6.68
  -3   4  -2   58.32    7.56
   3  -4   2   49.10    7.75
   3  -4   2   33.32    6.12
  -4   4  -2    4.56    2.47
  -4   4  -2    8.44    3.80
   4  -4   2    3.37    2.93
   4  -4   2   15.18    4.64
  -5  -3   2    0.37    1.38
  -4  -3   2   13.06    2.57
  -4  -3   2   14.65    3.08
  -4  -3   2   15.46    2.87
  -3  -3   2   28.43    3.85
  -3  -3   2   21.43    3.34
  -3  -3   2   31.33    3.71
  -3  -3   2   29.87    5.54
  -3  -3   2   23.11    3.82
   2   3  -2  174.93   11.45
  -2  -3   2  178.97    9.10
  -2  -3   2  180.81   10.38
  -2  -3   2  193.96    8.90
  -2  -3   2  171.68    9.23
   1   3  -2   -0.64    0.44
   1   3  -2   -0.13    0.58
   1   3  -2    0.36    0.58
   1   3  -2   -0.23    0.42
   1   3  -2    1.83    1.43
  -1  -3   2   -0.58    0.75
  -1  -3   2   -0.32    0.68
  -1  -3   2    0.37    1.25
  -1  -3   2   -0.16    0.83
  -1  -3   2   -0.37    0.65
   0   3  -2  226.27   11.22
   0   3  -2  231.95   11.01
   0   3  -2  235.24   10.07
   0   3  -2  213.32   12.07
   0  -3   2  224.18   12.58
   0  -3   2  221.61   11.05
   0  -3   2  225.62   11.08
   0  -3   2  218.10    8.90
   0  -3   2  218.21   10.92
  -1   3  -2  311.10   14.16
  -1   3  -2  304.50   15.45
  -1   3  -2  315.89   13.52
  -1   3  -2  323.08   16.08
   1  -3   2  316.70   16.14
   1  -3   2  320.50   15.06
   1  -3   2  309.28   14.97
  -2   3  -2   14.58    3.07
  -2   3  -2   11.30    3.10
  -2   3  -2   10.03    3.20
   2  -3   2    8.07    2.65
   2  -3   2    9.80    2.99
  -3   3  -2  317.55   17.88
  -3   3  -2  318.40   17.44
  -3   3  -2  323.19   16.30
   3  -3   2  317.14   17.41
   3  -3   2  299.77   16.62
  -4   3  -2    4.13    2.59
  -4   3  -2    3.32    2.77
   4  -3   2    4.02    2.72
   4  -3   2    8.38    3.72
  -5   3  -2   44.19    7.33
  -5   3  -2   30.23    6.78
   5  -3   2   53.08    8.18
  -6  -2   2    3.70    2.39
  -5  -2   2   63.08    6.46
  -4  -2   2  105.58    6.82
  -4  -2   2  129.70    7.63
  -4  -2   2  120.81    7.38
  -4  -2   2  111.37    9.87
  -3  -2   2    4.40    1.43
  -3  -2   2    7.50    1.81
  -3  -2   2    7.67    3.20
  -3  -2   2    2.65    1.09
  -2  -2   2  276.84   14.25
  -2  -2   2  271.74   10.85
  -2  -2   2  276.09   10.82
  -2  -2   2  259.16   11.05
   1   2  -2    0.80    1.29
  -1  -2   2   -0.70    1.15
  -1  -2   2    0.45    1.14
  -1  -2   2   -0.15    0.47
  -1  -2   2    0.06    0.69
  -1  -2   2    1.17    0.76
   0   2  -2   -0.15    0.50
   0   2  -2    0.39    0.91
   0   2  -2    0.11    0.95
   0   2  -2   -0.46    0.50
   0   2  -2    1.79    1.04
   0  -2   2   -0.10    0.66
   0  -2   2    0.79    0.84
   0  -2   2    1.26    0.93
   0  -2   2    0.46    0.74
   0  -2   2   -0.02    1.02
   0  -2   2    0.68    0.84
  -1   2  -2  117.28    7.15
  -1   2  -2  114.00    7.40
  -1   2  -2  112.37    6.43
  -1   2  -2  113.59    6.33
  -1   2  -2  120.91    6.65
  -1   2  -2  122.28    7.02
   1  -2   2  123.59    7.06
   1  -2   2  117.42    7.80
   1  -2   2  115.54    6.50
   1  -2   2  133.51    6.81
   1  -2   2  112.21    6.80
  -2   2  -2   46.59    4.69
  -2   2  -2   35.75    4.96
  -2   2  -2   48.47    5.53
  -2   2  -2   39.33    4.84
  -2   2  -2   36.02    4.86
   2  -2   2   45.11    5.37
   2  -2   2   39.82    4.48
   2  -2   2   38.57    5.08
   2  -2   2   43.90    5.10
  -3   2  -2   55.69    6.26
  -3   2  -2   62.54    5.84
  -3   2  -2   55.51    6.59
   3  -2   2   58.18    6.86
   3  -2   2   62.74    7.09
  -4   2  -2   10.40    3.12
  -4   2  -2   10.29    3.36
   4  -2   2   18.02    4.46
   4  -2   2   15.23    4.29
  -5   2  -2   17.82    4.50
  -5   2  -2   25.04    6.64
   5  -2   2   18.76    5.61
   5  -2   2   26.83    5.49
  -6   2  -2  133.14   13.31
  -6  -1   2    0.64    1.88
  -5  -1   2    1.49    1.65
  -4  -1   2   98.02    6.44
  -4  -1   2   91.29    6.04
  -4  -1   2   95.31    8.92
  -4  -1   2   88.24    6.27
  -3  -1   2   13.90    2.30
  -3  -1   2   16.44    2.44
  -3  -1   2   16.19    2.10
  -3  -1   2   17.89    4.01
  -2  -1   2  370.28   13.46
  -2  -1   2  378.52   17.85
  -2  -1   2  369.54   13.61
  -2  -1   2  353.12   13.69
  -1  -1   2  289.47   13.81
   0   1  -2   15.24    1.43
   0   1  -2    9.41    1.16
   0   1  -2   10.58    2.15
   0   1  -2   12.09    1.14
   0   1  -2   14.39    2.61
   0  -1   2   13.18    1.47
   0  -1   2   12.33    1.39
   0  -1   2   12.63    2.17
   0  -1   2   14.93    1.66
   0  -1   2   14.48    2.50
  -1   1  -2  685.72   26.33
  -1   1  -2  620.80   25.81
  -1   1  -2  673.07   25.56
  -1   1  -2  714.39   26.24
  -1   1  -2  683.43   25.41
   1  -1   2  670.82   25.75
   1  -1   2  712.34   26.25
   1  -1   2  689.22   25.47
   1  -1   2  708.23   26.60
   1  -1   2  669.68   25.92
  -2   1  -2   47.31    4.14
  -2   1  -2   61.12    4.92
  -2   1  -2   54.70    4.22
  -2   1  -2   53.99    5.36
  -2   1  -2   50.73    4.25
   2  -1   2   54.46    4.83
   2  -1   2   65.96    4.85
   2  -1   2   57.53    4.55
   2  -1   2   43.69    4.82
   2  -1   2   56.52    4.25
  -3   1  -2  267.29   13.04
  -3   1  -2  268.37   13.24
  -3   1  -2  283.70   14.30
   3  -1   2  252.76   14.35
   3  -1   2  300.21   13.99
   3  -1   2  276.51   13.19
  -4   1  -2    7.19    2.66
  -4   1  -2    2.90    1.74
  -4   1  -2    6.14    2.28
   4  -1   2    4.82    2.35
   4  -1   2    3.70    2.72
  -5   1  -2   -0.56    1.63
  -5   1  -2    1.62    1.42
   5  -1   2    2.02    2.21
   5  -1   2   -0.93    1.78
  -6   1  -2    1.33    2.27
  -6   0   2   34.44    5.82
  -5   0   2    5.19    2.09
   4   0  -2  232.21    9.90
  -4   0   2  228.83   11.67
  -4   0   2  240.19   12.19
  -4   0   2  239.06   12.16
   3   0  -2   26.82    2.11
  -3   0   2   25.09    3.35
  -3   0   2   20.17    2.85
  -3   0   2   23.22    2.92
   2   0  -2  135.51    5.41
  -2   0   2  143.03    6.61
  -2   0   2  140.61    6.56
  -1   0   2   40.08    2.20
  -1   0   2   42.80    2.21
   0   0  -2   54.47    2.69
   0   0  -2   55.43    2.82
   0   0  -2   51.93    2.71
   0   0   2   61.91    3.01
   0   0   2   58.68    3.12
   0   0   2   55.75    4.11
   0   0   2   55.33    2.94
  -1   0  -2  290.90   12.18
  -1   0  -2  301.12   12.90
  -1   0  -2  304.53   11.69
  -1   0  -2  304.82   12.09
   1   0   2  309.77   13.01
   1   0   2  306.73   12.11
   1   0   2  307.70   12.40
  -2   0  -2    5.30    1.81
  -2   0  -2    0.49    0.96
  -2   0  -2    0.71    1.25
  -2   0  -2    1.70    1.04
   2   0   2    0.98    0.95
   2   0   2   -0.76    0.85
   2   0   2   -1.01    0.98
   2   0   2   -0.22    1.03
   2   0   2   -0.12    0.88
  -3   0  -2   80.70    4.73
  -3   0  -2   84.39    5.73
  -3   0  -2   77.98    5.73
  -3   0  -2   83.19    6.45
   3   0   2   71.97    5.57
   3   0   2   77.08    5.39
   3   0   2   85.79    6.44
  -4   0  -2  259.75   13.50
  -4   0  -2  283.58   14.89
  -4   0  -2  266.15   11.90
   4   0   2  265.58   13.84
   4   0   2  254.28   13.96
  -5   0  -2    5.80    2.50
  -5   0  -2    4.85    2.95
  -5   0  -2    9.77    2.11
   5   0   2    6.81    2.92
   5   0   2    9.37    2.99
  -6   0  -2  185.26   12.61
  -5   1   2    2.63    2.01
   4  -1  -2  172.48    9.09
   4  -1  -2  180.60    9.18
  -4   1   2  171.31   11.51
  -4   1   2  157.12   10.04
  -4   1   2  172.27   10.14
   3  -1  -2    5.07    1.68
   3  -1  -2    7.94    2.06
  -3   1   2    6.12    1.80
  -3   1   2    7.99    2.33
  -3   1   2    5.63    1.86
   2  -1  -2  145.31    7.53
   2  -1  -2  145.47    7.30
  -2   1   2  142.30    7.89
  -2   1   2  150.26    7.69
  -2   1   2  144.87    7.64
   1  -1  -2  281.94   11.51
   1  -1  -2  268.83   11.67
  -1   1   2  288.42   11.91
  -1   1   2  283.03   11.73
  -1   1   2  276.22   11.59
   0  -1  -2   20.56    2.65
   0  -1  -2   32.19    2.45
   0  -1  -2   17.49    2.34
   0   1   2   34.45    3.43
   0   1   2   29.63    3.04
   0   1   2   32.71    2.47
  -1  -1  -2  857.88   30.88
  -1  -1  -2  839.36   31.28
  -1  -1  -2  819.45   30.84
  -1  -1  -2  858.38   31.18
   1   1   2  810.00   31.16
   1   1   2  837.99   31.28
   1   1   2  869.80   30.96
   1   1   2  815.97   31.06
  -2  -1  -2   22.51    3.15
  -2  -1  -2   16.58    2.39
  -2  -1  -2   22.70    3.07
  -2  -1  -2   17.45    3.18
   2   1   2   21.63    2.86
   2   1   2   25.29    3.31
   2   1   2   21.15    3.38
   2   1   2   20.37    2.54
  -3  -1  -2   63.61    6.57
  -3  -1  -2   54.28    5.60
  -3  -1  -2   56.87    4.60
   3   1   2   64.22    5.07
   3   1   2   49.98    5.23
   3   1   2   53.41    4.22
  -4  -1  -2    2.34    2.37
  -4  -1  -2    4.41    1.99
  -4  -1  -2    5.27    2.12
   4   1   2    0.54    1.41
   4   1   2    4.35    1.94
  -5  -1  -2   27.82    5.54
  -5  -1  -2   26.05    4.53
   5   1   2   28.50    4.70
   5   1   2   33.71    4.73
  -6  -1  -2    5.42    3.00
  -5   2   2   11.80    4.01
  -5   2   2   19.11    4.38
   4  -2  -2   93.21    7.11
  -4   2   2   92.33    7.66
  -4   2   2  108.46    8.76
   3  -2  -2    0.02    1.16
   3  -2  -2    2.44    1.70
  -3   2   2    3.01    2.18
  -3   2   2    2.84    1.70
  -3   2   2    2.16    1.65
  -3   2   2    1.24    1.80
   2  -2  -2    5.45    1.76
   2  -2  -2    3.06    1.58
  -2   2   2    3.34    1.67
  -2   2   2    4.38    1.84
  -2   2   2    5.00    1.83
   1  -2  -2  112.49    7.16
   1  -2  -2  128.02    7.28
   1  -2  -2  117.12    7.36
  -1   2   2  132.99    7.36
  -1   2   2  123.28    7.61
  -1   2   2  131.55    7.25
   0  -2  -2    2.71    1.32
   0  -2  -2    4.08    1.72
   0  -2  -2    0.88    1.24
   0   2   2    2.48    1.88
   0   2   2    3.09    1.48
   0   2   2    3.78    1.38
  -1  -2  -2   52.22    5.53
  -1  -2  -2   38.79    4.60
  -1  -2  -2   50.83    3.70
  -1  -2  -2   44.64    3.69
   1   2   2   44.44    3.50
   1   2   2   36.38    4.02
   1   2   2   35.28    4.46
   1   2   2   43.78    3.55
  -2  -2  -2  137.18    7.77
  -2  -2  -2  137.88    7.75
  -2  -2  -2  143.84    8.04
   2   2   2  144.66    7.97
   2   2   2  139.07    7.47
   2   2   2  136.50    7.27
   2   2   2  131.88    6.12
   2   2   2  133.53    7.73
  -3  -2  -2   34.94    4.39
  -3  -2  -2   38.28    4.69
  -3  -2  -2   43.79    4.80
   3   2   2   49.45    3.90
   3   2   2   35.76    4.46
   3   2   2   46.76    5.73
  -4  -2  -2  348.69   16.90
  -4  -2  -2  341.11   16.36
  -4  -2  -2  329.08   17.19
  -4  -2  -2  345.56   13.90
   4   2   2  337.12   15.82
  -5  -2  -2   23.37    6.12
  -5  -2  -2   13.11    3.25
  -5  -2  -2   11.39    2.24
   5   2   2   17.92    3.61
  -6  -2  -2  127.21   10.16
  -5   3   2    3.70    3.06
  -5   3   2    2.56    3.06
   4  -3  -2  128.03    9.34
  -4   3   2  136.72   10.96
  -4   3   2  125.82    9.86
   3  -3  -2   95.11    9.47
   3  -3  -2   83.22    7.09
  -3   3   2   73.89    8.53
  -3   3   2   86.33    7.23
  -3   3   2   82.60    8.57
   2  -3  -2    1.77    1.83
   2  -3  -2    1.46    1.55
  -2   3   2   -1.85    1.50
  -2   3   2   -2.72    1.07
   1  -3  -2  473.87   20.75
   1  -3  -2  474.37   21.21
  -1   3   2  457.58   21.41
  -1   3   2  469.57   20.93
   0  -3  -2   38.10    4.62
   0  -3  -2   41.49    5.21
   0   3   2   41.43    5.37
   0   3   2   31.53    4.54
   0   3   2   39.30    4.67
   0   3   2   53.46    6.36
  -1  -3  -2  196.23    9.84
  -1  -3  -2  179.82   10.47
  -1  -3  -2  183.09   10.53
   1   3   2  203.97    8.81
   1   3   2  176.35   10.96
   1   3   2  145.37    9.75
  -2  -3  -2    8.76    2.49
  -2  -3  -2    9.79    3.17
  -2  -3  -2    6.70    2.45
  -2  -3  -2    9.42    2.21
   2   3   2    3.65    1.52
   2   3   2    9.90    2.16
   2   3   2   10.54    2.77
   2   3   2    7.50    2.25
  -3  -3  -2    3.49    2.12
  -3  -3  -2    4.22    2.53
  -3  -3  -2    3.37    1.74
   3   3   2    2.80    1.44
   3   3   2    3.17    1.77
  -4  -3  -2   21.68    4.71
  -4  -3  -2   14.51    3.58
  -4  -3  -2   15.93    3.75
   4   3   2   16.02    3.21
  -5  -3  -2    3.73    2.15
   5   3   2    0.20    1.46
  -6  -3  -2    2.30    2.76
   4  -4  -2   18.49    8.39
  -4   4   2   21.37    5.70
  -4   4   2   12.12    3.97
   3  -4  -2    3.75    2.53
   3  -4  -2    1.52    2.58
  -3   4   2    1.90    2.42
  -3   4   2    1.88    2.11
   2  -4  -2    7.83    3.11
   2  -4  -2    7.46    2.85
  -2   4   2   12.38    4.08
   1  -4  -2   74.47    8.64
   1  -4  -2   67.37    7.58
  -1   4   2   70.88    8.58
   0  -4  -2    5.89    2.43
   0  -4  -2    2.27    1.93
   0   4   2    2.18    1.47
   0   4   2    9.47    3.34
   0   4   2   10.31    3.45
  -1  -4  -2  108.60    8.24
  -1  -4  -2   98.71    7.30
   1   4   2   94.55    5.34
   1   4   2   73.77    9.00
   1   4   2   95.01    7.28
  -2  -4  -2  231.18   10.84
  -2  -4  -2  183.88   12.76
  -2  -4  -2  206.94   12.13
   2   4   2  233.29   12.89
   2   4   2  231.12   10.54
   2   4   2  234.94   12.04
  -3  -4  -2    5.64    2.97
  -3  -4  -2    1.65    1.95
  -3  -4  -2    8.59    2.44
   3   4   2    7.01    2.53
   3   4   2    3.65    2.04
   3   4   2    7.26    2.08
  -4  -4  -2  200.89   12.40
  -4  -4  -2  189.08   12.72
   4   4   2  210.97   11.17
  -5  -4  -2   56.41    7.64
  -6  -4  -2   19.04    5.05
   3  -5  -2  104.11   11.34
  -3   5   2  103.88   11.11
   2  -5  -2   10.76    3.83
   2  -5  -2   15.86    5.20
  -2   5   2   19.47    5.92
  -2   5   2   12.54    3.78
   1  -5  -2  207.04   13.45
   1  -5  -2  203.41   13.98
  -1   5   2  201.58   14.42
   0  -5  -2   38.24    6.02
   0  -5  -2   36.63    6.36
   0   5   2   34.85    6.56
   0   5   2   40.82    3.90
  -1  -5  -2   21.08    4.78
  -1  -5  -2   19.29    4.37
   1   5   2   23.52    5.21
   1   5   2   20.28    2.20
   1   5   2    9.04    3.98
  -2  -5  -2    0.86    1.90
  -2  -5  -2    0.35    2.19
   2   5   2   -1.73    1.59
   2   5   2    1.01    2.01
  -3  -5  -2    8.55    3.32
  -3  -5  -2    4.79    3.01
   3   5   2   10.25    2.87
   3   5   2   10.89    3.00
   3   5   2   12.74    3.23
  -4  -5  -2   11.76    4.62
   4   5   2   26.45    5.11
  -5  -5  -2    3.01    3.25
   2  -6  -2    0.22    3.88
   2  -6  -2    4.13    3.53
  -2   6   2   -1.26    2.45
  -2   6   2    0.22    2.97
   1  -6  -2   64.27    9.12
   1  -6  -2   58.84    9.19
  -1   6   2   70.06   10.97
  -1   6   2   46.44    6.69
   0  -6  -2   46.96    7.76
   0  -6  -2   56.61    8.76
   0   6   2   43.34    8.28
  -1  -6  -2    9.28    3.66
  -1  -6  -2    7.57    3.53
   1   6   2    7.97    4.38
  -2  -6  -2  148.71   11.22
  -2  -6  -2  140.58   11.68
   2   6   2  158.19   11.80
  -3  -6  -2   43.16    7.55
  -3  -6  -2   39.50    7.46
   3   6   2   38.51    6.34
  -4  -6  -2   74.87   10.74
  -4  -6  -2   60.29    8.92
   4   6   2   76.89   13.34
   0  -7  -2   11.11    4.89
   0  -7  -2    7.65    3.99
   0   7   2    5.88    4.98
  -1  -7  -2    1.23    3.30
  -1  -7  -2   -0.36    2.36
  -2  -7  -2    5.05    3.74
  -2  -7  -2    7.41    4.21
   2   7   2    6.82    3.94
  -3  -7  -2   -0.45    3.21
  -3  -7  -2   -0.96    3.29
   3   7   2    2.44    2.81
  -3  -6   3   77.47    9.12
  -3  -6   3   67.36    7.59
  -3  -6   3   82.84   13.71
   2   6  -3   32.28    7.50
  -2  -6   3   18.52    5.50
  -2  -6   3   28.15    5.13
  -2  -6   3   20.52    4.91
   1   6  -3   79.33   11.63
  -1  -6   3  109.71   10.13
  -1  -6   3   87.13    9.71
   0   6  -3   37.32    7.82
   0  -6   3   43.42    6.62
   0  -6   3   46.63    7.37
   1  -6   3   21.54    5.35
   1  -6   3   17.52    4.79
   2  -6   3  106.86   12.74
   2  -6   3  157.38   15.26
  -4  -5   3    1.30    1.82
  -4  -5   3    0.56    1.94
   3   5  -3   55.63    9.11
  -3  -5   3   59.48    6.32
  -3  -5   3   61.65    8.35
  -3  -5   3   67.22    7.28
   2   5  -3    0.22    2.28
  -2  -5   3    0.93    2.29
  -2  -5   3   -0.09    1.69
  -2  -5   3   -0.53    1.22
   1   5  -3    3.97    3.45
  -1  -5   3    5.38    2.52
  -1  -5   3    4.11    1.76
  -1  -5   3    2.52    2.48
   0   5  -3   23.03    5.45
   0  -5   3   15.26    4.57
   0  -5   3   21.90    4.43
   0  -5   3   18.21    4.00
  -1   5  -3   35.51    6.36
   1  -5   3   31.34    5.74
   1  -5   3   27.20    5.38
  -2   5  -3  106.17   12.36
   2  -5   3  124.27   12.29
   2  -5   3   86.06   10.40
  -3   5  -3    1.64    3.12
   3  -5   3   -1.01    2.68
   3  -5   3    0.44    3.16
  -5  -4   3   67.53    6.83
  -4  -4   3   31.92    4.57
  -4  -4   3   42.91    6.19
  -3  -4   3  175.04   11.60
  -3  -4   3  181.32    9.93
  -3  -4   3  178.58    9.74
   2   4  -3    7.05    3.33
  -2  -4   3    9.19    2.36
  -2  -4   3    9.21    2.68
  -2  -4   3    8.93    2.16
  -2  -4   3    8.41    2.23
  -2  -4   3    5.90    2.70
   1   4  -3   67.01    8.72
   1   4  -3   79.29    3.93
  -1  -4   3   82.73    4.04
  -1  -4   3   77.92    8.90
  -1  -4   3   67.76    5.61
  -1  -4   3   75.50    5.82
  -1  -4   3   75.47    5.85
   0   4  -3  193.98   12.95
   0   4  -3  182.84    9.08
   0   4  -3  189.88   10.54
   0  -4   3  187.47   10.87
   0  -4   3  191.97   11.02
   0  -4   3  190.26   10.80
   0  -4   3  186.66   12.77
  -1   4  -3    5.39    2.69
  -1   4  -3    1.89    1.68
  -1   4  -3    2.10    1.26
   1  -4   3    1.32    2.04
   1  -4   3    2.08    2.03
   1  -4   3    2.21    2.10
  -2   4  -3   93.99    7.63
  -2   4  -3  114.26    9.66
   2  -4   3  117.35   10.86
   2  -4   3   96.19    8.42
  -3   4  -3   -1.83    1.44
  -3   4  -3    1.64    2.30
   3  -4   3    1.54    1.98
   3  -4   3   -0.40    2.24
  -4   4  -3    1.32    2.76
  -4   4  -3   -1.14    2.88
   4  -4   3    0.24    3.54
   4  -4   3    0.46    2.37
  -5  -3   3   57.60    6.09
  -4  -3   3   15.32    2.98
  -4  -3   3   13.02    3.37
  -4  -3   3    8.56    2.07
  -3  -3   3   25.32    3.43
  -3  -3   3   34.42    5.24
  -3  -3   3   31.34    3.78
  -3  -3   3   35.85    3.56
   2   3  -3   -0.09    1.71
  -2  -3   3    2.75    2.04
  -2  -3   3    0.73    1.04
  -2  -3   3    1.87    1.08
  -2  -3   3    2.72    1.17
  -2  -3   3    1.01    2.51
   1   3  -3   29.25    5.05
  -1  -3   3   36.60    3.86
  -1  -3   3   34.73    3.68
  -1  -3   3   24.40    4.37
  -1  -3   3   43.70    3.36
  -1  -3   3   33.72    4.04
   0   3  -3  235.32   10.36
   0   3  -3  258.50   11.50
   0   3  -3  248.58   13.84
   0  -3   3  238.45   11.81
   0  -3   3  240.56   10.76
   0  -3   3  244.95   11.85
   0  -3   3  238.61   11.65
   0  -3   3  260.04   13.98
  -1   3  -3   28.94    3.83
  -1   3  -3   31.59    4.95
  -1   3  -3   26.36    3.61
  -1   3  -3   18.59    3.74
   1  -3   3   28.27    4.25
   1  -3   3   25.50    3.90
   1  -3   3   28.55    3.60
  -2   3  -3  120.90    8.99
  -2   3  -3  130.40    8.12
  -2   3  -3  110.97    8.83
   2  -3   3  109.69    8.45
   2  -3   3  136.21    9.12
   2  -3   3  112.14    9.07
  -3   3  -3   73.29    7.74
  -3   3  -3   68.78    8.90
   3  -3   3   89.88    9.43
   3  -3   3   71.91    8.45
  -4   3  -3   16.87    4.10
  -4   3  -3   24.01    5.74
   4  -3   3   23.59    5.22
   4  -3   3   18.92    5.32
  -5   3  -3  152.49   11.83
  -5   3  -3  109.05   13.35
   5  -3   3  138.49   11.66
  -5  -2   3  117.94    7.89
  -4  -2   3    2.17    1.35
  -4  -2   3    2.18    1.21
  -3  -2   3  230.20    9.56
  -3  -2   3  200.38   14.08
  -3  -2   3  220.67    9.44
  -3  -2   3  222.46    9.71
  -2  -2   3  182.26    7.43
  -2  -2   3  186.42   12.04
  -2  -2   3  189.64    7.59
  -2  -2   3  180.73    7.37
   1   2  -3   11.32    3.03
  -1  -2   3   11.08    2.80
  -1  -2   3   14.41    1.50
  -1  -2   3   12.27    3.09
  -1  -2   3   15.96    1.84
  -1  -2   3   16.20    1.69
  -1  -2   3   14.46    1.74
   0   2  -3  462.90   16.94
   0   2  -3  450.49   16.64
   0   2  -3  439.48   20.09
   0   2  -3  472.28   17.07
   0  -2   3  434.93   17.43
   0  -2   3  445.36   20.05
   0  -2   3  435.72   17.62
   0  -2   3  444.66   18.45
   0  -2   3  444.85   17.84
  -1   2  -3    7.70    2.04
  -1   2  -3   10.13    2.25
  -1   2  -3   10.17    2.76
  -1   2  -3    6.44    2.00
  -1   2  -3   10.18    1.97
  -1   2  -3   12.54    2.58
   1  -2   3   11.57    3.04
   1  -2   3    7.27    1.97
   1  -2   3    9.05    2.13
   1  -2   3   10.67    2.36
   1  -2   3    7.27    1.87
  -2   2  -3   66.23    5.14
  -2   2  -3   58.95    6.58
  -2   2  -3   58.63    6.66
  -2   2  -3   69.21    6.80
   2  -2   3   60.58    6.45
   2  -2   3   78.06    6.18
   2  -2   3   65.35    7.20
   2  -2   3   69.34    5.77
   2  -2   3   62.50    5.16
  -3   2  -3   -1.23    0.96
  -3   2  -3    1.36    1.47
   3  -2   3   -0.34    1.99
   3  -2   3   -1.03    1.39
   3  -2   3    1.06    1.50
  -4   2  -3    3.46    2.15
  -4   2  -3    1.28    1.49
   4  -2   3    4.10    3.36
   4  -2   3    3.30    2.29
  -5   2  -3   66.30    8.34
   5  -2   3   60.35    8.68
   5  -2   3   60.07    8.99
  -6   2  -3   -0.38    2.60
   6  -2   3   -0.91    2.49
  -5  -1   3   34.16    4.57
  -4  -1   3    2.50    1.28
  -4  -1   3    4.37    1.68
  -3  -1   3   -0.64    0.70
  -3  -1   3    1.36    0.90
  -3  -1   3   -0.31    1.98
  -3  -1   3    0.94    0.71
  -2  -1   3  167.97    6.34
  -2  -1   3  180.78   11.32
  -2  -1   3  158.44    6.38
  -1  -1   3   85.45    6.88
   0   1  -3  279.24   13.48
   0   1  -3  295.64   10.22
   0   1  -3  284.57   10.63
   0   1  -3  292.52   10.55
   0  -1   3  281.75   11.22
   0  -1   3  248.77   13.09
   0  -1   3  292.99   11.19
   0  -1   3  294.96   11.43
   0  -1   3  304.79   13.61
  -1   1  -3    9.59    1.94
  -1   1  -3    9.74    2.08
  -1   1  -3   12.56    1.94
  -1   1  -3    9.34    2.24
  -1   1  -3   13.26    2.20
   1  -1   3   10.77    2.35
   1  -1   3   13.10    2.41
   1  -1   3    7.26    1.98
   1  -1   3   13.43    2.21
   1  -1   3   11.31    1.87
  -2   1  -3  215.80   11.30
  -2   1  -3  215.82   11.73
  -2   1  -3  228.69   10.78
  -2   1  -3  219.52   10.92
   2  -1   3  231.78   11.94
   2  -1   3  209.32   11.10
   2  -1   3  232.86   11.46
   2  -1   3  228.63   10.79
   2  -1   3  235.48   11.89
  -3   1  -3  255.81   14.05
  -3   1  -3  270.39   13.30
  -3   1  -3  267.39   13.05
   3  -1   3  260.69   13.70
   3  -1   3  275.73   13.28
   3  -1   3  272.25   13.19
   3  -1   3  261.39   14.72
   3  -1   3  266.97   14.71
  -4   1  -3    3.15    2.01
  -4   1  -3    1.34    1.49
   4  -1   3    2.50    2.67
   4  -1   3    4.49    2.29
  -5   1  -3  196.08   12.34
   5  -1   3  182.06   12.33
   5  -1   3  172.61   13.07
  -6   1  -3   15.57    4.26
   6  -1   3   14.34    4.62
  -5   0   3  163.69   10.23
  -4   0   3   33.80    4.16
  -4   0   3   37.01    4.48
  -3   0   3   39.45    4.06
  -3   0   3   33.19    3.43
  -3   0   3   35.38    3.72
  -2   0   3  274.01   10.98
  -2   0   3  261.13   10.99
  -1   0   3   17.55    1.52
  -1   0   3   17.98    1.51
  -1   0   3   18.49    1.48
   0   0  -3  194.67    7.67
   0   0  -3  198.14    7.94
   0   0  -3  200.15    7.75
   0   0   3  202.56    8.29
   0   0   3  185.17    8.16
   0   0   3  193.62    8.47
   0   0   3  198.40   10.22
   0   0   3  206.14   10.69
  -1   0  -3   27.76    3.06
  -1   0  -3   26.15    2.95
  -1   0  -3   23.80    2.80
  -1   0  -3   22.60    3.29
  -1   0  -3   25.61    2.67
   1   0   3   25.74    2.70
   1   0   3   23.23    2.63
   1   0   3   23.64    2.88
   1   0   3   20.08    3.07
   1   0   3   21.18    2.75
  -2   0  -3   55.24    5.50
  -2   0  -3   38.42    3.95
  -2   0  -3   47.59    3.13
  -2   0  -3   47.52    5.50
  -2   0  -3   37.66    4.16
   2   0   3   45.91    3.69
   2   0   3   49.33    3.90
   2   0   3   54.48    5.59
   2   0   3   51.05    5.01
   2   0   3   38.92    4.98
  -3   0  -3   52.24    5.98
  -3   0  -3   50.12    5.24
   3   0   3   55.23    4.13
   3   0   3   50.81    5.71
   3   0   3   45.92    6.11
   3   0   3   40.83    4.75
   3   0   3   41.02    5.04
  -4   0  -3   12.59    3.71
  -4   0  -3   29.39    4.31
   4   0   3   14.62    3.54
   4   0   3   20.35    3.88
  -5   0  -3   76.04    8.25
  -5   0  -3   66.44    8.83
   5   0   3   77.19    8.52
   5   0   3   77.57    8.43
  -6   0  -3   22.33    4.87
   6   0   3   15.48    4.35
  -5   1   3   11.35    4.05
  -5   1   3   10.50    3.11
   4  -1  -3    9.60    1.72
  -4   1   3   10.62    3.21
  -4   1   3    8.47    2.52
   3  -1  -3   14.97    2.54
   3  -1  -3   21.14    2.62
  -3   1   3   16.86    3.30
  -3   1   3   17.42    2.87
  -3   1   3   20.53    3.54
  -3   1   3   22.44    3.52
   2  -1  -3  282.65   11.76
   2  -1  -3  284.62   11.68
  -2   1   3  274.59   12.43
  -2   1   3  278.57   12.69
  -2   1   3  265.40   12.37
   1  -1  -3   10.66    1.74
   1  -1  -3   11.55    1.82
  -1   1   3   12.69    2.03
  -1   1   3   11.53    1.94
  -1   1   3   12.20    2.16
   0  -1  -3  434.11   17.37
   0  -1  -3  424.40   16.75
   0   1   3  403.62   19.47
   0   1   3  445.18   17.88
   0   1   3  446.27   17.18
   0   1   3  435.45   17.75
  -1  -1  -3  301.95   13.20
  -1  -1  -3  307.21   12.97
  -1  -1  -3  316.05   13.85
   1   1   3  301.85   13.07
   1   1   3  311.45   14.00
   1   1   3  273.62   13.28
  -2  -1  -3   45.71    3.94
  -2  -1  -3   43.79    4.52
  -2  -1  -3   42.08    4.84
  -2  -1  -3   41.61    4.15
   2   1   3   52.24    4.02
   2   1   3   43.36    4.49
   2   1   3   40.91    4.86
   2   1   3   37.55    4.39
  -3  -1  -3  459.44   20.03
  -3  -1  -3  470.49   20.56
  -3  -1  -3  458.95   21.47
   3   1   3  480.23   22.01
   3   1   3  496.42   20.06
   3   1   3  469.50   20.38
   3   1   3  477.15   17.79
   3   1   3  485.31   21.02
  -4  -1  -3   39.49    5.06
  -4  -1  -3   32.78    5.71
   4   1   3   34.92    4.81
   4   1   3   41.80    5.52
  -5  -1  -3   90.90    7.59
  -5  -1  -3   82.02   10.16
  -5  -1  -3   84.03    5.50
   5   1   3   85.70    7.34
   5   1   3   93.46    8.93
  -6  -1  -3    6.12    3.10
   6   1   3    7.33    3.96
  -5   2   3   70.79    9.36
  -5   2   3   69.74    8.72
  -4   2   3   73.90    7.95
  -4   2   3   80.41    9.03
   3  -2  -3    0.86    1.31
   3  -2  -3   -0.33    1.38
  -3   2   3   -1.26    1.30
  -3   2   3    1.56    1.64
  -3   2   3   -0.62    1.48
   2  -2  -3  171.20    9.17
  -2   2   3  159.66    9.32
  -2   2   3  159.68    9.34
  -2   2   3  179.45   10.00
   1  -2  -3   64.66    4.89
   1  -2  -3   65.56    5.08
  -1   2   3   62.80    4.82
  -1   2   3   74.10    5.64
  -1   2   3   72.89    5.23
   0  -2  -3   88.30    5.51
   0  -2  -3   75.81    5.74
   0  -2  -3   83.54    5.77
   0   2   3   90.42    6.26
   0   2   3   91.61    5.65
   0   2   3   73.58    6.72
   0   2   3   93.81    6.45
  -1  -2  -3    7.94    1.97
  -1  -2  -3   10.84    2.78
  -1  -2  -3    6.71    2.22
  -1  -2  -3    5.29    1.82
   1   2   3    7.38    2.12
   1   2   3    5.79    2.22
   1   2   3    5.74    2.03
   1   2   3    6.33    1.77
  -2  -2  -3   39.63    4.91
  -2  -2  -3   40.79    4.69
  -2  -2  -3   46.90    5.30
  -2  -2  -3   36.40    4.23
   2   2   3   39.55    4.59
   2   2   3   39.25    4.80
   2   2   3   54.43    5.85
   2   2   3   31.69    4.36
  -3  -2  -3  255.46   13.01
  -3  -2  -3  243.38   12.56
  -3  -2  -3  258.08   13.22
   3   2   3  261.15   13.86
   3   2   3  253.79   12.21
   3   2   3  240.13   12.53
  -4  -2  -3    0.37    1.97
  -4  -2  -3   -0.62    1.44
   4   2   3   -0.40    1.16
  -5  -2  -3   44.87    6.14
  -5  -2  -3   51.05    7.84
   5   2   3   53.13    6.56
  -6  -2  -3  106.26   10.53
  -4   3   3   27.23    5.68
  -4   3   3   51.07    7.22
   3  -3  -3   -1.25    1.32
   3  -3  -3   -1.38    1.68
  -3   3   3    0.17    1.88
  -3   3   3    1.66    2.03
  -3   3   3    1.79    1.54
   2  -3  -3  175.14   10.83
   2  -3  -3  190.12   11.33
  -2   3   3  206.29   11.57
  -2   3   3  182.73   11.85
   1  -3  -3   52.20    6.02
  -1   3   3   47.87    5.75
  -1   3   3   49.69    6.32
   0  -3  -3  127.45    8.14
   0  -3  -3  111.25    8.19
   0   3   3  147.42    9.39
   0   3   3  139.91    9.34
   0   3   3  139.07    8.72
   0   3   3  150.50    9.61
  -1  -3  -3  344.34   17.30
  -1  -3  -3  365.27   16.72
   1   3   3  380.07   16.57
   1   3   3  377.59   17.68
   1   3   3  368.89   18.33
  -2  -3  -3   29.12    5.19
  -2  -3  -3   38.91    5.60
  -2  -3  -3   31.76    4.60
  -2  -3  -3   30.42    4.22
   2   3   3   32.65    4.27
   2   3   3   32.75    5.02
   2   3   3   39.33    5.00
  -3  -3  -3  289.38   14.85
  -3  -3  -3  265.34   13.98
   3   3   3  294.84   14.61
   3   3   3  283.78   11.99
   3   3   3  273.68   11.65
   3   3   3  284.27   14.64
  -4  -3  -3   91.31    8.72
  -4  -3  -3   68.27    7.42
   4   3   3   76.88    6.43
  -5  -3  -3    5.54    2.65
   5   3   3    9.02    2.83
  -6  -3  -3    0.30    2.38
  -4   4   3   50.68    7.94
  -4   4   3   54.00    9.24
   3  -4  -3   27.63    5.33
  -3   4   3   19.32    4.39
  -3   4   3   21.00    5.72
   2  -4  -3   67.70    8.23
   2  -4  -3   61.61    7.92
  -2   4   3   70.28    9.22
   1  -4  -3    0.25    2.17
   1  -4  -3   -0.27    1.52
  -1   4   3    4.17    3.00
  -1   4   3    4.11    2.74
   0  -4  -3    6.69    2.88
   0  -4  -3    4.97    2.38
   0   4   3    7.76    3.30
   0   4   3    6.36    2.45
   0   4   3    6.55    2.99
  -1  -4  -3  102.49    7.60
  -1  -4  -3   98.69    8.21
   1   4   3   96.98    6.46
   1   4   3   84.94    9.53
  -2  -4  -3   -0.90    1.20
  -2  -4  -3    1.60    2.23
  -2  -4  -3    0.99    1.33
   2   4   3    0.54    1.86
   2   4   3   -0.40    1.20
   2   4   3    1.50    1.45
  -3  -4  -3   96.74   10.28
  -3  -4  -3  113.40    8.75
   3   4   3  127.36    7.43
   3   4   3  138.58    8.75
   3   4   3  133.30    9.33
   3   4   3  120.64    7.29
  -4  -4  -3   65.44    7.91
  -4  -4  -3   54.12    7.41
   4   4   3   56.68    6.52
  -5  -4  -3    1.74    2.65
  -6  -4  -3  128.20   12.82
   3  -5  -3   14.94    4.69
  -3   5   3   11.96    5.27
  -3   5   3    4.57    3.08
   2  -5  -3  119.92   10.19
   2  -5  -3  115.64   12.77
  -2   5   3  147.01   15.21
   1  -5  -3   97.93   10.06
   1  -5  -3   82.08    9.91
   0  -5  -3   -0.77    1.42
   0  -5  -3    3.55    2.70
   0   5   3    0.22    2.55
   0   5   3    0.06    1.52
  -1  -5  -3  149.26   11.14
  -1  -5  -3  138.53   10.21
   1   5   3  154.63   12.49
   1   5   3  151.63   10.66
   1   5   3  151.62    8.15
  -2  -5  -3   72.01    9.08
  -2  -5  -3   96.89    8.30
   2   5   3   84.19    7.59
   2   5   3   96.47    6.10
   2   5   3  102.38   10.82
  -3  -5  -3   38.41    6.18
  -3  -5  -3   46.45    7.66
   3   5   3   40.19    5.53
   3   5   3   31.95    4.86
   3   5   3   44.18    6.62
  -4  -5  -3    3.53    3.33
   4   5   3    0.02    1.54
   4   5   3    0.79    1.83
  -5  -5  -3    0.08    3.05
   2  -6  -3   16.22    5.40
  -2   6   3    5.72    4.65
  -2   6   3   12.43    4.50
   1  -6  -3   -0.92    1.95
   1  -6  -3    2.07    3.39
  -1   6   3    5.60    3.86
   0  -6  -3   -0.39    2.00
   0  -6  -3    3.93    3.06
   0   6   3    2.06    3.53
  -1  -6  -3   99.54   10.58
  -1  -6  -3   92.81   10.91
   1   6   3   87.81   12.08
  -2  -6  -3   20.23    4.97
  -2  -6  -3   16.73    5.13
   2   6   3   16.25    4.69
  -3  -6  -3   20.38    5.07
  -3  -6  -3   16.10    5.01
   3   6   3   12.14    3.81
   3   6   3    8.15    3.44
  -4  -6  -3  119.94   12.56
  -4  -6  -3   97.14   12.52
  -5  -6  -3    0.03    4.24
   0  -7  -3   16.52    6.14
   0  -7  -3   16.04    5.36
   0   7   3   19.42    7.07
  -1  -7  -3   69.87   10.08
  -1  -7  -3   62.35    9.80
   1   7   3   50.06    9.26
  -2  -7  -3   18.59    5.73
  -2  -7  -3   33.45    7.39
  -3  -7  -3    3.27    3.90
  -3  -7  -3    3.37    3.53
   3   7   3    0.69    2.56
  -2  -6   4   13.28    4.08
  -2  -6   4   10.84    3.14
  -1  -6   4   61.88    8.48
  -1  -6   4   61.38    7.61
   0  -6   4   18.03    5.30
   0  -6   4   11.28    3.94
   1  -6   4  143.97   14.38
   1  -6   4  118.52   12.32
  -3  -5   4    6.45    2.68
  -3  -5   4    6.20    3.73
  -3  -5   4   11.12    2.64
   2   5  -4   23.08    5.99
  -2  -5   4   15.98    3.17
  -2  -5   4   13.68    4.64
  -2  -5   4   22.33    4.47
   1   5  -4   60.44    9.58
  -1  -5   4   51.42    8.29
  -1  -5   4   77.71    7.97
  -1  -5   4   59.00    6.53
   0   5  -4    4.17    3.37
   0  -5   4   -1.46    2.17
   0  -5   4   -0.40    1.60
   0  -5   4    0.11    2.08
  -1   5  -4    1.63    2.70
   1  -5   4    3.38    2.83
   1  -5   4    3.09    2.62
   1  -5   4    2.26    3.06
  -2   5  -4    3.14    3.34
   2  -5   4    3.40    2.88
   2  -5   4    3.60    3.17
  -3   5  -4    5.19    4.69
   3  -5   4    2.33    3.54
   3  -5   4    7.47    4.02
  -4  -4   4   -0.81    1.57
  -3  -4   4   15.03    4.36
  -3  -4   4   13.31    2.44
  -3  -4   4    9.76    2.50
   2   4  -4   30.44    6.39
  -2  -4   4   39.05    4.10
  -2  -4   4   40.61    4.63
  -2  -4   4   45.57    5.48
  -2  -4   4   32.59    5.98
   1   4  -4  252.81   15.95
  -1  -4   4  231.53   10.89
  -1  -4   4  215.14   14.34
  -1  -4   4  216.14   11.41
  -1  -4   4  226.71   11.92
   0   4  -4    2.04    2.20
   0   4  -4    0.33    1.12
   0   4  -4    2.49    1.32
   0  -4   4   -0.39    1.14
   0  -4   4    2.06    1.16
   0  -4   4    3.97    2.70
   0  -4   4    1.52    1.71
  -1   4  -4  164.89    9.26
  -1   4  -4  181.43   10.99
  -1   4  -4  163.00   12.34
   1  -4   4  171.18   10.84
   1  -4   4  175.04   11.14
   1  -4   4  152.54   12.22
  -2   4  -4   62.91    8.10
  -2   4  -4   49.78    6.20
   2  -4   4   54.76    8.23
   2  -4   4   46.52    6.70
   2  -4   4   60.55    7.73
  -3   4  -4    0.73    2.60
  -3   4  -4    1.44    2.77
   3  -4   4    4.47    2.97
   3  -4   4    8.31    3.45
  -4   4  -4  114.20   13.63
   4  -4   4  136.15   13.91
   4  -4   4  151.14   15.13
  -5  -3   4    1.29    1.07
  -4  -3   4   75.21    5.07
  -4  -3   4   78.25    8.81
  -3  -3   4   54.15    3.67
  -3  -3   4   50.07    3.67
  -3  -3   4   43.23    4.55
  -3  -3   4   55.29    7.19
   2   3  -4    1.21    2.22
  -2  -3   4    1.49    1.03
  -2  -3   4    2.32    2.23
  -2  -3   4    3.39    1.06
  -2  -3   4    3.15    1.19
   1   3  -4   46.99    7.31
  -1  -3   4   41.72    5.35
  -1  -3   4   43.06    3.68
  -1  -3   4   46.09    3.60
  -1  -3   4   39.41    4.12
  -1  -3   4   53.14    7.07
   0   3  -4    3.25    1.36
   0   3  -4    4.19    1.09
   0   3  -4    4.65    2.52
   0  -3   4    5.11    1.95
   0  -3   4    3.63    2.36
   0  -3   4    3.94    1.74
   0  -3   4    2.51    1.36
   0  -3   4    2.03    1.29
  -1   3  -4    6.14    1.85
  -1   3  -4   13.09    3.63
  -1   3  -4    6.30    2.43
  -1   3  -4    6.59    2.01
   1  -3   4    5.57    2.11
   1  -3   4    6.16    2.00
   1  -3   4    4.77    2.44
   1  -3   4    5.50    2.15
   1  -3   4    5.30    2.16
  -2   3  -4   62.55    7.45
  -2   3  -4   62.65    6.22
   2  -3   4   57.03    6.30
   2  -3   4   62.02    5.94
   2  -3   4   51.17    6.52
   2  -3   4   83.07    8.59
   2  -3   4   62.19    8.11
  -3   3  -4   15.81    3.58
  -3   3  -4   19.45    5.21
   3  -3   4   24.35    5.06
   3  -3   4   23.72    4.89
   3  -3   4   23.96    4.92
  -4   3  -4  147.82   12.75
  -4   3  -4  150.38   11.16
   4  -3   4  174.55   13.51
   4  -3   4  163.31   12.33
  -5   3  -4    4.84    2.87
  -5   3  -4   -1.62    2.65
   5  -3   4    1.23    2.82
   5  -3   4    0.04    3.59
  -5  -2   4    0.92    1.35
  -4  -2   4   23.49    2.90
  -4  -2   4   19.82    2.85
  -3  -2   4  156.01    6.74
  -3  -2   4  158.22    6.76
  -3  -2   4  152.55    6.93
  -2  -2   4    7.30    3.36
   1   2  -4  393.05   19.51
  -1  -2   4  373.41   14.38
  -1  -2   4  382.06   14.57
  -1  -2   4  390.16   18.29
  -1  -2   4  394.85   19.53
  -1  -2   4  368.73   14.30
  -1  -2   4  377.38   14.51
   0   2  -4    8.34    1.14
   0   2  -4    9.01    1.14
   0   2  -4    7.00    2.69
   0  -2   4    7.16    1.73
   0  -2   4    8.49    1.59
   0  -2   4    7.94    1.72
   0  -2   4    6.25    2.57
   0  -2   4    8.87    2.70
  -1   2  -4   46.86    5.40
  -1   2  -4   57.11    4.26
  -1   2  -4   45.16    3.70
  -1   2  -4   49.56    4.30
  -1   2  -4   40.60    5.38
   1  -2   4   46.33    5.00
   1  -2   4   51.41    4.83
   1  -2   4   48.16    4.94
   1  -2   4   32.28    4.94
   1  -2   4   46.25    5.26
  -2   2  -4  211.25   11.95
  -2   2  -4  220.96   12.27
  -2   2  -4  205.30   10.71
   2  -2   4  209.70   11.12
   2  -2   4  208.18   11.75
   2  -2   4  209.55   11.87
   2  -2   4  208.34   11.81
   2  -2   4  216.28   12.64
  -3   2  -4    0.29    1.31
   3  -2   4    0.03    1.60
   3  -2   4    1.37    1.83
   3  -2   4    3.73    2.33
   3  -2   4    1.21    2.19
   3  -2   4    1.64    2.07
  -4   2  -4  100.32    8.25
   4  -2   4  101.37   11.11
   4  -2   4  103.52    8.85
  -5   2  -4   -1.46    1.82
   5  -2   4    3.16    2.68
   5  -2   4    3.36    3.47
  -6   2  -4    2.11    2.81
   6  -2   4   -1.26    3.17
  -5  -1   4   33.61    4.66
  -4  -1   4   17.25    2.68
  -4  -1   4   12.35    2.43
  -3  -1   4   58.38    3.52
  -3  -1   4   57.87    3.64
  -3  -1   4   55.36    3.67
  -2  -1   4   43.03    2.17
  -2  -1   4   64.26    8.30
  -1  -1   4   39.36    2.03
  -1  -1   4   47.88    6.60
  -1  -1   4   33.74    1.82
   0   1  -4   18.22    3.62
   0  -1   4   16.51    2.02
   0  -1   4   20.07    3.83
   0  -1   4   23.59    2.67
   0  -1   4   18.50    2.09
   0  -1   4   19.88    3.82
  -1   1  -4    1.89    1.41
  -1   1  -4    1.08    1.33
  -1   1  -4    0.11    0.71
  -1   1  -4    0.61    0.92
  -1   1  -4   -0.20    0.79
   1  -1   4    1.52    1.07
   1  -1   4    0.75    1.30
   1  -1   4    0.23    0.83
   1  -1   4    1.24    1.15
  -2   1  -4  339.43   15.72
  -2   1  -4  364.33   16.33
  -2   1  -4  359.65   15.61
   2  -1   4  352.64   15.72
   2  -1   4  319.81   16.68
   2  -1   4  373.45   16.94
   2  -1   4  355.73   16.32
   2  -1   4  372.01   16.85
  -3   1  -4    5.07    2.06
   3  -1   4    5.21    2.21
   3  -1   4    6.71    2.68
   3  -1   4    2.76    1.95
   3  -1   4    3.78    2.36
   3  -1   4    2.87    2.00
  -4   1  -4  175.31   10.84
   4  -1   4  163.81   11.37
   4  -1   4  182.24   12.75
  -5   1  -4   62.42    7.65
   5  -1   4   66.91    8.62
  -6   1  -4   -1.46    2.09
   6  -1   4    3.05    3.22
  -5   0   4   26.93    4.89
  -5   0   4   22.05    4.04
  -4   0   4    9.40    2.74
  -4   0   4    6.68    2.01
  -3   0   4  341.24   14.48
  -3   0   4  340.04   14.75
  -3   0   4  344.40   14.96
  -2   0   4    1.71    0.92
  -2   0   4    1.16    0.80
  -2   0   4    0.17    0.66
  -1   0   4  320.88   12.55
  -1   0   4  332.34   12.88
  -1   0   4  321.11   12.85
   0   0  -4  235.78    9.28
   0   0  -4  229.14    8.87
   0   0  -4  231.11    8.88
   0   0   4  245.21   12.56
   0   0   4  221.88    9.85
   0   0   4  240.43    9.98
   0   0   4  223.85   10.07
   0   0   4  231.73   12.73
  -1   0  -4   10.74    2.05
  -1   0  -4   13.66    2.19
  -1   0  -4    7.45    2.25
   1   0   4   12.52    2.43
   1   0   4   13.88    2.50
   1   0   4   10.85    2.92
   1   0   4   12.31    2.13
   1   0   4   13.37    2.62
  -2   0  -4  365.25   16.20
  -2   0  -4  388.90   16.84
  -2   0  -4  363.96   15.16
  -2   0  -4  391.77   15.97
   2   0   4  355.31   15.93
   2   0   4  354.84   17.42
   2   0   4  373.67   16.65
   2   0   4  354.45   16.75
  -3   0  -4   29.69    4.75
  -3   0  -4   37.04    3.05
  -3   0  -4   42.59    5.02
   3   0   4   36.20    4.26
   3   0   4   33.49    5.33
   3   0   4   37.77    4.53
   3   0   4   39.73    5.27
   3   0   4   36.61    5.05
  -4   0  -4    6.24    3.18
  -4   0  -4    6.84    2.52
   4   0   4    5.18    2.76
   4   0   4    4.21    3.01
   4   0   4   10.73    3.22
   4   0   4   10.22    2.60
  -5   0  -4   10.12    3.42
   5   0   4   11.56    3.98
   5   0   4    8.40    3.28
  -6   0  -4    8.72    3.61
   6   0   4    2.91    2.83
  -5   1   4   17.11    3.94
  -5   1   4   14.84    4.46
  -4   1   4    6.28    2.10
  -4   1   4    5.64    2.79
   3  -1  -4   27.91    2.02
  -3   1   4   22.25    3.59
  -3   1   4   28.50    4.29
  -3   1   4   22.87    3.94
   2  -1  -4   14.43    1.69
   2  -1  -4   14.17    1.81
  -2   1   4   11.35    2.43
  -2   1   4   10.39    2.25
  -2   1   4   13.60    2.66
   1  -1  -4   17.96    1.94
   1  -1  -4   17.22    2.01
  -1   1   4   18.42    2.86
  -1   1   4   19.46    2.89
  -1   1   4   16.23    2.42
   0  -1  -4  127.03    6.49
   0  -1  -4  125.42    6.16
   0  -1  -4  129.80    6.78
   0   1   4  130.67    9.16
   0   1   4  108.09    7.21
   0   1   4  129.57    7.33
   0   1   4  124.54    6.91
  -1  -1  -4   44.69    4.79
  -1  -1  -4   50.76    4.70
  -1  -1  -4   37.78    4.14
   1   1   4   40.21    5.30
   1   1   4   52.44    5.39
   1   1   4   37.65    4.12
   1   1   4   37.28    4.24
  -2  -1  -4  490.96   20.10
  -2  -1  -4  478.81   20.31
  -2  -1  -4  489.21   20.80
   2   1   4  477.68   20.21
   2   1   4  491.28   20.89
   2   1   4  438.97   20.52
   2   1   4  497.62   17.94
   2   1   4  478.75   21.47
  -3  -1  -4   19.56    3.31
  -3  -1  -4   21.14    3.92
   3   1   4   13.47    3.48
   3   1   4   15.17    3.20
   3   1   4   20.02    3.23
   3   1   4   16.50    2.31
   3   1   4   16.45    3.46
  -4  -1  -4   46.57    6.95
  -4  -1  -4   42.89    5.53
   4   1   4   42.16    5.77
   4   1   4   44.69    6.05
   4   1   4   34.46    6.33
  -5  -1  -4  226.89   13.24
   5   1   4  200.01   12.93
   5   1   4  216.32   13.58
  -6  -1  -4    6.38    3.11
   6   1   4    1.50    2.35
  -5   2   4  118.87    9.94
  -5   2   4  107.64   11.66
  -4   2   4    0.36    1.85
  -4   2   4   -0.72    1.79
   3  -2  -4  232.85   11.40
   3  -2  -4  243.19   11.71
  -3   2   4  233.71   13.22
  -3   2   4  215.72   12.49
   2  -2  -4   72.91    5.31
   2  -2  -4   72.54    5.29
  -2   2   4   62.59    6.67
  -2   2   4   67.28    5.60
  -2   2   4   71.28    5.86
   1  -2  -4   53.47    4.45
  -1   2   4   52.19    5.37
  -1   2   4   54.71    6.06
  -1   2   4   59.20    4.76
   0  -2  -4  300.42   13.61
   0  -2  -4  291.23   13.77
   0   2   4  316.24   14.07
   0   2   4  290.62   14.73
   0   2   4  308.30   15.04
   0   2   4  303.30   16.32
  -1  -2  -4   43.77    5.28
  -1  -2  -4   39.39    5.07
  -1  -2  -4   36.92    5.24
  -1  -2  -4   30.44    3.64
   1   2   4   37.69    4.68
   1   2   4   39.07    4.84
   1   2   4   32.29    4.70
   1   2   4   32.85    4.98
  -2  -2  -4  150.03    8.89
   2   2   4  135.98    9.23
   2   2   4  159.22    9.66
   2   2   4  151.88    9.35
   2   2   4  161.79    9.13
  -3  -2  -4    3.20    2.06
  -3  -2  -4    4.93    2.19
   3   2   4    1.00    2.05
   3   2   4    2.88    1.91
   3   2   4    4.76    2.03
  -4  -2  -4   -0.46    1.32
  -4  -2  -4    0.00    1.76
   4   2   4   -1.05    1.23
   4   2   4   -1.31    2.11
  -5  -2  -4   37.99    6.69
  -5  -2  -4   33.45    5.41
   5   2   4   37.21    5.70
  -6  -2  -4   -0.84    2.11
   6   2   4    1.99    2.33
  -4   3   4   15.49    4.88
  -4   3   4   26.07    5.18
   3  -3  -4    4.23    2.45
  -3   3   4    8.47    3.22
   2  -3  -4   14.69    3.41
   2  -3  -4   13.52    3.17
  -2   3   4   14.76    3.90
  -2   3   4   13.26    3.47
   1  -3  -4    6.99    2.21
   1  -3  -4    1.88    1.62
  -1   3   4   13.31    3.47
  -1   3   4    6.19    2.61
   0  -3  -4  426.44   19.52
   0  -3  -4  415.23   19.03
   0   3   4  431.97   20.78
   0   3   4  432.30   20.66
   0   3   4  421.11   20.99
  -1  -3  -4    0.13    1.18
  -1  -3  -4   -0.49    1.31
   1   3   4    0.17    1.39
   1   3   4   -0.40    1.44
   1   3   4   -1.10    1.65
  -2  -3  -4  172.86   11.39
  -2  -3  -4  183.81   10.42
   2   3   4  151.98   10.83
   2   3   4  191.13   10.87
   2   3   4  173.85   10.45
  -3  -3  -4  195.48   11.72
  -3  -3  -4  186.14   11.19
   3   3   4  188.09   11.70
   3   3   4  203.26   12.14
   3   3   4  192.61    8.14
  -4  -3  -4    2.88    2.13
  -4  -3  -4    1.51    2.01
   4   3   4   -0.05    1.46
   4   3   4   -0.77    1.89
  -5  -3  -4  118.27   11.30
   5   3   4  117.03    8.89
  -6  -3  -4    9.63    3.58
  -4   4   4   12.61    4.98
  -4   4   4   13.46    4.47
  -3   4   4   86.58   10.70
  -3   4   4   86.38    9.36
   2  -4  -4  111.26    9.15
   2  -4  -4  102.01    8.48
  -2   4   4   87.12   10.11
   1  -4  -4    3.72    2.41
   1  -4  -4    9.32    3.52
  -1   4   4    6.28    3.18
  -1   4   4    7.47    3.19
   0  -4  -4  127.86    9.21
   0  -4  -4  134.71    9.78
   0   4   4  142.22   11.26
   0   4   4  135.89   10.07
   0   4   4  126.75   10.59
  -1  -4  -4   71.94    7.83
  -1  -4  -4   58.23    7.16
   1   4   4   72.74    9.39
   1   4   4   67.17    6.39
  -2  -4  -4    1.43    1.88
  -2  -4  -4    4.25    2.67
   2   4   4    0.04    1.94
   2   4   4    3.11    2.03
  -3  -4  -4   18.24    4.74
   3   4   4    8.10    2.93
   3   4   4    6.95    3.21
   3   4   4   10.68    2.48
  -4  -4  -4   -0.94    1.92
  -4  -4  -4    2.06    2.36
   4   4   4    2.17    2.23
   4   4   4   -0.07    0.83
   4   4   4    2.24    1.94
  -5  -4  -4   79.35    9.60
   5   4   4   91.78    9.62
  -6  -4  -4    7.27    4.05
  -3   5   4    0.80    2.52
  -3   5   4    1.18    2.94
   2  -5  -4   82.26    9.76
  -2   5   4   62.54    9.35
   1  -5  -4    1.05    1.91
   1  -5  -4    2.17    2.80
  -1   5   4   -1.33    1.94
  -1   5   4    1.80    2.79
   0  -5  -4  182.36   12.56
   0  -5  -4  184.33   11.84
   0   5   4  123.88   10.28
   0   5   4  166.49   13.53
  -1  -5  -4   86.26    9.79
  -1  -5  -4   72.28    8.46
   1   5   4   69.26    6.23
   1   5   4   75.41   10.04
  -2  -5  -4   28.35    5.35
  -2  -5  -4   30.99    6.37
   2   5   4   18.65    5.44
   2   5   4   35.06    4.86
   2   5   4   31.62    5.33
  -3  -5  -4  136.81   10.63
  -3  -5  -4  155.85   12.73
   3   5   4  149.26    9.61
   3   5   4  147.64    9.65
   3   5   4  169.04   12.02
  -4  -5  -4   16.41    5.84
   4   5   4   17.31    4.41
   4   5   4   17.19    3.81
  -5  -5  -4   48.93    8.77
   2  -6  -4   51.79    8.55
  -2   6   4   35.44    8.11
  -2   6   4   42.21    7.03
   1  -6  -4   24.56    5.84
  -1   6   4   16.39    5.09
  -1   6   4   18.02    6.51
   0  -6  -4   12.97    4.43
   0  -6  -4    7.31    3.53
   0   6   4   11.70    3.80
   0   6   4    4.82    4.50
  -1  -6  -4    1.07    2.65
  -1  -6  -4    1.29    2.56
   1   6   4    3.70    3.79
  -2  -6  -4    1.33    2.90
  -2  -6  -4   -0.26    2.25
   2   6   4    0.76    2.76
  -3  -6  -4   44.15    7.62
  -3  -6  -4   32.75    7.22
   3   6   4   43.84    6.34
   3   6   4   36.48    7.26
  -4  -6  -4    6.04    4.44
  -1  -7  -4   94.19   12.21
  -1  -7  -4   75.27   11.18
   1   7   4   66.70   11.97
  -2  -7  -4    1.23    2.87
  -2  -7  -4    2.36    3.28
   2   7   4    0.58    3.16
  -3  -7  -4   52.28    9.38
  -3  -7  -4   48.89    8.80
  -3  -5   5   11.89    3.10
  -3  -5   5   10.95    2.79
  -3  -5   5   11.06    4.70
   2   5  -5  187.99   15.85
  -2  -5   5  172.92   10.78
  -2  -5   5  183.95   14.45
  -2  -5   5  163.93   10.07
   1   5  -5    2.25    3.18
  -1  -5   5    1.02    2.99
  -1  -5   5    1.45    1.55
  -1  -5   5    2.42    2.15
   0   5  -5   51.11    9.36
   0  -5   5   70.53    8.43
   0  -5   5   71.96   10.61
   0  -5   5   62.42    7.37
  -1   5  -5   23.64    6.18
   1  -5   5   33.90    6.16
   1  -5   5   25.18    5.52
   1  -5   5   22.94    6.39
  -2   5  -5   -0.57    2.24
   2  -5   5   -0.86    2.52
   2  -5   5   -0.66    2.12
   3  -5   5   47.12    8.66
   3  -5   5   36.28    7.83
  -4  -4   5    1.86    1.50
  -3  -4   5    7.26    3.20
  -3  -4   5    8.50    1.86
  -3  -4   5   14.30    2.77
  -3  -4   5   11.79    4.30
   2   4  -5    0.30    1.99
  -2  -4   5   -0.26    1.20
  -2  -4   5    1.93    1.11
  -2  -4   5   -2.30    1.58
  -2  -4   5   -0.85    2.26
   1   4  -5    5.01    3.47
  -1  -4   5    7.44    2.45
  -1  -4   5    4.06    2.04
  -1  -4   5    2.61    1.62
  -1  -4   5    2.56    2.49
   0   4  -5   21.26    5.38
   0  -4   5   15.69    4.57
   0  -4   5   25.26    3.81
   0  -4   5   12.40    3.11
   0  -4   5   21.40    4.08
  -1   4  -5  119.75   10.56
   1  -4   5  122.78    9.04
   1  -4   5  103.75    7.45
   1  -4   5  121.10    9.32
   1  -4   5  115.37   10.80
  -2   4  -5   13.30    4.42
  -2   4  -5   16.90    4.47
   2  -4   5   17.29    4.55
   2  -4   5   17.74    4.53
   2  -4   5   21.30    5.72
  -3   4  -5  182.54   13.40
  -3   4  -5  169.88   12.80
   3  -4   5  169.32   13.03
   3  -4   5  152.20   12.57
   3  -4   5  148.92   13.14
  -4   4  -5    6.75    3.93
   4  -4   5   -0.11    3.89
   4  -4   5    3.78    3.18
  -4  -3   5  160.91    7.54
  -4  -3   5  158.19   12.45
  -3  -3   5    5.64    1.31
  -3  -3   5   12.51    4.18
  -2  -3   5  188.33    8.23
  -2  -3   5  182.30   12.98
  -2  -3   5  182.08    8.15
  -2  -3   5  167.41   11.70
  -2  -3   5  177.80    8.02
   1   3  -5   38.78    6.91
  -1  -3   5   27.52    3.17
  -1  -3   5   34.84    6.30
  -1  -3   5   36.73    3.57
  -1  -3   5   34.66    3.90
  -1  -3   5   35.30    5.58
   0   3  -5    4.93    2.93
   0  -3   5    4.80    2.37
   0  -3   5    5.70    1.84
   0  -3   5    3.82    2.58
   0  -3   5    3.45    1.91
   0  -3   5    5.55    1.94
  -1   3  -5  102.59    6.20
  -1   3  -5  111.20    7.18
  -1   3  -5  104.72    9.07
   1  -3   5   94.59    7.41
   1  -3   5  109.62    7.66
   1  -3   5   72.15    8.73
   1  -3   5  104.72    7.70
   1  -3   5  101.12    7.16
  -2   3  -5    6.87    2.21
  -2   3  -5    9.36    3.13
  -2   3  -5    0.08    1.26
   2  -3   5    6.71    3.44
   2  -3   5    5.48    2.71
   2  -3   5    5.71    2.53
   2  -3   5    5.45    2.74
   2  -3   5    3.26    2.21
  -3   3  -5    8.87    3.85
  -3   3  -5    8.23    2.92
  -3   3  -5    6.80    2.86
   3  -3   5   11.11    3.65
   3  -3   5    7.06    3.38
   3  -3   5    9.12    3.94
  -4   3  -5    8.43    4.37
  -4   3  -5    5.66    2.98
   4  -3   5    3.27    3.96
   4  -3   5    0.56    2.56
  -5   3  -5    2.80    3.84
   5  -3   5    5.38    4.80
   5  -3   5   12.56    4.98
  -4  -2   5    1.65    1.01
  -3  -2   5    5.39    0.87
  -3  -2   5    8.52    1.15
  -1  -2   5   58.89    3.49
  -1  -2   5   60.15    3.54
  -1  -2   5   61.59    3.73
  -1  -2   5   61.08    7.18
  -1  -2   5   72.71    9.09
   0   2  -5   40.40    6.53
   0  -2   5   30.84    5.30
   0  -2   5   26.97    3.18
   0  -2   5   33.60    3.61
   0  -2   5   32.61    5.52
   0  -2   5   35.88    3.95
  -1   2  -5  490.83   19.81
  -1   2  -5  486.77   22.78
  -1   2  -5  462.49   18.90
   1  -2   5  463.63   22.89
   1  -2   5  499.66   22.15
   1  -2   5  457.16   20.26
   1  -2   5  487.23   20.81
   1  -2   5  473.51   20.02
  -2   2  -5    1.84    1.48
  -2   2  -5    1.50    1.81
  -2   2  -5    0.46    1.32
   2  -2   5   -0.25    1.77
   2  -2   5    1.00    1.95
   2  -2   5    0.25    1.59
   2  -2   5    2.89    2.01
   2  -2   5    3.33    1.85
  -3   2  -5  204.37   11.79
  -3   2  -5  211.21   12.40
   3  -2   5  213.88   13.61
   3  -2   5  204.76   13.38
   3  -2   5  205.91   12.26
   3  -2   5  217.00   13.31
   3  -2   5  220.46   13.70
  -4   2  -5   89.23    8.92
   4  -2   5   93.64   10.49
   4  -2   5  107.46    9.29
   4  -2   5   94.72    8.70
  -5   2  -5    0.80    1.92
   5  -2   5   -2.25    3.09
   5  -2   5    3.70    3.00
  -5  -1   5    3.86    1.99
  -5  -1   5    4.62    2.43
  -4  -1   5  176.09    9.21
  -4  -1   5  176.36    8.88
  -3  -1   5    2.42    0.91
  -3  -1   5    0.35    0.61
  -3  -1   5    1.10    0.97
  -3  -1   5    1.04    0.95
  -2  -1   5   89.28    4.05
  -2  -1   5   90.22    4.07
  -2  -1   5   87.39    3.88
  -1  -1   5   74.31    3.66
  -1  -1   5   53.90    7.66
  -1  -1   5   68.62    3.65
  -1  -1   5   65.16    8.15
  -1  -1   5   76.12    3.88
   0  -1   5   -1.38    1.48
   0  -1   5    1.45    1.14
   0  -1   5    0.37    0.91
   0  -1   5   -0.93    1.79
   0  -1   5    1.30    0.91
  -1   1  -5   87.42    5.13
  -1   1  -5   83.13    6.68
  -1   1  -5   81.47    4.90
   1  -1   5   91.04    7.44
   1  -1   5   84.38    5.69
   1  -1   5   68.65    5.51
   1  -1   5   88.14    6.06
  -2   1  -5    6.89    2.01
  -2   1  -5    6.25    2.13
   2  -1   5    7.99    2.52
   2  -1   5   10.72    3.13
   2  -1   5   11.42    3.26
   2  -1   5    8.99    2.44
   2  -1   5    8.24    2.72
  -3   1  -5   13.34    2.80
  -3   1  -5   15.16    3.35
   3  -1   5   15.55    3.90
   3  -1   5   20.31    4.39
   3  -1   5   13.24    3.63
   3  -1   5   17.05    3.68
   3  -1   5   16.49    3.40
  -4   1  -5   81.65    8.18
  -4   1  -5   48.85    5.63
   4  -1   5   52.29    7.89
   4  -1   5   66.35    8.18
   4  -1   5   63.76    7.76
   4  -1   5   58.90    6.88
  -5   1  -5    5.86    2.76
   5  -1   5    4.22    3.08
   5  -1   5    4.35    3.16
  -6   1  -5  130.02   12.82
   6  -1   5  107.88   12.07
  -5   0   5    4.91    2.86
  -5   0   5    7.30    2.76
  -4   0   5    2.52    1.86
  -4   0   5    0.77    1.22
  -3   0   5    1.71    1.20
  -3   0   5    4.37    1.78
  -3   0   5   -0.20    1.09
  -2   0   5    5.06    1.36
  -2   0   5    3.40    1.27
  -2   0   5    5.83    1.55
  -1   0   5  274.39   12.05
  -1   0   5  308.02   16.40
  -1   0   5  293.69   12.16
  -1   0   5  281.74   11.92
   0   0  -5    0.80    0.42
   0   0  -5    0.86    0.65
   0   0  -5    1.20    0.43
   0   0   5    1.74    1.88
   0   0   5    1.70    1.22
   0   0   5    1.51    1.08
   0   0   5    1.10    0.92
   0   0   5    3.79    2.13
  -1   0  -5  472.16   19.35
  -1   0  -5  492.76   19.29
  -1   0  -5  497.23   19.11
   1   0   5  492.90   22.80
   1   0   5  467.16   21.01
   1   0   5  500.22   20.03
   1   0   5  460.37   19.67
   1   0   5  448.79   20.15
  -2   0  -5  100.48    6.87
  -2   0  -5   92.69    6.34
  -2   0  -5  101.88    6.39
   2   0   5  100.04    8.10
   2   0   5   96.61    7.10
   2   0   5  106.72    7.27
   2   0   5   93.37    6.57
  -3   0  -5   45.18    5.27
  -3   0  -5   32.94    3.79
   3   0   5   40.11    5.59
   3   0   5   38.06    5.01
   3   0   5   37.68    4.97
   3   0   5   37.75    6.07
   3   0   5   37.86    5.33
  -4   0  -5  136.65    7.25
  -4   0  -5  128.56    9.25
   4   0   5  146.26   11.48
   4   0   5  154.24   10.83
   4   0   5  132.49    8.69
   4   0   5  152.54   10.44
  -5   0  -5   22.40    3.01
  -5   0  -5    9.90    3.26
   5   0   5   16.56    4.60
   5   0   5   19.12    4.56
  -6   0  -5   36.72    6.82
   6   0   5   34.95    6.56
  -4   1   5  146.35   10.07
  -4   1   5  156.43    9.80
  -3   1   5   38.74    5.20
  -3   1   5   42.92    4.89
  -2   1   5    6.32    1.88
  -2   1   5   14.05    2.70
  -2   1   5   10.15    2.56
   1  -1  -5   90.64    4.30
   1  -1  -5   91.63    4.34
  -1   1   5  102.99    6.28
  -1   1   5   97.82    5.98
  -1   1   5   87.71    5.83
   0  -1  -5   25.25    2.77
   0  -1  -5   21.78    2.58
   0  -1  -5   20.24    2.82
   0   1   5   18.04    2.97
   0   1   5   14.20    2.67
   0   1   5   25.90    3.83
   0   1   5   21.70    4.91
  -1  -1  -5    7.93    1.93
  -1  -1  -5    5.76    1.86
   1   1   5   10.58    2.67
   1   1   5   12.16    3.86
   1   1   5    4.95    1.66
   1   1   5    3.73    1.70
  -2  -1  -5   24.80    3.63
   2   1   5   22.54    3.90
   2   1   5   22.93    2.96
   2   1   5   22.77    3.69
   2   1   5   23.83    4.53
   2   1   5   30.09    4.38
  -3  -1  -5    0.81    1.36
  -3  -1  -5    0.64    1.60
   3   1   5    0.67    1.64
   3   1   5    1.63    2.01
   3   1   5    4.53    2.63
   3   1   5    4.47    2.44
  -4  -1  -5  257.40   13.94
   4   1   5  234.64   15.49
   4   1   5  262.26   11.75
   4   1   5  256.46   14.44
   4   1   5  231.98   14.56
  -5  -1  -5    1.44    1.95
   5   1   5   -0.63    1.74
   5   1   5    7.86    4.03
   5   1   5    8.24    3.53
  -6  -1  -5   80.98    9.51
   6   1   5   88.63   10.05
  -4   2   5    2.49    2.55
  -4   2   5    2.49    2.06
  -3   2   5   40.76    6.03
   2  -2  -5   17.34    3.11
   2  -2  -5   13.32    2.43
  -2   2   5   14.17    3.43
  -2   2   5   19.80    3.96
  -2   2   5   15.42    3.24
   1  -2  -5  408.01   17.82
   1  -2  -5  432.85   17.91
  -1   2   5  429.79   19.02
  -1   2   5  440.41   19.04
  -1   2   5  417.19   19.29
   0  -2  -5   26.64    3.61
   0   2   5   27.55    4.58
   0   2   5   33.68    4.46
   0   2   5   31.74    5.67
   0   2   5   28.75    5.03
  -1  -2  -5  241.53   12.87
  -1  -2  -5  255.21   12.28
   1   2   5  255.39   13.07
   1   2   5  262.61   13.35
   1   2   5  281.92   13.99
   1   2   5  239.00   15.09
  -2  -2  -5  165.73    9.43
  -2  -2  -5  178.97   10.16
   2   2   5  179.49   11.20
   2   2   5  144.55   10.09
   2   2   5  154.55    9.83
  -3  -2  -5   23.07    4.12
  -3  -2  -5   24.32    4.25
   3   2   5   26.79    4.52
   3   2   5   27.31    5.34
   3   2   5   29.06    5.14
  -4  -2  -5   72.12    7.60
   4   2   5   68.80    8.80
   4   2   5   88.09    9.21
   4   2   5   74.09    4.45
  -5  -2  -5   27.49    5.00
   5   2   5   24.26    5.96
   5   2   5   23.68    5.01
  -6  -2  -5    2.37    2.81
   6   2   5    2.29    2.57
  -4   3   5   48.00    7.39
  -4   3   5   42.19    7.92
  -3   3   5   42.53    7.13
   2  -3  -5    0.70    1.76
   2  -3  -5    1.24    1.81
  -2   3   5    1.07    1.82
  -2   3   5   -1.42    1.69
   1  -3  -5    5.80    2.22
   1  -3  -5    5.21    2.43
  -1   3   5    5.79    2.53
  -1   3   5    6.10    2.91
   0  -3  -5   23.06    4.05
   0  -3  -5   22.01    3.95
   0   3   5   17.02    4.21
   0   3   5   13.80    4.09
   0   3   5   10.96    3.86
  -1  -3  -5    0.86    2.01
  -1  -3  -5    1.44    1.52
   1   3   5   -1.23    2.04
   1   3   5   -1.07    1.27
   1   3   5    0.69    2.18
  -2  -3  -5  119.20    9.49
  -2  -3  -5  106.08   12.46
   2   3   5  118.47    8.77
   2   3   5  125.44    9.29
   2   3   5  119.27    9.51
  -3  -3  -5    2.89    2.08
  -3  -3  -5    3.97    2.62
   3   3   5    0.40    2.15
   3   3   5    0.14    2.03
  -4  -3  -5  253.20   14.52
   4   3   5  230.28   14.86
   4   3   5  236.74   14.27
  -5  -3  -5   27.16    5.46
   5   3   5   33.85    6.74
   5   3   5   30.75    5.71
  -6  -3  -5    4.36    3.53
   6   3   5   18.35    7.06
  -3   4   5  142.84   12.37
   2  -4  -5    6.79    2.81
  -2   4   5    6.62    3.14
   1  -4  -5  222.87   13.51
   1  -4  -5  245.74   14.28
  -1   4   5  258.26   15.36
  -1   4   5  235.92   15.09
   0  -4  -5   87.44    8.93
   0  -4  -5   79.98    8.53
   0   4   5   70.86    9.04
   0   4   5   69.35    9.24
   0   4   5   86.53   10.74
  -1  -4  -5    9.16    3.02
  -1  -4  -5   13.93    3.97
   1   4   5   13.95    4.80
   1   4   5   12.04    3.95
  -2  -4  -5   96.84   10.02
  -2  -4  -5   96.08    9.50
   2   4   5   71.22    8.14
   2   4   5   74.80    9.48
  -3  -4  -5   21.95    5.34
   3   4   5   19.02    4.66
   3   4   5   24.04    5.13
  -4  -4  -5   22.95    5.15
   4   4   5   20.96    2.92
   4   4   5   19.52    4.85
   4   4   5   18.42    4.71
  -5  -4  -5    1.29    2.93
   5   4   5   -0.69    2.04
  -6  -4  -5    0.27    2.82
   2  -5  -5   34.40    6.19
  -2   5   5    9.56    4.38
   1  -5  -5    1.43    2.28
   1  -5  -5    2.00    2.98
  -1   5   5    3.75    3.77
  -1   5   5    5.37    3.20
   0  -5  -5    3.78    2.82
   0  -5  -5   10.25    3.71
   0   5   5   10.19    3.99
   0   5   5   14.29    5.42
  -1  -5  -5    0.12    2.07
  -1  -5  -5    3.37    2.52
   1   5   5    3.33    3.11
   1   5   5    1.36    2.34
  -2  -5  -5  199.55   13.57
  -2  -5  -5  181.12   12.26
   2   5   5  153.94   10.71
   2   5   5  169.61   13.21
  -3  -5  -5   17.23    4.47
  -3  -5  -5   16.96    5.20
   3   5   5   19.97    4.40
   3   5   5   13.42    4.69
   3   5   5   13.95    3.44
  -4  -5  -5   39.38    7.93
   4   5   5   62.69    8.21
   4   5   5   68.64    9.38
  -5  -5  -5   37.91    7.60
   1  -6  -5   47.03    7.96
  -1   6   5   50.63    8.74
  -1   6   5   57.14   10.05
   0  -6  -5   62.72    9.15
   0  -6  -5   63.28    9.43
   0   6   5   81.64   10.22
   0   6   5   69.45   11.56
  -1  -6  -5   12.81    4.76
  -1  -6  -5    5.84    3.93
   1   6   5    7.85    4.17
   1   6   5    2.54    2.23
  -2  -6  -5   31.21    6.70
  -2  -6  -5   29.16    6.19
   2   6   5   21.06    4.29
   2   6   5   20.74    5.89
  -3  -6  -5   14.13    5.28
  -3  -6  -5   18.04    4.89
   3   6   5   18.93    5.39
   3   6   5   11.41    4.59
  -4  -6  -5   -0.40    3.27
   4   6   5   -0.59    3.07
  -1  -7  -5    2.00    4.11
  -2  -7  -5   98.33   12.78
  -2  -7  -5   68.36   10.38
  -2  -5   6    6.11    2.33
  -2  -5   6    1.68    2.24
  -1  -5   6   27.28    4.75
  -1  -5   6   31.71    5.48
   0  -5   6  135.94   10.67
   0  -5   6  122.39    9.72
   1  -5   6    3.49    3.15
   1  -5   6   12.24    4.44
   2  -5   6  115.34   12.63
   2  -5   6  137.38   13.14
  -3  -4   6   67.45    4.46
  -3  -4   6   59.95    9.65
  -2  -4   6    0.55    3.20
  -2  -4   6    5.45    1.70
  -2  -4   6    4.13    1.82
  -2  -4   6    9.20    3.88
   1   4  -6   -0.78    2.28
  -1  -4   6    1.01    1.75
  -1  -4   6    1.90    2.41
  -1  -4   6   -0.14    1.24
  -1  -4   6    0.84    2.72
   0   4  -6    5.48    3.14
   0  -4   6    6.90    2.95
   0  -4   6    8.76    2.69
   0  -4   6    9.69    4.17
   0  -4   6    8.78    3.04
  -1   4  -6    3.51    2.97
   1  -4   6    9.60    3.14
   1  -4   6    6.17    3.45
   1  -4   6    9.20    3.09
   1  -4   6   10.25    3.51
  -2   4  -6    8.31    3.84
   2  -4   6    9.71    3.85
   2  -4   6    6.04    4.13
   2  -4   6   13.46    4.27
   2  -4   6    9.33    3.23
  -3   4  -6   34.86    6.91
   3  -4   6   45.66    7.56
   3  -4   6   33.17    6.81
  -4   4  -6   22.53    6.26
   4  -4   6   12.27    5.09
   4  -4   6   10.06    5.41
  -3  -3   6   27.93    6.85
  -2  -3   6   91.92   11.34
  -2  -3   6   71.35    4.47
  -2  -3   6   83.82    8.00
  -2  -3   6   76.67    4.38
   1   3  -6   13.66    4.35
  -1  -3   6   18.82    2.79
  -1  -3   6   20.56    3.21
  -1  -3   6   12.00    4.10
  -1  -3   6   17.69    4.72
  -1  -3   6   22.14    3.05
   0   3  -6  310.53   19.04
   0  -3   6  319.35   14.71
   0  -3   6  328.38   14.93
   0  -3   6  291.96   16.68
   0  -3   6  319.96   15.24
  -1   3  -6   -0.11    1.00
  -1   3  -6    2.97    1.40
  -1   3  -6   -0.11    1.82
   1  -3   6    0.66    1.58
   1  -3   6   -1.35    1.44
   1  -3   6   -1.91    2.03
   1  -3   6    0.44    1.29
   1  -3   6    0.20    2.00
  -2   3  -6  129.24   10.50
  -2   3  -6  128.87    9.01
   2  -3   6  124.09    9.74
   2  -3   6  134.02   11.44
   2  -3   6  112.47    9.31
   2  -3   6  122.61    9.59
  -3   3  -6   29.29    5.97
  -3   3  -6   26.29    5.61
   3  -3   6   26.71    6.47
   3  -3   6   30.13    5.98
   3  -3   6   25.44    5.59
   3  -3   6   32.41    6.08
  -4   3  -6    5.10    3.23
  -4   3  -6    5.81    3.70
   4  -3   6    5.09    3.75
   4  -3   6    1.11    3.70
   4  -3   6    8.57    4.01
  -4  -2   6    3.68    1.24
  -2  -2   6    5.01    3.22
  -2  -2   6    6.24    0.87
  -1  -2   6   18.31    2.51
  -1  -2   6   12.66    3.86
  -1  -2   6   13.37    1.97
  -1  -2   6   17.39    2.15
   0   2  -6    3.24    2.63
   0  -2   6    3.25    1.71
   0  -2   6    4.56    1.64
   0  -2   6    3.09    2.90
   0  -2   6    5.04    1.68
  -1   2  -6    0.69    0.97
  -1   2  -6    1.70    1.93
  -1   2  -6    0.00    0.85
   1  -2   6   -0.62    1.18
   1  -2   6    1.29    1.59
   1  -2   6   -0.49    1.35
   1  -2   6   -1.39    1.87
   1  -2   6    2.45    2.71
  -2   2  -6   22.04    4.72
  -2   2  -6   21.03    4.20
   2  -2   6   18.62    4.60
   2  -2   6   19.57    4.19
   2  -2   6   19.74    4.49
   2  -2   6   21.43    3.88
   2  -2   6   22.61    4.35
  -3   2  -6  196.69   11.33
  -3   2  -6  176.19   11.69
   3  -2   6  184.97   11.77
   3  -2   6  192.04   12.69
   3  -2   6  185.12   13.06
   3  -2   6  192.50   13.11
   3  -2   6  178.73   12.79
  -4   2  -6    2.29    2.45
  -4   2  -6    2.13    1.82
   4  -2   6    2.69    2.64
   4  -2   6    0.20    2.73
   4  -2   6    2.37    3.08
   4  -2   6    3.08    2.83
   5  -2   6  134.94   13.82
   5  -2   6  117.79   13.23
  -4  -1   6    7.20    1.81
  -4  -1   6    9.52    2.34
  -3  -1   6   26.23    2.92
  -3  -1   6   21.98    2.38
  -2  -1   6  237.25   10.09
  -2  -1   6  272.73   10.04
  -2  -1   6  229.91    9.90
  -1  -1   6    4.01    3.00
  -1  -1   6    3.88    1.17
  -1  -1   6    4.90    1.46
  -1  -1   6    4.34    1.08
   0  -1   6  424.66   17.76
   0  -1   6  422.39   17.66
   0  -1   6  443.89   22.12
   0  -1   6  422.73   18.03
   0  -1   6  437.93   22.23
  -1   1  -6   42.71    6.14
  -1   1  -6   44.81    3.47
   1  -1   6   44.53    4.88
   1  -1   6   40.33    5.08
   1  -1   6   49.06    7.32
   1  -1   6   47.27    5.03
   1  -1   6   67.90    7.84
  -2   1  -6    0.89    1.34
  -2   1  -6    0.35    1.32
   2  -1   6   -0.05    1.55
   2  -1   6   -0.30    1.97
   2  -1   6   -1.88    1.20
   2  -1   6   -0.23    1.76
   2  -1   6   -0.98    1.76
  -3   1  -6   41.18    5.52
  -3   1  -6   47.52    5.84
   3  -1   6   45.42    7.25
   3  -1   6   56.91    6.72
   3  -1   6   43.18    6.60
   3  -1   6   45.28    6.76
   3  -1   6   45.07    6.53
  -4   1  -6    7.32    2.43
  -4   1  -6   13.73    3.50
   4  -1   6   15.24    4.65
   4  -1   6   14.67    4.08
   4  -1   6   12.10    4.37
   4  -1   6   11.42    3.60
  -5   1  -6   -0.34    1.95
   5  -1   6   -0.14    2.53
   5  -1   6    6.21    3.71
  -6   1  -6   14.25    4.74
   6  -1   6   14.71    5.33
  -4   0   6    5.77    1.96
  -4   0   6    6.62    2.41
  -3   0   6   -0.87    1.07
  -3   0   6   -0.18    1.32
  -2   0   6    0.48    1.08
  -2   0   6    0.97    1.10
  -2   0   6    1.56    1.13
  -1   0   6   37.36    6.83
  -1   0   6   32.95    3.53
  -1   0   6   30.36    3.52
  -1   0   6   33.89    3.87
  -1   0   6   28.79    6.58
   0   0   6   39.84    6.22
   0   0   6   58.46    4.62
   0   0   6   46.84    3.99
   0   0   6   57.59    7.56
   0   0   6   46.55    3.96
  -1   0  -6  122.66    7.26
   1   0   6  119.22   10.32
   1   0   6  135.77    8.06
   1   0   6  142.66    8.18
   1   0   6  150.03    9.91
   1   0   6  147.99    8.85
  -2   0  -6   12.82    2.84
   2   0   6   16.02    4.33
   2   0   6   22.22    3.70
   2   0   6   21.87    4.07
   2   0   6   16.34    3.20
  -3   0  -6  411.45   19.02
  -3   0  -6  401.86   17.71
   3   0   6  402.28   19.42
   3   0   6  414.47   19.51
   3   0   6  430.07   20.41
   3   0   6  395.62   21.31
  -4   0  -6   16.23    3.74
  -4   0  -6   15.72    2.66
   4   0   6   12.51    4.31
   4   0   6   12.14    3.83
   4   0   6    7.05    3.06
   4   0   6   14.95    3.51
  -5   0  -6   92.00    9.49
   5   0   6   73.64    9.37
   5   0   6   82.62    6.77
   5   0   6   76.16   10.81
   5   0   6   74.83    9.55
  -6   0  -6   51.10    7.61
   6   0   6   34.57    7.07
  -4   1   6   53.35    7.04
  -4   1   6   59.35    6.61
  -3   1   6   -2.69    1.26
  -2   1   6  359.12   16.28
  -2   1   6  359.61   16.51
  -2   1   6  367.60   16.94
  -1   1   6   19.52    3.32
  -1   1   6   23.80    3.63
  -1   1   6   23.47    6.19
  -1   1   6   18.47    3.35
   0  -1  -6   77.73    4.45
   0   1   6   70.57    5.73
   0   1   6   69.05    5.25
   0   1   6   72.90    8.93
   0   1   6   58.15    5.27
  -1  -1  -6   68.65    5.54
   1   1   6   60.26    8.93
   1   1   6   73.49    6.25
   1   1   6   76.81    6.07
   1   1   6   91.96    6.22
   1   1   6   86.61    6.86
  -2  -1  -6   37.84    4.63
   2   1   6   34.42    4.81
   2   1   6   44.12    7.14
   2   1   6   33.47    4.77
   2   1   6   30.57    4.90
   2   1   6   39.62    4.73
  -3  -1  -6   19.40    3.92
   3   1   6   21.24    4.97
   3   1   6   32.00    5.31
   3   1   6   28.89    5.22
   3   1   6   26.79    4.62
  -4  -1  -6    0.46    1.65
   4   1   6    3.17    2.74
   4   1   6    0.59    1.50
   4   1   6    1.76    2.07
   4   1   6    2.24    2.19
  -5  -1  -6   -0.99    1.93
   5   1   6   -0.83    2.43
   5   1   6    3.75    3.49
   5   1   6    2.73    2.38
   5   1   6    5.33    1.98
  -6  -1  -6   39.16    6.93
   6   1   6   33.17    6.46
  -4   2   6    0.43    1.65
  -4   2   6   -2.51    2.01
  -3   2   6   11.54    3.69
   2  -2  -6   19.61    2.38
  -2   2   6   14.91    3.63
  -2   2   6   21.65    4.59
   1  -2  -6   16.47    2.55
  -1   2   6   15.12    3.44
  -1   2   6   11.10    3.23
  -1   2   6   15.96    3.60
   0  -2  -6   13.23    2.67
   0   2   6    9.28    2.78
   0   2   6   11.75    4.25
   0   2   6   11.77    3.36
   0   2   6    8.62    2.63
  -1  -2  -6  372.67   17.04
   1   2   6  378.34   17.49
   1   2   6  391.28   18.17
   1   2   6  359.92   17.81
   1   2   6  322.07   20.14
  -2  -2  -6   10.89    3.09
   2   2   6   10.26    3.01
   2   2   6   21.06    5.12
   2   2   6   15.91    3.83
  -3  -2  -6  270.62   14.80
   3   2   6  274.78   15.95
   3   2   6  289.23   17.00
   3   2   6  301.03   15.63
  -4  -2  -6   42.24    5.91
   4   2   6   35.48    6.64
   4   2   6   43.65    6.84
  -5  -2  -6   11.09    3.46
   5   2   6   11.28    4.87
   5   2   6    9.90    3.94
  -6  -2  -6   51.89    7.68
   6   2   6   47.30    7.85
  -3   3   6   11.14    3.78
  -2   3   6  149.98   11.20
   1  -3  -6   57.40    6.61
   1  -3  -6   60.61    6.41
  -1   3   6   54.90    7.15
  -1   3   6   38.12    7.99
  -1   3   6   52.99    6.99
   0  -3  -6    4.12    2.14
   0  -3  -6    8.25    2.79
   0   3   6    4.82    3.14
   0   3   6    7.76    3.15
   0   3   6    6.04    3.40
  -1  -3  -6   15.84    3.55
   1   3   6   18.75    4.65
   1   3   6    6.50    4.17
   1   3   6   16.66    3.71
  -2  -3  -6   13.99    4.05
   2   3   6   14.73    4.22
   2   3   6   17.54    4.45
   2   3   6   14.11    4.41
  -3  -3  -6    0.33    1.88
   3   3   6    4.49    3.03
   3   3   6    3.06    2.78
  -4  -3  -6   13.96    3.87
   4   3   6   25.69    5.54
   4   3   6   23.19    5.70
  -5  -3  -6    7.18    3.25
   5   3   6    5.16    3.73
   5   3   6    6.16    3.06
  -6  -3  -6   70.60    9.42
   6   3   6   72.06    9.42
  -3   4   6   -2.83    2.29
  -2   4   6   12.66    4.13
   1  -4  -6   73.20    8.32
  -1   4   6   72.65    9.55
  -1   4   6   81.59   11.93
   0  -4  -6    3.70    2.57
   0  -4  -6    1.04    2.07
   0   4   6    0.88    2.58
   0   4   6    4.30    3.38
   0   4   6    3.89    3.03
  -1  -4  -6  275.76   15.57
  -1  -4  -6  291.34   15.46
   1   4   6  256.26   17.25
  -2  -4  -6   44.56    6.57
   2   4   6   62.24    8.56
   2   4   6   39.10    6.76
  -3  -4  -6   80.93   10.09
   3   4   6   66.77    9.01
   3   4   6   70.15    9.61
  -4  -4  -6   76.33    9.52
   4   4   6   82.54    9.91
   4   4   6   76.71    9.43
  -5  -4  -6    9.15    3.85
   5   4   6    7.93    4.02
   5   4   6   14.19    4.61
  -6  -4  -6   11.65    4.65
  -2   5   6   35.16    9.16
  -2   5   6   17.03    5.63
   1  -5  -6   16.69    4.72
  -1   5   6   18.95    5.76
  -1   5   6   10.08    4.49
   0  -5  -6    1.95    2.54
   0  -5  -6    2.21    2.62
   0   5   6    9.03    4.10
   0   5   6    0.95    2.63
  -1  -5  -6    1.26    2.13
  -1  -5  -6   -0.03    2.17
   1   5   6    2.13    2.91
   1   5   6    0.51    2.68
  -2  -5  -6   -1.15    1.58
  -2  -5  -6    0.95    2.15
   2   5   6   -1.49    2.09
   2   5   6    0.20    2.30
  -3  -5  -6    7.28    3.90
   3   5   6    1.44    2.85
   3   5   6    9.19    3.65
  -4  -5  -6   58.73    9.71
   4   5   6   45.08    8.05
   4   5   6   42.85    7.20
  -5  -5  -6   -1.66    3.24
   5   5   6    7.93    3.58
   5   5   6    2.24    3.22
   1  -6  -6  147.46   22.35
  -1   6   6   99.02   12.99
  -1   6   6  111.51   15.58
   0  -6  -6   13.22    4.84
   0   6   6   12.26    5.26
   0   6   6   13.47    5.26
  -1  -6  -6   88.08   11.28
  -1  -6  -6  111.82   12.60
   1   6   6  104.31   11.74
   1   6   6   95.89   12.76
  -2  -6  -6   44.41    7.74
  -2  -6  -6   55.86    8.58
   2   6   6   53.24    7.50
   2   6   6   51.45    9.22
  -3  -6  -6    1.36    3.31
   3   6   6    3.61    2.70
   3   6   6    1.17    3.54
  -4  -6  -6   20.23    6.34
   4   6   6   31.10    7.46
   4   6   6   26.81    6.34
   0  -5   7    1.05    2.45
  -2  -4   7    0.49    1.25
  -2  -4   7    1.44    1.63
   1   4  -7  169.91   19.52
  -1  -4   7  157.12    9.51
  -1  -4   7  108.27   14.26
  -1  -4   7  133.19    8.59
   0   4  -7    0.85    2.61
   0  -4   7    2.58    2.43
   0  -4   7    7.88    4.37
   0  -4   7    0.80    1.50
  -1   4  -7    4.90    3.44
   1  -4   7    0.62    2.61
   1  -4   7    9.28    3.10
   1  -4   7    9.39    3.75
  -2   4  -7   -0.06    2.59
   2  -4   7   -2.93    2.13
   2  -4   7    4.71    2.86
   2  -4   7    0.44    2.54
  -3   4  -7   11.17    4.49
   3  -4   7    3.70    3.47
   3  -4   7    5.16    4.13
  -3  -3   7    4.98    4.03
  -2  -3   7   25.84    5.81
  -2  -3   7   22.06    2.72
  -2  -3   7   20.55    2.43
  -2  -3   7   31.82    7.51
  -1  -3   7   26.32    6.73
  -1  -3   7   35.62    3.96
  -1  -3   7   40.39    7.27
  -1  -3   7   34.37    4.33
   0   3  -7   33.94    6.99
   0  -3   7   28.79    4.27
   0  -3   7   26.92    4.55
   0  -3   7   38.61    7.52
   0  -3   7   31.46    6.28
  -1   3  -7   50.73    8.57
   1  -3   7   54.34    6.96
   1  -3   7   33.25    6.76
   1  -3   7   57.98    6.74
   1  -3   7   61.66    8.31
  -2   3  -7  234.95   15.82
   2  -3   7  231.21   14.76
   2  -3   7  231.26   14.81
   2  -3   7  227.83   16.61
   2  -3   7  235.44   15.12
  -3   3  -7    1.26    2.20
   3  -3   7   -0.44    3.35
   3  -3   7    1.41    3.13
   3  -3   7    0.66    2.49
   3  -3   7    0.49    2.48
  -4   3  -7   97.89   11.53
   4  -3   7  106.08   12.44
   4  -3   7   93.69   11.93
   4  -3   7   75.13   10.29
  -3  -2   7  124.42   15.04
  -2  -2   7    1.10    0.62
  -2  -2   7   -1.70    1.99
  -2  -2   7    0.65    0.65
  -2  -2   7    0.73    0.83
  -1  -2   7  106.97    6.37
  -1  -2   7  103.84    5.96
  -1  -2   7  109.89    6.26
  -1  -2   7  132.87   10.76
   0  -2   7   22.42    5.62
   0  -2   7    9.65    2.74
   0  -2   7    9.29    2.45
   0  -2   7    8.15    2.20
  -1   2  -7    3.38    1.40
  -1   2  -7    9.40    1.60
  -1   2  -7    9.48    3.55
   1  -2   7    4.63    2.23
   1  -2   7    3.23    2.89
   1  -2   7   13.79    3.43
   1  -2   7    3.72    3.12
   1  -2   7    6.60    2.15
  -2   2  -7    0.33    1.48
  -2   2  -7    0.90    2.11
  -2   2  -7    2.10    1.81
   2  -2   7    0.05    2.25
   2  -2   7    0.56    2.05
   2  -2   7    5.45    3.01
   2  -2   7    0.83    2.53
  -3   2  -7    7.04    3.19
   3  -2   7    6.80    3.10
   3  -2   7    7.65    3.44
   3  -2   7    5.26    3.30
   3  -2   7    7.15    3.62
  -4   2  -7   15.60    4.15
   4  -2   7   11.37    4.38
   4  -2   7    6.70    4.06
   4  -2   7    9.61    4.21
   4  -2   7    9.37    4.30
   5  -2   7   62.87    9.06
   5  -2   7   48.36    8.46
   5  -2   7   55.64    9.59
  -4  -1   7    5.01    1.67
  -3  -1   7   18.31    2.58
  -2  -1   7    0.78    0.90
  -2  -1   7   -2.46    2.30
  -2  -1   7    0.08    0.70
  -1  -1   7   66.81    4.41
  -1  -1   7   65.13    4.72
  -1  -1   7   55.25    8.11
  -1  -1   7   73.96    4.47
   0  -1   7  172.86    9.34
   0  -1   7  171.19   13.03
   0  -1   7  162.79    8.82
   0  -1   7  147.56    8.46
  -1   1  -7    4.84    1.50
  -1   1  -7    4.89    1.54
   1  -1   7    5.91    2.05
   1  -1   7    4.59    2.37
   1  -1   7    5.52    3.48
   1  -1   7    3.17    1.81
   1  -1   7    7.17    3.52
  -2   1  -7  293.37   13.78
  -2   1  -7  271.06   15.55
   2  -1   7  293.00   15.77
   2  -1   7  288.29   14.98
   2  -1   7  278.39   16.91
   2  -1   7  275.01   17.57
   2  -1   7  289.92   15.54
  -3   1  -7   26.03    4.77
  -3   1  -7   22.95    4.23
   3  -1   7   21.86    4.58
   3  -1   7   20.28    4.93
   3  -1   7   25.23    5.41
   3  -1   7   27.42    6.02
   3  -1   7   21.01    4.93
  -4   1  -7   51.73    6.43
  -4   1  -7   50.89    6.79
   4  -1   7   67.30    9.23
   4  -1   7   56.20    8.15
   4  -1   7   43.45    7.83
   4  -1   7   51.45    7.43
   5  -1   7   14.98    4.87
   5  -1   7   29.81    6.21
   5  -1   7   16.09    4.72
   5  -1   7   20.55    6.53
  -4   0   7    1.74    1.95
  -4   0   7   -0.43    1.38
  -3   0   7  151.08    8.82
  -2   0   7   16.92    2.99
  -2   0   7   18.23    3.27
  -1   0   7    5.03    1.81
  -1   0   7   11.60    4.21
  -1   0   7    5.32    1.61
  -1   0   7    6.75    1.99
   0   0   7   -0.35    1.36
   0   0   7   -0.27    0.93
   0   0   7    0.26    1.05
   0   0   7    0.62    2.45
   0   0   7   -0.21    2.53
  -1   0  -7   18.91    2.80
   1   0   7   12.22    2.96
   1   0   7   20.14    3.41
   1   0   7   18.10    3.69
   1   0   7   16.77    5.13
   1   0   7   23.29    5.12
   2   0   7    6.14    2.32
   2   0   7   13.92    3.57
   2   0   7    9.41    4.18
   2   0   7    5.19    2.62
   2   0   7    7.32    2.47
  -3   0  -7   13.03    3.39
   3   0   7   12.88    3.57
   3   0   7   14.14    3.94
   3   0   7   23.70    5.88
   3   0   7   17.41    4.21
   3   0   7   27.81    5.41
  -4   0  -7    4.70    2.66
   4   0   7    0.42    2.34
   4   0   7    7.90    3.15
   4   0   7    8.97    3.83
   4   0   7   10.98    4.50
  -5   0  -7  110.50   11.03
   5   0   7  108.51   11.85
   5   0   7  120.05    9.13
   5   0   7  138.57   11.42
   5   0   7  112.68   13.47
  -6   0  -7   -0.19    2.73
   6   0   7   -0.11    2.97
  -4   1   7    3.33    2.86
  -4   1   7   10.49    3.17
  -3   1   7   72.22    7.91
  -2   1   7   43.78    5.63
  -1   1   7   18.09    3.59
  -1   1   7   23.53    6.20
  -1   1   7   16.66    3.57
  -1   1   7   31.39    4.47
   0  -1  -7  340.04   13.62
   0   1   7  342.14   16.20
   0   1   7  356.27   16.54
   0   1   7  355.69   20.20
   0   1   7  337.75   18.59
   0   1   7  338.14   15.71
  -1  -1  -7   33.66    4.00
   1   1   7   26.57    4.26
   1   1   7   37.06    5.10
   1   1   7   25.55    4.32
   1   1   7   40.90    5.77
   1   1   7   35.36    7.27
  -2  -1  -7  217.37   11.72
   2   1   7  209.46   12.20
   2   1   7  203.92   12.86
   2   1   7  215.62   15.05
   2   1   7  218.31   12.50
   2   1   7  202.31   11.78
  -3  -1  -7   33.55    4.94
   3   1   7   30.14    5.33
   3   1   7   38.28    5.99
   3   1   7   33.03    5.65
   3   1   7   25.22    5.85
  -4  -1  -7   -1.21    1.83
   4   1   7    0.53    2.67
   4   1   7    7.40    3.01
   4   1   7    3.08    2.20
   4   1   7    2.50    2.90
  -5  -1  -7    1.57    2.22
   5   1   7    8.40    2.95
   5   1   7   13.06    4.72
   5   1   7    3.50    3.42
   5   1   7    3.99    3.11
  -6  -1  -7   10.87    4.30
   6   1   7   23.21    6.28
  -3   2   7   42.75    6.90
  -2   2   7    5.15    2.75
   1  -2  -7    8.97    1.70
  -1   2   7    5.46    4.02
  -1   2   7    7.27    3.06
  -1   2   7    9.37    3.41
   0  -2  -7    9.19    2.28
   0   2   7    4.28    2.24
   0   2   7    4.81    2.33
   0   2   7    4.19    3.37
   0   2   7    9.18    3.00
  -1  -2  -7    4.96    2.01
   1   2   7    3.45    2.30
   1   2   7    3.22    2.40
   1   2   7    4.39    3.83
   1   2   7    3.01    2.01
  -2  -2  -7   33.57    5.40
   2   2   7   41.23    5.68
   2   2   7   30.88    5.55
   2   2   7   33.26    6.83
   2   2   7   39.38    5.15
  -3  -2  -7   69.96    7.62
   3   2   7   66.59    9.01
   3   2   7   76.97   10.16
   3   2   7   68.91    8.13
   3   2   7   68.94    4.70
  -4  -2  -7   -2.75    1.49
   4   2   7    1.35    2.90
   4   2   7    0.41    2.02
  -5  -2  -7  156.80   12.20
   5   2   7  186.72   13.53
   5   2   7  190.77   14.95
  -6  -2  -7   21.01    5.62
   6   2   7   29.36    7.47
   6   2   7   25.52    6.12
  -3   3   7   16.09    5.03
  -2   3   7  104.23   11.13
  -1   3   7    2.82    2.54
  -1   3   7    3.86    3.84
   0   3   7  223.55   14.82
   0   3   7  272.41   17.43
   0   3   7  244.33   14.36
  -1  -3  -7   69.30    7.21
   1   3   7   53.17    7.54
   1   3   7   71.92   10.52
   1   3   7   60.26    7.42
  -2  -3  -7   76.91    8.74
   2   3   7   76.57    8.48
   2   3   7   74.86    9.14
   2   3   7   74.78   10.10
  -3  -3  -7   20.11    4.89
   3   3   7   30.54    3.64
   3   3   7   23.77    5.68
   3   3   7   34.35    7.12
  -4  -3  -7   20.95    4.79
   4   3   7   21.37    5.98
   4   3   7   21.43    5.85
  -5  -3  -7   -1.05    2.18
   5   3   7    2.09    2.89
   5   3   7    0.26    2.52
  -6  -3  -7    2.76    3.07
   6   3   7    3.30    3.62
   6   3   7    0.87    2.98
  -2   4   7    0.16    2.70
  -2   4   7    6.57    4.75
  -1   4   7   -0.78    2.60
  -1   4   7    1.18    2.81
   0  -4  -7   31.79    7.34
   0  -4  -7   34.72    5.72
   0   4   7   26.72    6.62
   0   4   7   24.16    6.08
  -1  -4  -7   16.01    3.97
   1   4   7   19.50    5.34
   1   4   7   11.18    4.97
  -2  -4  -7    5.52    3.26
   2   4   7    3.23    2.79
   2   4   7    4.66    3.59
  -3  -4  -7  153.72   12.69
   3   4   7  158.47   12.61
   3   4   7  171.81   13.29
  -4  -4  -7    7.85    3.79
   4   4   7    3.52    2.99
   4   4   7   10.20    4.34
  -5  -4  -7  110.46   12.33
   5   4   7  120.93   13.50
   5   4   7  104.94   12.66
  -1   5   7   56.94   10.29
  -1   5   7   27.81    7.85
   0  -5  -7   99.92   10.99
   0   5   7   74.88   11.32
   0   5   7   58.78    9.54
  -1  -5  -7   42.74    6.91
  -1  -5  -7   25.98    5.77
   1   5   7   37.79    8.07
   1   5   7   38.00    7.91
  -2  -5  -7    0.16    2.42
   2   5   7    2.76    3.50
   2   5   7    0.68    2.58
  -3  -5  -7    2.31    2.62
   3   5   7    3.24    3.22
   3   5   7    1.87    3.01
  -4  -5  -7    9.55    5.17
   4   5   7   11.75    4.58
   4   5   7    7.97    4.40
  -5  -5  -7    4.83    4.35
   5   5   7    5.33    3.92
   5   5   7    1.47    3.48
   0  -6  -7   28.68    6.84
   0   6   7    8.35    5.30
   0   6   7   12.68    5.34
  -1  -6  -7   57.75    9.56
   1   6   7   41.65    8.41
   1   6   7   40.95    7.98
  -2  -6  -7    4.85    3.40
  -2  -6  -7    1.69    3.68
   2   6   7    0.12    3.18
   2   6   7    5.30    3.88
  -3  -6  -7  136.16   14.68
   3   6   7  136.01   11.65
   3   6   7  139.90   16.13
  -4  -6  -7   34.38    7.45
   4   6   7   52.63   10.34
   4   6   7   42.79    7.82
  -1  -4   8   34.13    4.72
  -1  -4   8   20.37    4.15
   0  -4   8   26.05    4.52
   0  -4   8   20.07    4.61
   1  -4   8  149.68   11.35
   1  -4   8  154.68   12.02
   2  -4   8    1.03    3.76
   2  -4   8    3.17    3.08
  -2  -3   8    8.06    1.65
  -2  -3   8    5.89    4.02
  -1  -3   8    3.37    1.74
  -1  -3   8    3.50    3.63
  -1  -3   8    2.74    1.76
  -1  -3   8    2.60    4.02
   0  -3   8   16.95    3.77
   0  -3   8   16.60    5.63
   0  -3   8   13.40    3.39
   0  -3   8   16.65    5.09
  -1   3  -8   47.17    8.71
   1  -3   8   45.84    7.98
   1  -3   8   35.45    5.75
   1  -3   8   43.53    8.70
   1  -3   8   40.67    6.55
  -2   3  -8    3.67    2.82
   2  -3   8    2.17    2.83
   2  -3   8    1.99    3.16
   2  -3   8   -2.43    3.04
   2  -3   8    0.22    2.43
  -3   3  -8   47.71    8.50
   3  -3   8   34.90    7.15
   3  -3   8   20.15    5.51
   3  -3   8   23.33    6.28
  -3  -2   8    5.62    4.18
  -2  -2   8   34.00    7.08
  -2  -2   8   34.70    2.83
  -1  -2   8  130.68    7.17
  -1  -2   8  131.32    7.62
  -1  -2   8  117.31   11.20
   0  -2   8    1.76    1.97
   0  -2   8   -0.49    2.55
   0  -2   8    1.61    1.50
   1  -2   8  121.64   11.47
   1  -2   8  119.04   13.25
   1  -2   8  135.99    9.39
   1  -2   8  133.41    9.65
  -2   2  -8   10.71    3.69
   2  -2   8    7.89    3.64
   2  -2   8    6.25    4.11
   2  -2   8   16.90    5.14
   2  -2   8   10.17    3.89
  -3   2  -8   11.48    3.90
   3  -2   8    9.41    4.42
   3  -2   8   13.58    5.16
   3  -2   8   13.15    4.52
   3  -2   8   16.10    4.72
  -4   2  -8   -0.55    1.98
   4  -2   8    3.67    3.85
   4  -2   8   -1.08    2.50
   4  -2   8    5.82    3.72
   4  -2   8    0.20    2.90
  -3  -1   8    6.62    5.02
  -2  -1   8    2.54    3.10
  -2  -1   8    0.07    1.17
  -1  -1   8   42.69    4.73
  -1  -1   8   41.22    4.10
  -1  -1   8   39.97    7.79
  -1  -1   8   46.19    3.86
   0  -1   8   10.60    2.55
   0  -1   8   14.42    3.20
   0  -1   8   14.70    5.26
   0  -1   8   12.63    2.61
   1  -1   8   78.13    6.40
   1  -1   8   81.49   11.14
   1  -1   8   70.30    7.02
   1  -1   8   82.00    8.34
  -2   1  -8   55.52    7.58
   2  -1   8   47.02    6.98
   2  -1   8   58.76    6.87
   2  -1   8   75.20   10.89
  -3   1  -8    7.31    3.04
   3  -1   8    2.21    2.79
   3  -1   8   -2.38    2.62
   3  -1   8    6.09    3.20
   3  -1   8    3.23    2.74
  -4   1  -8  212.27   12.97
   4  -1   8  220.13   15.06
   4  -1   8  242.32   16.21
   4  -1   8  226.48   15.28
   4  -1   8  194.25   15.87
   5  -1   8    2.93    3.56
   5  -1   8    1.09    3.40
   5  -1   8    5.10    3.83
   5  -1   8    3.83    3.41
  -3   0   8   37.40    5.17
  -2   0   8    5.68    2.06
  -2   0   8    5.34    4.73
  -1   0   8  178.37    9.73
  -1   0   8  189.16    9.54
  -1   0   8  182.41   14.35
   0   0   8   25.67    6.45
   0   0   8   25.72    4.13
   0   0   8   33.08    4.15
  -1   0  -8   87.43    5.20
   1   0   8   95.06   11.55
   1   0   8  100.09    7.39
   1   0   8   98.08   11.76
   1   0   8   96.72    7.19
   1   0   8   83.91    7.36
  -2   0  -8    3.51    1.96
   2   0   8    0.49    2.21
   2   0   8   -0.86    1.88
   2   0   8    1.96    1.89
   2   0   8    2.26    3.13
   2   0   8    3.05    2.16
  -3   0  -8    7.66    2.85
   3   0   8    6.29    2.75
   3   0   8    4.97    2.76
   3   0   8    2.70    3.19
   3   0   8    6.36    3.80
  -4   0  -8    5.97    2.77
   4   0   8    2.92    2.76
   4   0   8    6.06    3.84
   4   0   8   13.74    5.19
   4   0   8    0.62    2.10
   5   0   8    4.39    3.45
   5   0   8    9.50    4.77
   5   0   8    5.38    3.70
   5   0   8   11.68    4.14
  -3   1   8    6.94    3.03
  -2   1   8    0.85    3.70
  -2   1   8    3.22    2.30
  -1   1   8   61.01    6.66
  -1   1   8   57.29    9.37
   0   1   8    2.15    1.71
   0   1   8   -0.05    2.45
   0   1   8    2.39    1.72
  -1  -1  -8   19.63    3.06
   1   1   8   17.85    3.73
   1   1   8   23.64    5.38
   1   1   8   27.51    6.71
   1   1   8   24.31    4.36
   1   1   8   16.36    3.80
   2   1   8  204.86   12.94
   2   1   8  165.12   14.46
   2   1   8  204.03   12.26
   2   1   8  186.58   11.94
   2   1   8  194.58   12.00
  -3  -1  -8    1.29    2.18
   3   1   8    1.45    2.17
   3   1   8    0.63    2.35
   3   1   8    2.33    2.62
   3   1   8   -0.13    2.85
  -4  -1  -8  200.77   13.13
   4   1   8  201.08   14.67
   4   1   8  202.94   13.10
   4   1   8  229.62   14.88
   4   1   8  213.10   16.27
  -5  -1  -8   27.28    5.89
   5   1   8   45.44    8.94
   5   1   8   43.69    8.32
   5   1   8   17.28    5.33
   6   1   8   10.54    5.25
   6   1   8    5.07    4.21
  -3   2   8   98.40   10.54
  -2   2   8   23.64    7.98
  -2   2   8   19.19    4.78
  -1   2   8  111.24    9.09
  -1   2   8  101.85   12.70
   0  -2  -8    9.46    2.10
   0   2   8    4.76    2.64
   0   2   8   12.13    5.06
  -1  -2  -8    9.86    2.64
   1   2   8   10.78    5.47
   1   2   8    2.36    2.14
   1   2   8   11.02    3.42
  -2  -2  -8    5.94    2.80
   2   2   8    0.94    2.01
   2   2   8    2.77    2.65
   2   2   8   -1.36    3.16
   2   2   8    1.29    2.24
  -3  -2  -8    6.67    3.05
   3   2   8   15.09    4.70
   3   2   8   15.56    5.39
   3   2   8    8.52    2.49
  -4  -2  -8   15.12    4.04
   4   2   8   33.14    7.61
   4   2   8   16.87    4.72
  -5  -2  -8   12.16    4.01
   5   2   8   11.10    4.93
   5   2   8   13.55    4.77
  -6  -2  -8    3.12    3.40
   6   2   8    3.59    3.89
   6   2   8    4.06    4.70
  -2   3   8    0.19    3.66
  -2   3   8   -1.35    1.84
  -1   3   8   49.92    9.29
  -1   3   8   51.33    8.53
   0   3   8   51.89    7.50
   0   3   8   65.94   10.20
  -1  -3  -8    3.06    2.31
   1   3   8   -0.70    3.10
   1   3   8    5.23    2.72
  -2  -3  -8  184.36   12.05
   2   3   8  211.40   13.86
   2   3   8  181.93   15.21
   2   3   8  178.48   12.43
  -3  -3  -8   26.37    5.78
   3   3   8   31.56    6.34
   3   3   8   47.50    9.14
   3   3   8   41.82    5.89
  -4  -3  -8   58.16    8.00
   4   3   8   49.94    8.93
  -5  -3  -8   37.40    6.75
   5   3   8   21.70    5.69
   5   3   8   29.50    7.45
  -2   4   8   18.51    7.08
  -1   4   8   23.59    6.87
  -1   4   8   33.26    7.97
   0   4   8    7.00    3.82
   0   4   8    2.53    3.60
   1   4   8    1.68    3.52
   1   4   8    5.94    3.68
  -2  -4  -8   13.71    4.09
   2   4   8   10.83    5.16
   2   4   8   14.11    4.81
  -3  -4  -8    0.68    2.56
   3   4   8    1.63    3.38
   3   4   8   -0.33    2.43
  -4  -4  -8   25.27    6.58
   4   4   8   28.75    7.39
   4   4   8   20.29    6.03
  -5  -4  -8   81.07   10.99
   5   4   8   69.65   10.60
   5   4   8   73.03   10.83
   0   5   8   93.55   13.04
   0   5   8  103.43   13.62
   1   5   8    8.67    4.97
   1   5   8    5.24    3.68
   2   5   8   98.12   11.82
   2   5   8  130.81   12.57
  -3  -5  -8   45.48    8.04
   3   5   8   48.34    8.88
   3   5   8   45.88    8.91
  -4  -5  -8   11.41    5.13
   4   5   8    5.49    4.02
   4   5   8   11.09    5.08
   2   6   8   18.62    6.01
   2   6   8   26.02    7.10
  -1  -3   9    4.09    2.22
  -1  -3   9    3.10    3.76
  -1  -3   9    2.52    1.88
   0  -3   9   29.81    5.10
   0  -3   9   25.61    4.64
   0  -3   9   32.26    7.58
   1  -3   9    0.07    2.55
   1  -3   9    3.90    2.71
   1  -3   9    4.54    4.03
  -2   3  -9   -1.63    2.25
   2  -3   9    1.56    3.37
   2  -3   9    0.33    3.42
   2  -3   9    0.38    3.76
  -1  -2   9   12.11    4.87
  -1  -2   9    4.95    2.27
  -1  -2   9    5.28    1.82
   0  -2   9   61.01    6.27
   0  -2   9   88.32   11.72
   0  -2   9   64.31    7.13
   1  -2   9   48.06    8.80
   1  -2   9   64.30    7.24
   1  -2   9   54.87    7.24
   1  -2   9   76.74   11.75
   2  -2   9   10.35    3.97
   2  -2   9    3.24    3.15
   2  -2   9    6.80    4.68
   2  -2   9    4.79    4.38
  -3   2  -9  138.20   11.94
   3  -2   9  133.82   15.16
   3  -2   9  154.05   14.23
   3  -2   9  146.88   12.57
   3  -2   9  145.04   12.07
   4  -2   9   -1.33    3.14
   4  -2   9    1.72    4.24
   4  -2   9    0.92    3.17
  -2  -1   9   66.48    4.88
  -2  -1   9   61.96   10.13
  -1  -1   9    1.64    3.56
  -1  -1   9    5.61    2.23
   0  -1   9    5.25    4.08
   0  -1   9    1.76    2.02
   0  -1   9    5.18    2.10
   1  -1   9   -1.68    3.02
   1  -1   9    7.44    3.11
   1  -1   9    5.63    2.39
   2  -1   9    5.20    4.16
   2  -1   9    3.23    2.40
   2  -1   9    6.20    3.45
   3  -1   9   41.07    7.30
   3  -1   9   47.09    7.06
   3  -1   9   47.12    8.72
   3  -1   9   70.83   11.03
   4  -1   9    0.40    3.59
   4  -1   9    2.05    3.42
   4  -1   9    2.61    4.04
   4  -1   9    3.11    3.31
  -2   0   9   81.51    6.24
  -2   0   9  106.05   14.70
  -1   0   9   26.68    6.44
  -1   0   9   30.60    4.40
   0   0   9   22.14    4.19
   0   0   9   47.05    9.01
   1   0   9  164.59   14.58
   1   0   9  151.89   10.03
   1   0   9  167.32   11.00
   2   0   9    3.75    3.83
   2   0   9    3.96    2.80
   2   0   9    6.17    2.79
   3   0   9   97.16   10.66
   3   0   9  125.64   15.15
   3   0   9  102.77   10.19
   4   0   9   12.73    4.27
   4   0   9   17.41    5.27
   4   0   9    5.95    4.03
   4   0   9   12.62    5.86
   5   0   9   -3.33    3.31
   5   0   9    4.76    4.18
   5   0   9    0.59    3.59
  -2   1   9   13.92    5.90
  -2   1   9   12.38    3.74
  -1   1   9   -0.30    2.72
  -1   1   9    2.01    2.01
   0   1   9    0.24    1.80
   0   1   9    1.70    3.18
   1   1   9   56.88    9.93
   1   1   9   48.81    6.66
   2   1   9    7.18    3.17
   2   1   9    1.98    4.14
   2   1   9    2.10    3.01
   3   1   9   90.51   10.72
   3   1   9  103.29   10.39
   3   1   9  119.59   15.02
   4   1   9   35.44    6.48
   4   1   9   41.89    8.84
   4   1   9   13.28    4.83
   4   1   9   35.81    6.66
   5   1   9    6.77    4.16
   5   1   9    0.94    3.68
   5   1   9    1.64    3.11
  -2   2   9   66.11    9.17
  -2   2   9   62.97   11.98
  -1   2   9   59.08    7.68
  -1   2   9   61.32   10.84
   0   2   9    3.48    3.67
   0   2   9    0.67    2.08
   1   2   9  155.81   11.17
   1   2   9  158.93   15.05
   2   2   9   48.22    7.07
   2   2   9   45.71    9.59
   2   2   9   49.30    7.30
   3   2   9   21.83    5.65
   3   2   9   28.82    8.19
   4   2   9    8.83    3.83
   4   2   9   19.19    6.58
   5   2   9    6.21    4.91
   5   2   9    4.26    3.43
  -1   3   9    6.22    4.00
  -1   3   9    5.14    4.69
   0   3   9    6.15    3.24
   0   3   9    3.73    3.65
   1   3   9   83.51    9.69
   1   3   9   89.06   13.68
   2   3   9    4.80    3.19
   2   3   9    3.14    4.32
   2   3   9   10.98    3.84
   3   3   9   46.05    8.18
   3   3   9   38.31    9.16
   4   3   9  111.92   13.43
   4   3   9  153.41   17.21
   5   3   9    3.52    4.66
   5   3   9    7.36    4.24
  -1   4   9   63.64    9.88
  -1   4   9   75.60   12.24
   0   4   9   23.23    7.41
   0   4   9   12.90    4.91
   1   4   9   63.19   11.41
   1   4   9   34.31    6.57
   2   4   9   25.65    6.70
   2   4   9   22.73    7.31
   3   4   9    2.25    3.87
   3   4   9    0.16    3.00
   4   4   9   10.09    5.10
   4   4   9   18.79    6.93
   5   4   9   -2.78    4.01
   1   5   9   46.09    8.59
   1   5   9   49.95   10.55
   2   5   9   47.70    8.65
   2   5   9   59.28   10.93
   3   5   9   -0.07    3.45
   3   5   9    5.87    5.13
   0  -2  10   38.01    5.81
   0  -2  10   46.66    5.50
   0  -2  10   25.81    7.10
   1  -2  10    8.08    3.08
   1  -2  10    8.08    3.49
   1  -2  10   -2.36    3.25
   2  -2  10   67.11   11.54
   2  -2  10   97.95   11.40
   2  -2  10  103.71   10.66
   3  -2  10    8.28    4.42
  -1  -1  10    5.62    4.58
  -1  -1  10    5.90    2.54
   0  -1  10   79.31   11.97
   0  -1  10   79.82    8.15
   0  -1  10   78.18    7.43
   1  -1  10    8.63    2.85
   1  -1  10   11.46    3.95
   1  -1  10    7.67    4.85
   2  -1  10   20.63    4.62
   2  -1  10   16.39    6.55
   2  -1  10   31.68    6.33
   3  -1  10    0.36    4.59
   3  -1  10    0.73    3.46
   3  -1  10   -0.71    2.77
   3  -1  10    3.28    4.50
   4  -1  10    1.72    4.69
   4  -1  10    6.94    4.24
   4  -1  10    1.52    3.45
  -1   0  10    3.15    2.14
  -1   0  10   -3.18    2.80
   0   0  10  107.13    8.43
   0   0  10   97.35   13.86
   1   0  10    0.82    2.16
   1   0  10    1.38    3.29
   1   0  10   -0.81    1.79
   2   0  10   75.63   12.48
   2   0  10   83.09   10.10
   2   0  10   96.09    9.79
   3   0  10   59.95    8.24
   3   0  10   64.94    9.60
   3   0  10   49.26   10.63
   4   0  10   -4.08    3.23
   4   0  10    0.19    3.05
   4   0  10   -4.94    2.54
   4   0  10    2.10    4.14
  -1   1  10   -0.02    3.05
  -1   1  10    1.23    2.04
   0   1  10   61.26   10.97
   0   1  10   48.16    6.52
   1   1  10   12.85    5.54
   1   1  10   18.99    4.48
   2   1  10    3.11    2.72
   2   1  10    3.89    4.13
   3   1  10    0.31    2.65
   3   1  10    7.08    5.39
   4   1  10   11.46    4.91
   4   1  10   10.31    5.75
   4   1  10   12.19    4.87
  -1   2  10   -0.20    2.21
  -1   2  10   -0.16    4.00
   0   2  10  132.58   17.10
   0   2  10  127.20   10.03
   1   2  10   32.47    8.66
   1   2  10   17.58    4.74
   2   2  10   15.71    6.62
   2   2  10    9.45    3.66
   3   2  10  100.39   14.85
   3   2  10  119.44   12.78
   4   2  10    8.80    6.01
   4   2  10    3.31    3.05
   0   3  10    9.99    4.38
   0   3  10    4.72    4.73
   1   3  10    1.51    4.14
   1   3  10    3.16    2.80
   2   3  10    4.24    3.79
   2   3  10    9.91    5.66
   3   3  10   53.96    8.55
   3   3  10   58.20   12.14
   4   3  10    3.72    3.85
   4   3  10   -0.52    4.36
   1   4  10   91.33   14.51
   1   4  10   73.55    9.78
   2   4  10    0.14    4.21
   2   4  10    2.57    3.65
   3   4  10   83.94   13.69
   3   4  10   67.62   10.51
   4   4  10   25.09    8.13
   4   4  10   15.57    5.94
   1  -1  11   38.35    6.26
   1  -1  11   54.43   10.99
   2  -1  11   44.66   10.43
   2  -1  11   42.66    6.73
   0   0  11    0.14    2.06
   0   0  11    2.03    4.20
   1   0  11    1.05    3.99
   1   0  11    5.75    3.07
   2   0  11   53.77    7.79
   2   0  11   50.41   10.90
   2   0  11   49.95    8.23
   3   0  11    0.58    3.05
   3   0  11   -3.87    3.30
   3   0  11    1.30    3.06
   0   1  11   39.63    9.14
   0   1  11   31.29    5.57
   1   1  11    2.67    4.50
   1   1  11    0.93    2.61
   2   1  11   49.14    7.89
   2   1  11   39.17    9.87
   3   1  11   23.00    5.83
   3   1  11   23.47    7.80
   0   2  11    2.72    4.36
   1   2  11    1.03    4.05
   1   2  11   -1.02    2.02
   2   2  11  129.81   11.38
   2   2  11  123.78   16.94
   3   2  11   13.28    4.65
   3   2  11    7.25    6.14
   1   3  11    3.50    5.59
   1   3  11   11.61    4.67
   2   3  11   10.55    4.91
   2   3  11    4.19    5.16
   3   3  11    3.38    5.64
   3   3  11    5.18    3.73
   0   0   0    0.00    0.00
;
_shelx_hkl_checksum              87853
loop_
_space_group_symop_operation_xyz
'x, y, z'
'-x, -y, -z'
loop_
_atom_site_label
_atom_site_type_symbol
_atom_site_fract_x
_atom_site_fract_y
_atom_site_fract_z
_atom_site_U_iso_or_equiv
_atom_site_adp_type
_atom_site_occupancy
_atom_site_site_symmetry_order
_atom_site_calc_flag
_atom_site_refinement_flags_posn
_atom_site_refinement_flags_adp
_atom_site_refinement_flags_occupancy
_atom_site_disorder_assembly
_atom_site_disorder_group
Cd1 Cd 0.26221(12) 0.26129(10) 0.96134(7) 0.01315(19) Uani 1 1 d . . . . .
Te1 Te 0.34411(10) 0.80840(9) 0.73807(6) 0.01005(17) Uani 1 1 d . . . . .
V1 V 0.1377(3) 0.7084(3) 0.34491(16) 0.0134(3) Uani 1 1 d . . . . .
O1 O 0.2572(13) 0.8892(12) 0.4148(8) 0.0304(17) Uani 1 1 d . . . . .
O2 O 0.000000 0.500000 0.500000 0.037(3) Uani 1 2 d S . P . .
O3 O 0.0960(11) 0.1209(10) 0.7545(7) 0.0173(14) Uani 1 1 d . . . . .
O4 O 0.3901(11) 0.5587(10) 0.2203(6) 0.0160(14) Uani 1 1 d . . . . .
O5 O 0.4407(11) 0.8897(11) 0.9021(6) 0.0183(14) Uani 1 1 d . . . . .
O6 O 0.0840(11) 0.6291(10) 0.8508(7) 0.0164(14) Uani 1 1 d . . . . .
loop_
_atom_site_aniso_label
_atom_site_aniso_U_11
_atom_site_aniso_U_22
_atom_site_aniso_U_33
_atom_site_aniso_U_23
_atom_site_aniso_U_13
_atom_site_aniso_U_12
Cd1 0.0118(4) 0.0095(3) 0.0159(4) -0.0005(2) -0.0032(3) 0.0023(3)
Te1 0.0109(3) 0.0099(3) 0.0092(3) -0.0011(2) -0.0029(2) -0.0008(2)
V1 0.0097(8) 0.0144(8) 0.0122(8) 0.0023(6) -0.0015(6) 0.0021(6)
O1 0.033(4) 0.034(4) 0.029(4) -0.010(3) -0.010(3) -0.007(3)
O2 0.036(6) 0.032(6) 0.029(6) 0.013(5) 0.005(5) -0.010(5)
O3 0.013(3) 0.012(3) 0.024(3) -0.002(3) -0.009(3) 0.010(2)
O4 0.015(3) 0.010(3) 0.019(3) -0.001(2) 0.001(3) -0.001(3)
O5 0.020(3) 0.023(3) 0.014(3) -0.002(3) -0.011(3) 0.003(3)
O6 0.017(3) 0.007(3) 0.024(3) -0.004(2) -0.003(3) -0.001(3)
loop_
_atom_type_symbol
_atom_type_description
_atom_type_scat_dispersion_real
_atom_type_scat_dispersion_imag
_atom_type_scat_source
O O 0.0110 0.0060 'International Tables Vol C Tables 4.2.6.8 and 6.1.1.4'
V V 0.3010 0.5290 'International Tables Vol C Tables 4.2.6.8 and 6.1.1.4'
Cd Cd -0.8080 1.2020 'International Tables Vol C Tables 4.2.6.8 and 6.1.1.4'
Te Te -0.5310 1.6750 'International Tables Vol C Tables 4.2.6.8 and 6.1.1.4'
loop_
_geom_angle_atom_site_label_1
_geom_angle_atom_site_label_2
_geom_angle_atom_site_label_3
_geom_angle
_geom_angle_site_symmetry_1
_geom_angle_site_symmetry_3
O6 Cd1 O5 100.6(2) 2_567 2_667
O6 Cd1 O5 128.2(2) 2_567 1_545
O5 Cd1 O5 71.4(3) 2_667 1_545
O6 Cd1 O6 77.9(2) 2_567 .
O5 Cd1 O6 139.4(2) 2_667 .
O5 Cd1 O6 140.6(2) 1_545 .
O6 Cd1 O4 137.7(2) 2_567 2_666
O5 Cd1 O4 85.2(2) 2_667 2_666
O5 Cd1 O4 93.6(2) 1_545 2_666
O6 Cd1 O4 71.5(2) . 2_666
O6 Cd1 O3 107.4(2) 2_567 .
O5 Cd1 O3 136.2(2) 2_667 .
O5 Cd1 O3 64.88(19) 1_545 .
O6 Cd1 O3 80.13(19) . .
O4 Cd1 O3 95.4(2) 2_666 .
O5 Te1 O6 99.0(3) . .
O5 Te1 O3 84.6(2) . 1_565
O6 Te1 O3 93.0(2) . 1_565
O5 Te1 O4 84.9(2) . 2_666
O6 Te1 O4 81.2(2) . 2_666
O3 Te1 O4 167.1(2) 1_565 2_666
O1 V1 O4 107.2(3) . .
O1 V1 O2 108.2(2) . .
O4 V1 O2 108.90(19) . .
O1 V1 O3 108.9(3) . 2_566
O4 V1 O3 110.5(3) . 2_566
O2 V1 O3 112.9(2) . 2_566
V1 O2 V1 180.0 2_566 .
V1 O3 Te1 137.0(4) 2_566 1_545
V1 O3 Cd1 126.4(3) 2_566 .
Te1 O3 Cd1 96.2(2) 1_545 .
V1 O4 Te1 130.3(3) . 2_666
V1 O4 Cd1 124.6(3) . 2_666
Te1 O4 Cd1 94.2(2) 2_666 2_666
Te1 O5 Cd1 136.9(3) . 2_667
Te1 O5 Cd1 113.7(3) . 1_565
Cd1 O5 Cd1 108.6(3) 2_667 1_565
Te1 O6 Cd1 127.8(3) . 2_567
Te1 O6 Cd1 111.4(3) . .
Cd1 O6 Cd1 102.1(2) 2_567 .
loop_
_geom_bond_atom_site_label_1
_geom_bond_atom_site_label_2
_geom_bond_distance
_geom_bond_site_symmetry_2
Cd1 O6 2.204(6) 2_567
Cd1 O5 2.233(5) 2_667
Cd1 O5 2.237(6) 1_545
Cd1 O6 2.313(5) .
Cd1 O4 2.391(5) 2_666
Cd1 O3 2.574(6) .
Te1 O5 1.850(6) .
Te1 O6 1.860(5) .
Te1 O3 2.005(6) 1_565
Te1 O4 2.328(6) 2_666
V1 O1 1.608(7) .
V1 O4 1.688(6) .
V1 O2 1.7692(13) .
V1 O3 1.781(6) 2_566
