#------------------------------------------------------------------------------
#$Date: 2021-02-16 10:47:15 +0200 (Tue, 16 Feb 2021) $
#$Revision: 262001 $
#$URL: file:///home/coder/svn-repositories/cod/cif/1/56/04/1560411.cif $
#------------------------------------------------------------------------------
#
# This file is available in the Crystallography Open Database (COD),
# http://www.crystallography.net/
#
# All data on this site have been placed in the public domain by the
# contributors.
#
data_1560411
loop_
_publ_author_name
'Mesbah, Adel'
'Prakash, Jai'
'Malliakas, Christos D.'
'Leb\`egue, S\'ebastien'
'Badawi, Michael'
'Ibers, James A.'
_publ_section_title
;
 Syntheses, crystal structures, and optical properties of CsBa5Ti2Se9Cl
 and CsBa2Cl5
;
_journal_name_full               'Journal of Solid State Chemistry'
_journal_page_first              258
_journal_page_last               262
_journal_paper_doi               10.1016/j.jssc.2017.05.029
_journal_volume                  253
_journal_year                    2017
_chemical_formula_sum            'Ba5 Cl Cs Se9 Ti2'
_chemical_formula_weight         1661.50
_space_group_crystal_system      tetragonal
_space_group_IT_number           140
_space_group_name_Hall           '-I 4 2c'
_space_group_name_H-M_alt        'I 4/m c m'
_atom_sites_solution_hydrogens   .
_cell_angle_alpha                90
_cell_angle_beta                 90
_cell_angle_gamma                90
_cell_formula_units_Z            2
_cell_length_a                   8.7897(2)
_cell_length_b                   8.7897(2)
_cell_length_c                   14.3415(4)
_cell_measurement_reflns_used    7901
_cell_measurement_temperature    100(2)
_cell_measurement_theta_max      29.97
_cell_measurement_theta_min      3.2775
_cell_volume                     1108.01(5)
_computing_structure_refinement  'SHELXL-2014/6 (Sheldrick, 2014)'
_diffrn_ambient_temperature      100(2)
_diffrn_measured_fraction_theta_full 0.993
_diffrn_measured_fraction_theta_max 0.996
_diffrn_measurement_device_type  'bruker apex II'
_diffrn_measurement_method       ' omega and phi scans'
_diffrn_radiation_type           MoK\a
_diffrn_radiation_wavelength     0.71073
_diffrn_reflns_av_R_equivalents  0.0179
_diffrn_reflns_av_unetI/netI     0.0059
_diffrn_reflns_Laue_measured_fraction_full 0.993
_diffrn_reflns_Laue_measured_fraction_max 0.996
_diffrn_reflns_limit_h_max       12
_diffrn_reflns_limit_h_min       -12
_diffrn_reflns_limit_k_max       12
_diffrn_reflns_limit_k_min       -12
_diffrn_reflns_limit_l_max       20
_diffrn_reflns_limit_l_min       -19
_diffrn_reflns_number            10708
_diffrn_reflns_point_group_measured_fraction_full 0.993
_diffrn_reflns_point_group_measured_fraction_max 0.996
_diffrn_reflns_theta_full        25.242
_diffrn_reflns_theta_max         30.046
_diffrn_reflns_theta_min         4.339
_exptl_absorpt_coefficient_mu    25.924
_exptl_absorpt_correction_T_max  0.5239
_exptl_absorpt_correction_T_min  0.1684
_exptl_absorpt_correction_type   numerical
_exptl_absorpt_process_details   'face indexed (SADABS; Sheldrick), 2008'
_exptl_crystal_colour            orange
_exptl_crystal_density_diffrn    4.980
_exptl_crystal_description       needle
_exptl_crystal_F_000             1404
_exptl_crystal_size_max          0.174
_exptl_crystal_size_mid          0.042
_exptl_crystal_size_min          0.035
_refine_diff_density_max         1.841
_refine_diff_density_min         -1.087
_refine_diff_density_rms         0.365
_refine_ls_extinction_coef       0.00148(13)
_refine_ls_extinction_expression Fc^*^=kFc[1+0.001xFc^2^\l^3^/sin(2\q)]^-1/4^
_refine_ls_extinction_method     SHELXL
_refine_ls_goodness_of_fit_ref   1.752
_refine_ls_hydrogen_treatment    undef
_refine_ls_matrix_type           full
_refine_ls_number_parameters     18
_refine_ls_number_reflns         458
_refine_ls_number_restraints     0
_refine_ls_restrained_S_all      1.752
_refine_ls_R_factor_all          0.0194
_refine_ls_R_factor_gt           0.0193
_refine_ls_shift/su_max          0.001
_refine_ls_shift/su_mean         0.000
_refine_ls_structure_factor_coef Fsqd
_refine_ls_weighting_details
'w=1/[\s^2^(Fo^2^)+(0.0260P)^2^] where P=(1.0000Fo^2^+0.0000Fc^2^)'
_refine_ls_weighting_scheme      calc
_refine_ls_wR_factor_gt          0.0513
_refine_ls_wR_factor_ref         0.0514
_reflns_Friedel_coverage         0.000
_reflns_Friedel_fraction_full    .
_reflns_Friedel_fraction_max     .
_reflns_number_gt                454
_reflns_number_total             458
_reflns_threshold_expression     'I > 2\s(I)'
_cod_data_source_file            JSSC-2018-253-258.cif
_cod_data_source_block           sad
_cod_original_cell_volume        1108.01(6)
_cod_database_code               1560411
_shelx_space_group_comment
;
The symmetry employed for this shelxl refinement is uniquely defined
by the following loop, which should always be used as a source of
symmetry information in preference to the above space-group names.
They are only intended as comments.
;
_shelx_estimated_absorpt_t_min   0.093
_shelx_estimated_absorpt_t_max   0.464
_shelxl_version_number           2014/6
_shelx_res_file
;
TITL h in I4/mcm
CELL 0.71073   8.7897   8.7897  14.3415  90.000  90.000  90.000
ZERR    2.00   0.0002   0.0002   0.0004   0.000   0.000   0.000
LATT  2
SYMM -X, -Y, Z
SYMM -Y, X, Z
SYMM Y, -X, Z
SYMM -X, Y, 0.5-Z
SYMM X, -Y, 0.5-Z
SYMM Y, X, 0.5-Z
SYMM -Y, -X, 0.5-Z
SFAC CL TI SE CS BA
UNIT 2 4 18 2 10
TEMP -173.110
SIZE 0.035 0.042 0.174
acta
L.S. 10
BOND
FMAP 2
PLAN 20
omit 0 0 2
omit  1 1 0
eadp se2 cl2
exyz se2 cl2
Eadp Cs2 Ba2
Exyz Cs2 Ba2
WGHT    0.026000    0.000000    0.000000    0.000000    0.000000    1.000000
EXTI    0.001482
FVAR       0.14055
BA1   5    0.158704    0.658704    0.000000    10.25000    0.00880    0.00880 =
         0.00820    0.00000    0.00000   -0.00201
BA2   5    0.000000    0.000000    0.250000    10.06250    0.00952    0.00952 =
         0.02124    0.00000    0.00000    0.00000
CS2   4    0.000000    0.000000    0.250000    10.06250    0.00952    0.00952 =
         0.02124    0.00000    0.00000    0.00000
TI1   2    0.000000    0.500000    0.250000    10.12500    0.01014    0.01014 =
         0.00580    0.00000    0.00000    0.00000
SE1   3    0.649561    0.149561    0.148902    10.50000    0.01862    0.01862 =
         0.00981    0.00126    0.00126   -0.00757
SE2   3    0.000000    0.000000    0.000000    10.06250    0.01005    0.01005 =
         0.02397    0.00000    0.00000    0.00000
CL2   1    0.000000    0.000000    0.000000    10.06250    0.01005    0.01005 =
         0.02397    0.00000    0.00000    0.00000

HKLF 4

REM  h in I4/mcm
REM R1 =  0.0193 for     454 Fo > 4sig(Fo)  and  0.0194 for all     458 data
REM     18 parameters refined using      0 restraints

END

WGHT      0.0260      2.0574

REM Highest difference peak  1.841,  deepest hole -1.087,  1-sigma level  0.365
Q1    1   0.6833  0.1314  0.1807  11.00000  0.05    1.66
Q2    1   0.6591  0.1591  0.1968  10.50000  0.05    1.60
Q3    1   0.0000  0.0000  0.0806  10.25000  0.05    1.50
Q4    1   0.1568  0.6568 -0.0266  10.50000  0.05    1.47
Q5    1   0.0062  0.6831 -0.0657  11.00000  0.05    0.66
Q6    1   0.6821  0.0168  0.1078  11.00000  0.05    0.65
Q7    1   0.0000  0.5000 -0.0644  10.25000  0.05    0.59
Q8    1   0.1499  0.0244  0.3094  11.00000  0.05    0.51
Q9    1   0.1862  0.5060  0.2722  11.00000  0.05    0.49
Q10   1   0.3016  0.6777 -0.0577  11.00000  0.05    0.35
Q11   1   0.0000  0.5000  0.2233  10.25000  0.05    0.34
Q12   1  -0.0346  0.1563  0.0344  11.00000  0.05    0.33
Q13   1   0.6565  0.1565  0.2699  10.50000  0.05    0.30
Q14   1  -0.0189  0.1632  0.0698  11.00000  0.05    0.30
Q15   1   0.8266  0.0371  0.1205  11.00000  0.05    0.28
Q16   1   0.6822  0.3168  0.2379  11.00000  0.05    0.20
Q17   1   0.1620  0.6620 -0.1615  10.50000  0.05    0.15
Q18   1   0.7940  0.1486  0.1960  11.00000  0.05    0.13
Q19   1   0.6596  0.3465  0.1794  11.00000  0.05    0.10
Q20   1   0.0000  0.5000  0.3740  10.25000  0.05    0.09
;
_shelx_res_checksum              30326
_shelx_hkl_file
;
  -1   1   0 -5.0127  0.3675   3
   2   0   0 65.3339  2.1647   3
   0   2   0 61.6030  2.0565   3
  -2   0   0 62.0073  2.1536   3
   0  -2   0 60.7528  2.1008   3
   2   2   0 3455.82   58.07   2
   2  -2   0 3455.82   65.62   3
   2   2   0 3353.30   65.74   3
  -2   2   0 3379.58   61.09   5
  -2  -2   0 3475.98   58.15   2
   2  -2   0 3222.11   57.86   2
  -2   2   0 3431.61   57.96   2
   1   3   0 6574.45  115.72   2
  -1   3   0 6745.06  114.40   2
   3  -1   0 6904.29  115.63   2
   1  -3   0 6643.09  130.33   3
   3  -1   0 6713.23  129.60   3
   1  -3   0 6608.10  114.00   2
  -3   1   0 6729.47  115.24   2
   3   1   0 6705.08  129.32   3
  -3  -1   0 6859.81  115.47   2
  -1  -3   0 6565.89  129.70   3
  -1  -3   0 6586.29  114.76   2
   3   1   0 6776.44  115.29   2
   3  -3   0 4118.27   80.66   3
  -3   3   0 4166.86   66.95   9
   3  -3   0 4240.23   71.31   2
   3   3   0 4136.62   71.44   2
  -3   3   0 4226.53   71.32   2
   3   3   0 4124.45   80.80   3
  -3  -3   0 4089.04   71.48   2
  -3   3   0 4183.09   75.25   5
   0  -4   0 1052.42   18.23   9
   0  -4   0 1079.20   21.96   3
   4   0   0 1084.70   22.05   3
  -4   0   0 1046.08   19.42   2
   0   4   0 1056.09   19.32   2
   0  -4   0 1026.17   19.32   2
   4   0   0 1071.25   19.42   2
  -4   2   0 3931.39   63.17   9
   2   4   0 3911.43   67.44   2
   4   2   0 3978.38   76.45   3
  -4  -2   0 3960.62   63.13   9
   2  -4   0 3973.32   67.26   2
  -4   2   0 3967.34   67.35   2
  -2  -4   0 3840.47   76.28   3
   4  -2   0 3918.85   76.19   3
  -2  -4   0 3805.90   67.35   2
   2  -4   0 3850.77   76.11   3
  -4  -2   0 3872.84   67.50   2
  -2   4   0 3997.30   67.36   2
  -2  -4   0 4005.77   63.29   9
  -4   2   0 3888.72   71.21   5
   4  -2   0 3891.20   67.29   2
   4   2   0 3950.06   67.45   2
  -4   4   0 5826.71   98.43   1
  -4  -4   0 5742.00  111.58   3
  -4   4   0 5679.11   92.44   9
   4   4   0 5800.77   98.72   2
  -4   4   0 5809.54  103.92   5
   4   4   0 5674.56  111.60   3
  -4  -4   0 5850.80   98.83   2
  -4   4   0 5852.21   98.54   2
   4  -4   0 5860.41   98.46   2
   4  -4   0 5758.07   98.49   1
  -4  -4   0 5841.89   98.66   1
   4  -4   0 5556.48  111.31   3
  -4  -4   0 5712.37   92.39   9
   4   4   0 5644.01   98.68   1
  -1   5   0 236.650   5.853   2
  -1  -5   0 240.911   5.938   2
   5   1   0 230.088   6.783   3
  -1  -5   0 231.393   5.560   9
   1   5   0 235.610   5.900   2
  -1  -5   0 229.322   6.630   3
  -5  -1   0 238.081   5.998   2
  -5   1   0 230.408   5.459   9
   5   1   0 229.057   5.909   2
   1  -5   0 233.451   5.850   2
   1  -5   0 229.575   5.580   9
  -5   1   0 230.407   5.922   2
   5  -1   0 240.457   5.909   2
   5  -1   0 234.026   6.743   3
  -1   5   0 238.479   5.791   1
  -5  -1   0 229.420   5.435   9
   1  -5   0 238.558   6.589   3
  -5   3   0 827.614  16.277   2
  -5  -3   0 816.337  16.303   1
  -5  -3   0 822.927  15.242   9
   5   3   0 808.796  18.595   3
   3   5   0 859.574  16.434   1
   3  -5   0 832.208  16.185   2
  -3   5   0 840.694  16.196   1
  -5   3   0 841.247  17.764   5
  -5   3   0 818.271  15.260   9
  -3  -5   0 842.445  15.410   9
   3   5   0 830.713  16.429   2
  -5  -3   0 802.977  16.425   2
  -3  -5   0 806.454  18.483   3
   5  -3   0 837.733  16.252   1
  -3  -5   0 825.642  16.417   2
   5   3   0 815.121  16.383   2
   5  -3   0 832.165  16.257   2
  -3  -5   0 839.339  16.332   1
   5  -3   0 795.455  18.330   3
   3  -5   0 807.117  18.322   3
  -3   5   0 865.313  16.334   2
   3  -5   0 826.387  16.184   1
  -5   5   0 413.233   9.446   1
  -5   5   0 401.644   9.008   9
   5   5   0 374.790  10.766   3
   5  -5   0 409.769   9.485   2
   5   5   0 399.186   9.658   1
  -5  -5   0 380.297   8.784   9
  -5  -5   0 400.525   9.689   2
  -5   5   0 394.935  10.475   5
   5   5   0 416.122   9.724   2
  -5  -5   0 390.669   9.476   1
  -5   5   0 408.945   9.576   2
   5  -5   0 413.052   9.493   1
  -5  -5   0 384.266  10.780   3
   5  -5   0 403.390  10.717   3
   0  -6   0 9525.27  161.94   1
   0  -6   0 9103.88  183.02   3
  -6   0   0 9616.56  151.84   9
   0   6   0 9646.96  162.01   1
   6   0   0 9379.67  183.28   3
  -6   0   0 9700.47  162.17   2
   6   0   0 9768.95  162.06   2
   0  -6   0 9367.20  152.07   9
   0   6   0 9288.69  161.93   2
  -6   0   0 9638.17  162.04   1
   0  -6   0 9589.54  161.98   2
   6   0   0 9999.99  162.17   1
  -6   2   0 77.8024  3.2859   1
  -2  -6   0 82.6507  3.3290   9
   6   2   0 78.4928  3.9211   3
  -6   2   0 77.9634  3.1622   9
  -6   2   0 77.7208  3.9781   5
   6   2   0 85.4204  3.5295   1
   2  -6   0 80.9209  3.3681   2
  -6  -2   0 79.6130  3.4873   2
  -2  -6   0 81.0591  3.8321   3
   2   6   0 97.3773  3.6273   2
   6  -2   0 79.3179  3.3836   2
   6  -2   0 72.3350  3.6774   3
  -2  -6   0 79.3469  3.3787   1
   2  -6   0 76.3357  3.7183   3
   6   2   0 93.2201  3.5935   2
  -6  -2   0 84.2612  3.4586   1
  -6  -2   0 79.8185  3.1707   9
  -2   6   0 79.5896  3.3611   2
   2   6   0 84.6421  3.4563   1
  -2  -6   0 79.0500  3.4496   2
  -2   6   0 80.7115  3.3110   1
  -6   2   0 75.9835  3.3469   2
   2  -6   0 76.3562  3.2394   1
   4  -6   0 266.947   8.276   3
   6  -4   0 270.961   8.302   3
  -6  -4   0 323.401   7.756   1
  -6   4   0 291.797   7.437   1
  -6   4   0 259.678   6.958   9
  -6   4   0 285.469   7.458   2
   6   4   0 262.505   8.514   3
   4   6   0 275.268   7.590   1
  -6  -4   0 269.308   6.963   9
  -4   6   0 297.746   7.589   2
  -4  -6   0 280.281   7.655   2
  -4   6   0 268.027   7.280   1
  -6  -4   0 273.942   7.646   2
   6  -4   0 294.934   7.468   2
  -4  -6   0 268.191   7.017   9
  -6   4   0 265.605   8.314   5
   6   4   0 287.478   7.661   1
   4   6   0 284.042   7.596   2
  -6   4   0 294.124   7.460   1
   6   4   0 292.534   7.703   2
  -4  -6   0 284.156   8.603   3
   4  -6   0 283.620   7.374   2
  -4  -6   0 311.637   7.714   1
  -6   6   0 4524.19   78.22   2
   6   6   0 4404.78   88.68   3
   6  -6   0 4373.80   88.28   3
  -6  -6   0 4409.22   88.40   3
   6  -6   0 4359.25   78.01   2
   6   6   0 4643.74   78.56   2
  -6  -6   0 4605.16   78.55   2
  -6   6   0 4337.11   82.54   5
  -6  -6   0 4504.41   73.44   9
  -6   6   0 4350.31   73.39   9
   7  -1   0 245.389   6.779   2
   1  -7   0 249.975   6.802   2
  -1   7   0 263.855   6.750   1
   1  -7   0 231.879   7.484   3
   7   1   0 235.534   7.672   3
  -7  -1   0 232.956   6.168   9
   7  -1   0 252.471   6.885   1
   1   7   0 256.022   6.839   1
  -1  -7   0 254.341   6.788   1
   1   7   0 246.598   6.787   2
  -1  -7   0 237.003   7.575   3
  -7  -1   0 251.916   6.825   1
   7  -1   0 225.294   7.461   3
   7   1   0 230.858   6.700   2
  -7   1   0 235.679   6.664   1
  -1  -7   0 257.851   6.870   2
  -7   1   0 252.997   6.898   2
  -7   1   0 239.696   6.270   9
  -1  -7   0 233.450   6.400   9
   7   1   0 239.957   6.858   1
  -7  -1   0 248.587   6.893   2
   1  -7   0 261.105   6.818   1
   1  -7   0 237.038   6.446   9
  -1   7   0 242.005   6.690   2
  -7   3   0 4913.80   89.84   5
   7   3   0 4870.68   84.72   2
   7   3   0 4834.17   95.96   3
  -7   3   0 4974.51   84.48   1
   7  -3   0 4958.07   84.64   2
   7  -3   0 4626.83   95.58   3
   3  -7   0 4697.27   95.46   3
  -7   3   0 4977.44   84.71   2
  -7   3   0 4796.10   79.26   9
   3   7   0 4971.03   84.83   2
  -3  -7   0 4687.14   95.65   3
  -3  -7   0 4925.32   84.80   2
  -7  -3   0 4815.22   84.84   2
  -7  -3   0 4835.07   79.27   9
  -3   7   0 4935.32   84.59   2
   3  -7   0 4918.33   84.45   2
  -3  -7   0 4789.86   79.45   9
  -3   7   0 4950.33   84.56   1
   7   5   0 63.4398  3.7786   2
  -7  -5   0 58.7251  3.7192   2
  -7   5   0 59.1656  3.5860   2
   5  -7   0 59.3935  3.4948   2
  -5   7   0 62.4244  3.6283   2
  -5  -7   0 62.3041  3.7552   2
   5   7   0 65.9532  3.9345   2
   7  -5   0 67.6578  3.6990   2
  -5   7   0 72.5017  3.5696   9
   7  -5   0 62.6940  4.0552   3
   5  -7   0 64.1016  3.9955   3
   7   5   0 63.7475  4.2059   3
  -7  -5   0 65.1692  3.4894   9
  -7   5   0 63.4933  4.0793   5
  -5  -7   0 60.3808  3.4369   9
  -7   5   0 60.1577  3.2872   9
  -5  -7   0 63.1039  4.1160   3
   7   7   0 437.411  11.759   2
  -7   7   0 469.179  11.795   2
   7  -7   0 456.875  11.608   2
  -7  -7   0 453.361  11.940   2
  -7   7   0 454.200  11.085   9
  -7  -7   0 472.919  11.172   9
   0  -8   0 1022.14   23.56   3
  -8   0   0 1030.69   21.07   2
   8   0   0 1062.08   21.02   2
   0   8   0 1070.85   21.05   2
  -8   0   0 1031.62   19.45   9
   0  -8   0 1062.33   20.96   2
   8   0   0 1013.73   23.66   3
   0  -8   0 1026.77   19.72   9
   8   0   0 1072.36   21.01   2
   2  -8   0 456.718  11.090   2
  -2  -8   0 465.798  12.565   3
  -8   2   0 470.374  12.625   5
   8  -2   0 458.944  12.564   3
  -2   8   0 470.866  11.143   2
  -8   2   0 476.882  11.264   2
   2   8   0 456.807  11.096   2
  -2  -8   0 453.175  10.525   9
   8   2   0 459.239  11.178   2
  -2  -8   0 475.169  11.240   2
  -8  -2   0 460.508  10.351   9
   8   2   0 458.063  12.713   3
   8  -2   0 460.650  11.099   2
  -8  -2   0 450.225  11.147   2
   2  -8   0 448.426  12.405   3
  -8   2   0 454.687  10.321   9
  -8  -4   0 414.812   9.984   9
  -8  -4   0 434.732  11.107   2
  -8   4   0 418.753  12.113   5
   4  -8   0 419.284  10.609   2
   4   8   0 444.492  11.041   2
  -4  -8   0 423.368  10.921   2
  -4  -8   0 434.110  10.309   9
  -4   8   0 415.542  10.689   2
  -8   4   0 412.319  10.044   9
   8  -4   0 434.122  10.792   2
   8   4   0 433.217  10.991   2
  -8   4   0 433.205  10.850   2
  -8  -6   0 687.720  16.029   2
   6   8   0 714.525  16.131   2
  -8   6   0 677.674  15.830   2
  -8  -6   0 693.326  14.834   9
  -6   8   0 678.995  14.988   9
   8  -6   0 698.529  15.780   2
  -8   6   0 679.564  14.898   9
  -8   6   0 646.480  17.156   5
  -6   8   0 690.503  15.807   2
   8   6   0 707.295  16.129   2
  -6  -8   0 703.810  15.008   9
  -6  -8   0 692.248  16.029   2
   6  -8   0 679.051  15.766   2
  -8   8   0 213.626   7.414   9
   8   8   0 203.196   7.699   2
  -8  -8   0 217.593   7.339   9
  -8   8   0 212.096   7.791   2
   8  -8   0 203.638   7.447   2
  -8  -8   0 209.993   7.778   2
   9   1   0 1369.34   27.05   2
  -9   1   0 1396.67   29.53   5
  -1   9   0 1384.80   26.98   2
  -9  -1   0 1344.48   27.09   2
  -1  -9   0 1371.52   26.92   2
   1  -9   0 1376.55   26.95   2
  -9  -1   0 1372.49   25.16   9
   1   9   0 1381.19   27.11   2
  -1  -9   0 1370.48   25.65   9
  -9   1   0 1364.81   27.15   2
   9   1   0 1362.47   27.01   2
   9  -1   0 1350.28   26.88   2
  -9   3   0 471.841  11.741   2
   9   3   0 455.775  11.553   2
  -9  -3   0 464.153  11.834   2
   3  -9   0 449.587  11.418   2
  -9   3   0 466.343  10.830   9
  -3  -9   0 450.955  10.940   9
  -9  -3   0 470.264  10.837   9
  -3   9   0 444.772  11.501   2
  -9   3   0 435.643  12.776   5
   3   9   0 434.699  11.518   2
  -3  -9   0 443.393  11.577   2
   9  -3   0 431.660  11.394   2
  -9  -5   0 244.776   7.274   9
  -5  -9   0 225.040   7.273   9
  -5  -9   0 236.800   7.940   2
  -5   9   0 228.536   7.644   2
  -9   5   0 227.570   7.653   2
   9  -5   0 215.335   7.449   2
  -5   9   0 215.617   7.217   9
   5   9   0 225.569   7.759   2
   9   5   0 215.453   7.662   2
  -9   5   0 206.232   8.402   5
  -9  -5   0 233.951   8.005   2
   5  -9   0 216.388   7.445   2
  -9   5   0 215.520   7.120   9
  -9  -7   0 1346.65   27.66   2
   9   7   0 1342.93   27.61   2
  -9   7   0 1292.69   25.71   9
   9  -7   0 1291.91   27.08   2
  -7   9   0 1323.76   27.46   2
  -9   7   0 1340.62   27.45   2
  -7   9   0 1294.30   25.83   9
  -9  -7   0 1339.24   25.70   9
   7   9   0 1324.49   27.64   2
  -9   7   0 1293.58   29.61   5
  -7  -9   0 1364.69   25.85   9
   7  -9   0 1326.18   27.34   2
  -7  -9   0 1315.91   27.60   2
  10   0   0 486.814  12.597   2
 -10   0   0 505.676  11.724   9
 -10   0   0 503.749  12.789   2
   0 -10   0 504.083  12.677   2
   0  10   0 513.309  12.746   2
 -10   0   0 509.165  14.191   5
   0 -10   0 522.928  12.320   9
  10  -2   0 1235.60   25.45   2
   2 -10   0 1232.09   25.37   2
  -2  10   0 1214.49   25.45   2
  -2 -10   0 1218.37   25.44   2
 -10   2   0 1232.37   25.56   2
 -10   2   0 1269.01   23.94   9
   2  10   0 1258.52   25.65   2
 -10  -2   0 1256.30   23.80   9
  -2 -10   0 1259.63   24.29   9
 -10  -2   0 1279.41   25.84   2
  10   2   0 1231.46   25.48   2
 -10   2   0 1242.77   28.04   5
  -4  10   0 2111.67   40.97   2
 -10  -4   0 2148.11   41.24   2
   4 -10   0 2060.57   40.73   2
   4  10   0 2138.30   41.12   2
 -10   4   0 2139.56   38.39   9
  -4 -10   0 2160.86   38.65   9
 -10   4   0 2223.45   41.25   2
 -10   4   0 2083.93   44.08   5
  10  -4   0 2158.00   40.93   2
  10   4   0 2156.21   41.06   2
  -4 -10   0 2119.81   41.08   2
 -10  -4   0 2229.93   38.45   9
  -6  10   0 174.003   7.220   2
  10  -6   0 186.641   7.270   2
  10   6   0 178.287   7.290   2
 -10  -6   0 190.969   7.683   2
 -10   6   0 178.894   8.243   5
 -10   6   0 180.440   6.750   9
 -10  -6   0 188.840   6.844   9
  -6  10   0 174.796   6.920   9
   6  10   0 185.362   7.486   2
  -6 -10   0 187.169   7.486   2
   6 -10   0 183.575   7.175   2
  -6 -10   0 189.133   6.956   9
 -10   6   0 195.583   7.556   2
   1 -11   0 330.554   9.881   2
 -11  -1   0 337.268  11.096   5
  -1 -11   0 317.203   9.434   9
 -11   1   0 324.836  11.202   5
 -11  -1   0 321.795  10.091   2
 -11  -1   0 327.083   9.138   9
  -1 -11   0 325.351  10.001   2
   1  11   0 332.592   9.998   2
  11   1   0 318.545   9.800   2
 -11   1   0 323.303  10.000   2
  -1  11   0 313.400   9.772   2
  11  -1   0 310.657   9.755   2
   3 -11   0 2.76590 2.33635   2
 -11   3   0 1.58925 2.57748   5
 -11  -3   0 0.44724 2.20970   2
 -11   3   0 3.19011 2.38514   2
   3  11   0 2.88461 2.40619   2
 -11   3   0 -2.1164  1.8531   9
  -3 -11   0 4.82033 2.46316   2
  11  -3   0 -1.8941  2.1567   2
  -3 -11   0 4.22773 2.33484   9
 -11  -3   0 0.29037 1.96675   9
  11   3   0 -0.3683  2.0645   2
  -3  11   0 -0.1629  2.0748   2
   5  11   0 189.748   7.682   2
  -5 -11   0 198.297   7.344   9
  -5  11   0 179.073   7.193   9
 -11   5   0 193.490   7.167   9
  -5 -11   0 196.170   7.714   2
 -11  -5   0 189.238   7.671   2
   5 -11   0 195.266   7.583   2
  11   5   0 190.466   7.786   2
  11  -5   0 201.283   7.717   2
 -11   5   0 193.975   7.733   2
  -5  11   0 195.715   7.661   2
 -11   5   0 191.704   8.623   5
 -12   0   0 1339.19   30.31   5
 -12   0   0 1309.66   27.69   2
   0  12   0 1343.52   27.86   2
  12   0   0 1248.44   27.38   2
 -12   0   0 1334.64   25.89   9
   0 -12   0 1311.37   27.60   2
  -2 -12   0 99.2274  5.6325   2
 -12   2   0 97.2075  5.1440   9
  -2 -12   0 95.2921  5.3559   9
 -12   2   0 86.7213  6.1660   5
  12  -2   0 89.5387  5.5315   2
 -12  -2   0 95.2870  5.7925   2
   2 -12   0 97.4324  5.6139   2
  12   2   0 95.2943  5.6636   2
  -2  12   0 89.8519  5.4129   2
  12   2   0 97.9896  5.5569   2
 -12  -2   0 95.3589  5.2680   9
   2  12   0 86.4279  5.4463   2
 -12   2   0 98.6189  5.8633   2
   1   0   1 -2.0277  0.3488   3
   1   0   1 -2.4352  0.1889   6
  -1   0  -1 -2.3839  0.2879   3
   0   1  -1 -2.0620  0.2554   3
   0   1   1 -2.4747  0.2954   3
  -1   0   1 -2.6363  0.2674   3
   0  -1   1 -2.5352  0.3031   3
   0  -1  -1 -2.5381  0.2710   3
   0  -1   1 -2.2244  0.2786   3
  -1   0   1 -2.5883  0.2410   6
   1   0  -1 -2.3479  0.2833   3
  -2  -1   1 123.321   3.023   2
  -2  -1   1 123.815   3.409   3
   1  -2   1 124.450   3.326   3
   2  -1  -1 121.915   3.381   3
   1  -2   1 128.903   2.922   2
  -2   1  -1 118.794   3.318   3
  -1   2   1 122.893   2.933   2
   1   2  -1 120.972   3.323   3
   2   1   1 121.980   2.952   2
   1   2  -1 125.361   3.442   3
  -1  -2  -1 117.844   3.398   3
   2   1   1 130.176   3.483   3
   1   2   1 118.183   2.987   2
  -1   2  -1 120.292   3.281   3
   1  -2  -1 122.489   3.333   3
  -2   1   1 124.023   3.348   5
   2  -1   1 126.573   2.955   2
  -1   2  -1 126.597   3.188   5
   2  -1   1 121.104   3.347   3
  -2   1   1 123.665   2.970   2
   2   1  -1 119.580   3.417   3
  -1  -2   1 124.221   3.353   3
  -2   1   1 121.221   3.338   3
  -1  -2   1 120.904   2.992   2
   0  -3   1 0.53206 0.73307   2
   3   0  -1 2.54523 0.76657   2
   0  -3   1 0.54037 0.82176   3
   3   0   1 3.89290 1.04254   3
   0  -3  -1 1.19526 0.77151   2
   3   0  -1 -1.5579  0.7341   3
   3   0   1 0.24496 0.71834   2
   0   3   1 1.11390 0.76157   2
   0  -3  -1 0.48310 0.77075   3
  -2  -3  -1 10.4607  1.2964   2
  -3   2  -1 13.1227  1.3193   2
   2   3  -1 12.4206  1.3348   2
   2  -3   1 13.0781  1.5038   3
  -2   3   1 11.6736  1.2858   2
   2   3  -1 10.7510  1.4567   3
  -2  -3  -1 9.13891 1.41837   3
  -3   2  -1 13.2218  1.5332   5
   3   2   1 14.5303  1.6621   3
   3  -2  -1 12.4403  1.2976   2
   3  -2  -1 12.1424  1.4761   3
  -3  -2   1 12.8890  1.3863   2
   2  -3   1 11.0978  1.2638   2
   3   2   1 13.3113  1.3644   2
  -2   3   1 12.6900  1.5438   5
   3   2  -1 10.7297  1.3060   2
  -3   2   1 11.7845  1.5967   5
   3  -2   1 12.1525  1.4668   3
   3  -2   1 12.7766  1.2913   2
   2   3   1 11.0285  1.3427   2
  -2   3  -1 11.0870  1.4501   5
  -2  -3   1 13.8525  1.4162   2
  -2   3  -1 12.2675  1.2803   2
   3   2  -1 11.5579  1.4717   3
  -2  -3   1 13.8913  1.5650   3
   2  -3  -1 13.8985  1.4228   3
   2  -3  -1 9.53666 1.19852   2
  -3  -2  -1 11.5250  1.3780   2
   4   1   1 189.534   5.583   3
   1  -4   1 188.245   4.750   2
   4  -1  -1 197.352   5.542   3
  -1   4   1 192.896   4.810   2
   1   4  -1 207.455   4.885   2
   4   1   1 196.059   4.835   2
   4  -1  -1 195.193   4.829   2
  -4  -1   1 187.933   4.526   9
  -4  -1   1 199.212   4.944   2
   4  -1  -1 197.256   4.862   2
   1  -4   1 192.328   4.596   9
  -1  -4  -1 196.820   4.865   2
  -4   1  -1 192.723   4.866   2
  -1  -4  -1 200.109   5.561   3
   1  -4   1 188.576   5.384   3
   4   1  -1 195.015   5.582   3
  -1  -4   1 195.778   4.689   9
   1  -4  -1 192.051   5.450   3
   4  -1   1 192.058   5.507   3
  -4  -1  -1 192.602   4.851   2
   1  -4  -1 192.872   4.799   2
   1   4   1 199.910   4.880   2
   4   1  -1 199.079   4.908   2
  -1  -4   1 188.061   4.792   2
  -4   1   1 191.792   5.455   5
  -1   4  -1 197.422   4.796   2
  -1  -4   1 198.133   5.468   3
  -4   1   1 199.662   4.850   2
   4  -1   1 191.890   4.793   2
   3   4  -1 1.41163 1.07126   2
  -3   4   1 0.72662 0.96346   2
  -3   4   1 4.91538 1.42442   5
   3  -4   1 0.63257 0.90724   2
  -3  -4  -1 0.75770 1.01049   1
  -3  -4  -1 2.47464 1.24803   3
  -4  -3   1 0.85179 0.98130   9
  -4   3  -1 5.07976 1.17197   2
   4  -3  -1 1.19193 1.11755   3
   4   3   1 2.90637 1.29774   3
   4   3   1 3.78109 1.16783   2
  -4  -3   1 1.95175 1.07724   2
   3   4  -1 1.45402 1.16135   3
   3   4  -1 2.35299 1.09757   1
   3  -4   1 3.97052 1.24296   3
  -4   3  -1 -0.4870  0.9954   5
  -3  -4  -1 1.12806 1.05903   2
  -4   3  -1 3.75350 0.99546   1
  -4   3  -1 0.68185 0.90651   9
   4  -3  -1 1.58982 1.02869   1
  -3  -4  -1 2.55891 0.97411   9
   4  -3  -1 0.98083 1.00304   2
   3  -4  -1 1.26962 0.91711   1
   4   3  -1 3.58556 1.15290   2
   4   3  -1 -0.3637  1.1135   3
  -4  -3  -1 6.18371 1.22710   2
  -3   4  -1 2.69427 1.23825   5
  -4   3   1 4.80593 1.17820   2
   3  -4  -1 2.18007 1.00349   2
   4   3  -1 0.86745 0.98872   1
  -4  -3  -1 0.43240 0.95617   1
  -3  -4   1 1.08489 1.07024   2
  -3   4  -1 0.98608 0.98626   2
  -3   4  -1 1.33948 0.95926   1
  -3  -4   1 0.14761 1.12219   3
  -4   3   1 1.61369 0.96821   9
   3   4   1 3.33941 1.15739   2
  -4   3   1 4.17876 1.38394   5
   3  -4  -1 2.41339 1.16592   3
   4  -3   1 2.32391 1.02637   2
  -4  -3  -1 2.91918 1.05820   9
  -4   3   1 1.88144 0.44331   6
  -3  -4   1 0.92764 0.99742   9
   4  -3   1 2.11157 1.15334   3
   0  -5   1 -0.4753  1.0345   3
   0   5  -1 -1.1320  0.8418   1
  -5   0   1 0.32581 0.98394   2
   0  -5  -1 -0.4111  0.8384   1
   5   0   1 -1.4187  0.8884   2
  -5   0  -1 0.45073 1.01696   2
   0   5   1 -0.7430  0.9060   2
   0  -5   1 -0.9740  0.8913   9
   5   0  -1 0.13350 0.99076   1
   0  -5  -1 1.26116 1.02808   2
   0  -5  -1 -0.8248  1.0079   3
   0  -5   1 -1.5835  0.8456   2
   5   0   1 0.94333 1.07017   3
   5   0  -1 -0.2526  0.9637   2
   5   0  -1 -0.2076  1.0861   3
  -5   0  -1 0.84484 0.86699   9
  -5   0  -1 -1.2140  0.8684   1
   5   0   1 -1.0152  0.8798   2
   0   5  -1 1.21415 0.98728   2
  -5   0   1 -1.5220  0.8296   9
   0  -5  -1 0.12051 0.94221   9
   5   2   1 88.7874  3.3245   2
   2   5  -1 93.6117  3.4066   2
   5  -2  -1 90.0396  3.7554   3
   2  -5   1 87.5636  3.2481   2
   2   5  -1 91.6711  3.3873   1
   5   2   1 93.1014  3.9575   3
   5  -2  -1 102.971   3.410   2
  -2  -5  -1 89.8427  3.3470   1
  -5  -2   1 88.8708  3.0983   9
   2  -5   1 89.2966  3.6938   3
  -5   2  -1 92.0725  3.2783   2
   5  -2  -1 90.8873  3.3262   1
  -2  -5  -1 91.6630  3.3857   2
  -2   5   1 93.9159  3.3390   2
  -5  -2   1 94.5421  3.4542   2
  -2  -5  -1 89.5320  3.7863   3
  -5   2  -1 89.2241  3.0418   9
  -2  -5  -1 92.0245  3.1843   9
  -5   2  -1 86.7216  3.1895   1
  -5   2   1 90.4924  3.3344   2
   2   5   1 89.9846  3.3892   2
  -5   2   1 87.7912  3.0681   9
  -5  -2  -1 85.0558  3.3681   2
   5   2  -1 91.1212  3.3596   1
  -5   2   1 84.3585  3.8365   5
   5  -2   1 88.6353  3.2404   2
   2  -5  -1 89.3829  3.1951   1
   2  -5  -1 90.7779  3.3226   2
  -5  -2  -1 97.0356  3.3802   1
  -2   5  -1 88.5712  3.1548   1
  -2  -5   1 93.0733  3.3654   2
   5   2  -1 92.9650  3.9531   3
  -2  -5   1 92.4970  3.2863   9
   5   2  -1 92.2073  3.4340   2
  -2  -5   1 96.3723  3.8398   3
  -2   5  -1 91.0605  3.2827   2
  -5  -2  -1 89.3649  2.9955   9
   5  -2   1 92.4254  3.7856   3
   2  -5  -1 86.2827  3.7204   3
  -5   4  -1 157.099   4.777   1
   5  -4  -1 154.346   4.860   1
   5   4   1 156.454   4.957   1
  -5   4  -1 157.319   5.481   5
  -5  -4   1 152.872   4.599   9
   4  -5   1 152.215   4.080   8
  -4   5   1 154.814   4.651   9
   5   4   1 156.074   4.955   2
  -4  -5  -1 158.554   4.944   1
  -4  -5  -1 155.974   5.040   2
  -4  -5  -1 147.152   4.443   9
   4   5  -1 153.782   4.933   1
  -5  -4   1 157.573   5.044   2
   5   4   1 147.690   5.524   3
  -5   4  -1 149.259   4.518   9
   5  -4  -1 153.461   4.776   2
  -4   5   1 157.444   4.778   1
  -5  -4   1 163.808   4.924   1
   4   5  -1 149.211   5.539   3
   4   5  -1 145.083   4.803   2
  -4   5   1 153.203   4.841   2
   4  -5   1 144.625   5.273   3
  -4  -5  -1 146.812   5.441   3
   4  -5   1 151.011   4.736   2
  -5   4  -1 155.753   4.813   2
   5  -4  -1 140.354   5.353   3
  -4   5   1 154.106   5.440   5
  -5  -4  -1 159.622   5.083   2
  -5  -4  -1 152.069   4.459   9
   5   4  -1 156.467   5.700   3
   5  -4   1 150.709   4.745   2
   4   5   1 150.501   4.886   2
   5  -4   1 152.988   5.426   3
   4  -5  -1 155.449   4.812   2
   4  -5  -1 155.869   4.837   1
  -4  -5   1 155.241   5.525   3
   4  -5  -1 152.750   5.436   3
  -4   5  -1 153.764   4.725   1
  -5   4   1 149.122   4.541   9
  -4  -5   1 152.179   4.952   2
   4   5   1 157.653   4.949   1
  -4  -5   1 149.205   4.667   9
  -5   4   1 148.664   5.385   5
  -5   4   1 156.511   4.861   2
  -4   5  -1 152.053   5.284   5
   5   4  -1 156.193   4.961   1
  -4  -5   1 153.084   4.852   1
   5   4  -1 153.121   4.920   2
  -5  -4  -1 151.346   4.842   1
  -4   5  -1 160.095   4.883   2
  -6  -1   1 10.9312  1.6414   1
  -1   6   1 7.30657 1.42524   1
   1  -6   1 12.8748  1.6805   9
  -1  -6  -1 8.31734 1.67244   3
  -6   1  -1 8.32361 1.42605   1
  -1  -6  -1 12.5154  1.6544   1
   6  -1  -1 6.66968 1.46660   2
   6  -1  -1 8.07746 1.54650   1
   6   1   1 9.00872 1.54924   2
  -6   1  -1 11.4154  1.6630   2
   6  -1  -1 8.20923 1.69293   3
   1   6  -1 8.42490 1.50000   2
  -6   1  -1 8.29524 1.29428   9
   1  -6   1 9.65998 1.52455   2
   6   1   1 6.30174 1.64237   3
   1  -6   1 9.75901 1.71043   3
   6  -1  -1 9.27504 1.58693   2
  -1  -6  -1 8.26805 1.54569   2
  -6  -1   1 6.94539 1.51363   2
  -1  -6  -1 10.3669  1.5393   9
  -1   6   1 7.70923 1.44191   2
  -6  -1   1 8.62035 1.42861   9
   1   6  -1 9.30818 1.55662   1
   6   1  -1 7.80427 1.74407   3
  -6   1   1 7.49901 1.38604   9
   1  -6  -1 9.96174 1.56245   2
   1  -6  -1 6.68913 1.35197   1
   6  -1   1 8.46538 1.53311   2
   1   6   1 8.95182 1.51692   1
  -6  -1  -1 7.54105 1.50709   2
   6   1  -1 5.82360 1.41978   2
  -1  -6   1 7.33136 1.49147   2
  -6   1   1 16.1041  1.7940   1
  -6  -1  -1 11.8902  1.6561   1
  -6   1   1 10.4683  1.6333   2
   1  -6  -1 8.78037 1.43138   9
  -1   6  -1 12.2990  1.6424   2
   1  -6  -1 7.95979 1.63824   3
   1   6   1 6.90321 1.43080   2
  -6  -1  -1 8.85923 1.31491   9
   6  -1   1 6.81377 1.62852   3
  -1  -6   1 7.62848 1.42259   9
  -1  -6   1 13.1527  1.8823   3
  -1   6  -1 5.81764 1.37290   1
  -6   1   1 8.38033 1.74038   5
   6   1  -1 12.6538  1.7190   1
  -3  -6  -1 2.30513 1.33416   2
  -6  -3   1 4.49733 1.48450   2
   6  -3  -1 5.76691 1.50666   1
  -3  -6  -1 4.11479 1.47727   3
  -6   3  -1 4.94413 1.45072   2
   3  -6   1 11.0293  1.6924   2
  -3  -6  -1 5.57087 1.39878   9
  -3   6   1 3.26373 1.32270   2
  -3   6   1 7.20316 1.54756   1
  -6   3  -1 5.72251 1.39379   9
   3   6  -1 4.14724 1.37670   1
   3  -6   1 5.90083 1.64736   3
  -6  -3   1 3.09994 1.33960   9
  -6   3  -1 4.67046 1.77832   5
   6  -3  -1 3.42080 1.50296   3
   6  -3  -1 4.60534 1.46647   2
   6   3   1 3.83621 1.63025   3
   3   6  -1 5.31506 1.51172   2
   6   3   1 4.93968 1.47729   2
  -3  -6  -1 5.56382 1.50470   1
  -6   3  -1 6.34365 1.44315   1
  -6  -3   1 6.64052 1.53064   1
  -3   6  -1 4.00780 1.39315   2
   3   6   1 5.89848 1.59775   2
  -6   3   1 6.73917 1.54212   2
  -6  -3  -1 3.46545 1.25858   9
   3  -6  -1 5.01474 1.57507   3
   6   3  -1 6.34609 1.56829   2
  -6  -3  -1 5.86320 1.55109   1
   6   3  -1 13.5150  1.9623   1
   6  -3   1 4.24743 1.57152   3
  -6  -3  -1 5.43616 1.55442   2
  -3   6  -1 8.33803 1.51684   1
   3  -6  -1 7.27117 1.54239   1
  -6   3   1 6.53647 1.49393   1
   3  -6  -1 5.90261 1.45031   2
  -6   3   1 4.98005 1.38532   9
  -3  -6   1 5.56849 1.48900   9
  -3  -6   1 7.43200 1.64116   2
  -6   3   1 5.95219 1.76688   5
   6  -3   1 6.31193 1.57920   2
   6   3  -1 5.92691 1.74406   3
  -3  -6   1 6.25122 1.73187   3
   3   6   1 5.63247 1.51108   1
   6  -5  -1 11.4905  2.0969   3
   6  -5  -1 12.9440  2.0027   2
   5  -6   1 10.7458  2.1064   3
  -5   6   1 9.78109 1.89242   2
  -5   6   1 9.08205 1.74303   9
   5   6  -1 7.91822 1.90872   2
  -6   5  -1 7.80382 2.13587   5
   5   6  -1 8.04362 2.05192   3
  -6   5  -1 10.7501  1.9265   2
   5  -6   1 9.77707 1.84534   2
  -6  -5   1 5.83281 1.68504   9
   5   6  -1 8.06493 1.89856   1
  -6   5  -1 10.1294  1.8275   1
  -6  -5   1 9.06811 1.93654   2
  -5  -6  -1 9.21673 1.94826   2
  -6   5  -1 7.71852 1.67864   9
  -5  -6  -1 15.0996  2.3895   3
  -6  -5   1 9.63316 2.13953   3
  -5  -6  -1 12.2024  2.0301   1
   6   5   1 7.43599 2.08503   3
   6   5   1 9.69927 1.93660   2
  -5  -6  -1 11.0808  1.7942   9
   6  -5  -1 11.3286  1.8748   1
   6  -5   1 9.03998 1.77726   8
  -5   6  -1 6.37356 1.61580   9
   6   5  -1 8.63266 1.89741   1
  -5  -6   1 7.76914 1.63374   9
  -5   6  -1 7.93675 1.72524   1
   5  -6  -1 10.1386  1.8458   2
  -6  -5  -1 9.82387 1.74982   9
   6  -5   1 11.3641  1.9524   2
  -6  -5  -1 12.8437  2.0959   1
  -5   6  -1 8.27864 1.90883   5
   5   6   1 10.3759  1.9576   2
  -6   5   1 8.58715 1.78035   9
  -5   6  -1 8.09416 1.83646   2
   6   5  -1 8.57082 2.09276   3
   5  -6  -1 10.2432  2.0448   3
   6  -5   1 8.77951 2.04665   3
   6   5  -1 8.09504 1.91193   2
   5  -6  -1 10.8599  1.9335   1
  -6   5   1 10.2101  2.3052   5
  -5  -6   1 11.9617  2.0772   2
  -6   5   1 11.3284  1.9084   2
  -6  -5  -1 12.4967  2.1358   2
  -5  -6   1 9.66732 2.11370   3
   0  -7  -1 -0.9146  1.0149   9
   0  -7  -1 -0.7420  1.2964   3
   0   7   1 0.15071 1.17125   2
  -7   0  -1 0.67814 1.12021   9
   0   7  -1 2.37038 1.31312   1
   7   0   1 -0.1606  1.4137   3
   7   0  -1 1.61225 1.30995   2
  -7   0   1 -1.4824  1.0794   9
  -7   0   1 -0.2648  1.2238   2
   0  -7   1 3.83953 1.53587   3
   0  -7  -1 0.06051 1.20175   2
   0  -7   1 1.47248 1.28611   2
   7   0  -1 3.42706 1.58004   3
   0  -7  -1 1.21626 1.24609   1
   7   0  -1 1.94200 1.31502   1
  -7   0  -1 1.89680 1.36235   2
  -7   0  -1 1.50375 1.26869   1
   7   0   1 -0.3574  1.1757   2
   0   7  -1 -0.0072  1.1931   2
   0  -7   1 1.09980 1.27908   9
   7   0   1 -0.1346  1.1736   2
   7   0  -1 2.53844 1.36717   2
  -7   2  -1 169.755   5.547   2
   2  -7   1 167.030   6.136   3
  -2  -7  -1 174.475   5.283   9
  -7  -2   1 181.300   5.348   9
  -7  -2   1 171.445   5.668   2
  -2   7   1 188.515   5.675   2
   7  -2  -1 184.040   5.650   1
  -2  -7  -1 183.390   6.388   3
   7   2   1 174.309   6.473   3
   2  -7   1 175.610   5.495   2
   2   7  -1 173.998   5.609   1
  -2  -7  -1 178.428   5.569   1
   2   7  -1 177.137   5.682   2
  -7   2  -1 176.242   5.497   1
  -7   2  -1 174.826   6.398   5
   7  -2  -1 174.547   5.452   2
   7  -2  -1 174.925   6.323   3
  -7   2  -1 169.361   5.098   9
  -2  -7  -1 183.608   5.705   2
   7   2   1 177.191   5.618   2
   2  -7  -1 172.115   6.251   3
  -7  -2  -1 178.054   5.148   9
   7   2  -1 174.202   6.439   3
   7   2  -1 174.600   5.699   1
   2   7   1 179.091   5.676   2
  -2  -7   1 177.766   6.344   3
  -7   2   1 170.952   6.394   5
   2  -7  -1 183.000   5.626   2
  -7  -2  -1 187.777   5.737   1
  -2   7  -1 179.714   5.611   2
   7   2  -1 180.944   5.707   2
   7  -2   1 165.945   5.429   2
  -7   2   1 177.129   5.656   2
  -2   7  -1 177.324   5.437   1
   2  -7  -1 175.025   5.513   1
  -2  -7   1 178.154   5.434   9
   7  -2   1 165.826   6.203   3
  -7   2   1 178.960   5.283   9
  -7  -2  -1 170.630   5.708   2
  -2  -7   1 173.670   5.578   2
   7   4   1 162.586   6.405   3
  -7   4  -1 155.739   5.473   2
  -7  -4   1 149.177   5.087   9
   7  -4  -1 150.083   5.355   2
  -4  -7  -1 150.696   5.106   9
  -4  -7  -1 150.767   6.119   3
  -7  -4   1 150.645   5.552   2
  -7   4  -1 149.695   5.018   9
  -4  -7  -1 165.572   5.650   2
   7  -4  -1 152.730   6.080   3
  -7   4  -1 148.255   6.070   5
  -7   4  -1 153.402   5.389   1
   7   4   1 148.471   5.463   2
   4  -7   1 171.481   5.510   2
   4   7  -1 153.663   5.448   1
  -4   7   1 169.296   5.551   2
   4  -7   1 154.382   6.018   3
   4   7  -1 168.736   5.715   2
   7  -4   1 146.789   6.016   3
  -4  -7   1 145.909   5.172   9
  -4   7  -1 158.557   5.435   2
  -4   7  -1 161.871   5.440   1
  -4  -7   1 154.514   5.588   2
   7  -4   1 151.270   5.267   2
  -7  -4  -1 149.053   5.475   1
   4   7   1 157.484   5.596   2
  -7  -4  -1 147.887   4.953   9
  -4  -7   1 145.834   6.036   3
  -7   4   1 152.305   5.160   9
  -7  -4  -1 160.530   5.680   2
   4  -7  -1 155.070   5.443   2
   4  -7  -1 154.976   6.075   3
   7   4  -1 152.640   6.340   3
   7   4  -1 162.412   5.710   1
  -7   4   1 150.594   6.109   5
  -7   4   1 155.355   5.375   2
   7   4  -1 156.861   5.627   2
  -6   7   1 8.09808 2.12890   2
   6   7  -1 1.46102 1.81594   2
  -7  -6   1 -0.3081  1.7386   2
   7   6   1 3.19360 1.85663   2
  -7   6  -1 10.3204  2.5536   5
   6  -7   1 6.09037 1.95064   2
  -6  -7  -1 3.19943 1.73366   9
  -6   7   1 4.15498 1.67057   9
  -7   6  -1 2.82799 1.84746   2
   7  -6  -1 1.89084 1.76590   2
  -6  -7  -1 3.69264 2.04963   2
  -7  -6   1 2.15773 1.68342   9
  -7   6  -1 2.57438 1.65151   9
  -7  -6  -1 0.97612 1.64475   9
  -7  -6  -1 1.99052 1.98979   2
   7   6  -1 3.42950 1.93122   2
   7  -6   1 -0.1535  1.6646   2
  -7   6   1 3.23025 1.66203   9
  -6   7  -1 4.10843 2.18463   5
  -6  -7   1 0.12471 1.69120   2
  -6  -7   1 3.41228 1.85569   9
  -6   7  -1 1.20081 1.63966   9
   6  -7  -1 2.39870 1.71393   2
   6   7   1 5.09125 2.03490   2
  -6   7  -1 3.22780 1.86728   2
  -7   6   1 2.01187 1.75989   2
  -7   6   1 2.36610 2.13438   5
   1  -8   1 128.117   4.785   9
  -1  -8  -1 120.353   4.650   9
  -1  -8  -1 139.581   5.074   2
  -1  -8  -1 122.566   5.435   3
   8   1   1 128.433   4.896   2
   1   8  -1 135.176   5.018   2
   8  -1  -1 123.487   5.496   3
   8   1   1 126.496   5.618   3
  -8  -1   1 127.331   4.644   9
  -8  -1   1 129.545   4.985   2
   8  -1  -1 127.942   4.948   2
  -8   1  -1 128.414   4.537   9
   1   8  -1 130.731   4.957   1
  -1   8   1 137.813   5.000   2
   1  -8   1 130.752   5.453   3
   1  -8   1 128.075   4.882   2
  -8   1  -1 132.454   5.019   2
  -8   1  -1 126.663   4.863   1
  -8   1   1 129.484   4.704   9
   8  -1   1 129.336   5.620   3
   1  -8  -1 131.420   4.884   2
  -1   8  -1 139.868   5.088   2
  -8  -1  -1 133.239   4.994   1
  -8  -1  -1 131.779   4.538   9
   8   1  -1 132.012   4.972   2
  -1  -8   1 128.256   4.825   9
  -1   8  -1 137.084   4.931   1
  -1  -8   1 121.703   5.412   3
  -8  -1  -1 125.725   5.016   2
  -8   1   1 131.075   5.026   2
  -1  -8   1 125.675   4.843   2
   8  -1   1 135.216   4.991   2
   8   1  -1 126.457   5.591   3
  -8   1   1 136.130   5.863   5
   1  -8  -1 127.892   5.491   3
   1   8   1 125.800   4.905   2
  -8   3  -1 2.66533 1.64650   1
  -3   8   1 8.69496 2.02251   2
  -8  -3   1 2.08228 1.63599   2
   3   8  -1 4.11592 1.63075   1
  -3  -8  -1 3.59155 1.67151   9
   8  -3  -1 0.96235 1.70974   3
   3   8  -1 0.62959 1.63946   2
  -8   3  -1 3.38466 2.04693   5
  -8   3  -1 2.48676 1.56246   9
   8  -3  -1 3.25467 1.71521   2
  -3  -8  -1 1.03213 1.72217   3
   8   3   1 1.56298 1.61436   2
  -8   3  -1 3.71322 1.74769   2
  -3  -8  -1 3.83777 1.84685   2
   3  -8   1 2.23079 1.90476   3
  -8  -3   1 2.41016 1.60534   9
   3  -8   1 2.59193 1.63390   2
   8   3   1 3.01399 2.15991   3
  -3  -8   1 3.11075 2.04287   3
  -3  -8   1 2.53838 1.70807   2
   3  -8  -1 6.67161 1.83662   2
  -8   3   1 1.56475 1.40162   9
   8   3  -1 1.34899 1.64291   2
   3   8   1 3.59732 1.80538   2
  -3   8  -1 8.59631 1.97475   1
   3  -8  -1 2.50040 1.74199   3
   8   3  -1 3.06743 1.87955   3
   8  -3   1 -0.6671  1.6702   3
  -8  -3  -1 1.73432 1.52361   9
   8  -3   1 3.16229 1.74600   2
  -8  -3  -1 4.32313 1.84707   2
  -3   8  -1 1.60023 1.63606   2
  -8   3   1 2.12952 1.99169   5
  -3  -8   1 1.98594 1.52043   9
  -8   3   1 2.57686 1.65729   2
   5  -8   1 115.598   5.075   2
  -5   8   1 126.710   4.975   9
  -8   5  -1 121.738   5.224   2
  -5  -8  -1 117.920   4.892   9
  -8  -5   1 120.505   5.324   2
  -5   8   1 109.360   5.013   2
   8  -5  -1 127.961   5.318   2
  -8  -5   1 120.683   4.909   9
  -8   5  -1 117.011   5.801   5
  -8   5  -1 121.078   4.759   9
  -5  -8  -1 123.291   5.332   2
   5   8  -1 124.580   5.357   2
   8   5   1 125.155   5.332   2
  -8   5   1 122.546   5.160   2
  -8  -5  -1 125.612   4.854   9
  -8   5   1 121.325   4.972   9
   5  -8  -1 124.764   5.285   2
  -5   8  -1 111.550   5.097   2
   8  -5   1 129.580   5.297   8
   5   8   1 116.428   5.203   2
   8   5  -1 118.340   5.310   2
  -5   8  -1 118.018   5.001   9
   8  -5   1 130.505   5.302   2
  -5  -8   1 112.923   5.201   2
  -8   5   1 109.205   5.610   5
  -8  -5  -1 117.686   5.424   2
  -5  -8   1 118.550   5.005   9
  -7  -8  -1 139.990   5.608   9
  -7   8   1 145.007   6.066   2
  -8   7  -1 157.635   5.936   9
  -8  -7   1 153.311   5.879   9
   8  -7  -1 144.838   6.028   2
   8   7   1 140.548   6.052   2
  -7   8   1 143.084   5.734   9
   7   8  -1 135.778   6.124   2
  -8  -7   1 143.520   6.229   2
  -8   7  -1 145.543   6.814   5
   7  -8   1 143.339   5.981   2
  -7  -8  -1 141.550   6.174   2
  -8   7   1 141.948   5.744   9
  -7  -8   1 149.964   5.892   9
   7   8   1 140.423   6.095   2
   8  -7   1 136.365   5.885   2
  -8  -7  -1 150.947   6.415   2
  -7  -8   1 131.004   5.993   2
   7  -8  -1 143.320   6.107   2
   8   7  -1 143.538   6.213   2
  -8   7   1 143.229   6.013   2
  -8  -7  -1 151.367   5.722   9
  -7   8  -1 142.992   5.789   9
   9   0  -1 1.58371 1.69224   2
   9   0   1 0.43487 1.61865   2
  -9   0   1 3.65551 1.79791   2
  -9   0   1 2.10852 2.09045   5
  -9   0  -1 -1.3444  1.3546   9
  -9   0   1 0.12778 1.54442   9
  -9   0  -1 -0.3705  1.6343   2
   0  -9  -1 1.03219 1.49790   9
   9   0  -1 -0.8393  1.5822   2
   0  -9   1 -0.3837  1.5256   2
   0  -9  -1 1.44497 1.67780   2
   0   9   1 1.30482 1.66197   2
   0   9  -1 1.50348 1.79762   2
   0  -9   1 1.41912 1.67132   9
  -9   2  -1 3.98548 2.09123   5
   9   2   1 4.17371 1.89233   2
   2  -9   1 0.02883 1.64834   2
  -9   2  -1 4.71210 1.96400   2
  -2  -9  -1 2.87266 1.90542   2
  -2   9   1 1.74812 1.69942   2
  -9  -2   1 4.69346 1.82507   9
   9  -2  -1 2.61302 1.83753   2
  -9   2  -1 4.65246 1.78630   9
  -9  -2   1 2.54014 1.82287   2
  -2  -9  -1 4.45017 1.85789   9
   2   9  -1 3.71577 1.94248   2
   9  -2   1 1.23527 1.68998   2
   9   2  -1 1.10184 1.77265   2
  -2  -9   1 2.92598 1.89988   2
   2  -9  -1 2.83988 1.93635   2
  -9  -2  -1 3.99247 1.96252   2
  -9   2   1 5.61697 2.40524   5
  -9   2   1 1.79172 1.66870   9
  -2  -9   1 2.32618 1.79145   9
  -9   2   1 8.51146 2.18250   2
  -9  -2  -1 -0.7098  1.5294   9
  -2   9  -1 3.31417 1.84927   2
   2   9   1 0.57077 1.73800   2
   9  -4  -1 1.36200 1.97260   2
   9   4   1 4.45819 2.07780   2
  -9  -4   1 1.65249 1.81731   9
   4   9  -1 3.90841 2.10348   2
  -4  -9  -1 10.8406  2.2864   9
   4  -9   1 1.10509 1.88918   2
  -9   4  -1 2.31193 1.81759   9
  -9   4  -1 1.45609 2.22283   5
  -9   4  -1 -0.0658  1.8974   2
  -9  -4   1 2.69857 2.06029   2
  -4   9   1 3.30104 1.99049   2
  -4  -9  -1 5.90314 2.17225   2
  -9  -4  -1 2.88854 1.76817   9
  -4   9  -1 3.66979 2.04136   2
   4   9   1 3.02373 2.02439   2
   9  -4   1 2.22723 1.84634   2
  -4  -9   1 3.58827 2.16282   2
  -9  -4  -1 1.99063 2.06183   2
  -4  -9   1 3.46075 1.96438   9
  -9   4   1 3.83909 1.92563   9
   4  -9  -1 1.55544 1.86919   2
   9   4  -1 0.70929 1.89695   2
  -9   4   1 3.13905 1.96882   2
  -9   4   1 2.64858 2.26384   5
  -6  -9  -1 7.16605 2.57923   2
  -9   6  -1 7.95690 2.26363   9
   9  -6  -1 9.26215 2.53443   2
   9   6   1 11.7754  2.6601   2
   6   9  -1 5.00390 2.37850   2
  -6   9   1 5.31360 2.31468   2
  -6   9   1 7.43936 2.27796   9
  -9  -6   1 8.80690 2.31178   9
  -9   6  -1 5.52354 2.43438   5
  -6  -9  -1 9.72908 2.40461   9
  -9  -6   1 5.05936 2.49986   2
   6  -9   1 9.40647 2.44641   2
   9   6  -1 9.93216 2.70601   2
  -9   6   1 8.42042 2.74227   5
  -9   6   1 5.19542 2.34329   2
  -6   9  -1 7.12952 2.23810   9
  -9   6   1 5.89452 2.18693   9
   9  -6   1 7.97945 2.45192   2
  -9  -6  -1 10.3086  2.3559   9
  -9  -6  -1 5.81091 2.47999   2
  -6  -9   1 7.04478 2.47926   2
   6  -9  -1 11.0210  2.5946   2
  -6  -9   1 10.6131  2.5378   9
   6   9   1 7.84453 2.46546   2
   9  -8  -1 0.79464 2.24486   2
   9   8   1 3.26032 2.49241   2
  -8   9   1 -0.3657  1.8623   9
  -9  -8   1 2.68550 2.44168   2
  -9  -8   1 2.02421 2.24722   9
  -8   9   1 0.29700 2.17030   2
  -9   8  -1 1.31149 2.16967   9
   8  -9   1 1.55795 2.29490   2
  -8  -9  -1 1.45344 2.53449   2
   8   9   1 4.57443 2.58940   2
  -8  -9   1 2.98121 2.32929   9
  -8  -9   1 7.93956 2.82983   2
   8  -9  -1 1.78868 2.33061   2
  -9   8   1 0.18122 2.10524   9
   9  -8   1 0.50149 2.27971   2
  -9   8   1 1.68751 2.40874   2
  -9  -8  -1 3.55098 2.53222   2
  -8   9  -1 -1.0781  2.0403   9
  -1  10   1 126.154   5.488   2
 -10   1  -1 124.819   5.109   9
  -1 -10  -1 121.699   5.290   9
   1 -10   1 121.477   5.402   2
  10   1   1 113.417   5.440   2
  -1 -10  -1 130.510   5.575   2
 -10  -1   1 129.578   5.610   2
  10  -1  -1 120.169   5.413   2
 -10   1  -1 125.767   6.417   5
 -10  -1   1 135.809   5.231   9
 -10  -1   1 130.696   6.322   5
   1  10  -1 118.440   5.499   2
  10   1   1 118.473   5.391   2
 -10   1  -1 123.648   5.613   2
  10   1  -1 121.508   5.473   2
 -10  -1  -1 117.843   5.541   2
   1  10   1 124.257   5.485   2
 -10   1   1 136.851   6.565   5
  -1 -10   1 129.016   5.441   9
 -10  -1  -1 128.419   5.086   9
 -10   1   1 118.422   5.073   9
  10  -1   1 117.598   5.323   2
  -1 -10   1 124.298   5.644   2
  10   1  -1 110.640   5.315   2
   1 -10  -1 123.917   5.482   2
 -10   1   1 122.228   5.524   2
  -1  10  -1 131.858   5.645   2
 -10  -3   1 5.96031 2.11210   9
  -3 -10  -1 1.70471 1.89302   9
  -3  10   1 1.06547 1.98752   2
 -10  -3   1 1.79750 2.23355   2
 -10   3  -1 -0.5469  1.7522   9
   3  10  -1 5.02695 2.30037   2
  -3 -10  -1 1.13679 2.08637   2
  10  -3  -1 3.45606 2.23723   2
 -10   3  -1 0.75100 2.36693   5
  10   3   1 5.20129 2.25878   2
   3 -10   1 3.40914 2.00025   2
 -10   3   1 5.17732 2.20890   2
  -3 -10   1 0.37584 1.96712   2
 -10   3   1 1.80732 2.41384   5
  10   3  -1 1.54171 2.08856   2
 -10  -3  -1 3.92308 2.21703   2
 -10  -3  -1 1.91325 1.89128   9
  10  -3   1 2.53476 2.05064   2
   3  10   1 4.96486 2.21404   2
   3 -10  -1 0.54447 1.95332   2
 -10   3   1 4.69022 2.04421   9
  -3 -10   1 2.78698 2.07563   9
  -5 -10  -1 132.969   5.687   9
 -10  -5   1 129.886   6.080   2
 -10   5  -1 126.186   6.765   5
   5 -10   1 135.436   5.880   2
  10  -5  -1 134.144   6.155   2
  10   5   1 135.646   6.110   2
  -5  10   1 120.295   5.645   9
  -5  10   1 132.919   6.038   2
 -10   5  -1 132.660   5.630   9
  -5 -10  -1 134.657   6.286   2
 -10  -5   1 137.049   5.818   9
   5  10   1 140.543   6.169   2
 -10   5   1 123.064   5.891   2
 -10   5   1 127.387   6.817   5
  10  -5   1 126.272   5.779   2
  10   5  -1 131.431   6.222   2
  -5 -10   1 127.624   5.992   2
   5 -10  -1 121.219   5.949   2
 -10   5   1 133.037   5.553   9
  -5 -10   1 133.410   5.861   9
 -10  -5  -1 128.231   6.131   2
  10  -7  -1 64.1611  4.6569   2
  -7  10   1 58.2046  4.3414   9
   7 -10   1 60.3984  4.4032   2
 -10  -7   1 56.0440  4.3834   9
 -10  -7   1 57.6337  4.7502   2
  10   7   1 59.5831  4.6047   2
  -7 -10  -1 63.8436  4.9809   2
 -10   7  -1 60.3073  4.2779   9
  -7  10   1 63.2956  4.7278   2
 -10   7  -1 61.4868  4.9468   5
   7 -10  -1 63.2725  4.5819   2
  -7 -10   1 63.3635  4.8355   2
 -10   7   1 61.4257  4.4285   9
  -7  10  -1 57.6365  4.3654   9
  -7 -10   1 64.4940  4.5579   9
   7  10   1 61.8092  4.7856   2
  10  -7   1 57.2110  4.5085   2
 -10   7   1 63.2647  4.5835   2
   0 -11   1 2.22467 2.25720   2
  11   0  -1 0.76634 2.18464   2
   0 -11   1 1.99831 2.16014   9
 -11   0  -1 4.37031 2.69749   5
   0 -11  -1 -2.2779  2.0702   2
  11   0   1 1.38624 2.22787   2
 -11   0   1 -3.1227  1.8900   2
 -11   0  -1 -1.7280  1.8166   9
 -11   0   1 0.16675 2.04490   9
   0  11   1 -1.6207  2.0629   2
 -11   0   1 0.38404 2.42915   5
   2 -11   1 130.784   5.885   2
 -11   2  -1 130.409   6.966   5
  11   2   1 127.121   5.868   2
 -11  -2   1 125.665   5.549   9
  11   2   1 124.129   5.844   2
  -2 -11  -1 132.685   5.804   9
  -2 -11  -1 133.603   6.090   2
 -11  -2   1 124.898   6.000   2
  -2  11   1 126.109   6.056   2
  11  -2  -1 135.670   6.097   2
  -2 -11   1 132.538   6.041   2
 -11   2   1 135.366   5.690   9
   2 -11  -1 124.006   5.987   2
  11   2  -1 132.671   6.083   2
  -2 -11   1 129.918   5.953   9
 -11   2   1 128.994   6.207   2
  11   2  -1 131.189   6.056   2
   2  11   1 131.241   6.039   2
 -11  -2  -1 128.059   5.510   9
 -11   2   1 131.784   6.960   5
  11  -2   1 123.522   5.799   2
   4 -11   1 125.873   5.847   2
 -11  -4   1 131.093   6.380   2
  11  -4  -1 133.724   6.235   2
  -4  11   1 126.438   6.100   2
  -4 -11  -1 129.434   5.882   9
 -11   4  -1 136.062   5.815   9
  11   4   1 132.938   6.130   2
 -11   4  -1 130.781   6.983   5
  -4 -11  -1 138.259   6.439   2
 -11  -4   1 138.454   5.873   9
  11  -4   1 126.440   5.880   2
  11   4  -1 133.025   6.353   2
  -4 -11   1 126.027   5.915   9
 -11   4   1 128.465   7.095   5
 -11   4   1 132.855   5.908   9
   4 -11  -1 124.617   6.060   2
  -4 -11   1 127.300   6.286   2
 -11   4   1 139.116   6.236   2
   4  11   1 129.826   6.137   2
  -1 -12  -1 6.80664 2.69657   2
 -12  -1   1 3.35871 2.45863   2
 -12   1  -1 4.76245 2.91071   5
  -1  12   1 5.78453 2.72325   2
  12  -1  -1 10.4062  2.7858   2
  12   1   1 5.57488 2.50392   2
 -12  -1   1 5.62241 2.44372   9
 -12   1  -1 5.62278 2.32802   9
   1 -12   1 6.90193 2.73957   2
 -12   1   1 7.00977 2.54632   9
 -12  -1  -1 6.20380 3.01749   5
  -1 -12   1 3.22516 2.26233   9
 -12   1   1 16.0536  3.6067   5
  -1 -12   1 3.90506 2.42217   2
 -12   1   1 8.03259 2.81067   2
   1  12   1 2.80056 2.62923   2
   1 -12  -1 5.96663 2.73082   2
  12   1  -1 4.30977 2.67568   2
  12  -1   1 5.85261 2.64672   2
 -12  -3   1 2.81965 2.42209   9
 -12   3  -1 3.68451 2.44110   9
  -3 -12  -1 2.52696 2.36761   9
  -3 -12   1 0.64818 2.33553   9
 -12   3   1 2.29930 2.24393   9
   0   0   2 -2.9492  0.2515   6
  -1   1   2 177.688   3.966   3
   1  -1  -2 175.097   4.001   3
   1  -1   2 171.039   3.286   6
   1   1  -2 168.097   3.989   3
  -1  -1   2 169.414   3.968   3
  -1   1   2 175.516   3.307   6
  -1  -1   2 178.469   3.975   3
  -2   0   2 1623.50   25.04   6
   2   0   2 1601.48   27.01   2
   2   0  -2 1584.91   30.63   3
   0  -2   2 1561.13   27.00   2
   0   2  -2 1517.56   30.52   3
   2   0   2 1577.26   26.98   2
  -2   0   2 1524.74   28.49   5
   0  -2   2 1554.69   30.50   3
   2   0   2 1611.64   30.64   3
   0  -2  -2 1593.06   30.63   3
  -2   0   2 1545.43   30.60   3
   0   2   2 1573.98   27.04   2
   0   2   2 1546.81   30.58   3
  -2   0   2 1572.71   27.04   2
   2   0   2 1552.27   24.89   6
   2  -2  -2 259.627   6.195   3
   2   2  -2 261.270   6.309   3
  -2  -2   2 244.784   5.441   2
   2   2   2 257.097   6.239   3
  -2   2   2 255.027   5.407   2
  -2   2   2 263.221   6.090   5
   2  -2   2 257.950   5.346   2
  -2  -2   2 263.681   6.224   3
  -2   2   2 251.112   6.080   3
  -2   2   2 257.704   4.704   6
   2   2   2 244.930   5.433   2
   2  -2   2 259.305   6.132   3
   3   1   2 136.717   3.567   2
   1  -3   2 143.587   4.058   3
   3   1   2 141.922   4.277   3
   1  -3   2 151.829   3.649   2
  -3  -1   2 144.620   3.674   2
  -1  -3  -2 144.944   4.209   3
   3  -1  -2 144.080   4.161   3
  -1   3   2 142.250   3.617   2
  -3   1   2 146.027   3.658   2
   1   3   2 142.665   3.668   2
   3  -1   2 143.796   2.696   6
  -1  -3   2 144.251   4.062   3
  -1   3  -2 145.394   3.739   5
  -1  -3   2 141.293   3.621   2
   3   1  -2 142.933   4.204   3
   3  -1   2 146.252   3.598   2
  -3   1   2 143.899   4.130   5
   1  -3  -2 146.219   4.153   3
   3  -1   2 141.137   4.122   3
  -3   3  -2 1143.29   20.31   2
   3  -3  -2 1115.94   22.99   3
   3  -3  -2 1135.85   20.31   2
   3   3  -2 1075.57   20.37   1
   3  -3   2 1116.23   22.96   3
  -3   3   2 1089.73   20.23   2
  -3   3  -2 1099.98   21.64   5
  -3   3   2 1133.49   18.04   6
   3  -3  -2 1099.94   20.21   1
  -3   3  -2 1101.35   20.18   1
  -3  -3   2 1062.51   20.34   2
  -3   3   2 1102.23   21.78   5
   3  -3   2 1112.88   19.56   8
  -3  -3   2 1094.43   23.00   3
  -3   3   2 1108.73   19.16   9
  -3  -3  -2 1116.12   20.36   1
   3   3  -2 1086.76   23.13   3
   3   3  -2 1113.67   20.39   2
   3   3   2 1106.29   23.08   3
  -3  -3   2 1109.99   19.28   9
  -3  -3  -2 1131.48   20.44   2
   3   3   2 1093.92   20.34   2
   3  -3   2 1087.89   20.14   2
   4   0   2 1408.95   28.54   3
  -4   0  -2 1406.29   25.13   1
   4   0   2 1399.02   25.08   2
  -4   0  -2 1388.82   25.20   2
   4   0  -2 1392.28   28.57   3
   0  -4   2 1410.10   28.39   3
  -4   0   2 1430.64   23.79   9
   0   4  -2 1440.65   25.18   2
   0   4  -2 1407.65   25.10   1
   0  -4   2 1399.62   23.79   9
   4   0  -2 1393.98   25.20   2
   0  -4   2 1400.34   25.11   2
  -4   0   2 1433.41   25.24   2
   0  -4  -2 1405.58   28.48   3
   0   4   2 1386.01   25.13   2
   0  -4  -2 1421.18   25.14   2
   4   0   2 1410.95   25.10   2
  -4   0   2 1388.43   26.70   5
   4  -2  -2 141.179   3.934   2
   2   4  -2 134.490   3.953   1
  -4   2  -2 133.754   3.577   9
  -4  -2   2 136.378   4.057   2
   2   4  -2 140.014   4.583   3
   2  -4   2 136.218   4.415   3
  -4  -2   2 133.421   3.823   9
  -2  -4  -2 133.784   4.534   3
   4  -2  -2 130.461   3.898   1
   4   2   2 134.983   3.944   2
  -2  -4  -2 137.060   3.969   2
   4  -2  -2 136.836   4.457   3
   2  -4   2 133.130   3.806   2
  -2   4   2 134.431   3.883   2
  -4   2  -2 135.070   3.825   1
   2   4  -2 134.737   3.943   2
  -4   2  -2 133.872   3.858   2
  -2  -4  -2 126.403   3.888   1
   4   2   2 132.979   4.544   3
  -2   4  -2 142.673   4.162   5
  -2   4  -2 136.562   3.846   1
  -4   2   2 135.699   3.924   2
  -4  -2  -2 129.737   4.002   2
   4   2  -2 138.083   3.990   1
   4   2  -2 141.002   4.044   2
   2  -4  -2 141.570   3.907   2
  -4   2   2 137.039   4.607   5
   4  -2   2 132.413   3.829   2
   4  -2   2 137.283   4.486   3
  -2  -4   2 133.856   3.830   9
  -2  -4   2 128.402   3.933   2
   2  -4  -2 137.864   4.466   3
  -4   2   2 136.134   3.733   9
   2  -4  -2 132.518   3.846   1
   4   2  -2 132.539   4.559   3
  -2   4  -2 133.225   3.882   2
  -4  -2  -2 131.902   3.901   1
  -2  -4   2 135.052   4.428   3
   2   4   2 139.823   4.049   2
   4  -4  -2 76.8051  3.5059   3
   4   4  -2 80.2246  3.7440   3
   4  -4  -2 76.8316  3.1386   2
  -4  -4  -2 77.8935  3.2724   2
   4  -4   2 76.8499  3.0636   2
   4  -4   2 78.3501  3.5041   3
   4   4  -2 80.6430  3.2745   2
  -4  -4  -2 78.4251  3.2005   1
  -4  -4  -2 75.9479  2.7968   9
   4   4   2 76.9040  3.2038   2
  -4   4   2 72.0754  3.0453   2
  -4   4   2 82.6380  3.7334   5
   4  -4  -2 73.3665  3.0405   1
   4  -4   2 82.8094  2.9307   8
  -4   4   2 79.9010  2.1675   6
  -4   4  -2 82.5569  3.2026   2
  -4  -4   2 74.4457  3.0675   9
  -4   4  -2 75.4721  3.5285   5
  -4   4  -2 76.2902  3.0344   1
   4   4  -2 78.2638  3.2543   1
   4   4   2 72.8369  3.5928   3
  -4   4   2 72.2703  2.9158   9
  -4  -4   2 75.5397  3.1836   2
  -4  -4   2 77.2850  3.6087   3
   1  -5   2 103.554   3.445   2
  -5   1  -2 99.8470  3.5013   2
  -1  -5  -2 106.579   3.541   2
  -1  -5  -2 106.080   4.069   3
   1   5  -2 97.7245  3.4389   1
  -5  -1   2 101.176   3.307   9
   1  -5   2 104.595   3.360   9
   1  -5   2 105.583   3.910   3
   5  -1  -2 105.688   4.019   3
  -1  -5  -2 107.248   3.298   9
  -5   1  -2 104.171   3.393   1
  -1   5   2 100.791   3.422   2
   1   5  -2 104.789   3.496   2
   5   1   2 101.926   3.469   2
  -1  -5  -2 98.7182  3.4772   1
   5  -1  -2 107.706   3.580   2
  -5  -1   2 103.211   3.558   2
   5   1   2 102.973   4.089   3
  -5   1  -2 118.413   3.231   9
   5  -1  -2 100.866   3.443   2
  -5  -1  -2 99.7710  3.3948   1
   1  -5  -2 107.498   3.514   2
  -5   1   2 105.591   3.331   9
  -1  -5   2 102.045   3.446   9
   5   1  -2 104.363   3.579   1
   5  -1   2 102.423   3.423   2
  -1   5  -2 102.245   3.449   2
  -1  -5   2 101.780   3.492   2
  -1   5  -2 105.349   3.455   1
  -5   1   2 100.235   4.026   5
   5  -1   2 102.957   3.972   3
   1  -5  -2 101.124   3.396   1
  -5  -1  -2 104.642   3.114   9
  -5  -1  -2 104.518   3.596   2
   1   5   2 102.573   3.501   2
  -5   1   2 105.219   3.481   2
   5   1  -2 96.8550  3.9907   3
   1  -5  -2 101.946   3.882   3
   5   1  -2 102.071   3.524   2
  -1  -5   2 101.797   3.912   3
  -3  -5  -2 34.3419  2.6126   3
   5  -3  -2 35.7489  2.2862   1
  -5   3  -2 33.5627  2.1629   1
   3  -5   2 32.8130  2.4449   3
  -3  -5  -2 39.6925  2.3881   1
   3   5  -2 33.4161  2.2690   1
  -3   5   2 35.6290  2.2930   2
  -5   3  -2 38.5340  2.1772   1
  -5   3  -2 36.1932  2.1129   9
  -3  -5  -2 37.8135  2.3963   2
  -5  -3   2 39.8462  2.3255   9
  -5   3  -2 32.3901  2.6222   5
   5   3   2 36.7402  2.7910   3
  -5  -3   2 37.8209  2.5185   2
   5   3   2 32.3436  2.2508   2
   3  -5   2 38.4833  1.7345   8
   3  -5   2 38.2430  2.2576   2
   5  -3  -2 39.0680  2.3407   2
   3   5  -2 37.2444  2.3950   2
   5  -3  -2 32.9650  2.5230   3
  -5   3  -2 38.8309  2.3255   2
  -3  -5  -2 34.7327  2.0682   9
  -3   5  -2 38.5632  2.3250   2
  -3   5  -2 36.4967  2.4767   5
   5   3  -2 43.5765  2.5276   1
  -3  -5   2 34.3290  2.5645   3
   5  -3   2 38.9831  2.2357   2
   5   3  -2 42.7668  2.8309   3
  -5   3   2 37.0240  2.8053   5
  -3   5  -2 34.8628  2.1851   1
  -5  -3  -2 37.1736  2.3843   1
   3  -5  -2 36.1437  2.1572   2
   3  -5  -2 36.3590  2.1845   1
  -5   3   2 38.8835  2.2985   2
  -5  -3  -2 37.7472  2.4854   2
   5   3  -2 37.0722  2.3961   2
   5  -3   2 34.0479  2.5060   3
  -3  -5   2 35.5989  2.3769   2
  -5   3   2 37.3155  2.1628   9
   3   5   2 33.5332  2.2813   2
  -5  -3  -2 33.8140  2.0294   9
   3  -5  -2 41.5119  2.6656   3
  -3  -5   2 38.2453  2.2443   9
  -5  -5   2 43.0668  2.8562   2
  -5   5  -2 45.6844  2.6635   9
  -5  -5  -2 43.4138  2.8337   1
   5   5   2 43.2383  2.8441   2
  -5   5   2 41.3402  3.0776   5
  -5   5   2 45.9802  2.7982   2
  -5  -5  -2 45.2225  2.9885   2
   5   5  -2 50.4143  2.9669   1
   5  -5   2 48.3462  2.5481   8
  -5   5  -2 49.3226  2.7950   1
  -5  -5   2 45.9586  3.2018   3
   5  -5  -2 49.2120  2.8600   1
  -5  -5  -2 41.3642  2.4554   9
  -5  -5   2 40.7670  2.5621   9
   5  -5  -2 45.5812  2.6845   2
  -5   5  -2 43.1980  3.1551   5
   5  -5  -2 41.5641  3.0093   3
   5   5  -2 44.1829  2.9092   2
  -5   5  -2 44.4116  2.7494   2
   5  -5   2 47.9440  3.1602   3
  -5   5   2 42.8943  2.6700   9
  -5  -5  -2 43.6999  3.1899   3
   5   5  -2 42.9805  3.1786   3
   5  -5   2 45.5079  2.6872   2
  -6   0   2 84.5821  3.3792   2
   0  -6  -2 72.2626  2.9714   9
   6   0   2 79.7677  3.2216   2
   0   6   2 77.0271  3.2485   2
   0  -6  -2 81.1850  3.2978   1
  -6   0  -2 82.5629  3.4022   2
  -6   0   2 74.0761  3.7317   5
  -6   0   2 71.7081  2.9888   9
   6   0  -2 79.6832  3.7591   3
   6   0   2 82.9548  3.8107   3
  -6   0   2 85.7333  3.2720   7
   0  -6   2 80.6819  3.6368   3
   6   0   2 75.1353  3.1818   2
   0  -6   2 79.4717  3.2694   2
   0  -6  -2 79.6600  3.3164   2
  -6   0  -2 80.8125  2.9500   9
   6   0  -2 77.5857  3.2922   1
   0  -6  -2 76.2870  3.6581   3
   0   6  -2 77.2643  3.2035   1
   0  -6   2 79.1069  3.1504   9
  -6   0  -2 77.4794  3.1491   1
   0   6  -2 83.5516  3.3316   2
   6   0  -2 83.3155  3.3971   2
  -2  -6  -2 717.648  13.827   9
  -2  -6  -2 748.990  14.916   2
   2  -6   2 711.791  14.682   2
  -6   2  -2 724.355  14.682   1
  -6  -2   2 722.595  14.090   9
  -2   6   2 729.520  14.844   2
   2   6  -2 761.359  15.022   1
  -6   2  -2 712.394  13.663   9
   6   2   2 715.678  16.917   3
   6  -2  -2 733.778  14.848   2
  -2  -6  -2 732.854  14.922   1
   6   2   2 731.623  14.825   2
   6  -2  -2 733.674  14.911   1
   6  -2  -2 710.411  16.766   3
   2  -6   2 700.350  16.543   3
  -2  -6  -2 713.883  16.843   3
   2   6  -2 750.629  14.982   2
  -6   2  -2 734.335  14.929   2
  -6  -2   2 728.373  14.916   2
   6   2  -2 730.484  14.997   1
  -2  -6   2 731.543  16.722   3
  -2   6  -2 716.528  14.678   1
   6   2  -2 740.970  17.044   3
   6  -2   2 721.924  14.723   2
  -6   2   2 699.869  16.171   5
  -6   2   2 722.701  14.020   9
   6  -2   2 719.912  16.723   3
   2   6   2 741.018  14.914   2
   2  -6  -2 748.164  14.874   2
   2  -6  -2 755.181  14.815   1
  -2   6  -2 731.018  14.820   2
  -6  -2  -2 707.123  14.928   2
   6   2  -2 727.337  14.955   2
  -6  -2  -2 751.960  13.675   9
   2  -6  -2 740.202  16.762   3
  -2  -6   2 721.568  14.207   9
  -6   2   2 730.362  14.847   2
  -2  -6   2 725.268  14.887   2
  -6  -2  -2 740.464  14.938   1
   6   4   2 782.412  18.428   3
  -6   4  -2 773.251  17.693   5
  -6   4  -2 778.013  16.146   2
  -4  -6  -2 789.242  18.426   3
   6   4   2 747.754  16.159   2
   4  -6   2 797.434  16.052   2
   6  -4  -2 779.009  16.138   1
  -4  -6  -2 794.536  16.269   1
   4   6  -2 802.367  16.363   2
  -6   4  -2 774.656  15.982   1
  -4  -6  -2 750.557  14.908   9
  -4   6   2 770.876  15.989   2
  -4   6   2 762.328  15.250   9
  -6  -4   2 772.471  15.349   9
   4  -6   2 773.576  18.009   3
   6  -4  -2 785.309  18.288   3
  -6   4  -2 763.008  15.944   1
  -6  -4   2 744.670  16.266   2
  -6   4  -2 774.228  15.055   9
  -4  -6  -2 787.256  16.343   2
   6  -4  -2 798.499  16.167   2
   4   6  -2 789.310  16.274   1
  -4  -6   2 771.510  15.365   9
  -6   4   2 781.011  17.671   5
   6   4  -2 795.565  16.395   2
  -6  -4  -2 776.541  16.250   1
   6   4  -2 774.624  16.344   1
  -6  -4  -2 819.365  16.542   2
  -6  -4  -2 760.633  14.778   9
  -4   6  -2 797.479  16.065   1
  -6   4   2 751.974  15.191   9
  -4   6  -2 788.927  17.079   5
   6  -4   2 770.003  18.134   3
  -6   4   2 767.698  16.062   2
  -4   6  -2 825.911  16.265   2
   6   4  -2 782.625  18.519   3
   4  -6  -2 798.945  16.091   1
   4  -6  -2 775.258  18.195   3
   6  -4   2 780.340  15.954   2
   4  -6  -2 806.732  16.171   2
   6  -4   2 783.319  15.866   8
   4   6   2 782.918  16.214   2
  -4  -6   2 818.874  16.388   2
  -4  -6   2 783.557  18.291   3
  -6  -6  -2 71.7954  3.5622   9
  -6  -6  -2 77.5619  4.1072   2
   6   6  -2 72.9478  4.4795   3
   6  -6  -2 72.4926  3.8245   1
  -6   6  -2 74.2309  4.3058   5
   6  -6  -2 67.9480  4.1756   3
   6  -6   2 79.5365  3.8982   2
   6   6  -2 72.4299  3.8451   1
  -6   6  -2 70.7280  3.7405   1
  -6   6  -2 76.2465  3.7141   9
  -6  -6  -2 71.1663  4.2550   3
  -6   6   2 72.1659  3.6246   9
  -6  -6  -2 75.8852  3.9716   1
  -6   6   2 74.3576  3.8583   2
  -6  -6   2 73.0170  3.8044   9
   6  -6   2 76.3994  4.3164   3
  -6  -6   2 76.2357  3.9898   2
   6  -6  -2 78.7449  3.9586   2
   6   6   2 68.0528  3.8227   2
   6   6  -2 74.3036  4.1283   2
  -6  -6   2 70.2474  4.3130   3
   7  -1  -2 138.475   5.513   3
   7   1   2 142.356   5.583   3
   1  -7   2 141.553   4.839   2
  -7   1  -2 151.383   5.019   2
   7  -1  -2 142.444   4.914   2
   7  -1  -2 147.391   4.971   1
  -7  -1   2 138.143   4.878   2
  -1  -7  -2 138.928   5.491   3
  -7  -1   2 140.955   4.660   9
  -7   1  -2 141.012   4.353   9
   1   7  -2 148.388   4.906   2
  -1  -7  -2 144.174   4.862   1
   7  -1  -2 142.048   4.931   2
  -1   7   2 134.800   4.773   2
  -1  -7  -2 137.255   4.852   2
  -7   1  -2 152.144   4.898   1
   7   1   2 142.367   4.817   2
   1  -7   2 134.948   5.288   3
   1  -7   2 134.454   4.556   9
  -1  -7  -2 141.396   4.597   9
   1   7  -2 144.634   4.814   1
  -1  -7   2 141.168   4.839   2
  -1  -7   2 142.397   5.388   3
   1  -7  -2 150.154   4.932   2
   1  -7  -2 147.312   5.535   3
   7  -1   2 134.857   4.708   2
  -7   1   2 140.806   4.820   2
   7  -1   2 144.086   5.516   3
   7   1  -2 154.129   5.020   2
   1  -7  -2 142.266   4.826   1
  -1  -7   2 142.267   4.692   9
  -1   7  -2 150.420   4.974   2
  -7  -1  -2 139.905   4.362   9
  -7  -1  -2 146.401   4.900   1
  -7   1   2 132.821   5.428   5
  -7  -1  -2 135.742   4.937   2
  -7   1   2 136.937   4.557   9
  -1   7  -2 137.471   4.686   1
   1   7   2 141.537   4.843   2
   7   1  -2 143.002   5.508   3
   7   1  -2 143.484   4.930   1
   7   3   2 123.872   4.695   2
  -7  -3   2 125.937   4.867   2
  -3  -7  -2 123.707   4.397   9
   7   3   2 133.127   5.641   3
  -7   3  -2 122.930   5.512   5
   7  -3  -2 124.329   4.731   2
  -7   3  -2 120.046   4.701   2
   3   7  -2 130.023   4.883   2
   7  -3  -2 118.208   5.206   3
   3   7  -2 123.666   4.813   1
  -3  -7  -2 121.639   5.332   3
   7  -3  -2 127.998   4.714   1
  -7   3  -2 122.118   4.591   1
   3  -7   2 122.717   5.143   3
  -7  -3   2 120.079   4.527   9
   3  -7   2 121.368   4.561   2
  -3   7   2 129.427   4.732   2
  -3  -7  -2 130.622   4.860   2
  -7   3  -2 125.936   4.325   9
  -3  -7  -2 130.333   4.826   1
   7   3  -2 127.308   4.876   2
   3  -7  -2 120.250   4.640   2
  -7  -3  -2 122.481   4.275   9
  -7  -3  -2 129.933   4.853   1
  -7   3   2 121.815   4.666   2
  -3  -7   2 125.596   4.800   2
  -3   7  -2 125.395   4.696   2
   3  -7  -2 129.510   4.679   1
   3  -7  -2 124.441   5.291   3
  -3  -7   2 121.446   4.533   9
  -3  -7   2 126.146   5.293   3
   7  -3   2 119.540   5.257   3
   7   3  -2 128.612   5.583   3
   3   7   2 130.192   4.941   2
  -7  -3  -2 134.786   4.974   2
  -7   3   2 126.885   5.519   5
   7  -3   2 131.008   4.643   2
  -7   3   2 118.648   4.322   9
   7   3  -2 134.085   4.936   1
  -7   5  -2 85.1114  3.8434   9
   5  -7   2 83.3585  4.0929   2
  -5   7   2 92.1093  4.2270   9
   5  -7   2 89.8589  4.6731   3
  -5  -7  -2 92.7503  4.4723   2
  -5   7   2 85.0234  4.1602   2
   7   5   2 91.9991  4.3908   2
  -7   5  -2 94.4172  4.2483   1
  -5  -7  -2 90.4925  4.3493   1
  -7   5  -2 83.0848  4.7941   5
  -5  -7  -2 92.8814  3.9838   9
  -5  -7  -2 89.7109  4.8814   3
  -7  -5   2 87.8520  4.1216   9
   5   7  -2 93.7752  4.4506   2
   5   7  -2 95.2734  4.4931   1
  -7   5  -2 85.9413  4.1120   1
  -7  -5   2 91.5793  4.4005   2
   7  -5  -2 93.6398  4.3387   2
  -5   7  -2 93.3481  4.2364   1
  -7   5   2 89.6026  4.8466   5
  -7  -5  -2 91.5240  3.9411   9
   7  -5   2 90.3034  4.2376   2
   7  -5   2 94.7576  4.0881   8
   7   5  -2 93.1152  4.4875   2
  -5  -7   2 88.0887  4.2046   9
  -5  -7   2 88.0487  4.3181   2
  -7  -5  -2 89.8850  4.4052   1
  -5   7  -2 92.1299  4.6853   5
   7  -5   2 95.2716  4.8763   3
   5  -7  -2 99.5130  4.4327   2
   7   5  -2 91.6683  5.0255   3
   7   5  -2 94.5389  4.5644   1
  -7   5   2 94.3316  4.2791   2
  -7  -5  -2 98.4664  4.5855   2
  -7   5   2 86.9017  4.0661   9
   5   7   2 89.5323  4.3412   2
   7   7   2 125.821   5.597   2
  -7   7   2 125.598   5.371   2
  -7   7   2 128.984   5.208   9
  -7   7  -2 120.861   5.059   9
   7  -7  -2 130.536   5.480   2
  -7   7  -2 112.538   5.617   5
  -7  -7   2 132.677   5.352   9
  -7  -7   2 125.791   5.468   2
  -7  -7  -2 120.593   4.927   9
   7  -7   2 119.723   5.154   2
   8   0  -2 378.320   9.706   1
  -8   0   2 388.605  10.895   5
   0   8  -2 388.845   9.689   2
  -8   0  -2 371.134   8.676   9
   8   0  -2 397.367   9.810   2
   0  -8  -2 381.987   9.675   1
  -8   0  -2 408.741   9.917   2
  -8   0   2 392.828   9.770   2
   0  -8   2 386.737   9.597   2
   0  -8  -2 376.269  10.894   3
   0  -8   2 391.165   9.392   9
   8   0  -2 385.962   9.749   2
   8   0   2 388.282  10.988   3
  -8   0  -2 402.732   9.764   1
   0  -8   2 377.106  10.704   3
   0   8  -2 377.567   9.591   1
   0   8   2 386.318   9.624   2
   8   0   2 368.857   9.527   2
   8   0  -2 387.687  11.066   3
   0  -8  -2 393.423   9.243   9
  -8   0   2 366.288   8.996   9
   0  -8  -2 398.920   9.771   2
  -2  -8  -2 111.027   5.228   3
   2  -8   2 107.900   5.004   3
  -2  -8  -2 108.795   4.322   9
   8   2   2 104.170   5.182   3
   8  -2  -2 109.210   4.598   2
   8  -2  -2 111.248   4.640   1
  -2  -8  -2 115.903   4.699   1
  -8   2  -2 112.162   4.598   1
  -2   8   2 109.808   4.552   2
  -8  -2   2 100.264   4.316   9
   2  -8   2 106.840   4.381   2
  -2  -8  -2 112.031   4.709   2
   2   8  -2 108.446   4.650   1
  -8  -2   2 105.278   4.611   2
   8  -2  -2 116.251   5.291   3
   2   8  -2 111.346   4.685   2
  -8   2  -2 110.749   4.623   2
  -8   2  -2 105.131   4.103   9
   8   2   2 111.524   4.560   2
   2  -8  -2 103.634   4.376   1
  -2  -8   2 106.749   4.579   2
  -8  -2  -2 106.330   4.059   9
  -2  -8   2 107.975   5.104   3
   8   2  -2 125.178   4.914   1
   8  -2   2 107.141   5.088   3
   8   2  -2 104.978   5.184   3
  -8   2   2 105.251   4.564   2
   2   8   2 106.102   4.574   2
   2  -8  -2 107.310   4.531   2
  -8   2   2 108.942   5.355   5
  -8  -2  -2 104.976   4.635   2
  -8  -2  -2 116.489   4.698   1
  -8   2   2 105.444   4.233   9
  -2  -8   2 113.454   4.595   9
   8  -2   2 99.7726  4.4478   2
   8   2  -2 118.156   4.819   2
  -2   8  -2 109.433   4.492   1
   2  -8  -2 103.467   5.044   3
   4   8  -2 63.3537  3.8383   1
  -4  -8  -2 63.9046  3.9394   2
   8  -4  -2 61.1379  3.7314   2
   4  -8   2 55.8858  3.4921   2
  -4  -8  -2 56.5290  3.4778   9
   8   4   2 63.0905  3.7372   2
  -8   4  -2 54.7549  3.3171   9
  -8   4  -2 64.0608  3.6653   1
  -4   8   2 56.2934  3.5618   2
  -8  -4   2 57.9883  3.7072   2
  -8  -4   2 55.2422  3.5108   9
  -8   4  -2 52.6359  4.0476   5
  -8   4   2 54.8018  3.4150   9
   4  -8  -2 58.5088  3.6625   2
  -8  -4  -2 59.5651  3.8795   2
  -4   8  -2 60.4465  3.6567   1
   8   4  -2 55.1644  3.6931   2
  -8   4   2 57.7452  3.6930   2
   4   8   2 55.9428  3.6577   2
  -8  -4  -2 62.9283  3.8297   1
  -4  -8   2 60.9308  3.8015   2
   8  -4   2 54.9219  3.4298   2
  -4  -8   2 56.1395  3.6325   9
  -8   4   2 59.8567  4.2688   5
   8  -4   2 58.7674  3.8791   8
  -8  -4  -2 60.9080  3.3768   9
  -8   6  -2 231.471   8.612   5
  -6   8   2 233.554   7.416   9
  -8   6  -2 228.066   7.082   9
   8   6   2 219.555   7.605   2
   8  -6  -2 241.905   7.735   2
   6  -8   2 222.086   7.343   2
  -6  -8  -2 237.979   7.146   9
  -6   8   2 227.901   7.534   2
  -8  -6   2 227.431   7.807   2
  -8  -6   2 242.289   7.405   9
  -6  -8   2 240.066   7.472   9
  -8   6   2 227.800   8.637   5
  -8   6   2 227.561   7.522   2
  -8   6   2 239.114   7.425   9
   8  -6   2 224.509   7.414   2
  -6   8  -2 240.709   7.334   9
   6   8   2 240.042   7.784   2
  -6  -8   2 233.454   7.796   2
   6  -8  -2 233.746   7.657   2
  -8   8  -2 87.7856  4.7785   9
  -8  -8   2 89.1581  4.9141   9
  -8   8   2 89.6588  4.8590   9
  -8   8  -2 86.5719  5.5096   5
  -8  -8   2 94.1705  5.2333   2
  -8   8   2 79.9501  4.8014   2
   8  -8   2 81.2163  4.8612   2
   8   8   2 86.5444  4.9745   2
  -1   9   2 52.1580  3.4781   2
   1  -9   2 46.1927  3.3638   9
  -9   1  -2 46.0005  3.1827   9
  -9   1  -2 48.7914  3.2821   1
  -1  -9  -2 56.0941  3.4860   9
   9   1   2 53.0374  3.5501   2
  -9  -1   2 49.3699  3.4648   2
   1   9  -2 43.7387  3.2315   1
  -9  -1   2 56.2785  4.1518   5
   9  -1  -2 48.5126  3.5250   2
  -1  -9  -2 48.4799  3.6116   2
  -9  -1   2 47.9651  3.3076   9
   9   1   2 49.6157  3.4220   2
   1  -9   2 49.2825  3.3959   2
  -9  -1  -2 52.7223  3.4020   1
  -9   1   2 47.2916  4.1065   5
  -1   9  -2 50.5513  3.3759   1
  -9  -1  -2 49.6548  3.1745   9
  -1  -9   2 48.1241  3.4079   2
  -9   1   2 46.0506  3.0687   9
   1  -9  -2 53.1332  3.4897   2
   9  -1   2 45.7894  3.3140   2
  -1  -9   2 47.8802  3.4397   9
   9   1  -2 53.4513  3.6564   2
  -9   1   2 52.1587  3.5331   2
   1   9   2 47.3058  3.5249   2
  -9   3  -2 481.983  13.707   5
   3  -9   2 487.414  12.057   2
  -9   3  -2 496.685  11.332   9
   9  -3  -2 481.543  12.282   2
   9   3   2 506.477  12.351   2
  -9  -3   2 491.520  12.363   2
  -3   9   2 492.874  12.148   2
  -9  -3   2 508.403  11.739   9
  -3  -9  -2 502.916  12.466   2
  -3  -9  -2 489.721  11.511   9
  -9   3   2 503.651  13.887   5
  -9  -3  -2 500.516  11.264   9
  -9   3   2 494.232  11.625   9
  -3  -9   2 493.805  11.897   9
   3  -9  -2 495.762  12.198   2
  -9   3   2 483.502  12.231   2
   9   3  -2 495.833  12.438   2
   9  -3   2 489.153  12.072   2
  -3  -9   2 481.267  12.199   2
   3   9   2 506.703  12.430   2
   9  -5  -2 10.1317  2.5790   2
  -9   5  -2 7.70122 2.67673   5
  -5   9   2 9.06623 2.29637   2
   5  -9   2 13.0380  2.4751   2
  -5   9   2 9.16340 2.31965   9
  -5  -9  -2 8.31028 2.28396   9
  -9  -5   2 9.43214 2.42681   2
   9   5   2 6.65636 2.45318   2
  -9  -5   2 15.1845  2.6531   9
  -9   5  -2 9.21669 2.25126   9
  -5  -9   2 11.8862  2.6481   2
  -9   5   2 10.8605  2.4500   2
  -9   5   2 10.6247  2.6989   5
   5   9   2 7.59870 2.35366   2
   5  -9  -2 9.94295 2.54643   2
  -5  -9   2 9.99985 2.40839   9
  -9   5   2 13.5917  2.4540   9
   9  -5   2 12.0982  2.7295   8
   9  -5   2 10.8347  2.4588   2
  -9   7  -2 68.6304  4.3119   9
  -9  -7   2 71.7058  4.6069   9
  -9   7  -2 77.6760  5.2572   5
  -7   9   2 78.4652  4.5456   9
  -7   9   2 79.2157  4.8849   2
   7  -9   2 69.8607  4.4098   2
   9   7   2 71.3307  4.7113   2
  -9  -7   2 81.5897  4.9269   2
  -7  -9   2 80.1847  4.8171   2
  -9   7   2 78.8485  4.6140   9
   7   9   2 78.2467  4.9389   2
  -7   9  -2 75.9250  4.5699   9
  -9   7   2 72.0579  4.6253   2
  -7  -9   2 73.2389  4.5935   9
   9  -7   2 75.8881  4.4981   2
   0  10   2 599.419  14.510   2
   0 -10  -2 607.576  14.705   2
   0 -10   2 637.282  14.203   9
 -10   0  -2 614.298  13.294   9
 -10   0   2 618.413  13.780   9
   0 -10   2 590.714  14.318   2
  10   0  -2 621.250  14.788   2
 -10   0   2 592.888  14.568   2
  10   0  -2 623.505  14.823   2
 -10   0   2 642.695  16.399   5
  10   0   2 610.966  14.407   2
  -2 -10  -2 13.6665  2.5718   9
 -10  -2   2 14.5038  2.5013   9
  10   2   2 13.6481  2.5635   2
  -2  10   2 14.9163  2.7046   2
  -2 -10  -2 14.2219  2.8516   2
 -10  -2   2 13.7850  2.6477   2
   2 -10   2 13.0490  2.4802   2
 -10   2  -2 13.8545  3.1840   5
  10   2   2 16.2933  2.7645   2
  10  -2  -2 17.3793  2.8706   2
 -10   2  -2 14.0561  2.4324   9
 -10   2   2 12.6970  3.0388   5
  -2 -10   2 13.4724  2.6268   9
  10  -2   2 15.1172  2.6068   2
  -2 -10   2 12.4918  2.5832   2
 -10   2   2 13.2077  2.5136   9
 -10   2   2 17.2773  2.7893   2
   2  10   2 16.0381  2.7228   2
   2 -10  -2 12.2991  2.5186   2
 -10   4  -2 6.85588 2.28274   9
  10   4   2 2.72158 2.32992   2
  10  -4  -2 7.44941 2.48329   2
  -4 -10  -2 4.46115 2.11290   9
 -10  -4   2 3.45909 2.21239   2
 -10  -4   2 5.20805 2.20328   9
 -10   4  -2 7.27234 2.72079   5
  -4  10   2 3.64244 2.24394   2
   4 -10   2 5.58895 2.18160   2
   4  10   2 5.21004 2.29659   2
 -10   4   2 5.04182 2.63169   5
 -10   4   2 5.33037 2.25770   2
 -10   4   2 5.24563 2.12933   9
  -4 -10   2 5.17712 2.22024   2
   4 -10  -2 2.68574 2.28265   2
  10  -4   2 3.61718 2.09108   2
  -4 -10   2 2.66106 2.18251   9
  10  -4   2 7.53902 2.77667   8
  -6  10   2 447.322  12.438   2
  -6  10   2 441.935  11.971   9
   6 -10   2 451.421  12.281   2
 -10   6  -2 457.198  13.931   5
 -10  -6   2 464.796  11.922   9
  10   6   2 456.949  12.479   2
 -10  -6   2 457.018  12.534   2
   6  10   2 474.944  12.746   2
  10  -6   2 463.899  12.326   2
  -6 -10   2 457.749  12.068   9
 -10   6   2 440.031  11.774   9
  -6  10  -2 446.284  11.830   9
 -10   6   2 446.473  13.973   5
  -6 -10   2 474.915  12.622   2
 -10   6   2 468.383  12.535   2
  -1  11   2 21.0545  3.1960   2
 -11   1  -2 23.0464  3.7515   5
 -11  -1   2 18.7658  2.8640   9
  11   1   2 17.3899  2.9888   2
 -11   1  -2 17.8266  2.6997   9
 -11  -1   2 22.9276  3.2633   2
   1 -11   2 19.2545  3.0114   2
  -1 -11  -2 18.6618  2.9869   9
  -1 -11   2 22.5490  3.1249   2
  11  -1   2 22.2105  3.1065   2
 -11   1   2 18.4586  2.8379   9
  -1 -11   2 19.2982  2.8767   9
 -11   1   2 23.5525  3.2540   2
 -11   1   2 23.8460  3.8482   5
   1  11   2 22.5931  3.2670   2
 -11   3  -2 1.03712 1.93868   9
  -3 -11  -2 0.44009 2.05072   9
 -11   3  -2 2.09567 2.66725   5
  11   3   2 -0.1093  2.1785   2
  -3  11   2 2.74446 2.12354   2
 -11  -3   2 0.29652 2.00556   9
 -11  -3   2 0.90771 2.29176   2
   3 -11   2 5.03720 2.33423   2
  11   3   2 -1.6768  2.0097   2
   3  11   2 1.81384 2.33421   2
  -3 -11   2 0.09057 2.23756   2
  -3 -11   2 2.18511 2.21484   9
 -11   3   2 2.10013 2.61884   5
  11  -3   2 4.43271 2.32941   2
 -11   3   2 1.47838 2.07932   9
 -11   3   2 2.86827 2.23285   2
  -5  11   2 8.49068 2.76682   2
  -5  11   2 6.05017 2.53520   9
 -11  -5   2 5.47167 2.46285   9
 -11   5  -2 2.70597 2.87078   5
  -5 -11  -2 4.02666 2.32071   9
 -11  -5   2 8.07953 2.72682   2
  11   5   2 3.55891 2.57966   2
 -11   5  -2 2.71387 2.17477   9
   5 -11   2 7.02062 2.53108   2
 -11   5   2 5.34525 2.73767   2
   5  11   2 2.98150 2.48416   2
 -11   5   2 7.97157 2.52186   9
  11  -5   2 6.92485 2.48480   2
  -5 -11   2 4.90720 2.61435   2
 -11   5   2 5.75758 2.95586   5
  -5 -11   2 2.79909 2.42938   9
   0  12   2 43.1527  4.3259   2
  12   0   2 44.1658  3.9433   2
 -12   0  -2 42.2514  4.9324   5
 -12   0   2 42.8629  4.0768   9
   0 -12   2 44.2675  4.1317   2
 -12   0   2 41.8641  4.3147   2
 -12   2  -2 212.790   9.352   5
  -2  12   2 221.925   8.240   2
 -12  -2   2 209.392   7.661   9
  12   2   2 214.527   8.093   2
   2 -12   2 206.743   7.779   2
  -2 -12  -2 220.316   7.835   9
 -12  -2   2 210.325   8.191   2
  12  -2   2 212.479   7.901   2
  -2 -12   2 208.877   8.089   2
 -12   2   2 212.591   8.097   2
  -2 -12   2 213.122   7.912   9
   2  12   2 217.486   8.264   2
 -12   2   2 205.994   9.159   5
 -12   2   2 201.698   7.520   9
   0   1   3 -3.4075  0.6046   6
   0  -1   3 -1.6034  0.5822   6
   1   0   3 -2.4840  0.5334   6
  -1   0  -3 -2.2128  0.4298   3
   0   1  -3 -1.7860  0.4390   3
   0   1  -3 -2.0269  0.3836   3
   2   1   3 6241.50  105.02   2
  -1   2   3 6275.78   99.12   6
   2   1   3 6071.59  118.29   3
  -2   1  -3 6043.55  118.88   3
   1   2  -3 5956.55  119.20   3
  -1   2   3 6130.30  105.73   2
  -1   2   3 6083.41  118.97   3
  -2  -1   3 6496.29  105.58   2
   1  -2   3 6305.57  105.22   2
   1  -2   3 6440.38  118.65   3
   1   2  -3 6118.21  118.80   3
   2  -1  -3 5985.88  119.55   3
  -2  -1   3 6295.96  119.38   3
   1   2   3 5798.18  104.40   2
   2   1  -3 6194.59  119.58   3
  -2   1   3 6024.91  119.13   3
   2  -1   3 6306.57   97.54   6
  -2   1   3 6350.34   97.56   6
   2  -1   3 6158.09  119.14   3
  -2   1   3 6205.53  105.58   2
   2  -1   3 6120.17  105.31   2
  -2  -1  -3 5856.72  119.48   3
   1  -2  -3 6258.95  118.77   3
  -1  -2   3 6123.16  105.45   2
  -1  -2   3 5868.05  118.53   3
  -1  -2   3 6006.77  118.79   3
  -1   2  -3 5920.88  118.96   3
  -3   0   3 0.30093 0.92110   3
   3   0   3 -0.9488  0.7416   2
   0  -3  -3 -0.1284  0.9092   3
   3   0  -3 4.06904 1.10253   3
   3   0   3 -1.5857  0.6072   6
   0   3   3 -1.7130  0.6901   2
  -3   0   3 -0.0115  1.0015   5
   0  -3   3 -1.7844  0.8125   3
   0   3   3 0.34795 0.91347   3
  -3   0   3 -0.4240  0.7807   2
   3   0   3 -0.4017  0.9534   3
   0  -3   3 -0.2191  0.8758   3
   3   0   3 -1.5748  1.1118   8
  -3  -2   3 439.059   8.785   2
  -3   2  -3 434.335   8.636   1
   3  -2  -3 438.541   9.939   3
  -3  -2   3 427.251   8.499   9
   3   2   3 426.534   8.713   2
   2   3  -3 431.294  10.033   3
   2  -3   3 435.611   8.611   2
  -2   3   3 435.261   8.685   2
  -2  -3  -3 423.062   8.758   1
   2   3  -3 432.186   8.789   1
   3   2   3 427.882   9.945   3
   2  -3   3 445.153   9.787   3
   3  -2  -3 432.087   8.733   1
  -3  -2   3 433.808   8.523   4
   2  -3  -3 428.542   9.926   3
  -3   2   3 438.060   7.557   6
   3  -2   3 424.396   8.535   2
   3  -2   3 428.723   8.735   8
   2   3   3 430.076   8.740   2
  -2   3  -3 409.626   8.563   1
   3   2  -3 414.046   8.768   1
   2  -3  -3 428.795   8.681   1
  -3   2   3 427.724   8.655   2
  -3   2   3 425.493   8.338   9
  -3   2   3 440.736   9.700   5
  -2  -3   3 438.381   9.842   3
   3  -2   3 440.797   9.842   3
  -3  -2  -3 410.081   8.694   1
  -2  -3   3 440.764   8.807   2
  -2  -3   3 437.786   8.532   9
   3   2  -3 430.833  10.021   3
  -1  -4  -3 2296.31   40.92   1
   4   1   3 2343.33   46.35   3
  -4  -1   3 2323.23   38.65   9
  -4  -1   3 2335.94   40.93   2
  -4   1  -3 2392.14   40.95   2
   4  -1  -3 2328.18   40.92   2
   4  -1  -3 2340.34   46.29   3
  -1   4   3 2277.16   40.78   2
   1   4  -3 2365.56   40.86   2
  -4   1  -3 2402.28   40.86   1
   4  -1  -3 2357.62   40.94   2
   1  -4   3 2324.97   40.72   2
  -1  -4  -3 2330.62   40.88   2
  -1  -4  -3 2301.22   46.35   3
   1  -4   3 2350.57   46.11   3
   4   1   3 2408.62   40.85   2
   4  -1  -3 2344.95   40.91   1
   1  -4   3 2351.04   38.54   9
   1   4  -3 2359.62   40.98   1
  -4  -1   3 2352.89   42.96   5
  -1   4  -3 2356.05   42.56   5
   1   4   3 2299.88   40.89   2
  -4   1   3 2328.45   43.45   5
   4  -1   3 2318.23   46.20   3
  -4   1   3 2319.84   38.58   9
   4   1  -3 2394.99   46.42   3
  -4   1   3 2293.32   40.86   2
  -1  -4   3 2355.76   46.15   3
  -1   4  -3 2350.42   40.82   1
   4   1  -3 2398.14   41.02   2
   1  -4  -3 2330.55   40.89   1
  -1  -4   3 2320.65   38.65   9
   1  -4  -3 2378.53   46.31   3
   4  -1   3 2338.53   40.75   2
  -4  -1  -3 2349.42   40.91   1
  -1  -4   3 2284.44   40.85   2
   4   1  -3 2376.38   41.00   1
  -4  -1  -3 2362.46   41.01   2
   1  -4  -3 2363.30   40.88   2
  -1   4  -3 2426.36   40.90   2
   3  -4   3 201.631   5.097   2
   3   4  -3 206.311   5.350   2
  -3  -4  -3 194.337   5.993   3
  -4  -3   3 197.836   5.276   2
  -3  -4  -3 195.509   4.638   9
  -3  -4  -3 195.286   5.210   1
  -4  -3   3 192.913   5.072   9
  -4   3  -3 197.458   5.177   2
   4  -3  -3 202.154   5.238   2
  -3   4   3 207.177   5.215   2
  -4  -3   3 191.104   5.864   3
   3   4  -3 207.886   6.108   3
   3  -4   3 192.058   5.764   3
   4   3   3 200.746   5.225   2
  -3   4   3 198.931   5.021   9
  -4   3  -3 190.389   5.039   1
   3   4  -3 193.957   5.230   1
   4  -3  -3 197.019   5.889   3
   4  -3  -3 201.648   5.202   1
  -4   3  -3 197.329   4.770   9
  -3  -4  -3 198.449   5.301   2
   4   3   3 200.722   5.993   3
   3  -4   3 202.845   4.734   8
  -4   3   3 201.195   3.949   6
  -4   3   3 195.083   5.031   9
  -4   3   3 200.493   4.737   4
  -3  -4   3 203.468   5.194   9
  -4   3   3 198.073   5.983   5
  -4   3   3 196.337   5.154   2
   4   3  -3 201.558   5.339   1
  -3   4  -3 197.189   5.088   1
  -4  -3  -3 203.865   5.382   2
   3   4   3 199.467   5.259   2
  -3  -4   3 191.384   5.263   2
   3  -4  -3 198.099   5.864   3
   4   3  -3 191.685   5.277   2
  -3   4  -3 213.049   5.237   2
   3  -4  -3 196.618   5.179   2
   3  -4  -3 190.321   5.146   1
   4   3  -3 200.019   6.047   3
  -3  -4   3 196.247   5.858   3
   4  -3   3 197.441   5.800   3
  -4  -3  -3 189.512   5.213   1
   4  -3   3 199.595   5.208   8
   4  -3   3 201.402   5.069   2
  -5   0  -3 0.47333 1.03741   1
   5   0   3 -1.4726  1.1487   3
   0  -5  -3 -1.7549  0.9796   1
  -5   0   3 1.59231 1.14503   2
   0  -5   3 -1.8507  1.0517   3
   5   0   3 -2.7580  0.6221   6
  -5   0  -3 0.60686 1.11177   2
   0   5   3 -1.8278  0.9556   2
   0  -5  -3 -2.9680  0.9245   2
   0  -5   3 -1.8283  0.9101   2
  -5   0  -3 0.46698 0.92268   9
   0   5  -3 -2.6587  0.9304   2
   5   0  -3 -1.3220  0.9691   1
   0  -5  -3 -1.0260  1.1640   3
   5   0  -3 -1.4713  0.9793   2
  -5   0   3 2.15171 1.41977   5
   0  -5   3 0.16675 1.07132   9
   0  -5  -3 -1.8656  0.9733   9
  -5   0   3 -1.4041  1.0226   7
  -5   0   3 -1.5269  0.9757   9
   5   0   3 -1.9876  0.9071   2
  -2  -5  -3 5093.10   86.35   2
   2   5  -3 5119.57   86.35   2
  -5   2  -3 5067.80   80.64   9
   5  -2  -3 4906.54   97.60   3
   5   2   3 5003.86   97.72   3
   2  -5   3 4899.86   97.34   3
   5  -2  -3 5165.19   86.37   2
   5   2   3 5005.43   86.24   2
  -5  -2   3 5134.04   86.37   2
   2  -5   3 5161.44   82.87   8
  -5   2  -3 4990.54   86.13   1
  -2  -5  -3 5020.98   80.73   9
  -2   5   3 5162.54   86.24   2
   2  -5   3 5017.96   86.07   2
   2   5  -3 4830.84   86.26   1
   5  -2  -3 4968.50   86.28   1
  -5  -2   3 5208.12   81.06   4
  -5   2  -3 4954.57   86.11   1
  -2  -5  -3 4886.07   97.71   3
  -5  -2   3 5039.58   81.22   9
  -2  -5  -3 4763.79   86.20   1
   2  -5   3 5031.75   81.06   9
  -5   2  -3 5166.31   86.32   2
  -5  -2  -3 5148.24   86.33   1
  -2   5  -3 5111.30   90.25   5
   5   2  -3 4999.99   97.78   3
   2   5   3 4990.41   86.35   2
  -5  -2  -3 5095.67   80.45   9
   2  -5  -3 5046.40   86.20   2
   5   2  -3 4920.78   86.40   1
   2  -5  -3 4981.87   86.21   1
  -5   2   3 5054.92   81.15   9
   5  -2   3 4918.50   86.06   2
  -2   5  -3 5084.57   86.26   2
  -5  -2  -3 5053.37   86.51   2
  -2  -5   3 4982.68   81.27   9
   5  -2   3 4998.29   97.46   3
   5   2  -3 5144.82   86.46   2
  -2  -5   3 5011.09   86.32   2
  -2  -5   3 4931.46   97.43   3
  -2   5  -3 5111.33   86.20   1
  -5   2   3 5092.77   86.27   2
   2  -5  -3 5026.20   97.56   3
  -5   2   3 4954.97   91.22   5
  -4   5   3 2109.73   37.67   2
  -5  -4   3 2080.51   42.68   3
  -4  -5  -3 2074.17   37.87   2
   4  -5   3 2088.50   37.46   2
  -5  -4   3 2087.08   37.90   2
   4   5  -3 2018.08   37.82   1
   4  -5   3 2070.16   42.53   3
  -5   4  -3 2067.47   35.25   9
  -5   4  -3 2065.99   40.18   5
  -5  -4   3 2031.61   35.65   9
   5   4   3 2110.83   37.78   2
   5  -4  -3 2140.08   37.77   1
   4   5  -3 2051.84   37.81   2
  -4  -5  -3 2142.29   37.89   1
   4  -5   3 2131.62   35.97   8
  -5   4  -3 2063.61   37.57   1
  -5   4  -3 2103.58   37.71   2
  -4  -5  -3 2105.45   42.90   3
   5  -4  -3 2064.74   42.65   3
  -4   5   3 2077.13   35.60   9
  -4  -5  -3 2057.40   35.02   9
   4   5  -3 2039.55   42.84   3
   5  -4  -3 2093.14   37.72   2
   5   4   3 2066.07   42.76   3
  -5  -4  -3 2163.07   37.93   1
   5  -4   3 2079.97   42.52   3
   5   4  -3 2087.17   37.89   2
  -4   5  -3 2120.96   37.68   2
  -4  -5   3 2085.40   35.77   9
   5  -4   3 2091.53   36.63   8
  -4  -5   3 2065.59   42.59   3
   4  -5  -3 2055.34   42.62   3
  -5   4   3 2120.77   37.69   2
   4   5   3 2104.87   37.80   2
  -5   4   3 2079.79   35.62   9
   5   4  -3 2077.43   37.93   1
  -5  -4  -3 2087.31   34.93   9
  -4   5  -3 2101.20   39.87   5
   5   4  -3 2048.39   42.90   3
  -5  -4  -3 2167.71   38.07   2
   4  -5  -3 2097.23   37.63   1
   5  -4   3 2090.39   37.52   2
  -4  -5   3 2120.10   37.87   2
   4  -5  -3 2133.82   37.75   2
  -4   5  -3 2086.52   37.59   1
  -5   4   3 2114.05   40.50   5
   1  -6   3 747.138  16.913   3
   6  -1  -3 725.549  15.057   1
   6  -1  -3 733.843  17.133   3
  -1  -6  -3 722.879  15.007   1
  -6  -1   3 735.961  14.349   9
  -1  -6  -3 749.184  14.107   9
   1  -6   3 764.644  14.999   2
  -1   6   3 742.627  15.038   2
   6   1   3 757.496  15.000   2
  -6  -1   3 760.848  15.145   2
  -1  -6  -3 768.812  15.170   2
  -6   1  -3 745.185  14.988   1
  -6  -1   3 778.944  16.315   5
  -6   1  -3 750.527  13.815   9
   6   1   3 737.385  17.197   3
   1  -6   3 722.558  14.288   9
  -6   1  -3 753.433  15.184   2
  -6  -1   3 772.395  16.103   7
   6  -1  -3 742.389  15.158   2
   1   6  -3 756.767  15.102   1
   6  -1  -3 748.096  15.167   2
  -1  -6  -3 731.254  17.077   3
   1   6  -3 764.858  15.111   2
  -1  -6   3 766.259  15.104   2
   1  -6  -3 775.236  15.124   1
   1   6   3 746.470  15.075   2
  -6  -1  -3 754.373  13.732   9
   6   1  -3 776.899  15.277   2
   1  -6  -3 757.070  15.097   2
  -6   1   3 773.089  15.152   2
   1  -6  -3 741.021  17.069   3
  -1  -6   3 759.560  16.927   3
   6  -1   3 747.681  14.980   2
  -1   6  -3 747.869  15.088   2
  -1  -6   3 721.082  14.361   9
  -6  -1  -3 742.331  15.059   1
  -1   6  -3 761.951  15.031   1
  -6   1   3 735.053  14.330   9
  -6  -1  -3 754.563  15.324   2
  -6   1   3 757.009  16.577   5
   6   1  -3 751.291  15.210   1
   6  -1   3 752.187  17.079   3
   6   1  -3 723.306  17.166   3
  -6  -3   3 27.5625  2.3522   2
  -6  -3   3 31.9483  2.2121   4
  -6  -3   3 30.4690  2.4064   9
   6  -3  -3 29.2211  2.6751   3
   3   6  -3 28.9522  2.4279   2
   3  -6   3 28.8861  2.4770   3
  -6   3  -3 30.4201  2.1408   9
  -3  -6  -3 24.1573  2.5404   3
  -3  -6  -3 35.5027  2.5696   2
   3  -6   3 29.6473  2.3137   2
   3   6  -3 30.6745  2.4294   1
   6  -3  -3 28.6249  2.3559   2
  -3  -6  -3 28.0881  2.1684   9
   6  -3  -3 31.4504  2.4425   1
   6   3   3 28.8759  2.4063   2
   6   3   3 28.7996  2.6875   3
  -3   6   3 33.0600  2.3817   2
   3  -6  -3 37.2806  2.4795   1
  -6  -3  -3 27.6129  2.0202   9
  -6  -3  -3 32.4404  2.5639   2
  -6  -3  -3 29.5230  2.2449   1
  -6   3   3 29.1990  3.0211   5
   3  -6  -3 44.3482  3.0052   3
  -3  -6   3 24.9565  2.3724   9
  -3   6  -3 35.0703  2.3710   1
   6  -3   3 37.3052  2.8054   8
  -6   3   3 30.6472  2.2823   2
  -3  -6   3 31.8446  2.7724   3
   3   6   3 32.6389  2.4091   2
   6   3  -3 36.0249  2.5783   1
   6  -3   3 31.2212  2.3154   2
   6   3  -3 29.5090  2.7660   3
  -3  -6   3 30.8551  2.5239   2
   3  -6  -3 29.7538  2.3252   2
  -3   6  -3 27.9721  2.3726   5
   6  -3   3 30.2713  2.6089   3
   6   3  -3 29.8269  2.4609   2
  -6   5  -3 670.800  15.904   5
  -5   6   3 662.290  14.468   2
  -5  -6  -3 649.055  13.306   9
   5   6  -3 684.449  14.763   1
   5  -6   3 664.160  16.269   3
  -6   5  -3 671.838  14.415   1
  -5  -6  -3 665.773  14.664   1
   5   6  -3 674.751  16.679   3
  -5   6   3 663.253  13.899   9
   6  -5  -3 681.268  14.630   1
  -6  -5   3 675.178  16.389   3
   6   5   3 665.669  14.616   2
   5  -6   3 669.070  14.339   2
   6  -5  -3 653.326  14.526   2
   6  -5  -3 678.706  16.599   3
  -5  -6  -3 660.974  16.626   3
  -6  -5   3 678.378  14.020   9
  -6   5  -3 679.282  13.634   9
  -6  -5   3 673.705  14.692   2
   5   6   3 693.748  14.712   2
   5  -6  -3 687.556  14.648   2
  -5  -6   3 668.219  14.036   9
   6   5  -3 679.671  14.837   1
   5  -6  -3 660.717  16.379   3
   5  -6  -3 685.732  14.523   1
  -6  -5  -3 702.025  14.822   1
   6  -5   3 692.494  16.414   3
  -5   6  -3 664.094  14.414   1
  -6   5   3 685.644  14.530   2
  -6  -5  -3 670.714  13.374   9
  -5  -6   3 677.697  14.730   2
   6  -5   3 670.799  14.291   2
  -5   6  -3 672.487  15.551   5
  -5   6  -3 679.415  13.765   9
   6  -5   3 691.394  14.013   8
  -5  -6   3 663.109  16.415   3
   6   5  -3 650.335  16.664   3
  -6   5   3 661.675  13.803   9
   7   0  -3 2.48253 1.53105   3
   7   0   3 -0.0360  1.4182   3
   7   0  -3 1.14327 1.31041   2
  -7   0  -3 4.49300 1.25192   9
   0  -7  -3 0.64210 1.26215   1
  -7   0   3 0.63222 1.56867   5
  -7   0   3 0.58002 1.23408   2
  -7   0   3 0.41265 1.09874   9
   0  -7  -3 -0.1197  1.1846   9
   0  -7   3 2.51539 1.35819   9
   7   0  -3 0.85390 1.31328   1
   0   7  -3 -0.6143  1.0069   1
   7   0   3 0.67337 1.21294   2
  -7   0  -3 0.54677 1.13410   1
   0   7   3 0.48871 1.20724   2
   0  -7  -3 2.26161 1.30836   2
   0  -7   3 1.15845 1.32566   2
   0  -7  -3 1.05949 1.37851   3
  -2  -7  -3 785.258  15.121   9
   2  -7   3 792.999  18.156   3
  -7   2  -3 781.046  14.860   9
   2   7  -3 776.782  16.262   1
   7   2   3 761.987  16.087   2
   7  -2  -3 752.182  18.383   3
  -2  -7  -3 776.938  18.358   3
   2  -7   3 776.546  15.933   2
  -2   7   3 802.178  16.147   2
  -2  -7  -3 756.051  16.203   2
  -7  -2   3 795.198  16.374   2
   7   2   3 787.773  18.484   3
  -7  -2   3 783.997  15.476   9
   2  -7   3 788.416  15.441   9
   7  -2  -3 791.263  16.272   2
  -2  -7  -3 788.996  16.261   1
  -7   2  -3 785.419  16.123   1
   7  -2  -3 770.313  16.224   1
  -2  -7   3 799.548  18.267   3
   2  -7  -3 805.830  16.275   2
  -7  -2  -3 803.623  16.293   1
  -7   2   3 780.405  16.166   2
  -7   2   3 777.804  17.830   5
   7   2  -3 788.437  16.321   1
   2   7   3 790.983  16.281   2
  -7  -2  -3 782.109  14.764   9
  -2   7  -3 778.105  16.070   1
   2  -7  -3 782.779  16.228   1
   7   2  -3 781.027  16.348   2
   7  -2   3 785.451  16.047   2
   2  -7  -3 758.456  18.241   3
  -2  -7   3 781.727  16.253   2
   7   2  -3 776.257  18.505   3
  -2  -7   3 780.901  15.614   9
   7  -2   3 794.024  18.307   3
  -7   2   3 761.737  15.307   9
   7  -4  -3 268.624   8.463   3
   7   4   3 259.213   7.419   2
  -4   7   3 255.911   7.071   9
  -7   4  -3 260.441   6.828   9
  -7   4  -3 264.873   7.437   1
   4  -7   3 248.519   8.051   3
  -7  -4   3 253.917   7.611   2
   4   7  -3 263.088   7.655   1
  -4   7   3 246.992   7.288   2
  -7  -4   3 254.751   7.199   9
  -4  -7  -3 253.393   6.785   9
   7  -4  -3 260.351   7.590   2
   7   4   3 262.951   8.499   3
  -4  -7  -3 272.777   8.654   3
  -4  -7  -3 259.825   7.499   1
  -7   4  -3 259.616   8.512   5
  -7   4  -3 253.185   7.316   1
   7  -4  -3 284.538   7.663   1
   4  -7   3 259.319   7.279   2
  -4  -7   3 261.040   8.387   3
   4  -7  -3 264.133   8.484   3
   4  -7  -3 268.337   7.483   1
  -4   7  -3 255.173   7.337   1
   4  -7  -3 266.663   7.494   2
  -7  -4  -3 270.901   6.725   9
   7   4  -3 265.132   7.683   1
   7  -4   3 246.870   7.114   2
   7   4  -3 260.222   8.655   3
  -7   4   3 250.830   7.325   2
   4   7   3 264.080   7.532   2
   7  -4   3 246.495   8.222   3
   7  -4   3 259.264   7.531   8
  -7   4   3 253.340   7.114   9
  -4  -7   3 255.638   7.295   9
  -4  -7   3 254.035   7.470   2
  -7   4   3 252.219   8.472   5
  -7  -4  -3 267.788   7.618   1
  -7   6  -3 173.607   6.094   1
  -6   7   3 183.983   6.170   2
  -6   7   3 172.293   6.033   9
   7   6   3 167.192   6.164   2
  -7  -6   3 153.792   6.092   2
   6  -7   3 174.012   6.018   2
  -7   6  -3 155.692   6.567   5
  -6  -7  -3 165.298   6.090   1
  -7   6  -3 172.386   6.063   1
  -7  -6   3 168.589   5.975   9
   6   7  -3 173.115   6.312   1
  -7   6  -3 165.625   5.695   9
   7   6  -3 177.940   6.489   1
  -7   6   3 167.074   6.016   2
  -6   7  -3 167.441   5.665   9
  -6  -7   3 165.885   6.188   2
   7  -6   3 161.594   5.793   2
  -6  -7   3 168.183   5.990   9
  -7   6   3 158.969   5.736   9
   6   7   3 177.648   6.246   2
  -6   7  -3 167.222   6.653   5
  -6   7  -3 167.822   5.968   1
  -7  -6  -3 178.023   6.390   1
  -1  -8  -3 2052.59   43.55   3
   1   8  -3 2134.20   38.47   1
   8  -1  -3 1990.89   43.43   3
  -1  -8  -3 2074.42   36.04   9
  -8  -1   3 2036.16   36.19   9
  -8  -1   3 2129.78   41.13   5
  -8   1  -3 2136.80   35.71   9
   1  -8   3 2059.97   43.15   3
   8   1   3 2079.08   38.29   2
   1  -8   3 2072.23   38.26   2
  -8  -1   3 2085.52   38.50   2
   8  -1  -3 2067.32   38.55   1
  -8   1  -3 2074.08   38.32   1
  -1  -8  -3 2121.17   38.60   2
   8   1   3 2079.72   38.24   2
   8   1   3 2107.77   43.61   3
  -1   8   3 2106.92   38.40   2
  -1  -8  -3 2062.27   38.43   1
   1  -8   3 2064.11   36.32   9
   1   8   3 2034.92   38.21   2
  -1  -8   3 2069.70   36.46   9
   1  -8  -3 2129.75   38.55   2
   8   1  -3 2136.20   38.62   1
  -8   1   3 2066.74   38.44   2
  -1  -8   3 2139.63   43.30   3
   1  -8  -3 2066.41   38.41   1
   8  -1   3 2059.59   38.18   2
   8  -1   3 2121.66   43.47   3
  -8  -1  -3 2090.58   38.43   1
   1  -8  -3 2019.35   43.34   3
   8   1  -3 2058.60   43.55   3
  -8   1   3 2055.13   36.21   9
  -8   1   3 2086.69   41.30   5
  -1   8  -3 2039.42   38.26   1
  -1  -8   3 2093.45   38.32   2
  -8  -1  -3 2070.81   35.50   9
   8  -3  -3 144.997   6.362   3
   8   3   3 154.705   6.522   3
  -8  -3   3 155.004   5.738   2
   8   3   3 159.292   5.766   2
   3  -8   3 163.632   6.313   3
   3  -8   3 160.034   5.647   2
  -3   8   3 165.648   5.776   2
  -3  -8  -3 159.530   5.792   1
  -8   3  -3 156.652   5.527   1
   8  -3  -3 162.950   5.844   1
  -8   3  -3 158.458   6.673   5
  -3  -8  -3 156.936   6.547   3
  -3  -8  -3 155.011   5.324   9
  -8  -3   3 158.594   5.487   9
  -8   3  -3 150.709   5.057   9
   3   8  -3 159.390   5.789   1
  -8   3   3 152.859   5.450   9
   8  -3   3 155.769   5.483   2
  -8   3   3 161.767   5.688   2
  -8   3   3 158.230   6.654   5
   3   8   3 150.980   5.629   2
   8   3  -3 162.849   5.916   1
   8   3  -3 161.243   6.696   3
  -3  -8   3 160.449   5.622   9
  -3  -8   3 167.316   5.871   2
  -3   8  -3 160.722   5.615   1
   8  -3   3 166.530   6.540   3
   8  -3   3 173.900   6.523   8
  -3  -8   3 156.384   6.394   3
   3  -8  -3 161.436   6.506   3
   3  -8  -3 150.442   5.529   1
  -8  -3  -3 156.406   5.791   1
  -8  -5   3 2023.39   36.80   9
   8   5   3 1999.82   38.89   2
  -5   8   3 2056.77   38.92   2
  -8   5  -3 2067.70   36.42   9
  -8   5  -3 2147.80   39.07   1
  -8   5  -3 1997.43   41.80   5
   5   8  -3 2111.04   39.36   1
  -8  -5   3 2126.31   39.37   2
  -5   8   3 2100.47   36.98   9
   5  -8   3 2097.95   38.74   2
  -5  -8  -3 2036.95   36.29   9
  -5   8  -3 2120.06   39.10   1
  -5  -8   3 2085.04   39.08   2
  -8   5   3 2011.03   41.89   5
  -8  -5  -3 2081.36   39.14   1
  -8   5   3 2074.64   36.90   9
   8   5  -3 2104.41   39.42   1
   8  -5   3 2093.58   38.00   8
  -5  -8   3 2105.50   37.10   9
  -8   5   3 2042.82   38.89   2
   8  -5   3 2070.39   38.67   2
   5   8   3 2053.60   39.02   2
  -7   8   3 327.545   9.445   9
   7  -8   3 335.564   9.573   2
   8   7   3 343.610   9.899   2
  -8  -7   3 341.829   9.723   9
  -7   8   3 339.392   9.845   2
  -8  -7   3 331.162   9.896   2
  -8   7  -3 357.044   9.409   9
  -8   7  -3 328.591  10.856   5
  -7   8  -3 335.539  10.681   5
   8  -7   3 335.667   9.568   2
  -7   8  -3 344.955   9.415   9
  -8   7   3 327.082   9.348   9
  -7  -8   3 348.908   9.691   9
  -8   7   3 317.513   9.655   2
  -7  -8   3 345.854   9.911   2
   7   8   3 338.845   9.908   2
   0   9   3 -0.3429  1.6914   2
  -9   0  -3 0.53437 1.44408   9
  -9   0   3 -0.9556  1.5744   9
   0  -9   3 -1.2656  1.5039   2
   0  -9   3 -1.2995  1.5249   9
   9   0   3 0.17900 1.56449   2
  -9   0  -3 1.57972 1.67767   1
   0  -9  -3 0.13824 1.60817   1
   0   9  -3 0.16164 1.61498   1
   9   0  -3 1.08601 1.76450   1
  -9   0   3 3.98390 1.88096   2
  -9   0   3 -0.8593  1.9646   5
   2  -9   3 756.873  16.916   2
   9   2   3 786.337  17.121   2
  -2  -9  -3 790.878  17.353   1
  -9   2  -3 797.961  15.884   9
  -9   2  -3 797.151  17.264   1
   9  -2  -3 818.592  17.455   1
  -2  -9  -3 794.728  16.148   9
  -9  -2   3 793.224  17.357   2
   9   2   3 784.240  17.083   2
   2   9  -3 800.455  17.395   1
  -2   9   3 761.621  17.048   2
  -9  -2   3 776.813  16.337   9
  -9   2   3 794.654  16.436   9
   9  -2   3 776.482  17.062   2
  -2  -9   3 790.111  16.636   9
  -2   9  -3 805.774  17.214   1
   2   9   3 792.805  17.307   2
   9   2  -3 797.184  17.437   1
  -9   2   3 771.292  17.155   2
  -9   2   3 763.772  18.969   5
  -2  -9   3 805.764  17.307   2
  -9  -2  -3 796.578  17.337   1
  -9   4  -3 410.339   9.885   9
  -9  -4   3 386.139  10.788   2
  -4   9   3 393.744  10.611   2
   4   9  -3 417.607  11.071   1
  -9   4  -3 383.425  12.045   5
  -9   4  -3 399.628  10.717   1
   9   4   3 406.983  10.862   2
  -9  -4   3 415.863  10.484   9
  -4  -9  -3 394.129   9.998   9
   4  -9   3 404.312  10.597   2
  -4   9   3 403.791  10.378   9
  -9   4   3 407.211  12.312   5
  -9   4   3 403.120  10.328   9
  -4  -9   3 393.503  10.666   2
  -4   9  -3 406.253  10.774   1
   9  -4   3 397.172  10.516   2
  -9   4   3 415.399  10.760   2
   9  -4   3 406.055  11.109   8
  -4  -9   3 396.824  10.500   9
   4   9   3 398.286  10.701   2
  -9  -6   3 83.1970  4.6668   9
  -9   6  -3 79.5465  5.3720   5
  -9  -6   3 78.5040  4.7528   2
   6  -9   3 75.6007  4.4021   2
   9   6   3 81.1721  4.6737   2
  -6   9   3 84.8150  4.5126   9
  -9   6  -3 77.1354  4.3223   9
  -6   9   3 73.3114  4.5265   2
  -6  -9   3 72.9611  4.5192   9
  -6   9  -3 73.9300  4.3703   9
  -9   6   3 72.8227  4.4979   9
  -9   6   3 78.4502  4.6350   2
   6   9   3 77.4518  4.6121   2
  -6  -9   3 77.6517  4.7145   2
   9  -6   3 80.8702  4.5229   2
  -8   9   3 400.526  11.531   2
   9   8   3 399.858  11.649   2
  -8   9   3 378.334  10.982   9
  -9   8  -3 422.986  13.045   5
  -9  -8   3 388.189  11.591   2
   8  -9   3 424.618  11.396   2
  -9  -8   3 405.601  11.276   9
  -9   8  -3 400.437  10.899   9
   9  -8   3 414.561  11.503   2
  -8  -9   3 395.692  11.692   2
   8   9   3 415.343  11.705   2
  -9   8   3 390.389  11.391   2
  -8  -9   3 402.973  11.298   9
  -8   9  -3 399.314  11.064   9
  10   1   3 91.6443  4.7313   2
 -10  -1   3 83.3887  4.6203   2
  -1 -10  -3 96.5720  4.6706   9
 -10   1  -3 92.9762  4.3957   9
   1 -10   3 85.6816  4.4587   2
 -10  -1   3 81.1411  4.3967   9
  -1  10   3 81.8669  4.4877   2
   1 -10   3 94.0122  4.7640   9
   1  10   3 96.1227  4.7946   2
  -1 -10   3 98.0408  4.7606   9
  -1  10  -3 82.2339  4.4685   1
 -10   1   3 83.8681  4.4579   9
  10  -1   3 99.3716  4.8282   2
 -10   1   3 86.0592  5.3939   5
 -10   1   3 87.2993  4.6679   2
  -1 -10   3 83.0421  4.5714   2
   3 -10   3 19.4472  2.8765   2
 -10   3  -3 21.4659  3.6592   5
 -10  -3   3 19.2589  3.0256   2
  10   3   3 17.5192  2.8878   2
  -3 -10  -3 17.6562  2.7481   9
 -10   3  -3 19.3493  2.6276   9
  10   3   3 21.9929  2.9989   2
  -3  10   3 15.8472  2.7646   2
 -10  -3   3 18.0692  2.8780   9
 -10   3   3 16.5081  2.6806   9
   3  10   3 20.3214  2.9974   2
  -3 -10   3 21.0997  2.9286   2
  10  -3   3 14.7495  2.6648   2
 -10   3   3 19.6674  2.8986   2
 -10   3   3 20.0971  3.4805   5
  -3 -10   3 21.4210  3.0360   9
  10  -3   3 21.9859  3.4681   8
 -10  -5   3 112.514   5.622   2
 -10  -5   3 107.932   5.314   9
 -10   5  -3 97.4458  5.9142   5
 -10   5  -3 100.888   4.881   9
  -5  10   3 102.768   5.281   9
  -5  10   3 105.482   5.299   2
   5 -10   3 98.3826  5.0697   2
  10   5   3 104.754   5.503   2
  -5 -10   3 108.569   5.418   2
  -5 -10   3 106.985   5.396   9
   5  10   3 98.8998  5.4096   2
 -10   5   3 107.926   5.288   9
  10  -5   3 104.820   5.259   2
 -10   5   3 104.688   6.268   5
 -10   5   3 107.141   5.341   2
  -7  10   3 4.04976 2.37282   9
 -10  -7   3 5.30454 2.59214   2
 -10  -7   3 5.81836 2.57287   9
 -10   7  -3 3.61286 2.36984   9
   7 -10   3 4.62693 2.30266   2
  10   7   3 5.85061 2.55776   2
  -7  10   3 4.01399 2.39417   2
 -10   7  -3 3.22893 2.74883   5
  10  -7   3 6.36146 2.49399   2
 -10   7   3 4.61198 2.62687   2
  -7 -10   3 4.17447 2.55440   9
 -10   7   3 2.14824 2.20867   9
  -7 -10   3 2.53265 2.49436   2
   7  10   3 0.46938 2.40019   2
  -7  10  -3 2.22828 2.35101   9
   0  11   3 1.09566 2.03193   2
   0 -11   3 -0.1876  2.0534   9
  11   0   3 1.04102 2.06719   2
   0 -11   3 1.89967 2.20707   2
 -11   0   3 0.60050 2.02745   2
   2 -11   3 963.344  21.192   2
 -11  -2   3 991.892  21.658   2
 -11  -2   3 1001.61   20.48   9
 -11   2  -3 988.897  23.968   5
  -2  11   3 992.426  21.525   2
  -2 -11  -3 1008.47   20.49   9
  11   2   3 972.129  21.391   2
  -2 -11   3 1015.75   21.02   9
 -11   2   3 988.151  20.532   9
  11  -2   3 938.116  22.516   8
   2  11   3 965.925  21.626   2
  11  -2   3 958.415  21.217   2
 -11   2   3 1017.95   23.96   5
 -11   2   3 979.448  21.601   2
  -2 -11   3 983.129  21.513   2
 -11  -4   3 421.804  12.013   2
 -11   4  -3 412.353  13.429   5
  -4  11   3 416.942  11.482   9
   4 -11   3 413.456  11.555   2
  11   4   3 406.590  11.725   2
  11   4   3 419.434  11.786   2
 -11  -4   3 429.248  11.479   9
  -4  11   3 430.591  11.885   2
 -11   4   3 435.449  11.989   2
  -4 -11   3 428.890  11.648   9
  11  -4   3 427.809  12.306   8
  11  -4   3 422.319  11.591   2
 -11   4   3 416.779  11.448   9
  -4 -11   3 422.624  11.859   2
   4  11   3 427.738  11.911   2
 -11   4   3 417.137  13.392   5
   1 -12   3 378.634  11.344   2
  12   1   3 393.208  11.343   2
  -1  12   3 411.036  11.809   2
 -12  -1   3 401.260  11.804   2
 -12  -1   3 417.934  11.372   9
 -12   1  -3 412.535  13.473   5
 -12   1   3 407.542  11.848   2
  12  -1   3 376.692  12.660   8
  -1 -12   3 383.682  11.353   9
 -12   1   3 420.742  11.397   9
   1  12   3 408.641  11.861   2
 -12   1   3 411.535  13.325   5
  -1 -12   3 418.285  11.823   2
  12  -1   3 403.598  11.553   2
   0   0   4 1662.18   26.81   6
   1   1  -4 824.777  16.562   3
   1   1  -4 850.500  16.607   3
  -1   1   4 849.935  14.422   2
  -1   1   4 839.336  14.155   6
   1  -1  -4 836.871  16.628   3
  -1   1  -4 872.906  16.529   3
  -1  -1   4 835.919  14.351   6
   1   1   4 851.266  14.318   6
   1  -1   4 854.253  14.157   6
   2   0   4 1421.09   27.98   3
   0   2  -4 1384.55   28.23   3
   2   0   4 1475.43   24.72   2
   0   2   4 1468.48   23.85   6
   0  -2   4 1479.03   27.93   3
  -2   0   4 1464.63   28.08   3
  -2   0   4 1483.18   24.84   2
  -2   0   4 1417.97   23.49   6
   0  -2   4 1433.04   24.75   2
  -2   0  -4 1433.17   28.29   3
  -2   0   4 1463.42   25.04   8
   0   2  -4 1476.48   28.20   3
   2   0   4 1463.08   23.47   6
   2   0  -4 1438.88   28.32   3
   0   2   4 1473.55   24.93   2
   2   0   4 1450.66   24.97   8
   0  -2  -4 1428.78   28.33   3
   2  -2   4 2097.54   39.61   3
  -2   2   4 2039.93   35.09   2
   2   2  -4 1981.31   39.91   3
  -2  -2   4 2037.05   38.13   7
  -2  -2   4 2028.95   39.64   3
   2  -2   4 2084.44   34.96   2
  -2  -2   4 2096.81   39.72   3
  -2  -2   4 2007.10   33.81   4
  -2  -2   4 1998.11   34.79   8
  -2   2   4 2049.56   32.71   6
   2  -2   4 2011.99   34.51   8
  -2  -2   4 2053.44   35.12   2
   2   2   4 2049.20   35.10   2
   2  -2   4 2057.84   32.76   6
   2  -2  -4 1993.50   39.86   3
  -2   2   4 2017.27   33.48   4
  -2   2   4 2059.49   39.72   3
   2   2   4 1991.69   34.50   8
  -3  -1   4 523.039   9.939   9
  -3  -1   4 530.197  11.430   3
   3   1   4 527.182  10.626   8
  -1   3   4 539.588  10.135   2
  -3   1  -4 517.220  10.110   1
   3   1   4 539.320  10.054   2
  -1  -3  -4 527.911  11.654   3
   1   3  -4 529.140  10.244   1
  -3  -1   4 522.340   9.810   4
  -3  -1   4 522.530  10.097   2
   3  -1  -4 545.258  11.657   3
   1   3  -4 531.712  11.620   3
   3   1   4 534.418  11.473   3
   1  -3   4 548.199  10.032   2
  -1   3   4 549.704  11.475   3
  -1  -3  -4 527.605  10.264   1
  -1   3   4 538.325  10.259   4
  -3  -1   4 549.519  11.357   7
  -3  -1   4 556.088  10.608   5
   1  -3   4 542.178  11.332   3
   1  -3   4 524.609   9.876   8
   3  -1  -4 521.477  10.210   1
   1  -3  -4 531.491  11.583   3
  -3   1   4 546.805   9.342   6
  -3  -1  -4 540.158  10.195   1
   3  -1   4 533.921  11.401   3
  -1  -3   4 527.019  10.141   2
   3  -1   4 538.876   9.220   6
  -1  -3   4 518.694  10.036   8
   3  -1   4 535.040  10.546   8
   3   1  -4 524.991  11.625   3
  -3   1   4 533.026  10.106   2
   3   1  -4 524.927  10.234   1
  -3   1   4 557.013  11.485   3
  -1  -3   4 528.461  11.464   3
   1   3   4 536.147  10.205   2
  -1  -3   4 542.654  11.327   3
   3  -1   4 536.448   9.974   2
  -1  -3   4 532.676  11.647   7
  -1   3  -4 521.320  10.071   1
   1  -3  -4 518.129  10.184   1
  -3   3   4 280.989   6.092   4
   3   3   4 264.845   6.203   2
   3  -3  -4 263.436   7.092   3
   3  -3   4 267.607   6.013   2
  -3   3   4 275.850   5.438   6
   3  -3   4 276.920   6.160   8
   3  -3   4 262.306   6.879   3
  -3  -3   4 276.533   7.068   3
  -3  -3   4 271.529   6.280   9
  -3   3   4 272.299   6.183   2
   3  -3  -4 282.837   6.315   2
   3  -3  -4 270.912   6.224   1
  -3   3   4 262.535   6.056   9
  -3  -3   4 258.463   6.220   2
  -3   3  -4 260.840   6.097   1
  -3  -3   4 280.963   6.584   4
   3   3  -4 271.037   7.263   3
   3   3  -4 266.533   6.343   1
   3   3   4 273.434   6.424   8
  -3  -3  -4 256.336   6.267   1
  -4   0   4 1784.81   32.37   7
   4   0   4 1670.24   30.96   8
   4   0  -4 1772.05   34.94   3
   0  -4   4 1744.49   34.48   3
   0  -4  -4 1701.64   34.76   3
   0  -4   4 1771.95   29.57   8
   0   4   4 1713.40   30.63   2
   4   0   4 1755.16   28.07   6
   0  -4   4 1742.04   29.14   9
  -4   0  -4 1726.43   30.63   1
   0  -4  -4 1729.47   30.71   1
   4   0   4 1772.38   30.52   2
  -4   0   4 1748.16   30.61   2
   4   0  -4 1730.42   30.77   1
  -4   0   4 1743.51   29.19   9
   0  -4   4 1729.97   30.58   2
  -4   0   4 1773.05   28.77   4
   4   0   4 1762.63   34.74   3
   0   4  -4 1729.88   30.65   1
  -4   0   4 1722.93   32.60   5
   0  -4   4 1685.06   32.98   7
  -4  -2   4 1335.22   26.55   7
  -2  -4  -4 1345.87   27.59   3
   4  -2  -4 1329.93   24.21   1
  -4  -2   4 1389.91   25.17   5
  -4  -2   4 1355.04   24.18   2
   4   2   4 1337.98   27.37   3
   2  -4   4 1326.13   23.95   2
  -4   2  -4 1326.63   22.45   9
  -2   4   4 1343.20   22.88   9
  -4   2  -4 1302.04   24.07   1
   2   4  -4 1336.07   24.28   1
   2   4  -4 1372.56   24.24   2
  -2  -4  -4 1355.08   24.26   2
  -2  -4  -4 1301.42   24.24   1
  -4  -2   4 1370.55   23.05   4
  -4  -2   4 1279.73   23.01   9
   2  -4   4 1339.66   22.79   9
   4  -2  -4 1337.72   24.25   2
   4  -2  -4 1345.52   27.48   3
   4   2   4 1318.34   24.07   2
   2   4  -4 1294.93   27.46   3
   2  -4   4 1334.90   23.14   8
   2  -4   4 1352.70   27.14   3
  -2   4   4 1363.23   24.11   2
  -4   2   4 1340.79   24.11   2
   4  -2   4 1324.08   21.64   6
  -2  -4   4 1355.37   23.69   8
   4   2  -4 1338.44   24.30   1
   4  -2   4 1363.57   23.97   2
  -4   2   4 1305.00   26.02   5
   2  -4  -4 1377.42   27.45   3
   4   2  -4 1352.81   24.37   2
   2  -4  -4 1300.46   24.12   1
  -4   2   4 1349.14   23.06   9
  -4   2   4 1315.26   22.48   4
  -4  -2  -4 1320.49   24.22   1
   2   4   4 1331.94   24.19   2
   4   2  -4 1354.73   27.55   3
  -2  -4   4 1314.00   24.18   2
  -2   4  -4 1328.46   25.36   5
  -2   4  -4 1304.11   23.99   1
  -2  -4   4 1314.48   23.11   9
   4  -2   4 1319.96   27.20   3
  -2  -4   4 1329.29   27.18   3
  -4   2   4 1336.94   21.71   6
   4  -2   4 1297.34   24.04   8
   2  -4  -4 1326.07   24.19   2
  -4  -2  -4 1339.11   24.38   2
   4  -4   4 650.740  12.644   8
  -4  -4  -4 614.405  13.079   1
  -4   4   4 636.831  12.988   2
  -4  -4   4 623.436  12.659   9
  -4   4   4 651.130  11.295   6
  -4   4   4 643.066  12.567   9
   4  -4   4 643.077  12.790   2
  -4  -4   4 635.170  13.102   2
  -4  -4   4 637.561  14.763   3
   4  -4  -4 656.081  13.121   2
   4  -4   4 650.650  14.600   3
   4  -4  -4 632.055  14.809   3
   4  -4  -4 631.431  13.044   1
  -4   4  -4 650.640  14.230   5
   4   4   4 659.966  13.492   8
   4   4   4 634.119  13.093   2
  -4  -4  -4 639.263  11.814   9
  -4   4  -4 613.732  12.863   1
   4   4  -4 653.833  13.275   1
   4   4  -4 653.418  15.062   3
  -5   1  -4 211.881   5.390   1
   1  -5   4 201.758   5.902   3
   5  -1  -4 203.753   5.429   1
   1   5  -4 215.079   5.431   2
  -1   5   4 207.844   5.332   2
   5   1   4 202.328   5.269   2
  -5   1  -4 213.209   4.828   9
  -5  -1   4 219.620   6.063   5
   1  -5   4 207.574   5.295   2
  -1  -5  -4 206.987   4.957   9
  -5  -1   4 211.153   5.950   7
  -1  -5  -4 203.009   5.433   1
   5  -1  -4 205.984   6.184   3
  -5  -1   4 207.055   5.416   9
   5   1   4 204.393   6.194   3
   5  -1  -4 213.987   5.521   2
  -1  -5  -4 213.346   6.277   3
   1   5  -4 206.959   5.426   1
   5   1   4 205.984   5.298   2
   1  -5   4 211.427   4.701   8
  -5  -1   4 212.382   5.466   2
   5  -1  -4 206.886   5.469   2
   5   1   4 204.189   4.713   6
  -5  -1   4 211.114   4.862   4
  -1  -5  -4 207.728   5.418   2
   1  -5   4 204.055   5.204   9
  -5   1  -4 216.484   5.558   2
   5   1  -4 202.196   6.183   3
  -5  -1  -4 208.264   5.421   1
  -1  -5   4 204.299   5.376   2
   1   5   4 208.159   5.447   2
   5   1  -4 210.819   5.553   2
  -5  -1  -4 208.770   5.598   2
   5  -1   4 216.746   4.192   6
  -1  -5   4 204.119   5.368   9
   5   1  -4 201.660   5.440   1
  -5   1   4 211.461   6.303   5
  -1  -5   4 205.558   5.964   3
  -5   1   4 207.999   4.631   4
  -5   1   4 206.766   5.307   9
   5  -1   4 203.159   6.034   3
   5  -1   4 205.981   5.268   2
   1  -5  -4 201.703   5.434   2
   1  -5  -4 212.249   6.197   3
  -1  -5   4 216.951   4.995   8
  -5   1   4 209.471   5.382   2
  -1   5  -4 199.366   5.297   1
   5  -1   4 206.605   6.290   8
   1  -5  -4 203.306   5.413   1
  -1   5  -4 218.656   5.439   2
  -5  -3   4 864.270  18.948   3
  -5   3  -4 877.851  15.526   9
  -5  -3   4 825.289  16.027   9
  -3  -5  -4 838.267  19.061   3
  -3  -5  -4 862.100  15.377   9
   3   5  -4 840.464  19.063   3
  -5  -3   4 837.043  16.794   2
  -5  -3   4 877.792  16.056   4
  -3   5   4 858.297  16.684   2
   5   3   4 857.090  16.659   2
   5  -3  -4 842.205  16.728   1
   3   5  -4 855.698  16.871   1
   3  -5   4 870.237  16.519   2
  -5   3  -4 871.659  16.649   1
   5  -3  -4 850.172  16.761   2
   5  -3  -4 849.500  19.068   3
   3  -5   4 851.172  18.679   3
   5   3   4 872.705  19.026   3
   3  -5   4 871.054  15.621   8
  -3  -5  -4 804.926  16.713   1
  -3   5   4 839.099  15.877   9
  -5   3   4 837.844  15.930   9
   3  -5  -4 848.052  16.683   1
   3  -5  -4 859.197  19.010   3
   5  -3   4 840.913  16.664   8
  -3  -5   4 885.352  18.872   3
  -3   5  -4 827.542  16.544   1
  -5   3   4 860.811  18.458   5
   5  -3   4 847.138  16.443   2
  -3  -5   4 850.440  16.778   2
  -5   3   4 837.739  16.637   2
  -3  -5   4 844.780  16.115   9
   5  -3   4 856.177  18.803   3
  -5  -3  -4 874.246  16.901   1
   5   3  -4 823.764  16.829   1
   3   5   4 856.229  16.783   2
   5   3  -4 840.041  19.190   3
   3  -5  -4 875.746  16.767   2
  -5   3   4 848.284  15.281   4
  -5  -3  -4 850.188  15.132   9
  -3   5  -4 873.489  17.683   5
  -5   5   4 160.858   5.116   9
   5  -5   4 158.893   5.755   3
  -5  -5  -4 156.642   4.544   9
  -5  -5   4 166.951   5.302   2
   5   5  -4 156.123   5.988   3
  -5   5  -4 159.472   5.073   1
   5  -5   4 152.054   4.934   2
   5   5   4 164.754   5.337   2
   5  -5   4 157.790   4.802   8
  -5   5  -4 179.095   6.028   5
  -5  -5   4 148.621   5.081   9
  -5   5   4 161.836   5.146   2
  -5  -5  -4 151.623   5.192   1
  -5   5  -4 160.354   4.869   9
   5  -5  -4 151.659   5.110   1
  -5  -5   4 160.221   5.936   3
   5  -5  -4 157.579   5.868   3
   5   5  -4 154.844   5.298   1
  -6   0   4 1489.21   27.86   7
   0   6   4 1465.53   26.85   2
   6   0   4 1446.25   26.70   2
   6   0  -4 1420.13   26.93   1
   6   0   4 1487.91   30.49   3
  -6   0   4 1510.17   29.04   5
  -6   0   4 1440.21   25.57   9
   0  -6  -4 1449.92   30.51   3
   0  -6   4 1436.87   30.13   3
  -6   0  -4 1510.72   24.76   9
   6   0  -4 1439.15   30.57   3
   0   6  -4 1418.72   26.78   1
   0  -6  -4 1433.34   26.87   1
   0  -6   4 1452.79   26.74   2
   0  -6  -4 1464.88   27.00   2
   0  -6   4 1428.17   25.51   9
  -6   0  -4 1460.36   26.88   1
  -6   0   4 1442.34   26.90   2
  -6  -2   4 514.668  10.164   4
   6  -2  -4 507.375  11.233   1
   2  -6   4 505.810  10.654   9
  -6  -2   4 513.344  12.599   7
  -6  -2   4 506.233  10.826   9
  -2   6   4 531.771  11.138   2
   6   2   4 519.756  11.124   2
   6  -2  -4 505.818  12.718   3
  -6  -2   4 517.826  11.291   2
  -2  -6  -4 512.114  11.300   1
   2  -6   4 530.048  10.996   2
  -2  -6  -4 504.751  10.273   9
   2   6  -4 501.598  11.263   1
  -6   2  -4 518.139  11.130   1
   2  -6   4 523.248  12.439   3
   6   2   4 502.121  12.666   3
  -6   2  -4 518.352  10.217   9
  -2  -6  -4 503.361  12.785   3
  -6  -2   4 525.913  11.964   5
  -2   6  -4 502.600  10.962   1
  -2  -6   4 502.517  10.889   9
   6   2  -4 531.422  12.926   3
   6  -2   4 523.691  12.065   8
  -6   2   4 527.895  12.637   5
  -6  -2  -4 511.589   9.966   9
   6  -2   4 505.528  10.903   2
  -6   2   4 507.687  11.149   2
  -6   2   4 507.621  10.776   9
  -6  -2  -4 499.200  11.222   1
   2   6   4 524.395  11.313   2
   6   2  -4 520.881  11.375   1
   2  -6  -4 510.358  11.181   1
   6  -2   4 525.383  12.588   3
  -2  -6   4 505.949  11.167   2
   2  -6  -4 505.431  12.667   3
  -2  -6   4 516.349  12.516   3
   6  -4  -4 645.545  15.672   3
  -4  -6  -4 629.538  15.743   3
   6   4   4 648.229  15.697   3
   4   6  -4 652.642  15.886   3
  -6   4  -4 631.703  15.163   5
  -6  -4   4 640.435  13.176   4
   6   4   4 628.150  13.709   2
  -4  -6  -4 621.393  12.486   9
   6  -4  -4 641.341  13.777   1
   4   6  -4 631.098  13.884   1
  -6   4  -4 643.077  13.616   1
  -6  -4   4 641.620  13.851   2
  -4   6   4 640.081  13.175   9
  -6  -4   4 641.800  13.329   9
   4  -6   4 648.478  15.409   3
  -6   4  -4 631.799  12.700   9
  -4  -6  -4 627.002  13.840   1
  -6  -4   4 645.364  15.563   3
   4  -6   4 634.009  13.488   2
  -4   6   4 649.802  13.679   2
   6  -4   4 630.088  13.469   2
  -4   6  -4 642.223  13.674   1
   4  -6  -4 645.908  15.653   3
  -4   6  -4 664.730  14.605   5
   6   4  -4 647.293  15.863   3
   4  -6  -4 653.340  13.778   1
  -6   4   4 654.392  13.740   2
  -4  -6   4 627.584  13.723   2
   4   6   4 629.024  13.737   2
   6   4  -4 645.548  14.051   1
  -4  -6   4 631.442  15.451   3
   6  -4   4 638.812  13.652   8
  -6  -4  -4 631.748  13.874   1
  -6   4   4 630.944  13.148   9
  -4  -6   4 634.783  13.324   9
   6  -4   4 641.251  15.360   3
   6   6   4 1234.04   24.15   2
  -6  -6   4 1199.02   23.03   9
  -6  -6   4 1208.70   24.19   2
  -6  -6  -4 1234.68   27.59   3
  -6  -6   4 1229.88   27.15   3
   6  -6   4 1247.23   27.05   3
  -6   6  -4 1207.39   22.57   9
   6  -6  -4 1213.27   24.14   1
  -6  -6  -4 1242.38   24.36   1
  -6   6  -4 1192.27   23.96   1
  -6   6   4 1208.10   23.97   2
   6   6  -4 1226.60   24.47   1
   6  -6   4 1210.90   23.73   2
   6  -6  -4 1165.26   27.10   3
  -6   6  -4 1225.33   25.86   5
   6   6  -4 1206.65   27.55   3
  -6   6   4 1212.33   23.03   9
  -7  -1   4 384.074   9.129   2
  -1   7   4 365.643   8.959   2
   1   7  -4 380.387   9.134   1
  -7  -1   4 368.557   9.432   7
  -7   1  -4 384.368   8.158   9
   7   1   4 376.415   8.895   2
  -7   1  -4 365.035   9.024   1
   7   1   4 386.518   9.023   2
  -7  -1   4 383.139  10.040   5
   7  -1  -4 364.153   9.123   1
  -1  -7  -4 370.135  10.305   3
  -1  -7  -4 359.458   9.017   1
   1  -7   4 381.502   8.968   2
   1  -7   4 356.527   8.598   9
  -7  -1   4 371.400   8.825   9
  -1  -7  -4 367.316   8.418   9
   7   1   4 372.982  10.287   3
   7  -1  -4 373.507  10.455   3
   1  -7   4 366.571   9.986   3
   1   7   4 375.976   9.075   2
   7   1  -4 363.386  10.332   3
  -7  -1  -4 368.291   8.020   9
   7  -1   4 368.147   8.833   2
  -7   1   4 385.780   9.160   2
  -1  -7   4 388.096   9.087   2
   7   1  -4 368.552   9.154   1
   7  -1   4 368.273  10.196   3
   1  -7  -4 371.452   9.052   1
  -1  -7   4 369.270   8.854   9
  -7   1   4 358.451   8.713   9
  -1  -7   4 370.300  10.004   3
  -7  -1  -4 375.803   9.030   1
  -7   1   4 367.602  10.241   5
   1  -7  -4 375.797  10.313   3
  -1   7  -4 371.111   9.005   1
  -3  -7  -4 227.224   7.753   3
  -3   7   4 237.340   6.735   2
  -7  -3   4 225.530   6.630   9
  -7   3  -4 236.055   6.724   1
  -3  -7  -4 223.809   6.148   9
   7   3   4 229.233   6.622   2
   3  -7   4 236.254   6.637   2
   7  -3  -4 233.797   6.832   1
   3  -7   4 232.736   7.377   3
   7   3   4 235.479   7.658   3
  -7  -3   4 223.485   6.788   2
  -7   3  -4 232.674   6.131   9
   3   7  -4 229.715   6.872   1
  -3  -7  -4 225.867   6.848   1
   7  -3  -4 224.930   7.652   3
   3  -7  -4 237.379   7.699   3
   7  -3   4 238.746   7.317   8
   3  -7  -4 230.246   6.673   1
   3   7   4 225.114   6.733   2
   7  -3   4 229.965   7.550   3
   7   3  -4 227.966   6.869   1
  -3  -7   4 237.941   6.830   2
  -3  -7   4 227.730   6.703   9
  -7   3   4 225.639   6.654   2
   7  -3   4 242.455   6.597   2
   7   3  -4 233.186   7.897   3
  -7   3   4 231.977   7.901   5
  -3  -7   4 228.366   7.454   3
  -3   7  -4 217.984   6.545   1
  -7  -3  -4 223.949   6.729   1
  -7   3   4 221.135   6.474   9
  -7  -5   4 69.6071  4.0036   2
   5  -7   4 81.6835  4.3694   3
   7  -5  -4 74.0922  4.0090   1
  -7   5  -4 76.2592  3.6737   9
  -7   5  -4 73.7540  4.5892   5
  -5  -7  -4 74.2180  4.5996   3
   5   7  -4 75.3570  4.0865   1
  -7  -5   4 77.7011  3.8890   9
  -7   5  -4 73.9203  3.8645   1
   5  -7   4 74.7846  3.8382   2
  -7  -5   4 73.8567  3.8048   4
  -5   7   4 71.0688  3.8788   2
  -7   5  -4 74.5146  3.8660   1
  -5   7   4 74.6453  3.9341   9
  -5  -7  -4 72.7027  3.8823   1
   7   5   4 70.3985  3.8625   2
  -7   5   4 72.8621  3.8836   9
  -7  -5  -4 82.3332  4.0131   1
   5   7   4 72.7936  3.8836   2
   5  -7  -4 70.4914  3.7575   1
  -5  -7   4 72.3762  3.9713   9
   7  -5   4 71.3735  3.6316   2
  -5  -7   4 79.0676  4.0714   2
  -7   5   4 78.5497  3.9732   2
   7  -5   4 74.8635  3.8855   8
   7   5  -4 76.6087  4.1795   1
   7   5  -4 75.9838  4.7189   3
   7  -5   4 75.4832  4.4168   3
  -5   7  -4 73.8917  3.9096   1
  -5   7  -4 73.1705  4.1603   5
  -7  -7   4 246.830   7.943   4
  -7   7  -4 235.219   7.618   1
   7   7   4 247.561   7.832   2
  -7  -7   4 237.023   7.843   2
   7  -7   4 232.250   7.468   2
   7   7  -4 247.642   8.057   1
  -7   7  -4 237.227   8.412   5
  -7  -7  -4 236.005   7.887   1
  -7   7   4 235.459   7.482   9
  -7  -7   4 236.606   7.610   9
  -7   7   4 229.969   7.485   2
  -7   7  -4 237.566   7.265   9
   0   8   4 158.357   5.527   2
  -8   0  -4 158.104   5.550   1
   8   0  -4 162.020   6.379   3
   0  -8  -4 155.227   5.564   1
   0  -8   4 157.950   5.361   9
   0   8  -4 154.360   5.412   1
   8   0   4 151.537   5.320   2
  -8   0   4 165.460   6.455   5
   0  -8   4 159.882   5.389   2
   0  -8  -4 153.799   6.204   3
   8   0  -4 159.429   5.649   1
   0  -8   4 159.920   6.032   3
  -8   0   4 155.598   5.361   9
   8   0   4 169.592   6.408   3
  -8   0   4 166.665   5.533   2
  -8   2  -4 804.558  15.594   9
  -8   2  -4 818.603  17.076   1
  -8  -2   4 805.296  16.387   9
   2  -8   4 811.551  16.868   2
  -2  -8  -4 813.057  17.182   1
  -2  -8  -4 797.612  19.423   3
  -2   8   4 823.598  16.967   2
   8   2   4 787.793  16.866   2
   8  -2  -4 814.608  19.543   3
   8   2   4 826.089  19.461   3
  -2  -8  -4 802.350  15.830   9
   2  -8   4 785.007  16.255   9
   8   2   4 786.643  16.865   2
  -8  -2   4 841.499  18.519   7
   8  -2  -4 829.385  17.242   1
   2  -8   4 818.603  19.086   3
   2   8  -4 807.363  17.216   1
  -8  -2   4 810.169  17.150   2
  -8   2   4 794.431  17.002   2
   8   2  -4 797.546  17.163   1
   8   2  -4 809.511  19.554   3
  -2  -8   4 810.410  17.091   2
  -2  -8   4 814.610  19.120   3
  -2  -8   4 795.919  16.502   9
   8  -2   4 831.587  19.274   3
  -2   8  -4 814.506  17.010   1
   8  -2   4 788.544  18.185   8
   2  -8  -4 787.051  17.037   1
  -8  -2  -4 787.175  17.026   1
   2   8   4 795.293  17.123   2
   8  -2   4 789.380  16.783   2
  -8   2   4 805.869  16.343   9
  -8   2   4 801.248  18.861   5
   2  -8  -4 797.754  19.309   3
  -4   8   4 873.982  17.452   9
   4  -8   4 824.136  17.912   2
   8   4   4 858.304  18.177   2
   8  -4  -4 853.513  18.341   1
  -8   4  -4 834.580  20.131   5
  -8  -4   4 832.988  18.189   2
  -8   4  -4 864.895  16.902   9
  -8   4  -4 862.465  18.162   1
   4   8  -4 880.418  18.498   1
  -4   8   4 858.719  18.231   2
  -4  -8  -4 851.824  18.352   1
  -8  -4   4 879.075  17.656   9
  -8   4   4 863.159  18.148   2
   8   4  -4 889.742  18.672   1
  -4  -8   4 852.765  17.639   9
  -4  -8   4 856.234  18.225   2
   4  -8  -4 869.197  18.390   1
   4   8   4 857.608  18.226   2
   8  -4   4 841.290  17.784   2
  -8  -4  -4 856.232  18.488   1
  -4   8  -4 869.942  18.277   1
   8  -4   4 841.444  18.232   8
  -8   4   4 834.208  20.130   5
  -8   4   4 812.312  17.298   9
  -8   6  -4 110.002   5.092   1
   8   6   4 104.623   5.017   2
  -8   6  -4 118.995   5.196   1
   6   8  -4 106.508   5.252   1
  -8  -6   4 110.268   5.202   2
   6  -8   4 111.293   4.872   2
  -8  -6   4 113.562   5.037   9
  -6   8   4 103.935   5.042   2
  -6  -8  -4 107.653   5.269   1
  -8   6  -4 112.641   4.801   9
  -8   6  -4 116.286   5.970   5
  -6   8   4 108.977   5.103   9
  -8   6   4 105.812   4.993   2
  -8  -6  -4 115.514   5.381   1
  -6   8  -4 120.452   5.276   1
   8  -6   4 110.683   4.841   2
   8   6  -4 108.763   5.397   1
  -8   6   4 99.3849  4.7799   9
  -6   8  -4 102.666   4.650   9
  -6   8  -4 109.074   5.581   5
   6   8   4 100.692   4.945   2
  -6  -8   4 115.539   5.249   9
  -6  -8   4 109.385   5.155   2
  -8   8  -4 284.320   9.947   5
   8   8   4 295.019   9.197   2
  -8  -8   4 284.078   8.994   9
   8  -8   4 295.158   8.915   2
  -8   8   4 278.579   8.767   9
  -8   8   4 275.780   8.945   2
  -8   8  -4 282.228   8.637   9
  -8  -8   4 287.227   9.114   2
   9   1   4 380.514   9.837   2
  -1  -9  -4 378.667   9.427   9
  -9  -1   4 377.801   9.640   9
  -1  -9  -4 387.379  10.208   1
  -1   9   4 379.846   9.932   2
   1  -9   4 363.380   9.718   2
   9  -1  -4 366.601  10.119   1
   1   9  -4 374.216  10.019   1
  -9  -1   4 381.311  10.096   2
  -9   1  -4 392.215  10.112   1
   1  -9   4 383.845   9.753   9
  -1   9  -4 376.869   9.950   1
  -9  -1  -4 390.025  10.199   1
  -1  -9   4 373.394   9.804   9
   1  -9  -4 386.994  10.089   1
   9   1  -4 377.804  10.213   1
  -1  -9   4 362.135   9.824   2
  -9   1   4 363.566   9.962   2
   9  -1   4 386.929   9.848   2
   1   9   4 352.944   9.823   2
  -9   1   4 395.337  11.506   5
  -9   1   4 371.854   9.666   9
  -3   9   4 1.17302 1.75489   2
  -9   3  -4 0.84645 1.94814   5
   3  -9   4 -0.3720  1.6924   2
   3   9  -4 1.70459 1.88818   1
  -3  -9  -4 -0.6470  1.7479   9
  -9   3  -4 5.36911 1.97765   1
  -9  -3   4 1.75901 1.76779   2
  -9  -3   4 2.14997 1.91375   9
  -3  -9  -4 4.05211 1.94410   1
  -9   3  -4 1.69005 1.73799   9
   9   3   4 2.73977 1.91912   2
   9  -3  -4 2.29209 1.95404   1
  -9   3   4 1.91456 1.82792   2
  -9  -3  -4 2.58424 1.91234   1
   9  -3   4 -0.4874  2.1263   8
  -3  -9   4 1.91806 1.74614   2
  -3   9  -4 2.46077 1.76724   1
   3   9   4 1.09110 1.76254   2
  -9   3   4 2.18381 1.82246   9
   3  -9  -4 1.63998 1.81712   1
  -9   3   4 2.52453 2.29102   5
   9  -3   4 -0.0099  1.6776   2
   9   3  -4 2.62919 1.97188   1
  -3  -9   4 3.83165 1.98011   9
   5   9  -4 383.812  10.855   1
  -9   5  -4 396.156  10.613   1
  -9  -5   4 388.672  10.270   9
   5  -9   4 374.596  10.280   2
  -9   5  -4 391.822   9.771   9
  -5   9   4 377.039  10.200   9
  -9   5  -4 353.782  11.601   5
  -5   9   4 357.150  10.345   2
   9   5   4 378.184  10.410   2
  -9  -5   4 378.610  10.552   2
  -5   9  -4 389.768  10.619   1
  -9   5   4 379.220  10.429   2
   9  -5   4 362.773  10.079   2
  -5  -9   4 387.724  10.530   2
   5   9   4 387.672  10.568   2
  -9   5   4 378.684  10.211   9
   9  -5   4 369.904  10.471   8
  -5  -9   4 378.086  10.326   9
  -7   9   4 263.335   8.603   9
  -9   7  -4 254.158   9.641   5
  -9  -7   4 263.661   8.680   9
  -9  -7   4 270.959   8.842   2
  -7   9   4 263.959   8.759   2
   7  -9   4 252.019   8.388   2
  -9   7  -4 264.867   8.226   9
   9   7   4 269.790   8.817   2
   9  -7   4 264.633   8.417   2
  -9   7   4 262.311   8.611   2
  -7  -9   4 276.185   8.718   9
  -7   9  -4 272.120   8.480   9
   7   9   4 268.424   8.753   2
  -7  -9   4 264.212   8.811   2
  -9   7   4 254.647   8.464   9
   0  10   4 285.198   8.615   2
 -10   0  -4 291.753   8.865   1
 -10   0   4 282.095   8.699   2
 -10   0   4 292.543  10.010   5
  10   0   4 276.976   8.548   2
   0  10  -4 309.971   9.050   1
 -10   0   4 297.292   8.534   9
   0 -10   4 289.318   8.547   2
   0 -10   4 291.182   8.622   9
  -2 -10  -4 511.885  11.865   9
   2  10  -4 505.545  12.826   1
 -10   2  -4 511.027  12.703   1
 -10  -2   4 491.429  12.041   9
 -10  -2   4 494.930  12.593   2
  -2  10   4 483.169  12.409   2
   2 -10   4 470.877  12.136   2
  10   2   4 493.521  12.367   2
  -2 -10   4 497.335  12.340   9
  -2 -10   4 484.502  12.373   2
  -2  10  -4 503.680  12.594   1
  10  -2   4 464.657  12.032   2
 -10  -2  -4 477.387  12.564   1
  10  -2   4 495.408  13.857   8
 -10   2   4 482.815  11.925   9
   2  10   4 487.416  12.501   2
 -10   2   4 503.011  12.580   2
  -4  10   4 285.274   8.897   2
  -4  10   4 292.538   8.784   9
 -10   4  -4 279.110  10.295   5
   4 -10   4 282.572   8.723   2
 -10  -4   4 277.781   8.632   9
 -10   4  -4 291.120   8.294   9
 -10  -4   4 293.915   9.129   2
  10   4   4 274.978   8.857   2
  10  -4   4 300.305   9.585   8
 -10   4   4 288.098   8.923   2
 -10   4   4 277.873  10.268   5
  10  -4   4 291.643   8.729   2
 -10   4   4 286.477   8.737   9
   4  10   4 294.260   9.053   2
  -4 -10   4 289.687   9.037   2
  -4 -10   4 293.303   8.933   9
 -10  -6   4 114.508   5.656   2
 -10   6  -4 110.558   6.565   5
 -10  -6   4 115.842   5.737   9
 -10  -6   4 127.933   7.243   7
  -6  10   4 113.829   5.621   9
  10   6   4 109.379   5.678   2
   6 -10   4 112.470   5.499   2
 -10   6  -4 113.392   5.344   9
  -6  10   4 103.922   5.539   2
  -6  10  -4 115.102   5.555   9
   6  10   4 110.052   5.635   2
  -6 -10   4 112.698   5.818   9
  10  -6   4 104.117   5.315   2
 -10   6   4 113.497   5.551   9
  -6 -10   4 114.582   5.752   2
 -10   6   4 111.123   5.656   2
  -1  11   4 33.8582  3.7386   2
 -11  -1   4 35.9417  3.7061   2
  11   1   4 37.2932  3.7051   2
 -11  -1   4 36.5988  3.6790   9
   1 -11   4 42.2044  3.7501   2
  11  -1   4 36.5766  3.6760   2
   1  11   4 37.6642  3.8347   2
 -11   1   4 36.3112  3.7705   2
 -11   1   4 33.3314  3.6241   9
  -1 -11   4 35.3588  3.6046   9
  11  -1   4 33.4930  4.4793   8
 -11   1   4 36.8343  4.4985   5
  -1 -11   4 34.5963  3.6669   2
 -11  -3   4 329.521  10.220   2
  -3  11   4 324.390   9.941   2
 -11   3  -4 347.945  11.893   5
  11   3   4 322.125  10.013   2
   3 -11   4 348.341  10.000   2
  11   3   4 324.038   9.982   2
 -11  -3   4 341.505   9.927   9
  -3 -11   4 336.783   9.973   2
  11  -3   4 338.171   9.815   2
  -3 -11   4 327.823  10.020   9
   3  11   4 352.845  10.255   2
 -11   3   4 325.214  10.003   2
 -11   3   4 344.521  11.830   5
  11  -3   4 339.795  11.002   8
  11   5   4 71.6143  5.6672   8
   5 -11   4 76.1356  4.7528   2
 -11   5  -4 80.8827  5.8503   5
 -11  -5   4 87.4897  5.1460   9
  -5  11   4 78.2141  4.9554   9
  11   5   4 77.0867  4.9502   2
 -11  -5   4 84.0371  5.1398   2
  -5  11   4 88.1070  5.1008   2
 -11   5   4 85.6252  5.1985   2
  -5 -11   4 78.8104  4.9840   2
 -11   5   4 78.4540  4.9184   9
   5  11   4 79.4261  5.0718   2
  -5 -11   4 79.0635  5.0863   9
  11  -5   4 91.9287  5.1065   2
  12   0   4 744.539  19.715   8
  12   0   4 789.892  18.175   2
   0 -12   4 779.338  18.159   2
 -12   0   4 778.891  17.559   9
 -12   0   4 787.933  18.497   2
   0 -12   4 763.684  17.825   9
   0  12   4 793.009  18.503   2
   1   0   5 1.51848 0.76251   6
   1   0  -5 0.25521 0.34125   3
   0  -1   5 -0.4295  0.7499   8
   1   0   5 0.48873 0.77951   8
  -1   0   5 0.57011 0.81791   8
   0  -1   5 1.05166 0.78693   6
   0   1   5 -0.7806  0.6571   6
  -1   2   5 1349.48   23.10   2
  -1   2   5 1362.50   22.30   6
   2  -1  -5 1339.57   26.49   3
  -2  -1   5 1361.26   22.46   6
   1  -2   5 1362.66   25.60   3
  -2  -1   5 1336.96   22.97   2
   2   1   5 1384.12   22.91   2
   2   1   5 1332.64   23.42   8
  -1   2   5 1356.01   26.11   3
  -2  -1   5 1354.05   25.93   3
   1  -2   5 1326.95   22.74   2
   1  -2   5 1339.55   23.28   8
  -2  -1   5 1332.94   23.58   8
   1  -2   5 1350.79   22.33   6
   1   2  -5 1295.68   26.46   3
  -1   2   5 1310.86   22.71   4
  -2  -1   5 1360.98   25.53   7
  -2  -1   5 1342.13   22.74   4
   2   1   5 1329.56   22.29   6
   2  -1   5 1354.36   23.49   8
  -1  -2   5 1352.44   25.79   3
   1   2   5 1363.77   23.02   2
   1   2   5 1333.71   22.52   6
  -1  -2   5 1346.59   22.95   4
   2  -1   5 1337.03   22.05   6
  -2   1   5 1331.09   23.41   8
   1   2   5 1380.80   22.84   4
  -1  -2   5 1319.02   25.57   7
   2  -1   5 1315.88   25.66   3
  -2   1   5 1371.54   23.06   2
  -1  -2   5 1304.16   23.33   8
   2   1  -5 1302.12   26.43   3
  -2   1   5 1351.71   22.62   4
   2  -1   5 1418.76   22.76   2
  -2   1   5 1347.87   22.11   6
   1  -2  -5 1350.74   26.51   3
  -1  -2   5 1382.37   22.86   2
   3   0  -5 2.00751 0.87228   3
   3   0  -5 1.10975 0.67792   1
   0  -3  -5 -0.0032  0.8008   3
  -3   0   5 0.45894 0.90344   7
   3   0   5 3.59177 0.87436   3
  -3   0   5 0.32893 0.76366   4
  -3   0   5 -0.7138  0.6897   6
   0   3   5 2.38783 0.79757   2
   0  -3   5 0.27766 0.96392   4
  -3   0   5 0.15081 0.64913   2
   0  -3  -5 0.31062 0.69488   1
   0   3  -5 0.30721 0.67911   1
  -3   0   5 0.26712 0.71131   3
   3   0   5 0.52213 0.68612   6
   3   0   5 0.55562 0.62279   2
  -3   0   5 -0.2038  0.7385   9
   0  -3   5 3.93066 0.85654   3
   0   3   5 1.11798 1.00517   4
   0  -3   5 -0.2532  0.6676   2
   0  -3   5 0.00114 0.95995   7
   0  -3   5 0.82669 0.79245   8
   0  -3   5 2.42343 0.74816   3
  -3   0  -5 -0.5148  0.6193   1
   3   0   5 -0.6067  0.9203   8
  -2   3   5 41.4041  1.7696   2
   3  -2  -5 43.0345  1.8678   1
   3   2   5 41.1274  1.7565   2
  -3  -2   5 39.7386  1.7902   2
  -3  -2   5 41.2327  2.0414   3
  -2  -3  -5 39.5945  1.8900   1
  -2   3   5 41.7624  1.9918   3
   2   3  -5 44.2657  2.3045   3
  -2   3   5 39.4157  1.9144   9
  -3  -2   5 41.7623  2.5290   7
   3  -2  -5 38.1890  2.1460   3
  -3  -2   5 41.9520  2.0035   3
  -3  -2   5 41.6947  2.0388   9
  -2   3   5 41.2956  1.8295   6
   2   3  -5 41.1272  1.9117   1
   2  -3   5 43.3191  2.0043   4
  -2   3   5 41.3299  2.1237   4
  -3  -2   5 42.4121  2.1677   4
   2  -3   5 41.5355  1.6974   2
   2  -3   5 47.0472  2.0159   3
  -3   2  -5 39.4285  1.8002   1
   2  -3   5 41.2670  1.9026   8
   3   2   5 41.1594  2.2276   8
   3  -2   5 40.4647  1.9336   3
   2   3   5 43.3294  1.8623   2
  -2  -3   5 42.7143  1.8641   2
  -2  -3   5 40.8418  2.1653   8
  -3   2   5 44.3392  2.0518   9
  -2  -3   5 41.9124  2.3826   4
   2   3   5 41.4880  1.8971   8
  -3   2   5 40.0282  1.7737   2
  -2  -3   5 46.2214  2.1029   3
  -3  -2  -5 48.7300  1.9968   1
   2  -3  -5 42.4603  2.1325   3
  -2  -3   5 48.4512  2.2140   9
  -3   2   5 41.2487  1.9360   4
   3   2  -5 42.7202  2.2708   3
   3  -2   5 51.0114  1.7664   2
  -2   3  -5 39.3519  1.7208   1
   3   2  -5 37.4666  1.9092   1
   2  -3  -5 36.3514  1.7701   1
  -3   2   5 39.7080  1.6878   6
  -2  -3   5 42.3681  2.0058   3
  -2  -3   5 48.5852  2.8828   7
   3  -2   5 41.9918  2.1709   8
  -3   2   5 40.2226  1.9748   3
  -4  -1   5 682.315  12.411   4
   1  -4   5 674.998  12.397   9
   4   1   5 672.713  12.688   2
   1  -4   5 682.156  12.504   8
  -4  -1   5 693.565  13.630   5
  -1  -4  -5 666.877  13.029   1
  -4   1  -5 657.811  12.843   1
  -4  -1   5 685.983  14.163   7
   1   4  -5 661.069  12.971   1
   4  -1  -5 661.582  13.001   1
   1  -4   5 674.800  14.321   3
   4   1   5 685.681  14.571   3
   4   1   5 662.711  12.690   2
   1  -4   5 661.103  12.659   2
  -4  -1   5 667.286  12.632   9
  -4  -1   5 683.176  12.838   2
   4   1   5 662.625  13.698   8
  -1  -4  -5 654.062  14.807   3
  -4   1  -5 644.582  12.818   1
  -1   4   5 663.362  12.813   2
   4  -1  -5 670.135  14.754   3
   4   1   5 684.129  12.123   6
   1  -4   5 684.029  13.908   7
   4  -1   5 665.171  13.456   8
  -1  -4   5 689.347  14.512   3
  -4   1   5 666.461  12.567   9
  -4   1   5 670.368  12.814   2
  -4  -1  -5 669.733  12.930   1
   1  -4  -5 648.808  12.931   1
  -4   1   5 680.559  13.428   7
  -1  -4   5 673.613  12.614   9
   4  -1   5 671.746  12.632   2
  -1   4  -5 696.410  13.306   5
  -1  -4   5 670.680  14.300   3
  -4   1   5 688.974  12.249   4
   1   4   5 674.845  12.918   2
  -4   1   5 689.073  11.808   6
   1  -4  -5 675.878  14.744   3
  -1  -4   5 670.961  14.773   7
   4  -1   5 688.871  11.643   6
   4   1  -5 657.968  12.992   1
   4  -1   5 682.786  14.505   3
  -1  -4   5 680.044  12.685   8
  -1   4  -5 658.852  12.810   1
   4   1  -5 673.927  14.792   3
  -1  -4   5 691.869  12.858   2
  -4  -3   5 21.1593  1.8064   2
  -3   4   5 25.6722  1.8964   9
   3   4  -5 33.8134  2.0465   1
  -3   4   5 27.4692  1.6415   6
   4   3   5 26.6575  2.2830   8
  -4   3  -5 19.5356  1.6720   9
   3  -4   5 25.1444  1.6956   2
   3  -4   5 25.9853  1.9656   3
  -4   3  -5 23.3464  1.7767   1
  -3   4   5 30.3131  1.9061   2
  -4  -3   5 26.7645  2.9166   7
   3  -4   5 24.4179  1.8004   8
   4  -3  -5 22.6193  1.7740   1
   4   3   5 30.6107  1.9776   2
   3  -4   5 25.4124  1.8095   4
  -4  -3   5 23.3714  2.0079   9
  -4  -3   5 24.2538  2.0516   4
   4  -3  -5 22.1617  2.0132   3
  -4  -3   5 24.3920  2.0381   3
  -3  -4  -5 24.4449  1.8599   1
   3   4  -5 26.5395  2.2061   3
   4  -3   5 22.9785  1.9738   8
  -4  -3  -5 20.5445  1.8589   1
  -3   4  -5 21.8656  1.7162   1
  -3  -4   5 23.0479  1.9700   9
   3  -4  -5 22.9998  1.7796   1
  -3   4  -5 21.9913  1.9225   5
   4  -3   5 22.5334  1.6437   2
  -3  -4   5 24.9237  2.4446   4
  -3  -4   5 22.1733  1.9541   3
   3   4   5 24.7224  1.8351   8
  -3  -4   5 23.1664  2.9956   7
   4   3  -5 25.1637  1.8933   1
  -4   3   5 23.8203  1.9350   9
   4   3  -5 23.8064  2.1355   3
  -3  -4   5 22.0635  1.8126   2
  -4   3   5 24.8834  1.4270   6
   4  -3   5 24.8722  1.9929   3
  -4   3   5 21.7961  1.8078   4
   3   4   5 23.0915  1.7980   2
  -4   3   5 23.8867  1.8114   2
   3  -4  -5 29.3468  2.2943   3
   5   0   5 3.70180 1.31070   3
  -5   0   5 -1.8433  1.0513   5
  -5   0   5 1.16876 0.91397   4
   5   0   5 -0.7628  1.3595   8
   0  -5   5 1.72192 0.96954   2
  -5   0   5 -0.2404  0.9792   7
  -5   0  -5 0.72226 0.91120   1
   0   5  -5 0.16578 0.85082   1
   0  -5   5 -0.4426  1.3118   7
   0  -5  -5 1.13004 0.94251   1
  -5   0   5 2.68967 1.05644   9
   0  -5   5 -0.5549  0.8095   8
   5   0   5 1.20552 0.92830   2
   5   0   5 -0.4656  0.7221   6
   5   0  -5 3.93857 1.11470   1
   0  -5   5 1.18505 1.05765   3
   0  -5  -5 1.91782 1.16385   3
  -5   0   5 1.29824 0.96509   2
   0  -5   5 0.79269 0.94141   9
   5   0  -5 -0.0997  1.0701   3
  -5  -2   5 1120.99   20.87   2
   2  -5   5 1095.05   20.57   2
  -5  -2   5 1182.56   22.19   5
   2   5  -5 1069.17   20.99   1
  -2   5   5 1119.93   20.80   2
  -2  -5  -5 1074.50   21.03   1
  -5   2  -5 1125.68   19.30   9
  -2  -5  -5 1131.17   23.99   3
  -2   5   5 1146.10   19.94   9
  -5   2  -5 1118.00   20.86   1
  -5  -2   5 1087.63   22.91   7
  -5  -2   5 1093.83   20.15   9
   5  -2  -5 1107.38   23.82   3
   5  -2  -5 1094.52   21.00   1
  -2  -5  -5 1124.28   19.33   9
   2  -5   5 1110.59   19.83   9
  -5  -2   5 1136.64   19.86   4
  -5   2  -5 1107.85   20.84   1
   2  -5   5 1129.47   23.35   3
   5   2   5 1150.65   22.44   8
   2  -5   5 1137.95   19.90   8
   5   2   5 1128.50   23.67   3
   5   2   5 1099.39   20.70   2
  -5  -2  -5 1100.87   20.98   1
  -2  -5   5 1118.59   20.90   2
  -5   2   5 1124.04   20.83   2
   2   5   5 1119.68   20.93   2
   5  -2   5 1117.44   23.48   3
  -2   5  -5 1109.81   20.82   1
  -5   2   5 1105.46   20.03   9
  -5   2   5 1121.34   18.60   6
   2  -5  -5 1095.92   20.93   1
  -2   5  -5 1141.09   21.79   5
  -5   2   5 1130.59   19.44   4
   2  -5  -5 1117.03   23.76   3
   5  -2   5 1128.90   20.65   2
  -5   2   5 1104.75   22.86   5
  -2  -5   5 1098.76   20.21   9
  -2  -5   5 1141.89   20.46   8
   5  -2   5 1089.08   21.22   8
   5   2  -5 1096.57   21.05   1
  -2  -5   5 1114.75   23.37   3
   5   2  -5 1111.51   23.94   3
   5   4   5 598.239  12.624   2
  -4  -5  -5 583.273  12.808   1
  -5  -4   5 601.900  14.272   3
  -5  -4   5 598.006  12.731   2
  -4  -5  -5 590.335  14.566   3
  -4   5   5 589.530  12.569   2
   4  -5   5 607.578  12.036   8
  -5   4  -5 571.005  13.795   5
  -5   4  -5 602.036  12.577   1
   5   4   5 591.261  13.491   8
  -5  -4   5 591.211  12.553   4
  -5   4  -5 605.308  11.772   9
   4   5  -5 593.768  14.609   3
   4   5  -5 580.870  12.805   1
  -4   5   5 598.799  12.236   9
  -5  -4   5 595.015  12.406   9
   5  -4  -5 606.022  12.713   1
   4  -5   5 598.571  12.327   2
   4  -5   5 595.765  14.045   3
  -4   5   5 614.639  11.143   6
   5  -4  -5 603.828  14.464   3
   5  -4   5 619.388  14.182   3
   4   5   5 603.803  12.393   8
  -4   5  -5 608.246  13.676   5
  -5  -4  -5 598.516  12.839   1
   5   4  -5 597.685  12.939   1
   5  -4   5 609.601  12.574   8
  -5   4   5 583.249  12.174   9
   5   4  -5 605.409  14.659   3
  -4   5  -5 590.428  12.558   1
   4  -5  -5 603.900  12.713   1
   4   5   5 609.079  12.711   2
   4  -5  -5 598.811  14.479   3
  -5   4   5 590.096  12.580   2
  -4  -5   5 602.718  14.194   3
  -4  -5   5 604.283  12.745   2
   5  -4   5 589.094  12.325   2
  -4  -5   5 590.519  12.408   9
  -1  -6  -5 94.3766  4.1325   3
  -6  -1   5 95.1917  3.1619   4
   1  -6   5 88.9818  3.3855   2
   6   1   5 93.6791  3.0329   6
  -1  -6  -5 92.0293  3.2871   9
   1  -6   5 87.3040  3.4930   9
   1  -6   5 91.4418  3.8236   3
   6  -1  -5 93.5522  4.1498   3
  -6   1  -5 91.6104  3.5160   1
   6   1   5 91.4885  4.0715   3
  -6  -1   5 94.4862  4.2520   5
  -6  -1   5 100.917   3.593   2
   1   6  -5 88.3928  3.5410   1
   6   1   5 88.5704  3.4009   2
  -6  -1   5 95.0209  3.9141   7
   6   1   5 85.9117  3.3720   2
   6   1   5 91.9878  5.2195   8
   6  -1  -5 88.8275  3.5876   1
  -6   1  -5 91.1525  3.0421   9
  -1   6   5 90.2316  3.4742   2
   1  -6   5 98.5051  4.0698   7
  -1  -6  -5 84.7575  3.4556   1
  -6  -1   5 89.5988  3.6374   9
  -1  -6   5 99.8154  3.2846   8
  -1   6  -5 90.4509  3.4982   1
  -1  -6   5 93.4496  3.5578   2
  -6   1   5 98.8222  4.4785   5
  -1  -6   5 90.8679  4.8863   7
   1  -6  -5 88.1743  4.0279   3
  -6   1   5 97.5187  3.5878   2
   6   1  -5 86.4695  4.0552   3
   1  -6  -5 89.9010  3.5434   1
   6  -1   5 97.8453  4.0860   3
   1   6   5 83.0677  3.4897   2
   6  -1   5 91.8433  3.4321   2
  -6   1   5 96.1678  3.7029   9
  -1  -6   5 95.0793  3.8444   3
  -6  -1  -5 90.7718  3.5553   1
  -1  -6   5 91.6612  3.6761   9
   6   1  -5 89.9099  3.6192   1
   6  -1   5 90.5930  4.4806   8
  -3  -6  -5 1.99690 1.54968   3
  -3   6   5 2.16285 1.35624   2
  -3  -6  -5 7.37969 1.45289   9
   3  -6   5 4.40526 1.53285   3
   3   6  -5 1.46213 1.31175   1
  -6   3  -5 1.55749 1.21712   1
  -3  -6  -5 2.39054 1.27415   1
   3  -6   5 1.37159 1.24289   2
  -6  -3   5 1.67964 1.97199   7
   6   3   5 4.64102 1.40837   2
  -6  -3   5 4.15936 1.34929   4
  -6  -3   5 2.42264 1.32785   9
  -6  -3   5 3.32230 1.34510   2
   6   3   5 -0.2360  2.2789   8
  -3   6   5 2.79134 1.26095   6
   6   3   5 4.30304 1.68373   3
  -3   6   5 2.88803 1.35173   9
   6  -3  -5 0.62616 1.29834   1
   6  -3  -5 4.18299 1.60795   3
  -6  -3   5 4.23367 1.71494   3
  -6   3  -5 6.24743 1.35170   9
  -6   3  -5 3.29716 1.32072   1
   6   3  -5 0.62173 1.24208   1
   3  -6  -5 2.17751 1.52577   3
  -3   6  -5 3.10571 1.38002   5
  -6   3   5 3.11997 1.40750   2
   6  -3   5 4.50884 1.68719   8
  -3   6  -5 2.22897 1.26406   1
   6  -3   5 1.33781 1.22340   2
   3   6   5 3.59858 1.41443   2
   6  -3   5 4.66618 1.65248   3
  -3  -6   5 2.12975 1.48561   9
  -3  -6   5 2.19984 1.40264   3
  -3  -6   5 3.95098 1.44800   2
   3  -6  -5 2.63535 1.36446   1
  -6  -3  -5 3.24056 1.43695   1
  -6   3   5 1.69773 1.32704   9
   6   3  -5 1.78288 1.56440   3
  -5  -6  -5 86.8720  4.6773   3
  -6  -5   5 84.8767  4.0658   9
   5   6  -5 89.1010  4.6798   3
   5  -6   5 95.7599  4.4459   3
   5   6  -5 90.4677  4.1395   1
  -6   5  -5 87.5528  3.8964   1
  -5  -6  -5 89.7741  4.1401   1
   6   5   5 83.9510  3.9520   2
   6  -5  -5 84.0336  3.9858   1
  -6   5  -5 80.5634  3.5918   9
  -6  -5   5 93.0924  4.4953   3
  -6  -5   5 82.6778  4.0021   2
  -6  -5   5 89.6921  4.2007   4
  -5   6   5 84.2788  3.9112   2
  -5   6   5 89.6407  4.0432   9
  -6   5  -5 82.0428  4.4641   5
   6  -5  -5 80.0447  4.4297   3
   5  -6   5 89.7635  3.8130   2
   6   5   5 84.5102  4.8031   8
  -5  -6   5 82.5383  4.2582   3
  -5   6  -5 88.3935  4.3620   5
   5   6   5 80.3902  3.9267   2
  -6   5   5 81.3165  3.7749   9
   5  -6  -5 84.1974  3.9742   1
   6  -5   5 82.1664  4.3004   3
   6  -5   5 87.6061  3.9012   8
  -5  -6   5 77.1093  4.0181   9
   6  -5   5 75.4886  3.5637   2
  -5   6  -5 82.1540  3.8874   1
  -6  -5  -5 86.9765  4.0909   1
   6   5  -5 79.4409  4.0291   1
   6   5  -5 79.5389  4.6214   3
  -5  -6   5 85.5138  3.9759   2
   5  -6  -5 81.1815  4.4422   3
  -6   5   5 86.7995  3.8315   2
   0  -7   5 3.94919 1.41256   2
   7   0   5 -1.2974  1.1170   2
   0   7   5 0.71422 1.25797   2
  -7   0   5 -0.8290  1.2643   9
   0  -7   5 1.66476 1.45896   3
   7   0   5 1.59030 1.60989   3
  -7   0   5 0.16458 1.64673   5
   7   0   5 -0.4492  2.2872   8
   0  -7   5 0.84035 1.21954   9
   0   7  -5 2.61762 1.36056   1
   7   0  -5 1.59622 1.57121   3
   7   0  -5 1.74855 1.40928   1
   0  -7  -5 1.72036 1.52550   3
   0  -7  -5 0.68655 1.29474   1
   0  -7   5 0.66099 1.88484   7
  -7   0   5 4.29310 1.51208   2
  -7   0  -5 0.67206 1.23927   1
  -7  -2   5 330.706   8.287   9
   7   2   5 326.097   8.159   2
  -2  -7  -5 336.320   8.584   1
  -7  -2   5 324.696   8.318   2
   7   2   5 327.526   8.184   2
   7   2   5 337.931  12.167   8
   7   2   5 343.706   9.620   3
   2  -7   5 309.963   7.890   9
   2   7  -5 322.335   8.382   1
  -7   2  -5 326.069   7.437   9
   2  -7   5 339.296   9.163   3
  -7   2  -5 305.895   8.168   1
  -2   7   5 334.900   8.263   2
  -2  -7  -5 325.987   7.649   9
   7  -2  -5 315.824   9.517   3
   7  -2  -5 317.650   8.398   1
  -7  -2   5 333.821   9.277   7
  -2  -7  -5 323.769   9.619   3
   2  -7   5 332.233   8.135   2
  -7   2   5 312.063   8.122   2
   7  -2   5 336.698   9.461   8
  -2   7  -5 318.233   8.138   1
   7  -2   5 319.723   8.007   2
   2  -7  -5 329.396   9.562   3
   2   7   5 322.169   8.321   2
   7   2  -5 317.958   8.445   1
  -2  -7   5 315.537   8.301   9
   7  -2   5 330.038   9.323   3
   7   2  -5 332.264   9.652   3
  -2  -7   5 334.873   9.202   3
  -2  -7   5 317.205   8.244   2
  -7   2   5 333.863   9.793   5
  -7  -2  -5 325.931   8.452   1
   2  -7  -5 323.068   8.350   1
  -7   2   5 315.875   8.139   9
  -7  -4   5 187.723   6.745   3
   7   4   5 169.179   8.105   8
   7   4   5 176.503   6.763   3
   7   4   5 166.904   5.687   2
  -4  -7  -5 179.018   7.001   3
  -4   7   5 166.561   5.698   2
  -7  -4   5 178.442   5.671   4
  -7   4  -5 175.984   5.791   1
   7  -4  -5 182.690   6.806   3
  -7  -4   5 186.911   7.830   7
   4  -7   5 171.738   5.619   2
  -4  -7  -5 175.189   6.027   1
  -7  -4   5 177.847   5.889   2
   4  -7   5 184.575   6.456   3
  -7  -4   5 171.219   5.867   9
  -7   4  -5 175.818   5.317   9
  -7   4  -5 170.731   5.727   1
  -7   4  -5 171.461   6.774   5
   4   7  -5 167.974   5.939   1
  -4   7   5 175.562   5.781   9
   7  -4  -5 177.704   5.976   1
   7   4  -5 170.439   6.910   3
  -7   4   5 171.839   5.692   2
   7  -4   5 172.919   6.445   3
   4   7   5 173.398   5.844   2
  -7  -4  -5 178.566   6.065   1
   7   4  -5 174.621   6.109   1
  -4  -7   5 170.019   5.751   2
   4  -7  -5 179.217   5.961   1
  -4   7  -5 180.210   5.898   1
  -4  -7   5 168.920   5.905   9
   7  -4   5 172.010   5.573   2
  -7   4   5 177.812   5.775   9
   7  -4   5 174.334   6.088   8
   4  -7  -5 173.814   6.731   3
  -4  -7   5 179.760   6.551   3
  -4   7  -5 181.050   6.169   5
  -7   6  -5 29.9642  3.0223   1
  -6   7   5 28.6788  3.0093   2
  -7  -6   5 28.9418  3.1061   9
  -7   6  -5 30.1059  2.8459   9
  -7   6  -5 33.0878  3.7019   5
  -7  -6   5 30.5778  3.1876   2
   7  -6  -5 28.9331  3.1419   1
  -6  -7  -5 30.3988  3.2264   1
   6   7  -5 34.6926  3.2557   1
  -6   7   5 29.9700  3.1682   9
  -7  -6   5 30.1965  3.2705   4
   7   6   5 30.7030  3.1328   2
   6  -7   5 25.9695  2.7751   2
   7   6  -5 34.6689  3.4232   1
  -7   6   5 32.9829  3.2283   9
  -7   6   5 30.9095  3.0185   2
   6  -7  -5 30.5029  3.1503   1
  -6  -7   5 31.3712  3.1007   9
  -6   7  -5 32.5067  3.0284   1
  -6   7  -5 31.2761  2.9310   9
  -6  -7   5 32.3503  3.1822   2
   7  -6   5 34.1686  2.9266   2
  -6   7  -5 32.3853  3.4835   5
  -6  -7   5 29.2632  3.4632   4
  -7  -6  -5 27.6625  3.1477   1
   6   7   5 34.6362  3.1251   2
   8   1   5 601.377  15.094   3
   8  -1  -5 598.238  15.373   3
  -8  -1   5 597.568  13.340   2
  -8  -1   5 586.708  12.934   9
  -1   8   5 583.161  13.220   2
   1  -8   5 583.349  12.818   9
   8  -1  -5 572.381  13.443   1
  -1  -8  -5 603.252  13.505   1
  -1  -8  -5 594.089  15.253   3
   1  -8   5 588.327  13.034   2
   1  -8   5 603.659  14.815   3
   8   1   5 562.280  16.598   8
  -8   1  -5 581.118  13.313   1
   1   8  -5 591.797  13.419   1
   8   1   5 615.571  13.200   2
  -8   1   5 589.963  13.313   2
   8   1  -5 617.200  13.653   1
   8  -1   5 591.031  13.042   2
  -1  -8   5 580.441  15.807   7
   8  -1   5 596.187  14.996   3
   8   1  -5 599.206  15.296   3
   1  -8  -5 599.738  13.457   1
  -1  -8   5 603.731  13.073   9
  -8  -1  -5 605.258  13.436   1
  -1  -8   5 621.307  14.843   3
  -1  -8   5 585.944  13.230   2
  -8   1   5 583.737  14.943   5
   8  -1   5 601.771  15.261   8
   1   8   5 613.581  13.382   2
   1  -8  -5 597.642  15.235   3
  -1   8  -5 599.254  13.325   1
  -8   1   5 563.499  12.733   9
  -3   8   5 19.5294  2.5256   9
   8   3   5 18.4294  2.3800   2
  -8  -3   5 19.9605  2.6496   9
  -8  -3   5 18.6337  2.5209   2
   8  -3  -5 20.5678  2.6318   1
  -3   8   5 21.7695  2.5878   2
   3  -8   5 24.4650  2.8587   3
  -8   3  -5 26.3971  2.4604   9
   8   3   5 19.3914  4.8734   8
   3  -8   5 19.0027  2.4283   2
   3   8  -5 17.1574  2.4853   1
  -3  -8  -5 19.4160  2.9933   3
  -3  -8  -5 20.6315  2.6609   1
  -8  -3   5 18.4886  3.1652   7
   8   3   5 28.9182  3.2638   3
  -8   3  -5 22.3506  2.6030   1
  -3  -8   5 23.0244  2.8538   3
  -8   3   5 18.8863  2.4880   9
   3   8   5 18.9790  2.5299   2
   8  -3   5 22.6444  2.9786   3
  -3   8  -5 22.3177  2.5766   1
  -8  -3  -5 21.2654  2.6725   1
  -3  -8   5 18.7298  2.6478   9
   8   3  -5 17.6461  2.5609   1
  -3  -8   5 16.3712  2.4056   2
   8  -3   5 25.3940  3.2284   8
   8   3  -5 19.1181  2.9117   3
  -8   3   5 17.7944  2.9606   5
   3  -8  -5 20.5660  2.6100   1
  -5  -8  -5 590.023  14.108   1
  -8   5  -5 591.647  15.619   5
  -8   5  -5 570.062  13.759   1
  -5   8   5 595.586  13.427   9
  -8   5  -5 609.827  12.928   9
  -5   8   5 570.888  13.729   2
   5  -8   5 581.011  13.458   2
  -8  -5   5 601.329  13.552   9
   8   5   5 577.978  13.759   2
   8  -5  -5 595.206  14.013   1
  -8  -5   5 578.664  13.856   2
   5   8  -5 577.127  14.095   1
   8   5   5 617.193  16.190   8
  -8  -5   5 602.485  16.869   7
  -8   5  -5 592.958  13.871   1
  -8   5   5 564.180  13.581   2
   8  -5   5 598.601  13.730   8
   5  -8  -5 594.466  14.065   1
  -8  -5  -5 595.660  14.181   1
   5   8   5 584.493  13.831   2
   8  -5   5 576.428  13.397   2
  -5  -8   5 609.820  13.723   9
  -5  -8   5 552.166  13.604   2
  -8   5   5 581.593  13.291   9
   8   5  -5 615.406  14.384   1
  -5   8  -5 594.151  14.615   5
  -5   8  -5 591.764  13.898   1
  -7   8   5 193.645   6.978   9
  -8   7  -5 192.470   6.627   9
  -7   8   5 181.564   6.899   2
  -8   7  -5 190.820   7.066   1
  -8  -7   5 202.968   7.351   9
   8   7   5 197.238   7.101   2
   7  -8   5 185.702   6.683   2
  -7  -8  -5 188.978   7.335   1
  -8   7  -5 192.997   7.934   5
   7   8  -5 199.093   7.433   1
  -8  -7   5 195.637   7.107   2
   8   7  -5 202.803   7.549   1
  -7   8  -5 201.513   7.207   1
  -7  -8   5 198.885   7.568   4
  -8   7   5 202.038   7.030   2
   7   8   5 185.819   6.977   2
  -7   8  -5 186.631   7.532   5
  -7  -8   5 188.067   7.047   9
   8  -7   5 187.923   6.782   2
  -7   8  -5 196.900   6.811   9
  -8  -7  -5 193.253   7.367   1
  -8   7   5 189.429   6.992   9
  -7  -8   5 196.974   7.049   2
  -9   0  -5 1.16064 1.63132   1
   9   0  -5 0.76084 1.74245   1
   9   0   5 0.27146 1.57693   2
   0  -9   5 -2.6935  2.1020   7
   0   9   5 -1.6528  1.5464   2
   9   0   5 -0.2674  2.7542   8
  -9   0   5 1.84882 1.62906   9
  -9   0   5 -0.2979  1.6317   2
  -9   0   5 -0.4886  2.0595   5
   0  -9   5 0.85392 1.76196   9
   0  -9  -5 -1.9238  1.4856   1
   0   9  -5 2.45374 1.74136   1
   0  -9   5 2.78968 1.80224   2
  -9   2  -5 113.036   5.030   1
  -2   9   5 125.877   5.138   2
   2  -9   5 118.004   4.902   2
   9   2   5 122.747   7.808   8
   9   2   5 128.643   5.175   2
  -2  -9  -5 118.469   4.754   9
   9   2   5 116.929   4.981   2
  -2  -9  -5 121.568   5.364   1
  -9  -2   5 113.033   5.068   2
   9  -2  -5 113.453   5.078   1
  -9  -2   5 124.868   5.114   9
   9  -2   5 116.421   4.768   2
   2  -9  -5 115.956   5.084   1
  -2   9  -5 113.299   5.002   1
  -9  -2  -5 117.427   5.196   1
   2   9   5 118.175   5.154   2
  -9   2   5 121.651   5.151   9
  -9   2   5 117.726   4.988   2
  -2  -9   5 117.035   5.042   2
  -2  -9   5 107.780   5.050   9
  -9   2   5 123.245   6.219   5
   9  -2   5 117.609   6.077   8
   9   2  -5 121.060   5.304   1
  -4   9   5 76.3001  4.3061   9
  -9  -4   5 60.1836  4.1410   2
   4   9  -5 76.7369  4.4925   1
   9   4   5 73.7703  4.2037   2
   4  -9   5 73.8639  4.0900   2
  -9  -4   5 71.7723  5.3982   7
  -4   9   5 74.5891  4.3278   2
  -9  -4   5 80.6286  4.5230   9
  -9   4  -5 69.1335  4.9966   5
   9   4   5 84.0736  6.3505   8
   9  -4  -5 72.9937  4.3680   1
  -9   4  -5 75.9205  4.3260   1
  -4  -9  -5 77.9469  4.5864   1
  -4   9  -5 70.9798  4.2427   1
  -9  -4  -5 76.1107  4.4770   1
  -4  -9   5 74.1998  4.2720   2
  -9   4   5 72.1250  4.1106   9
  -9   4   5 79.6425  4.3285   2
   9   4  -5 79.1663  4.6103   1
   4   9   5 74.7120  4.3045   2
   4  -9  -5 70.4676  4.3232   1
   9  -4   5 74.8732  4.0933   2
   9  -4   5 72.9012  4.6290   8
  -4  -9   5 80.8938  4.6158   9
   9   6   5 5.14105 2.30885   2
   6   9  -5 10.9155  2.7924   1
  -6   9   5 5.48975 2.27218   2
   6  -9   5 8.64774 2.38773   2
  -9   6  -5 6.19624 2.19106   9
  -9  -6   5 4.65778 2.30456   9
  -9  -6   5 7.44852 2.37803   2
  -9  -6   5 8.49629 3.49733   7
  -6   9   5 6.06785 2.19846   9
  -9   6  -5 9.56559 2.54908   1
  -9   6  -5 8.93895 2.91842   5
  -9   6   5 8.11617 2.40550   2
  -6  -9   5 6.31420 2.45062   9
  -6   9  -5 5.36728 2.23916   1
  -6   9  -5 6.66072 2.20339   9
   9  -6   5 5.81311 2.13510   2
  -9   6   5 6.66533 2.36336   9
   6   9   5 6.30686 2.39598   2
  -6  -9   5 7.84409 2.40808   2
  10  -1  -5 90.7282  4.9852   1
  -1  10   5 97.4194  4.8678   2
   1  10  -5 97.2645  5.0111   1
  10   1   5 85.3595  6.3507   8
  -1 -10  -5 91.0459  5.0289   1
  10   1   5 92.8000  4.6553   2
 -10  -1   5 83.0866  4.5797   2
 -10  -1   5 93.4058  4.7925   9
   1 -10   5 91.8588  4.6370   9
 -10   1  -5 96.3967  4.9579   1
   1 -10   5 91.5158  4.6785   2
  -1  10  -5 91.8411  4.7755   1
  -1 -10   5 93.7896  5.9969   7
   1  10   5 93.0318  4.7333   2
 -10  -1  -5 101.228   5.057   1
  10  -1   5 100.352   6.302   8
  -1 -10   5 95.4400  4.7728   2
 -10   1   5 91.8751  4.7397   9
  10  -1   5 91.0226  4.6404   2
 -10   1   5 91.5325  5.6114   5
 -10   1   5 91.5151  4.7665   2
  -1 -10   5 91.8394  4.7450   9
  10   1  -5 99.1718  4.9924   1
   1 -10  -5 97.0493  4.9992   1
 -10  -3   5 3.67799 2.15890   2
  -3  10   5 5.61513 2.24123   2
 -10   3  -5 5.49622 2.49320   5
  10   3   5 4.57306 3.33895   8
  -3  10   5 5.53783 2.23173   9
   3  10  -5 3.16201 2.27194   1
 -10   3  -5 3.31859 2.13969   1
   3 -10   5 3.73644 2.01816   2
 -10  -3   5 5.12800 2.34223   9
  10   3   5 2.22065 2.01792   2
  -3 -10  -5 4.60371 2.26972   1
  10   3   5 3.61470 2.12264   2
  -3 -10   5 2.62456 2.01573   9
  10  -3   5 4.09398 2.63633   8
 -10   3   5 4.22516 2.12283   9
   3  10   5 5.15196 2.24219   2
 -10  -3  -5 6.38643 2.35999   1
 -10   3   5 6.86150 2.77474   5
  -3 -10   5 5.17518 2.15711   2
  10   3  -5 4.57987 2.32880   1
  10  -3   5 3.54828 2.02651   2
  -3  10  -5 3.19495 2.11938   1
 -10   3   5 4.27137 2.18100   2
  10   5   5 101.749   6.757   8
  -5  10   5 100.508   5.292   9
 -10   5  -5 103.547   6.246   5
  -5  10   5 98.4911  5.1215   2
 -10   5  -5 99.2028  5.3217   1
 -10  -5   5 96.1801  6.3540   7
  10   5   5 98.0512  5.1406   2
 -10  -5   5 96.2828  5.1020   9
   5 -10   5 107.307   5.110   2
 -10  -5   5 95.9960  5.2533   2
  -5  10  -5 106.308   5.442   1
   5  10   5 93.8702  5.1819   2
 -10   5   5 103.920   5.154   2
 -10   5   5 94.6377  4.9946   9
  -5 -10   5 96.1708  5.3308   9
  10  -5   5 101.588   4.973   2
  -5 -10   5 99.7164  5.1784   2
  10  -5   5 94.3571  5.2700   8
 -11   0  -5 -0.1033  2.0943   1
 -11   0   5 -0.5282  2.0682   2
   0  11  -5 1.78310 2.07053   1
  11   0   5 0.85917 2.85055   8
  11   0   5 1.57619 2.04917   2
   0 -11   5 2.89286 2.25541   9
   0  11   5 -0.1698  2.0744   2
   0 -11   5 4.83671 2.27656   2
 -11   0   5 1.70800 2.14294   9
 -11  -2   5 372.693  10.538   2
 -11   2  -5 339.788  11.889   5
  -2  11   5 357.162  10.343   2
  11   2   5 354.477  10.198   2
   2 -11   5 343.390  10.075   2
 -11   2  -5 371.574  10.804   1
 -11  -2   5 376.203  10.386   9
   2  11  -5 364.836  10.912   1
  11   2   5 364.870  12.731   8
  -2  11  -5 360.475  10.643   1
  11  -2   5 357.967  10.099   2
  11  -2   5 351.997  11.744   8
  -2 -11   5 346.301  10.234   2
 -11   2   5 345.443  10.335   2
   2  11   5 351.734  10.361   2
 -11   2   5 358.892  12.200   5
  -2 -11   5 355.756  12.624   7
  -2 -11   5 350.845  10.333   9
 -11  -4   5 214.594   7.782   9
  11   4   5 215.550   7.706   2
  -4  11   5 209.888   7.676   9
  11   4   5 212.306   7.740   2
 -11   4  -5 220.198   9.204   5
   4 -11   5 207.100   7.480   2
 -11  -4   5 210.388   7.810   2
  -4  11   5 193.767   7.596   2
  11   4   5 210.929   9.319   8
  11  -4   5 220.933   8.565   8
 -11   4   5 197.839   7.557   9
  -4 -11   5 214.386   7.949   9
 -11   4   5 208.537   7.699   2
  11  -4   5 205.645   7.410   2
   4  11   5 238.187   8.076   2
  -4 -11   5 205.423   9.967   7
  -4 -11   5 218.087   7.764   2
   0   0   6 3196.78   60.10   7
   0   0   6 3343.66   53.74   4
   0   0   6 3427.07   55.48   8
   0   0   6 3314.61   52.94   6
  -1  -1   6 1005.39   17.65   4
   1   1   6 1016.74   18.04   8
   1  -1   6 1017.29   19.57   7
  -1   1   6 1030.63   17.32   6
   1   1  -6 1030.47   19.70   3
  -1  -1   6 1004.81   17.39   6
   1  -1   6 1021.74   18.14   8
  -1  -1   6 1002.35   18.20   8
  -1   1   6 1039.54   18.08   8
   1   1  -6 1000.62   19.70   3
  -1   1  -6 1044.67   19.61   3
   1   1   6 1026.18   17.40   6
   1  -1   6 1014.45   17.27   6
  -1   1   6 1007.32   17.59   4
  -1  -1   6 1006.24   19.74   7
   1  -1   6 1018.74   17.39   4
   1   1   6 1011.68   17.49   4
  -1   1   6 1007.52   19.56   7
   2   0  -6 2509.59   48.54   3
   0  -2   6 2476.45   40.86   6
   0   2  -6 2432.47   48.43   3
   0  -2   6 2505.50   42.60   8
   0  -2   6 2565.18   41.49   4
   0  -2   6 2487.12   46.27   7
   0   2   6 2545.94   41.47   4
  -2   0   6 2535.71   46.18   7
   0  -2  -6 2475.17   48.58   3
  -2   0   6 2522.06   41.34   4
  -2   0   6 2583.74   40.70   6
   2   0   6 2543.95   40.59   6
  -2   0   6 2555.99   42.84   8
   0   2   6 2594.93   40.89   6
   0   2  -6 2555.52   48.38   3
   0   2   6 2498.40   42.26   8
  -2   0  -6 2495.68   48.49   3
   2   0   6 2541.91   42.78   8
  -2  -2  -6 80.4181  2.4557   1
   2   2  -6 81.9034  2.8190   3
  -2  -2   6 82.8176  2.1393   3
   2  -2   6 79.3153  2.5955   6
   2  -2  -6 83.5825  2.8255   3
  -2  -2   6 85.9540  3.3929   7
  -2  -2   6 85.2793  2.9662   4
   2  -2   6 83.4826  1.6986   2
   2   2   6 82.8339  2.0155   2
  -2  -2   6 82.0283  2.9829   8
   2  -2  -6 79.8489  2.4499   1
   2   2   6 82.0094  2.9159   6
   2  -2   6 83.2562  2.8841   7
  -2  -2   6 80.7714  2.8147   9
   2  -2   6 80.1663  2.5289   4
  -2   2   6 82.8318  2.7913   8
   2   2   6 85.3342  2.8557   4
  -2   2   6 83.7254  2.1519   2
  -2   2   6 80.3377  2.6049   6
  -2   2   6 83.7831  2.4074   3
  -2   2   6 83.4050  2.7936   4
  -2   2  -6 80.0719  2.3474   1
   2   2   6 84.1066  2.8773   8
  -2   2   6 83.0917  2.9569   7
   2   2  -6 82.3802  2.4650   1
   2  -2   6 83.4346  2.8246   8
   3   1   6 1621.51   26.61   4
  -1   3   6 1557.91   27.65   2
  -1  -3  -6 1604.61   28.10   1
  -3  -1   6 1563.03   28.26   8
   1  -3   6 1632.19   30.82   3
   1  -3   6 1622.60   27.29   2
  -3  -1   6 1593.31   31.15   3
   1   3  -6 1618.81   28.05   1
  -3  -1   6 1623.24   27.56   2
   3   1   6 1629.96   27.43   2
   1  -3   6 1578.54   30.02   7
  -3  -1   6 1588.06   30.38   7
  -3  -1   6 1602.30   27.07   4
   1   3  -6 1564.41   31.71   3
   3  -1  -6 1613.77   31.77   3
  -1   3   6 1599.12   27.29   8
   3   1   6 1588.68   28.17   8
  -1   3   6 1617.51   26.72   6
  -3   1  -6 1606.75   27.90   1
  -3  -1   6 1622.37   31.13   3
   1  -3   6 1576.73   27.34   2
   1  -3   6 1584.38   27.68   8
   3   1   6 1591.77   26.50   6
  -3  -1   6 1594.82   26.96   9
   3  -1  -6 1600.64   28.02   1
  -1  -3  -6 1595.09   31.86   3
  -1   3   6 1596.84   27.29   4
   1  -3   6 1587.38   27.15   4
  -3   1   6 1600.03   26.92   4
   3  -1   6 1556.94   30.91   3
   3  -1   6 1571.94   28.08   8
   1   3   6 1617.19   27.46   4
   1   3   6 1610.30   27.09   6
  -1  -3   6 1625.77   26.90   9
   1  -3  -6 1585.93   27.99   1
  -1  -3   6 1568.53   27.51   4
   3   1  -6 1570.49   28.01   1
  -3   1   6 1592.67   28.17   8
  -1  -3   6 1552.45   30.58   7
  -1  -3   6 1569.29   27.79   8
  -1  -3   6 1624.71   27.42   2
   1  -3  -6 1595.10   31.77   3
   3  -1   6 1622.64   26.21   6
  -3   1   6 1577.88   29.82   7
  -3   1   6 1615.55   27.61   2
  -3   1   6 1604.57   26.84   9
  -1   3  -6 1573.40   27.86   1
   3   1  -6 1592.40   31.71   3
   1   3   6 1574.45   27.60   2
  -3   1   6 1599.87   26.30   6
  -3   1   6 1641.43   31.19   3
  -1  -3   6 1614.26   30.91   3
  -3  -1  -6 1618.33   27.95   1
   3   3  -6 4992.23   98.63   3
  -3  -3   6 5105.70   86.70   2
   3  -3   6 5188.04   97.84   3
  -3   3   6 5262.70   82.13   9
  -3  -3   6 5089.68   82.37   9
   3  -3   6 5220.89   86.46   2
   3  -3   6 5263.28   81.93   4
   3  -3  -6 5050.30   87.06   1
  -3  -3   6 5170.56   97.94   3
  -3  -3   6 5005.57   93.38   7
   3   3   6 5003.80   85.08   8
  -3   3   6 5196.83   86.77   2
   3   3   6 5076.48   86.67   2
   3  -3  -6 5032.78   98.50   3
  -3  -3   6 4959.84   85.44   8
  -3   3  -6 5010.29   86.89   1
   3  -3   6 5117.06   85.11   8
   3   3  -6 4966.66   87.11   1
  -3   3   6 5263.15   98.08   3
  -3  -3   6 5068.69   83.05   4
  -3  -3  -6 4999.61   87.16   1
   3  -3   6 5229.73   91.47   7
  -3   3   6 5122.74   80.71   6
  -3   3   6 5084.11   82.51   4
   0  -4  -6 4911.66   85.53   1
   0  -4   6 4971.60   81.86   4
   4   0  -6 5088.36   85.57   1
   0  -4  -6 4935.91   96.79   3
   0  -4   6 5047.02   96.22   3
   0  -4   6 4864.77   90.87   7
   0  -4   6 5035.43   85.09   2
  -4   0   6 5086.53   96.33   3
   0  -4   6 5120.62   96.08   3
  -4   0   6 5109.27   80.86   9
   4   0   6 4930.24   84.27   8
  -4   0   6 5022.34   79.51   6
   0   4  -6 4878.91   85.44   1
  -4   0   6 5100.24   80.88   4
   0   4   6 4971.18   85.28   2
  -4   0   6 5076.15   85.22   2
   4   0   6 5015.95   84.99   2
  -4   0  -6 5049.53   85.42   1
   4   0  -6 5071.58   96.83   3
  -4   0   6 4966.69   90.36   7
   4   0   6 5130.76   96.31   3
   4   0   6 5137.61   79.33   6
   0  -4   6 5011.50   80.64   9
   0  -4   6 4953.57   83.25   8
  -4  -2   6 11.9749  1.8106   7
   2   4  -6 11.9427  1.6532   3
   2   4  -6 9.34525 1.35205   1
   2  -4   6 10.4792  1.3529   8
  -2   4   6 9.35531 1.35566   9
   2  -4   6 11.3914  1.3623   3
  -4   2  -6 7.60334 1.20958   1
  -4  -2   6 8.42593 1.23079   2
   2  -4   6 8.61249 1.14135   2
  -4  -2   6 7.93999 1.42753   9
  -2   4   6 6.50630 1.12098   2
   4  -2  -6 10.1058  1.5256   3
  -4  -2   6 9.51783 1.45553   4
  -2  -4  -6 9.29348 1.62604   3
   4   2   6 11.5299  1.2509   2
   2  -4   6 15.8646  1.5399   9
  -2   4   6 11.9962  1.6822   4
   4  -2  -6 10.9131  1.3838   1
  -4  -2   6 11.1112  1.4692   3
   4   2   6 10.8949  1.8032   8
   2  -4   6 9.68571 1.50659   4
  -2   4   6 10.5323  1.3778   6
   2  -4   6 9.25464 1.41463   7
  -2  -4  -6 7.52413 1.30151   1
   4   2   6 10.4418  1.4370   6
   4   2  -6 12.5097  1.4614   1
  -2   4  -6 10.1733  1.2912   1
  -4   2   6 10.0961  1.3342   7
   2   4   6 11.7935  1.3517   8
   4  -2   6 7.69950 1.49257   8
  -2  -4   6 10.8549  1.3138   2
   4  -2   6 9.39739 1.35798   3
   4  -2   6 9.71722 1.13062   2
  -2   4  -6 9.13331 1.42379   5
  -2  -4   6 9.08503 1.28977   3
  -2  -4   6 9.08376 1.99776   7
   4   2  -6 11.6200  1.6521   3
  -4   2   6 9.27061 1.15249   6
  -2  -4   6 7.90135 1.37538   8
  -4   2   6 8.22289 1.21445   2
  -2  -4   6 9.00627 1.48181   9
   2  -4  -6 9.67767 1.29182   1
  -4   2   6 8.55695 1.28977   4
  -2  -4   6 8.36073 1.69958   4
  -4  -2  -6 10.1719  1.3663   1
   2   4   6 8.10828 1.25153   2
   2  -4  -6 9.81373 1.49362   3
  -4   2   6 8.14824 1.36307   9
   4  -2   6 9.77232 1.15112   6
   4  -4   6 358.981   8.835   3
  -4   4   6 347.124   7.907   2
   4  -4  -6 335.458   8.072   1
   4  -4   6 356.907   7.695   2
  -4   4  -6 337.405   7.939   1
   4   4   6 345.664   8.233   8
   4  -4   6 355.630   8.072   8
  -4  -4  -6 342.680   8.198   1
  -4   4   6 353.913   7.135   6
   4   4   6 343.250   7.924   2
   4   4  -6 354.222   9.436   3
   4   4  -6 344.553   8.264   1
  -4   4   6 339.667   7.910   4
  -4  -4   6 344.603   8.890   3
  -4  -4   6 340.371   8.504   4
  -4  -4   6 355.169   8.029   2
  -4  -4   6 356.023  10.650   7
   4  -4  -6 348.515   9.254   3
  -4   4   6 342.821   7.909   9
  -4  -4   6 343.887   8.170   9
  -1   5   6 95.4395  3.2039   2
  -5  -1   6 98.6579  3.7187   5
  -5  -1   6 97.9547  3.2390   4
   5  -1  -6 90.4637  3.7840   3
   1   5  -6 92.4658  3.3124   1
   5   1   6 93.5019  4.2763   8
   5  -1  -6 88.6900  3.3177   1
   5   1   6 87.9413  2.9698   6
  -1  -5  -6 91.7542  3.3672   1
  -5  -1   6 89.8896  3.8307   7
   1  -5   6 91.1517  3.3786   3
   5   1   6 90.8700  3.0686   2
  -5  -1   6 89.7702  3.1454   2
   1  -5   6 96.2413  3.7392   7
  -5   1  -6 95.9138  3.3151   1
   1  -5   6 95.7911  3.0851   8
   1  -5   6 89.1370  3.2718   9
  -5  -1   6 86.8624  3.4388   9
   1  -5   6 94.6909  3.0983   2
   5   1   6 95.4319  3.6618   3
  -1  -5  -6 89.8919  3.8205   3
   5   1  -6 91.6375  3.3284   1
   5  -1   6 96.3858  3.0547   2
   5   1  -6 93.2634  3.8220   3
  -1  -5   6 93.1066  4.3439   7
   5  -1   6 91.8855  3.9974   8
  -1  -5   6 96.8622  3.4313   3
  -5   1   6 93.1212  3.3168   7
   1  -5  -6 90.2904  3.3217   1
  -1  -5   6 95.1863  3.2181   8
   1   5   6 91.0602  3.2659   2
  -1  -5   6 89.6569  3.1613   2
   5  -1   6 93.8491  2.7230   6
   1  -5  -6 94.2567  3.8462   3
  -5   1   6 93.9494  3.5005   9
  -5   1   6 92.9976  3.1911   2
  -5   1   6 95.3329  3.0858   4
  -1   5  -6 86.9816  3.1897   1
  -5   1   6 93.1315  2.8905   6
  -1  -5   6 91.9645  3.4640   9
  -5  -1  -6 89.3040  3.2422   1
   5  -1   6 94.2926  3.5871   3
  -5   3  -6 22.1086  1.9593   1
  -3  -5  -6 27.7688  2.1365   1
   5   3   6 23.9815  1.9670   2
  -5  -3   6 25.4410  2.2981   3
  -5  -3   6 24.9871  2.2111   4
  -3   5   6 25.3743  1.9721   2
   3   5  -6 32.0260  2.5738   3
   3  -5   6 22.7513  2.0468   3
   3  -5   6 23.7475  1.8270   2
   3  -5   6 24.1879  1.8607   8
  -3   5   6 23.0017  1.8790   6
  -3  -5  -6 25.7812  2.4580   3
  -5  -3   6 24.7317  2.9303   7
  -5  -3   6 21.0717  2.1107   9
   3   5  -6 24.0372  2.0760   1
   5   3   6 24.5405  2.7661   8
   5  -3  -6 26.2326  2.1015   1
  -3   5   6 22.9322  2.0481   9
  -5   3  -6 24.9149  1.8905   9
  -5  -3   6 25.2679  2.1079   2
   5  -3  -6 25.0346  2.3726   3
   3   5   6 24.0257  2.0073   2
  -3   5  -6 25.4277  2.2100   5
  -3  -5   6 23.8837  1.9716   2
  -5   3   6 23.6829  1.9914   4
  -3   5  -6 23.1475  1.8866   1
  -3  -5   6 29.8011  2.2536   3
   3  -5  -6 24.6660  2.0576   1
   5  -3   6 25.0221  2.1181   3
  -3  -5   6 25.0824  2.6621   4
  -5  -3  -6 23.3126  2.0438   1
   5  -3   6 24.0300  1.7863   2
  -5   3   6 24.6209  1.9707   2
  -3  -5   6 23.5437  3.4981   7
   3  -5  -6 23.9054  2.3389   3
   5   3  -6 21.6638  2.0428   1
   5   3  -6 23.6837  2.4883   3
  -3  -5   6 24.1355  2.2743   9
   5  -3   6 24.5897  2.3777   8
  -5   3   6 26.3182  2.1592   9
  -5  -5   6 7.94211 1.86795   3
   5   5   6 5.71178 1.60108   2
   5  -5   6 5.33339 1.65008   8
   5   5  -6 7.07641 1.73434   1
  -5  -5  -6 5.29080 1.64321   1
  -5  -5   6 6.30511 1.79682   4
   5   5  -6 4.58283 1.86973   3
  -5   5   6 4.45874 1.59821   9
   5  -5  -6 7.07219 1.92102   3
  -5  -5   6 4.96897 1.59079   2
  -5   5   6 6.70056 1.59955   2
  -5   5  -6 5.20080 1.85351   5
   5  -5   6 5.39131 1.47453   2
   5   5   6 6.62227 1.97689   8
  -5  -5   6 6.71821 3.06050   7
   5  -5  -6 5.00973 1.46070   1
  -5  -5   6 4.84499 1.64501   9
  -5   5  -6 5.29769 1.55926   1
   5  -5   6 3.38765 1.60219   3
   0  -6   6 1643.05   29.46   2
   6   0   6 1552.62   30.84   8
  -6   0   6 1641.07   32.14   5
  -6   0   6 1594.07   28.45   9
  -6   0   6 1632.51   27.69   4
   0  -6  -6 1621.58   33.80   3
  -6   0   6 1651.14   29.59   2
   6   0   6 1636.94   33.51   3
   0   6  -6 1570.73   29.64   1
   6   0  -6 1598.62   29.84   1
  -6   0  -6 1580.53   29.63   1
   0  -6   6 1621.26   32.28   7
   6   0  -6 1656.25   33.86   3
   0  -6   6 1655.37   28.46   8
   0  -6  -6 1560.28   29.77   1
   0  -6   6 1620.86   28.33   9
   6   0   6 1654.36   29.33   2
  -6   0   6 1684.80   31.21   7
   0   6   6 1619.33   29.59   2
   0  -6   6 1643.38   33.11   3
  -2   6   6 1060.80   19.63   6
   2  -6   6 1052.27   21.56   7
   6   2   6 1071.07   20.47   2
  -6  -2   6 1065.82   20.17   9
  -6   2  -6 1078.10   20.77   1
   2  -6   6 1084.57   20.43   2
   6   2   6 1081.81   19.29   6
  -6  -2   6 1082.57   19.58   4
   2  -6   6 1079.23   23.01   3
   6  -2  -6 1065.85   20.92   1
   6   2   6 1077.30   20.49   2
   6   2   6 1116.60   23.05   8
  -6  -2   6 1067.83   20.64   2
   2   6  -6 1055.08   20.96   1
   6  -2  -6 1066.02   23.72   3
  -2  -6  -6 1079.57   21.00   1
   6   2   6 1085.15   23.47   3
  -2   6   6 1098.14   20.65   2
   2  -6   6 1089.61   19.62   8
  -2  -6  -6 1124.62   23.94   3
  -2   6   6 1097.53   19.83   9
   2  -6   6 1092.08   19.82   9
  -6  -2   6 1093.91   22.87   7
  -2  -6   6 1069.74   23.06   3
  -2  -6   6 1071.56   24.49   7
   2  -6  -6 1072.14   20.84   1
  -2  -6   6 1069.46   20.17   9
  -6   2   6 1071.49   20.63   2
   6   2  -6 1093.26   23.86   3
  -2   6  -6 1066.28   20.69   1
   6   2  -6 1070.54   20.96   1
   2   6   6 1093.58   20.72   2
  -2  -6   6 1130.07   20.34   8
   6  -2   6 1051.77   21.41   8
  -6  -2  -6 1091.55   20.92   1
   2  -6  -6 1098.85   23.67   3
   6  -2   6 1093.92   23.30   3
  -6   2   6 1062.62   20.01   9
  -2  -6   6 1072.40   20.64   2
   6  -2   6 1091.04   20.37   2
   4   6  -6 2419.22   49.00   3
  -6   4  -6 2410.25   42.91   1
   6   4   6 2365.47   42.71   2
  -4   6   6 2363.41   42.79   2
  -6  -4   6 2412.20   48.41   3
  -4   6   6 2421.30   40.84   9
  -6  -4   6 2350.86   47.83   7
   6   4   6 2272.57   43.71   8
   4   6  -6 2403.89   43.25   1
   6  -4  -6 2412.36   48.91   3
   4  -6   6 2391.02   42.52   2
  -4  -6  -6 2404.27   43.24   1
   6  -4  -6 2355.33   43.09   1
  -6  -4   6 2368.71   42.87   2
  -6  -4   6 2397.30   41.14   9
  -6  -4   6 2473.00   41.22   4
  -4  -6  -6 2471.28   49.03   3
  -6   4  -6 2355.85   39.97   9
   4  -6   6 2414.25   48.12   3
   6  -4   6 2303.88   42.37   2
   6   4  -6 2356.25   43.32   1
  -4  -6   6 2316.01   51.00   7
  -4   6  -6 2424.91   45.23   5
   6  -4   6 2363.04   42.30   8
   6   4  -6 2325.89   49.00   3
  -6   4   6 2378.52   40.95   9
  -4   6  -6 2331.88   42.88   1
   4   6   6 2397.42   42.87   2
  -4  -6   6 2331.16   40.98   9
  -6  -4  -6 2338.36   43.19   1
   4  -6  -6 2428.54   48.90   3
  -4  -6   6 2325.47   42.82   2
  -6   4   6 2375.00   42.82   2
   6  -4   6 2432.20   48.28   3
  -4  -6   6 2269.16   42.32   4
  -4  -6   6 2442.39   48.32   3
   4  -6  -6 2360.85   43.04   1
  -6   6   6 661.673  13.934   9
  -6   6  -6 632.958  13.199   9
  -6  -6   6 631.444  15.791   3
   6  -6  -6 613.205  14.200   1
   6  -6   6 639.785  15.734   3
   6   6  -6 630.180  14.446   1
  -6  -6   6 646.287  14.036   9
  -6  -6  -6 615.759  14.370   1
   6   6   6 611.384  14.006   2
  -6   6   6 614.892  13.910   2
  -6   6  -6 629.553  15.397   5
  -6  -6  -6 647.610  16.466   3
  -6  -6   6 634.895  14.393   4
  -6  -6   6 618.981  14.074   2
   6   6  -6 649.063  16.451   3
  -6   6  -6 645.221  14.151   1
  -6  -6   6 579.895  18.838   7
   6  -6   6 618.002  13.647   2
   1   7  -6 875.800  17.871   1
   7   1   6 881.329  17.420   2
  -7   1  -6 880.831  17.817   1
   1  -7   6 871.320  18.933   7
  -1  -7  -6 885.474  17.948   1
   7  -1  -6 903.881  20.515   3
   1  -7   6 890.473  17.139   9
  -7  -1   6 873.742  17.298   9
  -1   7   6 878.250  17.617   2
   1  -7   6 896.000  17.507   2
   7   1   6 876.953  20.666   8
   7   1   6 926.730  20.172   3
  -7  -1   6 892.150  18.931   7
  -1  -7  -6 872.320  20.361   3
   1  -7   6 898.726  19.688   3
   7  -1  -6 859.167  17.928   1
  -7  -1   6 880.800  17.630   2
  -1   7  -6 870.808  17.770   1
  -7   1   6 859.732  17.171   9
  -7   1   6 933.402  20.199   5
  -1  -7   6 916.851  19.719   3
  -7  -1  -6 873.697  17.836   1
   1  -7  -6 855.149  17.835   1
   7   1  -6 901.390  20.456   3
   7  -1   6 884.268  17.392   2
  -1  -7   6 881.511  17.295   9
   7  -1   6 883.044  19.504   8
   7  -1   6 880.921  19.898   3
  -1  -7   6 855.318  17.543   2
   1  -7  -6 866.045  20.232   3
  -7   1   6 886.198  17.676   2
  -1  -7   6 874.652  20.635   7
   7   1  -6 884.343  17.960   1
   1   7   6 866.112  17.750   2
   7  -3  -6 1546.64   34.10   3
   7   3   6 1560.92   29.67   2
   3  -7   6 1650.56   33.47   3
   7  -3  -6 1579.55   30.18   1
  -3   7   6 1599.37   27.79   6
  -7  -3   6 1593.27   29.88   2
   7   3   6 1654.12   33.93   3
  -7  -3   6 1603.50   28.20   4
  -3   7   6 1578.26   28.46   9
  -7   3  -6 1581.55   29.96   1
  -7  -3   6 1559.29   28.81   9
  -3  -7  -6 1613.74   30.29   1
  -3  -7  -6 1642.42   34.40   3
  -7  -3   6 1612.55   33.74   3
  -3   7   6 1607.44   29.82   2
  -7  -3   6 1604.13   33.03   7
   3  -7   6 1594.13   29.52   2
   7   3   6 1531.82   33.05   8
   3   7  -6 1623.61   30.33   1
  -7   3   6 1575.37   29.70   2
   7   3  -6 1582.34   34.27   3
   7   3  -6 1558.14   30.23   1
  -3   7  -6 1564.66   29.89   1
  -3  -7   6 1544.11   36.31   7
  -7   3   6 1558.04   28.65   9
   7  -3   6 1647.11   33.71   3
  -3  -7   6 1621.42   33.52   3
  -7  -3  -6 1612.97   30.24   1
   7  -3   6 1581.09   29.45   2
  -3  -7   6 1570.39   28.86   9
   3  -7  -6 1595.53   34.15   3
   7  -3   6 1583.06   30.34   8
   3  -7  -6 1586.64   30.14   1
  -3  -7   6 1561.83   29.75   2
   3   7   6 1557.47   29.82   2
  -5   7   6 95.1295  4.3936   2
   7  -5  -6 97.5879  4.5611   1
  -7   5  -6 102.550   4.515   1
   7   5   6 102.978   5.684   8
  -5  -7  -6 104.354   4.737   1
   5  -7   6 100.297   4.859   3
  -7   5  -6 97.4832  5.2177   5
   5  -7   6 94.0471  4.1339   2
  -7  -5   6 105.249   6.682   7
  -7  -5   6 96.8201  4.6125   9
  -5   7   6 96.0784  4.5427   9
  -7  -5   6 93.8151  4.4545   2
  -7   5  -6 103.308   4.197   9
   7   5   6 105.331   4.523   2
  -7  -5   6 108.745   4.729   4
  -7   5  -6 100.668   4.475   1
   5   7  -6 98.6016  4.6364   1
  -5  -7   6 106.150   5.106   3
  -5  -7   6 95.0887  8.9638   7
  -7  -5  -6 101.779   4.728   1
  -5   7  -6 102.720   4.542   1
   7  -5   6 102.881   4.991   3
   7   5  -6 99.4982  4.7218   1
  -7   5   6 100.532   4.644   9
   7  -5   6 100.398   4.632   8
  -5  -7   6 101.179   4.578   9
  -7   5   6 99.1597  4.4004   2
   7  -5   6 95.5378  4.1425   2
  -5   7  -6 96.8829  4.7896   5
   5   7   6 99.5319  4.4793   2
   5  -7  -6 103.476   4.662   1
  -5  -7   6 98.9139  5.3021   4
  -5  -7   6 97.5064  4.4564   2
   7  -7  -6 953.210  20.133   1
   7  -7   6 879.570  19.135   2
  -7  -7   6 944.599  19.801   2
  -7  -7  -6 931.937  20.218   1
   7   7   6 919.243  19.660   2
  -7  -7   6 947.189  25.791   7
  -7   7   6 915.758  19.166   9
  -7   7  -6 961.015  18.735   9
  -7   7  -6 889.808  21.180   5
  -7   7   6 903.697  19.561   2
  -7  -7   6 908.797  19.333   9
  -7   7  -6 906.337  19.850   1
  -7  -7   6 933.888  19.728   4
   7   7  -6 918.326  20.240   1
   8   0   6 74.1006  4.2805   3
  -8   0  -6 74.2363  3.8142   1
   0  -8  -6 68.2555  4.1922   3
   0   8  -6 71.2587  3.7021   1
   0  -8   6 75.1047  3.6347   2
   0  -8   6 71.0572  4.4891   7
   0  -8   6 69.3363  3.7459   9
   8   0  -6 70.4639  4.3343   3
  -8   0   6 74.9026  4.8352   5
   0  -8   6 73.9503  3.9444   3
  -8   0   6 69.9667  3.7049   2
  -8   0   6 90.1721  4.0797   9
   0   8   6 73.6155  3.7131   2
   8   0   6 65.3946  3.4087   2
   0  -8  -6 70.7056  3.7706   1
   8   0  -6 67.3898  3.8098   1
   8   0   6 77.0735  5.6123   8
  -2  -8  -6 195.404   7.411   3
  -8  -2   6 201.505   6.524   9
   8  -2  -6 196.879   6.508   1
  -8  -2   6 187.217   6.221   2
   2   8  -6 198.179   6.490   1
   2  -8   6 201.729   6.096   2
   8   2   6 185.854  10.015   8
  -2  -8  -6 193.118   6.455   1
   8  -2  -6 205.690   7.513   3
   2  -8   6 190.422   6.194   9
   8   2   6 204.502   6.192   2
   2  -8   6 204.289   6.850   3
  -8  -2   6 217.993   7.223   7
  -2   8   6 192.278   6.226   2
   8   2   6 204.994   7.164   3
  -8   2  -6 195.942   6.340   1
  -2  -8   6 185.320   6.099   2
  -2  -8   6 205.776   6.594   9
  -2  -8   6 208.107   7.029   3
  -8   2   6 196.043   6.334   9
   8   2  -6 203.453   7.540   3
   8  -2   6 204.130   7.668   8
  -8   2   6 207.870   7.831   5
  -2   8  -6 193.000   6.243   1
   8  -2   6 193.763   5.934   2
  -8   2   6 192.449   6.135   2
   2   8   6 190.253   6.233   2
  -2  -8   6 195.493   8.861   7
   8  -2   6 204.114   7.105   3
   2  -8  -6 197.691   7.279   3
   2  -8  -6 198.719   6.399   1
   8   2  -6 189.693   6.517   1
  -8  -2  -6 191.600   6.389   1
  -4   8   6 130.437   5.270   9
   8   4   6 143.018   7.781   8
  -8   4  -6 129.892   6.227   5
  -8  -4   6 124.619   6.702   7
   8  -4  -6 129.552   5.412   1
   4   8  -6 133.704   5.527   1
  -8  -4   6 130.297   5.303   2
  -4   8   6 129.654   5.212   2
   4  -8   6 137.174   5.033   2
   8   4   6 138.275   5.201   2
  -8  -4   6 126.445   5.262   9
  -4  -8  -6 129.939   5.498   1
  -8   4  -6 134.785   5.357   1
  -8  -4  -6 130.904   5.489   1
  -8   4   6 125.852   5.264   9
   8  -4   6 133.503   4.953   2
  -8   4   6 131.254   5.182   2
   4   8   6 135.468   5.269   2
  -4   8  -6 136.392   5.370   1
   8  -4   6 137.123   5.713   8
  -4  -8   6 124.871   5.106   2
  -4  -8   6 132.131   5.471   9
   4  -8  -6 133.948   5.462   1
   8   4  -6 132.920   5.558   1
  -4  -8   6 117.276   8.913   7
   8   6   6 40.9374  3.5332   2
   6   8  -6 39.8076  3.5875   1
  -8  -6   6 39.7447  3.4454   2
  -8  -6   6 36.6810  3.6245   9
   6  -8   6 40.1287  3.2624   2
  -8   6  -6 41.1608  4.3079   5
  -8  -6   6 41.7141  5.4493   7
  -8   6  -6 36.9297  3.3525   1
  -6  -8  -6 45.9660  3.7630   1
  -6   8   6 43.5186  3.4901   2
   8  -6  -6 46.7846  3.7135   1
  -8   6  -6 36.9975  3.2095   9
  -6   8   6 46.1051  3.7305   9
  -8   6  -6 38.6251  3.3768   1
  -8   6   6 35.5257  3.1282   2
  -8   6   6 38.3089  3.6791   9
  -6  -8   6 33.1006  3.3389   2
   8  -6   6 39.0413  3.1882   2
  -6  -8   6 39.4740  3.7682   9
  -6  -8   6 37.9235  6.4040   7
   8   6  -6 48.4274  3.8880   1
   6  -8  -6 37.9919  3.5390   1
  -6   8  -6 37.4972  3.2989   9
  -6   8  -6 38.0229  3.5896   5
  -8  -6  -6 42.8185  3.7012   1
   6   8   6 34.5899  3.2604   2
  -6   8  -6 42.7788  3.4821   1
  -6  -8   6 42.9272  4.3381   4
   8   8  -6 132.360   6.273   1
  -8  -8   6 116.949   5.625   2
   8   8   6 116.622   5.570   2
  -8   8   6 115.288   5.565   2
  -8  -8   6 138.205   8.683   7
  -8   8  -6 117.924   6.407   5
  -8   8  -6 123.356   5.875   1
  -8  -8   6 128.870   6.112   4
   8  -8   6 123.591   5.466   2
  -8   8  -6 123.903   5.880   1
  -8   8  -6 128.077   5.638   9
  -8  -8   6 116.304   5.847   9
  -8   8   6 110.695   5.653   9
   9  -1  -6 260.226   8.048   1
  -9  -1   6 257.686   7.768   9
  -9   1  -6 262.755   7.892   1
   1  -9   6 248.722   7.624   9
  -1   9   6 253.610   7.647   2
   1  -9   6 247.013   7.441   2
   1   9  -6 267.929   8.002   1
   9   1   6 247.741  10.793   8
  -1  -9  -6 253.591   7.914   1
  -9  -1   6 254.407   7.712   2
   9   1   6 255.151   7.403   2
   9   1  -6 260.616   8.030   1
   1  -9  -6 263.961   8.004   1
  -1  -9   6 257.405   9.680   7
   1   9   6 248.159   7.649   2
  -9   1   6 259.845   9.308   5
  -1  -9   6 256.410   7.756   9
  -1   9  -6 256.534   7.843   1
  -9   1   6 253.134   7.668   2
   9  -1   6 255.122   7.492   2
  -9  -1  -6 256.596   7.906   1
  -1  -9   6 263.053   7.606   2
   9  -1   6 260.594   9.713   8
  -9   1   6 253.206   7.644   9
  -9   3  -6 1077.88   22.37   1
  -3   9   6 1114.34   21.43   9
   9   3   6 1090.07   22.10   2
   9   3   6 1087.14   22.02   2
   9  -3  -6 1109.81   22.74   1
   3  -9   6 1068.57   21.81   2
   3   9  -6 1107.79   22.72   1
  -9  -3   6 1102.17   21.76   9
  -9  -3   6 1071.11   22.29   2
  -3   9   6 1059.15   22.15   2
   9   3   6 1046.69   27.10   8
  -3  -9  -6 1071.86   22.63   1
  -3  -9   6 989.499  26.884   7
   3   9   6 1048.20   22.02   2
   9  -3   6 1096.11   23.37   8
  -3   9  -6 1091.20   22.40   1
  -9   3   6 1077.17   21.58   9
   3  -9  -6 1116.35   22.61   1
  -3  -9   6 1077.58   22.11   2
   9  -3   6 1061.06   21.65   2
  -9   3   6 1058.79   22.00   2
  -3  -9   6 1089.42   21.80   9
  -9  -3  -6 1112.90   22.74   1
   9   3  -6 1096.31   22.75   1
  -9   5  -6 3.34878 2.47734   5
   5  -9   6 0.28692 1.66070   2
   9   5   6 0.90815 1.90793   2
   9   5   6 -0.5224  3.0090   8
  -9  -5   6 -2.4342  2.5426   7
   5   9  -6 0.88046 2.07166   1
  -9   5  -6 -0.6618  1.8014   1
  -9  -5   6 1.68836 1.89235   9
  -5  -9  -6 2.05047 2.16050   1
  -9  -5   6 2.01698 2.02141   2
  -5   9   6 3.01386 2.10184   9
  -5   9   6 0.76770 1.90717   2
   9  -5  -6 1.09255 2.09755   1
  -5  -9   6 0.49386 4.01296   7
  -5  -9   6 1.28295 2.08747   9
  -5  -9   6 -0.3790  1.7805   2
  -5   9  -6 0.34847 1.89823   1
  -9  -5  -6 0.78799 2.09118   1
   5  -9  -6 1.60487 2.10437   1
   9  -5   6 0.63000 2.24584   8
   5   9   6 3.38340 2.04592   2
   9  -5   6 0.52061 1.73400   2
   9   5  -6 2.03047 2.21574   1
  -9   5   6 -0.5519  1.7806   2
  -9   5   6 -0.3398  1.9578   9
  -9  -7   6 396.125  14.071   7
  -7   9   6 381.778  10.734   9
   9   7   6 369.330  10.689   2
   7  -9   6 371.949  10.437   2
  -9  -7   6 377.431  10.738   2
  -9   7  -6 386.881  11.146   1
  -9   7  -6 387.599  12.274   5
  -9   7  -6 388.754  11.182   1
   7   9  -6 381.030  11.419   1
  -9  -7   6 378.680  10.915   9
  -7   9   6 372.866  10.692   2
  -7   9  -6 388.245  10.493   9
  -9   7   6 365.081  10.601   9
   9  -7   6 354.620  10.129   2
  -7   9  -6 384.207  11.009   1
   7   9   6 350.467  10.531   2
  -9   7   6 356.948  10.539   2
  -7  -9   6 388.953  15.011   7
  -7  -9   6 369.946  10.800   9
  -7  -9   6 387.053  11.582   4
  -7  -9   6 368.376  10.608   2
 -10   0  -6 2035.59   37.74   1
   0  10  -6 1990.22   37.78   1
 -10   0   6 1882.57   37.24   2
   0 -10   6 1964.63   35.80   9
   0 -10  -6 2017.59   37.87   1
 -10   0   6 1985.35   35.91   9
  10   0   6 1959.46   36.97   2
   0  10   6 1891.36   37.10   2
  10   0  -6 2094.21   38.17   1
   0 -10   6 1878.94   36.92   2
  10   0   6 1852.92   39.83   8
 -10  -2   6 4.71760 2.19183   2
 -10  -2   6 12.8800  2.6586   9
 -10   2  -6 15.4753  2.6815   1
  10   2   6 15.4498  2.5700   2
  -2  10   6 14.4508  2.6147   2
   2 -10   6 10.2329  2.4373   2
   2  10  -6 9.18763 2.46205   1
  10  -2  -6 23.4052  3.2576   1
  -2 -10  -6 17.8848  2.9878   1
  10   2   6 11.9045  4.1422   8
  -2 -10   6 9.16184 3.57874   7
  10  -2   6 25.2199  3.9826   8
 -10   2   6 10.0294  2.4604   9
 -10   2   6 11.4523  3.1853   5
  -2 -10   6 12.0229  2.5215   9
 -10   2   6 9.36686 2.33624   2
 -10  -2  -6 11.3881  2.5600   1
   2  10   6 10.0412  2.3923   2
  -2  10  -6 14.0141  2.6841   1
   2 -10  -6 14.5228  2.7465   1
  10  -2   6 11.6249  2.3223   2
  -2 -10   6 12.8625  2.4415   2
  10   2  -6 11.8943  2.6985   1
  -4 -10  -6 197.766   7.432   1
   4 -10   6 192.763   6.779   2
  10  -4  -6 185.971   7.348   1
   4  10  -6 202.891   7.525   1
 -10   4  -6 202.081   7.318   1
 -10  -4   6 181.928   6.950   2
  10   4   6 185.027   6.868   2
  -4  10   6 189.314   6.984   2
 -10   4  -6 182.206   8.257   5
  10   4   6 178.533   9.167   8
 -10  -4   6 189.874   7.053   9
  10   4   6 197.101   7.029   2
  -4  10   6 192.995   7.104   9
  10   4  -6 189.346   7.429   1
   4 -10  -6 187.481   7.322   1
   4  10   6 187.652   6.940   2
  10  -4   6 182.257   6.579   2
  -4 -10   6 193.229   7.289   9
  -4  10  -6 194.538   7.246   1
  -4 -10   6 199.926   6.954   2
 -10   4   6 190.520   6.945   2
 -10  -4  -6 208.783   7.650   1
  10  -4   6 189.221   7.594   8
  -4 -10   6 189.646   9.976   7
 -10   4   6 188.864   7.152   9
 -10  -6   6 1109.98   23.83   2
 -10  -6   6 1103.61   23.26   9
 -10  -6   6 1162.65   27.41   7
  10   6   6 1135.40   23.66   2
 -10   6  -6 1155.38   24.25   1
  -6  10   6 1118.90   23.12   9
 -10   6  -6 1092.65   26.30   5
  -6  10   6 1100.54   23.75   2
   6 -10   6 1104.11   23.25   2
   6  10   6 1102.69   23.69   2
  -6 -10   6 1160.78   30.07   7
 -10   6   6 1071.98   23.51   2
  -6 -10   6 1139.27   24.63   4
  -6 -10   6 1127.21   23.52   9
  -6 -10   6 1076.65   23.57   2
  -6  10  -6 1160.09   24.29   1
  10  -6   6 1062.89   22.98   2
 -10   6   6 1092.83   23.10   9
  -6  10  -6 1135.20   22.91   9
  -1  11   6 3.41736 2.24287   2
  11   1   6 2.85897 2.09512   2
   1 -11   6 5.74835 2.44819   9
   1  11  -6 6.43374 2.60480   1
 -11  -1   6 4.61724 2.42747   9
 -11   1  -6 5.67582 2.38700   1
   1 -11   6 4.35918 2.15588   2
 -11  -1   6 7.26663 2.49719   2
  11   1   6 8.11274 3.46529   8
  11  -1   6 0.24890 2.85849   8
  -1 -11   6 2.31482 2.14825   2
   1  11   6 2.72753 2.25255   2
  -1  11  -6 4.74309 2.35668   1
 -11   1   6 3.67616 2.33365   9
  -1 -11   6 8.82581 2.66990   9
  11  -1   6 6.20704 2.19654   2
 -11   1   6 4.69782 2.25818   2
 -11  -1  -6 6.09293 2.44638   1
  -3  11   6 107.708   5.438   9
  11   3   6 104.006   5.306   2
  -3  11   6 113.740   5.520   2
  11   3   6 128.682   7.656   8
   3 -11   6 111.418   5.333   2
 -11   3  -6 113.144   5.741   1
 -11  -3   6 105.205   5.592   9
   3  11  -6 116.987   5.921   1
 -11   3  -6 106.189   6.585   5
 -11  -3   6 105.133   5.480   2
  -3 -11   6 112.334   5.802   9
  11  -3   6 115.125   5.233   2
   3  11   6 105.023   5.379   2
  11  -3   6 111.811   6.408   8
 -11   3   6 101.743   5.484   9
  -3 -11   6 114.850   5.467   2
 -11  -3  -6 108.632   5.846   1
  -3 -11   6 106.777   7.461   7
  -3  11  -6 111.655   5.618   1
 -11   3   6 119.014   5.585   2
  -1   0   7 0.13156 0.90286   6
  -1   0   7 3.00619 1.13381   7
   1   0   7 -1.6561  0.8258   8
   0   1   7 -0.7454  0.8540   6
  -1   0   7 -0.1232  0.8394   8
   1   0   7 -1.0751  0.9504   7
   0  -1   7 0.16475 0.88415   4
  -1   0   7 0.21084 0.79451   4
   0   1   7 -1.9566  0.7623   8
   1   0   7 -0.0899  0.8446   6
   0  -1   7 0.30951 0.84444   6
   1   0   7 -1.2810  0.7873   4
   0  -1   7 -0.7792  0.9689   7
   0  -1   7 1.56194 0.97045   8
   1   2  -7 24.6071  1.3618   3
  -2  -1   7 26.7565  2.0178   7
   2  -1  -7 25.4416  1.2265   1
   1  -2   7 26.6274  1.6853   4
  -1  -2  -7 26.0121  1.2866   1
  -2   1  -7 25.9625  1.1180   1
  -1   2   7 27.7457  1.6383   8
  -1   2   7 24.5771  1.8553   7
   2  -1  -7 26.7496  1.4112   3
  -2  -1   7 26.4572  1.9087   8
  -1   2   7 27.1803  1.6394   6
   2   1   7 26.6727  1.7303   6
  -2  -1   7 26.3418  1.6206   9
   1   2  -7 24.4251  1.2101   1
   1  -2   7 22.2635  1.6186   6
   1  -2   7 25.6682  1.8459   7
  -1   2   7 29.6173  1.8460   4
  -2  -1   7 26.2352  1.7646   6
   2   1   7 26.1115  1.7687   8
   2   1   7 26.2933  1.6227   4
   1  -2   7 29.3268  1.8026   8
  -2  -1   7 23.2952  1.6176   4
  -2   1   7 24.0406  1.5968   4
  -1  -2   7 25.9998  1.7991   8
   2  -1   7 27.3134  1.6317   6
   2  -1   7 27.4744  1.7182   8
  -1  -2   7 37.0987  2.2675   7
   1  -2  -7 28.3074  1.2469   1
   1  -2  -7 24.0868  1.3827   3
  -1  -2   7 26.1321  1.8356   4
  -1  -2   7 25.9784  1.7173   6
   2   1  -7 26.5169  1.2206   1
   1   2   7 23.3523  1.6392   8
  -2   1   7 24.4589  1.8163   7
  -2   1   7 27.2408  1.8170   8
   2  -1   7 28.6385  1.8867   7
  -1   2  -7 28.8246  1.1540   1
  -2  -1  -7 24.9625  1.1654   1
   1   2   7 28.0629  1.7242   6
   2   1  -7 28.6678  1.4132   3
  -2   1   7 24.5408  1.5945   6
   1   2   7 26.2138  1.6815   4
  -3   0   7 -1.0621  0.9727   7
   0   3   7 -0.5041  1.0247   6
   0  -3   7 -0.6817  0.9182   8
  -3   0   7 -0.2157  1.1081   8
   0  -3   7 -0.8324  1.0303   4
  -3   0   7 -1.2133  0.8389   6
   0   3   7 -0.6531  0.3885   2
   0  -3  -7 0.20330 0.76512   1
   0  -3  -7 -0.7191  0.8245   3
   0   3   7 -0.9987  0.7416   8
   0   3  -7 -0.2976  0.6853   1
  -3   0  -7 -0.3083  0.6708   1
   3   0  -7 2.10904 0.77926   1
   3   0   7 0.33396 0.83726   4
   0  -3   7 -0.6866  1.0787   7
  -3   0   7 0.43792 0.92056   4
   3   0  -7 -0.7294  0.8398   3
   0  -3   7 0.32581 0.82847   9
   0   3   7 1.05623 1.10054   4
   3   0   7 -0.3515  0.8373   6
   0   3   7 0.11770 0.44587   2
  -3   0   7 1.45235 0.97395   9
   3   0   7 1.30095 1.13674   8
  -3   0   7 -0.4833  0.3204   2
   3  -2  -7 56.3551  2.6340   3
  -2   3   7 59.1900  2.4652   8
   2   3  -7 57.4471  2.6828   3
   2  -3   7 59.8614  2.2553   9
  -3  -2   7 62.1133  1.9362   3
   2   3  -7 56.9337  2.3048   1
  -2   3   7 58.8097  2.4728   6
  -3  -2   7 61.3151  1.7619   2
   2  -3   7 60.3462  2.6275   7
   3   2   7 53.2424  2.6128   8
   3   2   7 58.2558  2.6138   6
   2  -3   7 58.8246  1.4548   2
  -3  -2   7 59.1518  2.7324   4
   2  -3   7 62.6873  2.6333   8
  -3  -2   7 58.6462  1.7608   2
  -3  -2   7 58.4694  2.5493   9
  -3   2  -7 56.5217  2.1523   1
  -3  -2   7 57.6392  3.0379   7
  -3  -2   7 58.0541  2.9012   8
  -2   3   7 63.8149  2.4678   9
   3  -2  -7 56.4040  2.2547   1
   3   2   7 54.8552  2.5085   4
   3   2   7 56.7051  1.7364   2
  -2   3   7 58.0328  2.6547   4
  -2  -3  -7 57.9900  2.3378   1
  -2   3   7 57.9887  1.9290   2
   2  -3   7 57.2833  2.4461   4
   2  -3  -7 60.2444  2.2917   1
  -3   2   7 61.8775  2.4106   6
  -3   2   7 56.9771  2.4315   9
   3   2  -7 56.3593  2.5992   3
   3  -2   7 57.8936  2.7208   8
  -2  -3   7 57.2079  2.8787   4
   3  -2   7 57.8807  2.1638   4
  -3   2   7 56.4975  2.6644   8
  -2  -3   7 59.6180  2.6048   9
   2   3   7 60.3735  2.7933   4
  -2   3  -7 55.0649  2.1110   1
  -2  -3   7 60.1274  1.7973   3
   3  -2   7 58.2251  2.6018   7
   2  -3  -7 58.1487  2.5899   3
   3  -2   7 57.4565  1.5024   2
   2   3   7 57.6563  2.4634   8
   2   3   7 59.6480  1.8282   2
   3  -2   7 56.9540  1.4437   2
  -2  -3   7 56.8169  2.6767   8
  -3   2   7 58.4343  2.5907   7
  -2  -3   7 56.2254  3.2113   7
  -3   2   7 53.1706  2.4179   4
   2   3   7 57.5166  2.7032   6
  -3  -2  -7 55.2499  2.2440   1
  -3   2   7 59.7115  1.9090   2
   3   2  -7 56.0307  2.3277   1
  -2  -3   7 56.7827  1.6498   2
   3  -2   7 59.1644  2.3075   6
   1   4  -7 21.4197  1.6005   1
   1  -4   7 22.8571  2.1242   4
   1  -4   7 17.1123  1.6728   8
   1  -4   7 19.6639  1.8889   7
  -1   4   7 16.2157  1.7504   6
  -1   4   7 19.1372  2.0157   4
  -4  -1   7 18.3443  2.0313   7
  -4  -1   7 22.7569  1.3775   2
  -4  -1   7 21.9866  1.8829   9
   4  -1  -7 17.4529  1.5535   1
   4   1   7 20.9683  1.2603   2
  -4   1  -7 22.3669  1.5358   1
   1  -4   7 18.5722  1.5587   9
  -1   4   7 21.0148  1.4213   2
  -4   1  -7 22.9811  1.5662   1
   4   1   7 23.2729  1.6967   6
   4   1   7 18.6253  1.4972   4
  -1  -4  -7 29.8732  1.8324   1
   1  -4   7 19.0113  1.2507   2
  -4  -1   7 21.1834  1.5068   3
   1  -4   7 19.1916  1.2387   3
  -4  -1   7 19.9111  1.8391   4
   4   1   7 17.7864  2.0511   8
  -1   4   7 18.9174  1.5654   9
  -1   4   7 20.9405  1.5141   8
   4  -1  -7 20.5253  1.7585   3
  -1  -4  -7 21.9188  1.8962   3
  -1  -4   7 20.6275  1.3177   3
  -4   1   7 19.4646  1.3669   2
  -1  -4   7 20.1556  1.3147   2
  -1  -4   7 18.3319  2.2536   7
  -4   1   7 19.1321  1.6851   4
   1   4   7 18.1171  1.4066   8
  -1  -4   7 22.0924  1.8341   9
  -4  -1  -7 18.4397  1.5197   1
  -4   1   7 18.8744  1.5618   6
   4   1  -7 22.6346  1.8977   3
  -4   1   7 20.4095  1.8448   9
   1  -4  -7 18.8225  1.5556   1
   4  -1   7 18.9390  1.3907   3
   4  -1   7 18.9696  1.1556   2
   4  -1   7 22.3807  2.1746   8
   4  -1   7 20.3306  1.5238   6
  -1   4  -7 21.3156  1.5002   1
  -1  -4   7 17.6842  2.0044   4
   1   4   7 18.6075  2.0339   6
   1  -4  -7 19.5326  1.8201   3
  -1  -4   7 21.7234  1.8487   8
  -4   1   7 19.6443  1.8309   7
   1   4   7 19.1102  1.3952   2
   4   1  -7 15.8323  1.5205   1
  -3   4   7 21.0680  1.8473   9
   4   3   7 17.2956  1.9679   6
   3  -4   7 19.0004  1.7337   7
   4   3   7 16.7015  1.5028   2
   4   3   7 18.5758  2.1476   8
  -4  -3   7 18.0634  2.4749   7
   3  -4   7 19.1576  1.7979   4
  -3   4   7 20.8975  2.0656   4
   3   4  -7 20.5751  2.1406   3
  -3   4   7 19.0400  1.7260   6
  -4   3  -7 18.3022  1.6050   1
  -3  -4  -7 19.4750  1.8833   1
   4  -3  -7 18.4053  1.6816   1
   3  -4   7 20.2027  1.9512   8
  -4  -3   7 17.1588  1.5356   2
  -3   4   7 20.4063  1.5859   2
  -4  -3   7 17.6479  1.9855   9
   4  -3  -7 21.8885  2.0348   3
   3   4  -7 19.7590  1.8412   1
  -4  -3   7 18.7542  1.7189   3
   3  -4   7 19.6525  1.6792   3
  -4  -3   7 18.4772  2.0805   4
   3  -4   7 16.8736  1.4247   2
  -3  -4   7 16.6053  2.0213   8
   4  -3   7 19.9234  1.6486   3
  -4  -3  -7 17.0547  1.7745   1
  -4   3   7 19.5410  1.7391   7
  -3   4  -7 16.7956  1.6291   1
   4   3  -7 19.5512  2.0832   3
   4   3  -7 15.9808  1.7114   1
  -4   3   7 17.7106  1.8261   4
  -4   3   7 22.0210  1.6618   2
  -3  -4   7 18.5243  1.9022   9
  -3  -4   7 19.4922  2.7598   7
   3  -4  -7 19.9153  1.7184   1
   4  -3   7 21.7879  1.5178   2
  -3  -4   7 20.3694  1.6510   2
  -3  -4   7 20.3687  1.6795   3
   3   4   7 18.8294  1.6427   2
   4  -3   7 16.6972  1.9528   8
  -4   3   7 17.6619  1.5347   6
  -3  -4   7 21.6013  2.2595   4
   3  -4  -7 20.1866  2.0490   3
  -4   3   7 20.3874  1.9464   9
   3   4   7 21.7088  1.8392   8
  -5   0   7 0.00094 0.93103   4
   0  -5   7 1.76712 1.54735   4
   5   0  -7 0.69623 0.93891   1
   5   0   7 1.07190 0.93992   2
   0  -5  -7 1.14847 0.94523   1
  -5   0   7 1.00654 0.97287   2
   5   0   7 0.14993 0.89955   6
   5   0   7 0.70562 1.47265   8
   5   0  -7 1.20212 1.15095   3
   0   5   7 1.61014 1.06198   2
   0  -5  -7 -0.9487  1.0801   3
   0  -5   7 1.85354 0.95759   2
  -5   0   7 0.47429 1.12900   9
   0  -5   7 -0.4044  0.9259   3
   0  -5   7 1.35530 1.10720   9
   0   5  -7 0.71798 0.94611   1
   0  -5   7 1.20263 1.07540   8
  -5   0   7 2.49552 1.29105   7
   5   0   7 1.42848 1.07790   3
   0   5   7 0.18372 1.24364   6
  -5   0  -7 0.57751 0.88690   1
   0  -5   7 2.82522 1.46565   7
  -2   5   7 33.0482  2.2153   6
  -2   5   7 34.1566  2.0024   2
  -5  -2   7 31.6701  2.3563   9
   2  -5   7 33.6943  2.1368   9
  -5  -2   7 29.7008  2.6842   7
   5  -2  -7 32.1075  2.1519   1
   2   5  -7 27.5560  2.1434   1
   2  -5   7 26.9483  2.2020   7
  -2  -5  -7 28.0202  2.5635   3
   2  -5   7 28.1975  2.3982   4
   5  -2  -7 24.7777  2.4098   3
   2  -5   7 29.9830  1.8475   2
  -2   5   7 30.4249  2.1962   9
  -5  -2   7 33.7834  2.2268   3
   5   2   7 27.8348  1.7848   2
  -2  -5  -7 27.2227  2.0758   1
   2  -5   7 33.0909  2.0305   3
  -5   2  -7 26.5777  1.9379   1
  -5  -2   7 26.2927  1.8486   2
  -5   2  -7 25.1878  1.8987   1
   2  -5   7 32.1644  2.1034   8
   5   2   7 30.8167  2.1970   6
   2   5  -7 35.4076  2.6235   3
  -5  -2   7 27.5150  2.1290   4
   5   2   7 30.6663  2.7891   8
  -2   5  -7 31.0106  2.0605   1
  -5   2   7 29.5252  2.0340   7
   5  -2   7 31.4966  1.8180   2
   5  -2   7 35.3177  2.2182   3
  -2  -5   7 27.0181  3.1432   7
  -5   2   7 30.6245  2.2736   9
  -5   2   7 28.6858  1.8766   2
  -2  -5   7 26.3802  2.7712   4
   5   2  -7 28.0408  2.1860   1
   5   2  -7 29.4912  2.4973   3
   2   5   7 28.8930  2.0003   2
   2  -5  -7 32.7290  2.1368   1
  -2  -5   7 28.5837  2.3179   9
  -2  -5   7 30.4990  2.2733   8
   2  -5  -7 31.6630  2.3751   3
  -2  -5   7 30.0249  2.0593   3
   5  -2   7 28.4086  2.4871   8
  -5   2   7 29.5441  2.1201   4
  -5  -2  -7 29.9965  2.1784   1
  -2  -5   7 31.1610  1.9740   2
  -5   2   7 29.9796  1.7778   6
  -4  -5  -7 15.1771  1.9785   1
   5   4   7 16.2755  1.8470   2
  -5   4  -7 14.0295  1.7051   9
   5  -4  -7 14.4212  2.1289   3
   4  -5   7 17.1906  2.0286   3
   4  -5   7 16.1946  1.7505   2
   4   5  -7 19.4580  2.4968   3
   5   4   7 15.8478  2.3140   8
   4   5  -7 16.7567  2.0840   1
   4  -5   7 16.7526  1.9658   8
  -5   4  -7 12.0556  1.7098   1
  -5  -4   7 17.5668  2.2884   4
  -5  -4   7 16.8351  2.1225   3
  -4  -5  -7 18.3387  2.4277   3
   5  -4  -7 19.5886  2.0658   1
  -4   5   7 15.1031  1.8188   2
  -5  -4   7 17.1762  1.9255   2
  -5  -4   7 17.0352  2.9717   7
  -4   5   7 14.8784  1.9987   9
  -5  -4   7 17.8803  2.1308   9
  -4   5   7 17.5392  1.7903   6
  -5   4   7 15.1530  1.9379   4
   5   4  -7 16.1987  2.4145   3
   5  -4   7 14.2736  2.1060   8
  -4   5  -7 14.1994  1.8463   1
  -4  -5   7 15.6547  2.0471   3
   5  -4   7 17.5634  2.0692   3
  -5  -4  -7 17.3431  2.0851   1
  -4  -5   7 21.9454  3.4784   7
  -5   4   7 15.4688  1.8191   2
  -4  -5   7 16.7547  1.9256   2
   4   5   7 15.6910  1.8317   2
   5  -4   7 14.2907  1.6699   2
  -4  -5   7 21.0332  2.3644   9
  -4  -5   7 12.3934  2.3206   4
   4  -5  -7 14.9761  1.9188   1
   4  -5  -7 14.6376  2.1731   3
   5   4  -7 16.1332  2.0475   1
  -5   4   7 15.4121  1.9604   9
  -4   5  -7 19.9077  2.3549   5
  -6  -1   7 83.6562  3.8595   7
   6   1   7 84.7840  3.6772   3
   1  -6   7 81.3314  3.0806   2
  -1  -6  -7 73.7180  3.3834   1
   1  -6   7 79.2953  3.0915   8
  -6  -1   7 75.0954  3.5009   9
   1  -6   7 80.3355  3.3562   3
   6  -1  -7 79.9155  3.9227   3
  -1   6   7 80.1308  3.1979   2
  -6   1  -7 82.1397  3.3131   1
  -6  -1   7 80.4510  3.2443   4
  -6  -1   7 81.6123  3.2245   2
   6   1   7 75.5701  2.9691   6
  -1  -6  -7 77.2364  3.9083   3
  -1   6   7 80.5121  3.6422   6
   1  -6   7 77.1246  3.7274   7
   1  -6   7 81.5624  4.4233   4
   6   1   7 86.2608  4.5724   8
   6   1   7 81.8829  3.0937   2
   6  -1  -7 70.3216  3.3014   1
   1   6  -7 77.9054  3.3340   1
   6  -1   7 71.6132  4.0580   8
   1   6   7 78.0846  3.2421   2
  -1  -6   7 76.9510  4.4424   7
   6   1  -7 81.6163  3.9196   3
   6  -1   7 86.2846  3.6397   3
  -1  -6   7 91.8382  3.3524   2
  -1  -6   7 78.7383  3.3643   3
  -6  -1  -7 77.7148  3.3857   1
  -1  -6   7 69.9641  4.3274   4
  -1  -6   7 78.9298  3.2598   8
  -1  -6   7 77.3350  3.4222   9
   6  -1   7 73.1684  2.9744   2
  -6   1   7 94.6214  3.6702   9
   6   1  -7 82.5962  3.4726   1
  -6   1   7 78.1883  3.1938   2
   1  -6  -7 76.7068  3.3602   1
  -1   6  -7 81.8373  3.2839   1
  -6   1   7 76.6086  3.0312   4
   1  -6  -7 75.0322  3.7721   3
   6  -3  -7 13.7224  2.2989   3
   3  -6   7 12.5219  1.9042   3
   3  -6   7 10.1720  2.0354   4
  -6   3  -7 16.5864  1.9737   1
   6  -3  -7 13.8792  1.9934   1
  -6  -3   7 11.7853  1.7440   2
   3   6  -7 11.2721  1.8607   1
  -3  -6  -7 14.1528  2.0464   1
   6   3   7 15.8790  2.8966   8
  -6  -3   7 16.3771  2.0884   4
   6   3   7 12.3685  1.7533   2
  -3   6   7 13.9200  1.8041   2
  -3  -6  -7 11.9793  2.2231   3
  -3   6   7 12.2287  1.7839   6
   3  -6   7 12.6825  1.6404   2
  -6  -3   7 11.4012  2.0173   9
  -6  -3   7 14.5945  2.6901   7
  -6   3  -7 15.3917  1.9029   1
   6   3   7 15.1204  2.0341   6
  -3   6   7 12.9876  1.9123   9
   3  -6   7 15.3468  1.8487   8
  -6  -3   7 13.9856  2.0214   3
  -6   3   7 11.6253  1.9258   9
   6   3  -7 21.6301  2.6919   3
   6  -3   7 14.4621  1.7229   2
   6  -3   7 11.0181  2.1530   8
   3   6   7 12.6078  1.8362   2
  -3  -6   7 11.4951  1.7521   2
   6  -3   7 13.9507  2.0925   3
  -3  -6   7 14.5410  2.0271   3
  -3  -6   7 13.4165  2.4970   4
  -6  -3  -7 11.4450  1.8553   1
  -6   3   7 14.6116  1.8482   2
  -3  -6   7 15.3442  3.4188   7
   6   3  -7 14.3802  1.9924   1
  -3   6  -7 13.9260  1.8920   1
   3  -6  -7 13.2770  2.2212   3
  -3  -6   7 10.8806  1.9119   9
   3  -6  -7 14.6253  1.9483   1
  -5  -6  -7 78.0855  4.0111   1
  -6  -5   7 79.6735  3.8589   2
  -6   5  -7 73.8212  3.5535   9
   6  -5  -7 83.4788  4.5182   3
   5  -6   7 83.1144  3.5483   2
  -6  -5   7 76.8151  4.0677   3
  -6   5  -7 80.1027  3.7923   1
   6   5   7 77.5571  3.6874   2
  -6  -5   7 66.6870  5.6226   7
  -6  -5   7 77.6708  4.1776   4
  -5   6   7 81.3795  3.7880   2
   5  -6   7 85.2787  3.6934   8
  -6  -5   7 79.2014  4.1092   9
   6   5   7 78.6199  4.5248   8
  -5  -6  -7 79.0439  4.6460   3
  -6   5  -7 82.3504  4.5190   5
  -5   6   7 81.1531  3.9686   9
   6  -5  -7 80.8310  3.9509   1
   5   6  -7 79.1116  4.5993   3
   5   6  -7 82.2747  4.0818   1
   5  -6  -7 83.7365  4.5204   3
   6   5  -7 82.6484  4.7835   3
   5  -6  -7 82.3158  3.9821   1
  -5  -6   7 78.0082  4.1558   9
  -6   5   7 76.7651  3.6790   2
   6  -5   7 68.4298  3.4014   2
  -5   6  -7 78.3335  4.1717   5
  -6   5   7 73.4909  3.7577   9
  -5  -6   7 80.0559  4.2172   3
  -6  -5  -7 80.7789  3.9746   1
   6   5  -7 74.5233  3.9510   1
  -5  -6   7 74.8591  6.7563   7
   6  -5   7 83.3027  3.9619   8
  -5   6  -7 82.1415  3.9415   1
   5   6   7 80.3056  3.8090   2
  -5  -6   7 76.5865  3.7807   2
  -5  -6   7 73.4372  4.4126   4
   0   7  -7 0.93220 1.27403   1
   7   0   7 -0.2195  1.2149   2
   0  -7   7 1.05486 1.40778   3
   7   0  -7 1.13037 1.58364   3
   7   0  -7 2.82291 1.44012   1
  -7   0  -7 0.67784 1.24658   1
   0  -7  -7 0.04881 1.27311   1
   0  -7   7 1.19197 1.75013   7
   0  -7   7 2.58365 1.43749   2
  -7   0   7 0.40745 1.26065   9
   0  -7   7 -1.5936  1.2702   9
   0   7   7 -1.7114  1.1728   2
   7   0   7 9.03556 2.02152   3
   7   0   7 -2.4798  2.0090   8
  -7   0   7 1.81725 1.38919   2
   0  -7  -7 0.52435 1.54089   3
  -2  -7  -7 72.2449  3.7557   1
   2  -7   7 77.8298  3.6312   9
  -7  -2   7 77.2283  4.2789   7
  -2   7   7 77.0445  3.4610   2
  -2   7   7 81.5928  3.8244   6
   7  -2  -7 79.1280  3.7821   1
   7   2   7 83.9423  5.7790   8
   2   7  -7 73.3596  3.7277   1
  -7   2  -7 79.6646  3.6292   1
  -7  -2   7 78.9785  3.5877   2
   7  -2  -7 77.5120  4.3357   3
   7   2   7 85.1743  4.1196   3
   2  -7   7 83.3326  3.4406   2
   7   2   7 76.9138  3.4175   2
  -7  -2   7 76.6219  3.8990   9
  -2  -7  -7 83.6162  4.5439   3
  -2   7   7 78.4543  3.6728   9
   2  -7   7 78.4880  3.7892   3
  -7   2   7 74.9386  3.4466   2
  -2  -7   7 74.0060  5.2482   7
   2   7   7 75.9362  3.5056   2
  -7   2   7 72.1613  3.7692   9
   7  -2   7 77.7179  3.3020   2
   7   2  -7 75.7194  4.3291   3
   7  -2   7 79.4710  4.0081   3
  -2  -7   7 78.3258  3.5350   2
  -2  -7   7 74.2389  3.8764   9
   7   2  -7 68.5166  3.6335   1
  -2   7  -7 79.7110  3.5995   1
  -7  -2  -7 74.6485  3.7493   1
   2  -7  -7 77.0365  4.2307   3
   2  -7  -7 80.3927  3.7392   1
  -2  -7   7 78.3363  3.7254   3
   7  -2   7 78.4418  4.5035   8
  -7   4  -7 111.320   4.614   1
  -7  -4   7 110.492   6.207   7
  -4  -7  -7 107.842   5.427   3
  -7  -4   7 110.067   4.832   9
   7   4   7 107.087   4.263   2
   7  -4  -7 104.924   4.609   1
  -7  -4   7 106.976   4.949   3
  -4   7   7 106.863   4.560   9
   7  -4  -7 107.589   5.366   3
  -7  -4   7 117.724   4.642   4
  -4   7   7 106.150   4.448   2
  -7  -4   7 108.236   4.430   2
  -7   4  -7 104.109   4.453   1
   4  -7   7 107.042   4.134   2
   4   7  -7 104.145   4.616   1
   7   4   7 105.039   4.647   6
   7   4   7 97.6350  5.8591   8
  -4  -7  -7 105.428   4.661   1
  -4  -7   7 110.682   4.714   9
  -4   7  -7 108.722   4.515   1
  -7  -4  -7 115.166   4.836   1
  -7   4   7 109.735   4.708   9
  -4  -7   7 112.350   4.877   3
   7  -4   7 114.545   4.961   8
   4  -7  -7 110.200   5.301   3
   7   4  -7 107.613   4.746   1
   4  -7  -7 107.676   4.656   1
   7   4  -7 108.221   5.392   3
  -4  -7   7 96.6468  5.2538   4
   7  -4   7 107.130   4.077   2
   4   7   7 106.216   4.389   2
  -4  -7   7 110.964   4.364   2
  -4  -7   7 96.3176  7.5511   7
  -7   4   7 107.975   4.406   2
  -6  -7  -7 1.34905 1.86363   1
  -7   6  -7 0.71532 1.77755   1
  -6   7   7 0.81612 1.90388   9
  -7   6  -7 2.45616 1.69981   9
   6  -7   7 2.58646 1.62533   2
  -7  -6   7 0.87825 1.81786   2
   7  -6  -7 1.44109 1.77203   1
  -6   7   7 0.16823 1.59289   2
  -7  -6   7 4.12819 2.11112   4
  -7  -6   7 8.51919 3.67801   7
  -7   6  -7 1.49559 2.11559   5
   6   7  -7 1.58753 1.87369   1
   7   6   7 5.62766 1.96686   2
  -7  -6   7 2.17133 1.97095   9
   7  -6   7 3.15428 1.73856   2
  -6  -7   7 1.47987 4.12505   7
  -6  -7   7 5.21237 2.35765   4
   6  -7  -7 1.61624 1.85190   1
   6   7   7 1.55881 1.73325   2
  -6  -7   7 -0.1585  1.8376   9
  -7   6   7 1.64814 1.90919   9
  -6  -7   7 4.53893 1.90418   2
  -7  -6  -7 -0.3257  1.8205   1
  -6   7  -7 2.41460 1.85013   9
  -7   6   7 2.97528 1.76234   2
   7   6  -7 1.50036 1.88643   1
  -6   7  -7 3.81573 2.32134   5
  -6   7  -7 -0.0798  1.7673   1
   1   8  -7 10.6425  2.0369   1
   1  -8   7 9.31550 1.82685   2
  -1  -8  -7 7.85991 2.02387   1
  -8  -1   7 11.0042  2.1968   9
  -8  -1   7 10.0555  2.0301   2
   8  -1  -7 8.35506 2.31721   3
   8   1   7 9.80909 1.87542   2
   1  -8   7 7.10478 1.91969   9
   8   1   7 7.22723 2.09588   3
  -1   8   7 11.4805  1.9841   2
   8   1   7 12.2042  3.7852   8
   8  -1  -7 10.9101  2.1390   1
  -8   1  -7 12.0031  2.0541   1
  -1  -8  -7 9.33413 2.42407   3
  -1  -8   7 10.0131  1.9150   2
  -1   8  -7 8.87643 1.97863   1
   1   8   7 8.82153 1.91427   2
   1  -8  -7 8.34470 2.26126   3
   8   1  -7 11.3369  2.4648   3
  -8  -1  -7 8.47007 1.89173   1
  -1  -8   7 8.66035 1.96226   9
   8   1  -7 7.91720 1.98870   1
  -8   1   7 9.70527 2.12895   9
   8  -1   7 9.24966 2.91855   8
   8  -1   7 9.89684 1.84992   2
  -1  -8   7 10.0279  2.9574   7
   1  -8  -7 9.78217 1.99489   1
  -8   1   7 6.56971 1.74911   2
  -8  -3   7 15.0779  2.4103   9
  -8   3  -7 17.7120  2.4258   1
   3   8  -7 17.8269  2.5841   1
   3  -8   7 18.3473  3.1609   4
  -8  -3   7 20.1894  2.8425   3
  -3   8   7 18.4678  2.4991   9
   3  -8   7 20.1120  2.3178   2
   8   3   7 18.1173  2.2907   2
  -8  -3   7 18.5393  2.4365   2
  -8  -3   7 13.3971  2.9337   7
  -3  -8  -7 16.2228  2.5859   1
   8   3   7 17.4359  2.3888   2
   8   3   7 15.5804  4.4076   8
  -3   8   7 17.0333  2.3252   2
   8  -3  -7 17.5263  2.5446   1
   8  -3   7 16.1130  3.0105   8
   3  -8  -7 16.0319  2.4796   1
  -8   3   7 16.6676  2.4830   9
  -3  -8   7 15.7159  2.2283   2
  -3   8  -7 20.1481  2.5260   1
   8  -3   7 14.6565  2.1663   2
  -3  -8   7 18.8962  2.7308   9
   8   3  -7 17.2936  2.5759   1
  -3  -8   7 13.8987  4.3515   7
  -8   3   7 16.5756  2.2878   2
  -8  -3  -7 16.7345  2.4947   1
   3   8   7 19.1675  2.4324   2
  -8  -5   7 8.24876 3.23337   7
  -5   8   7 7.76794 2.19813   9
   5   8  -7 7.82816 2.24747   1
   5  -8   7 6.08742 1.85662   2
   8   5   7 6.30857 2.02496   2
  -5  -8  -7 6.13844 2.20737   1
   8  -5  -7 12.0738  2.4917   1
  -5   8   7 9.11967 2.12776   2
  -8  -5   7 8.68346 2.21117   2
  -8   5  -7 8.88955 2.21507   1
  -8   5  -7 8.06787 2.19833   1
  -8  -5   7 7.49417 2.32791   9
  -8   5  -7 5.18199 2.44380   5
   8   5   7 7.41234 3.30359   8
  -5  -8   7 4.84367 1.89344   2
   5   8   7 7.55378 2.08938   2
   8   5  -7 10.1279  2.4433   1
  -5  -8   7 5.06302 5.13170   7
  -8  -5  -7 9.00604 2.31177   1
  -5   8  -7 6.76590 2.15761   1
  -8   5   7 8.69920 2.17643   9
   8  -5   7 9.08089 2.01221   2
  -5  -8   7 8.37645 2.90509   4
   8  -5   7 7.72311 2.38827   8
  -5  -8   7 6.10040 2.30326   9
   5  -8  -7 9.93367 2.34435   1
  -8   5   7 8.03708 2.07743   2
  -8  -7   7 89.8102  7.2867   7
  -8  -7   7 91.6995  5.2600   4
  -8  -7   7 84.7809  5.0808   9
   8   7   7 98.3952  4.7959   2
  -8   7  -7 94.3238  5.0211   1
  -8   7  -7 87.9807  5.6430   5
  -7   8   7 92.2938  5.0348   9
   8  -7  -7 98.7214  5.2443   1
  -8   7  -7 90.2877  5.0676   1
  -7  -8  -7 98.3343  5.4531   1
   7   8  -7 93.1049  5.1923   1
  -7   8   7 92.3152  4.7719   2
  -8  -7   7 94.1440  4.8304   2
   7  -8   7 85.1562  4.4594   2
  -7  -8   7 92.9922  5.1207   9
  -7  -8   7 91.2479  5.4381   4
  -8   7   7 91.6460  5.1080   9
  -7   8  -7 97.3620  4.8268   9
  -7   8  -7 96.5104  5.0003   1
  -8  -7  -7 86.1385  5.1113   1
   8   7  -7 100.480   5.344   1
   7   8   7 86.7782  4.7121   2
  -7  -8   7 92.8232  4.8711   2
  -8   7   7 96.9095  4.8738   2
  -7  -8   7 90.9088  8.3176   7
   8  -7   7 83.8851  4.3316   2
   7  -8  -7 91.0282  5.1467   1
   0  -9   7 -0.7163  2.2607   7
   0  -9  -7 0.92079 1.73392   1
   0   9   7 1.65369 1.77556   2
   0  -9   7 1.31397 1.75625   2
  -9   0   7 0.36370 1.58834   2
   0   9  -7 0.86532 1.70892   1
   9   0   7 0.40789 1.66042   2
   9   0   7 10.6730  3.7247   8
   0  -9   7 1.65277 1.89295   9
  -9   0   7 1.15407 1.67498   9
   9   0  -7 -0.2224  1.7492   1
  -9   0  -7 -0.4085  1.6057   1
   2   9  -7 67.2351  4.0820   1
  -2  -9  -7 64.3881  4.0435   1
  -9  -2   7 60.6135  3.7988   2
  -9  -2   7 60.7327  4.0044   9
  -2   9   7 60.0755  3.7944   9
   2  -9   7 56.2697  3.7454   9
  -2   9   7 52.7283  3.7902   6
   9  -2  -7 60.3027  4.0085   1
   9   2   7 66.7892  7.7696   8
   9   2   7 59.7356  3.5281   2
   2  -9   7 62.3844  3.6367   2
  -9   2  -7 59.5777  3.8578   1
  -2   9   7 55.3014  3.5656   2
  -2  -9   7 65.0396  5.5360   7
  -9   2   7 54.5823  3.5374   2
   2   9   7 60.6096  3.7293   2
  -2  -9   7 59.2541  4.0272   9
   9   2  -7 54.4230  3.8777   1
  -2   9  -7 59.6094  3.7998   1
   2  -9  -7 53.9400  3.7691   1
   9  -2   7 55.3667  3.3204   2
   9  -2   7 64.6654  4.9663   8
  -9   2   7 56.8288  3.9342   9
  -2  -9   7 60.5155  3.7072   2
  -9  -2  -7 57.6985  3.8632   1
  -9  -4   7 10.3455  2.4044   9
   9   4   7 7.70599 3.86856   8
  -9   4  -7 6.89734 2.64861   5
  -4  -9  -7 7.52171 2.36754   1
   9  -4  -7 10.1807  2.5044   1
   9   4   7 6.36702 2.10323   2
  -9  -4   7 7.45800 2.23213   2
   4  -9   7 6.34096 2.03199   2
   9   4   7 8.73857 2.16933   2
  -9  -4   7 12.2440  3.3011   7
  -4   9   7 9.22791 2.21870   2
  -4   9   7 10.4046  2.5077   9
   4   9  -7 9.04660 2.36611   1
  -9   4  -7 12.5635  2.5111   1
   9  -4   7 8.14671 2.12438   2
   4   9   7 7.74190 2.15175   2
  -9   4   7 7.01474 2.10498   2
  -9  -4  -7 10.1271  2.4825   1
   9   4  -7 11.0898  2.6130   1
  -4  -9   7 7.14534 3.20373   4
  -4  -9   7 7.33656 4.29634   7
  -4   9  -7 10.4810  2.3702   1
  -4  -9   7 11.1877  2.4639   9
  -4  -9   7 9.89788 2.32666   2
  -9   4   7 10.4457  2.5192   9
   9  -4   7 9.80471 2.82744   8
   4  -9  -7 10.9658  2.4648   1
   6  -9   7 24.5315  2.9306   2
   9   6   7 27.3208  3.2391   2
  -9   6  -7 32.3525  3.5860   1
  -9  -6   7 30.4339  3.4916   9
   9  -6  -7 25.0398  3.4536   1
  -6  -9  -7 29.3324  3.6387   1
   6   9  -7 33.0272  3.7186   1
  -9  -6   7 22.1141  3.1435   2
  -6   9   7 24.6280  3.3463   9
  -9   6  -7 26.2948  3.8857   5
  -9  -6   7 30.0437  4.8695   7
  -6   9   7 25.5862  3.0901   2
  -9   6   7 26.7584  3.0941   2
  -6  -9   7 30.8217  4.2613   4
  -9  -6  -7 30.1508  3.6600   1
  -6  -9   7 28.1539  5.9538   7
  -6   9  -7 26.6144  3.2614   9
  -6  -9   7 29.9804  3.2887   2
   6   9   7 23.7153  3.0324   2
   9  -6   7 29.4765  3.2219   2
   9   6  -7 27.7765  3.6569   1
  -6   9  -7 27.2382  3.3736   1
   6  -9  -7 28.5316  3.5423   1
  -9   6   7 27.7195  3.4551   9
  -6  -9   7 29.2425  3.6252   9
  10   1   7 107.846   7.702   8
  10  -1  -7 114.268   5.568   1
  -1  10   7 112.352   5.081   2
 -10  -1   7 108.346   5.361   9
 -10  -1   7 116.105   5.201   2
  -1 -10  -7 125.223   5.761   1
   1  10  -7 112.512   5.432   1
  10   1   7 112.072   4.988   2
   1 -10   7 116.751   5.055   2
   1 -10   7 117.801   5.387   9
 -10   1  -7 112.353   5.383   1
  10   1  -7 119.547   5.692   1
   1 -10  -7 117.854   5.526   1
  -1 -10   7 113.392   6.636   7
  10  -1   7 115.602   6.978   8
  -1  10  -7 116.347   5.367   1
  -1 -10   7 105.565   4.871   2
  -1 -10   7 120.178   5.474   9
 -10   1   7 107.372   5.004   2
 -10  -1  -7 123.188   5.575   1
  10  -1   7 108.400   4.808   2
   1  10   7 113.987   5.102   2
 -10   1   7 118.463   5.474   9
  10  -3  -7 -0.4970  2.0197   1
  -3  10   7 1.39321 1.90114   2
  -3 -10  -7 2.14703 2.14506   1
   3  10  -7 0.92107 2.06883   1
 -10  -3   7 -0.0601  2.0608   9
 -10  -3   7 -1.8173  1.8604   2
  -3  10   7 0.82410 2.03889   9
  10   3   7 4.36504 4.01115   8
  10   3   7 1.16134 1.94498   2
   3 -10   7 3.18267 1.86126   2
 -10   3  -7 3.68398 2.11287   1
  -3 -10   7 -2.0485  3.0053   7
 -10  -3  -7 1.04515 2.02730   1
   3 -10  -7 1.87912 2.09878   1
  -3 -10   7 2.44906 2.23021   9
 -10   3   7 2.28809 2.16423   9
  10  -3   7 0.87293 2.52378   8
  -3 -10   7 1.74650 2.02499   2
 -10   3   7 -0.4891  1.9174   2
   3  10   7 0.60916 2.02351   2
  10   3  -7 0.81560 2.10493   1
  -3  10  -7 -0.4771  1.7676   1
  10  -3   7 0.77621 1.80994   2
 -10  -5   7 108.068   5.334   2
 -10   5  -7 108.403   6.363   5
  10   5   7 128.316   7.840   8
  -5  10   7 107.823   5.306   2
 -10  -5   7 119.956   5.700   9
 -10  -5   7 105.745   6.986   7
  10   5   7 107.302   5.305   2
 -10   5  -7 120.288   5.849   1
  -5  10   7 112.623   5.650   9
   5 -10   7 103.488   5.048   2
  10  -5  -7 115.230   5.923   1
  -5 -10  -7 125.559   6.103   1
  10   5   7 109.879   5.366   2
   5  10  -7 108.668   5.732   1
 -10  -5  -7 127.730   6.105   1
  10   5  -7 116.969   6.010   1
  -5 -10   7 109.968   8.559   7
  10  -5   7 124.992   6.040   8
 -10   5   7 121.719   5.874   9
   5 -10  -7 115.333   5.859   1
  -5 -10   7 116.820   5.382   2
  -5  10  -7 117.830   5.748   1
  -5 -10   7 111.535   5.791   9
  -5 -10   7 126.784   7.002   4
   5  10   7 110.778   5.324   2
 -10   5   7 110.863   5.416   2
  10  -5   7 115.840   5.095   2
  11   0   7 0.06000 1.93039   2
 -11   0   7 0.83574 1.93482   9
   0 -11   7 1.58058 2.28451   9
  11   0   7 2.17139 3.21278   8
   0  11   7 3.30654 2.19009   2
 -11   0   7 1.01572 2.08776   2
   0 -11  -7 -0.4774  2.2188   1
 -11   0  -7 -0.5196  2.0565   1
   0 -11   7 2.62119 2.10970   2
  11   0  -7 -0.3842  2.1041   1
   0  11  -7 1.08104 2.19063   1
  11   2   7 39.2474  3.5769   2
  -2  11   7 40.5817  4.0296   9
  11  -2  -7 40.9638  4.2811   1
 -11  -2   7 42.3729  4.0989   9
  -2  11   7 49.2656  3.7934   2
 -11  -2   7 42.0036  3.6678   2
   2  11  -7 46.0373  4.0936   1
  -2 -11  -7 51.0538  4.3486   1
  11   2   7 47.2647  6.0762   8
 -11   2  -7 42.9782  3.9799   1
   2 -11   7 39.5109  3.5047   2
  -2 -11   7 40.0367  5.1826   7
  11  -2   7 42.0187  4.9674   8
 -11  -2  -7 40.9326  4.1780   1
  -2 -11   7 38.9424  4.0784   9
   2  11   7 46.9594  3.7747   2
   2 -11  -7 37.5207  4.0252   1
  -2 -11   7 33.4614  3.5222   2
  -2  11  -7 45.2060  4.0880   1
  11  -2   7 38.5773  3.4513   2
 -11   2   7 34.0194  3.5659   2
 -11   2   7 35.5170  3.7851   9
  11   2  -7 38.4316  4.1950   1
   0   0   8 5007.27   94.84   7
   0   0   8 5237.30   83.54   6
   0   0   8 5295.00   84.83   4
   0   0   8 5530.40   87.63   8
  -1   1  -8 2.82066 0.40306   3
  -1  -1   8 1.51317 0.91064   6
  -1  -1   8 1.40199 0.91876   4
   1   1  -8 2.46841 0.49112   3
   1   1  -8 4.97353 0.55506   3
   1   1   8 1.62952 0.98335   4
   1  -1   8 8.72324 1.32998   8
  -1   1   8 2.27277 1.02250   4
   1  -1  -8 2.65720 0.50324   1
  -1   1   8 1.52817 0.97159   6
   1   1   8 2.73864 0.94365   6
  -1  -1  -8 1.79837 0.43138   1
   1   1   8 2.63868 1.03498   8
  -1   1   8 2.32642 1.01961   7
  -1  -1   8 1.56749 1.12918   7
   1  -1  -8 4.84133 0.63239   3
   1  -1   8 1.39322 0.90806   4
  -1  -1   8 2.90254 1.09225   8
   1  -1   8 6.17403 1.27077   7
   1  -1   8 2.35977 0.98964   6
  -1   1   8 2.00133 1.00367   8
   2   0   8 145.260   3.813   4
   0  -2   8 141.472   4.565   7
  -2   0   8 142.962   4.061   4
   0  -2   8 137.663   4.029   6
   0   2  -8 140.265   3.517   3
  -2   0  -8 145.676   3.049   1
   0   2   8 136.839   4.080   4
   0   2  -8 140.109   3.071   1
   2   0   8 139.740   4.421   7
  -2   0   8 141.173   4.002   6
   0   2   8 138.902   3.944   8
   0  -2  -8 143.872   3.231   1
   2   0  -8 145.511   3.170   1
  -2   0   8 139.923   4.457   7
  -2   0   8 146.197   4.304   8
   2   0  -8 143.845   3.629   3
   0  -2   8 146.819   4.176   8
   0  -2  -8 139.913   3.652   3
  -2   0   8 140.905   3.701   9
   0   2   8 143.887   4.131   6
   2   0   8 138.069   3.899   6
   2   0   8 141.408   4.222   8
   0  -2   8 147.404   4.127   4
   2  -2  -8 1560.18   26.79   1
   2   2   8 1507.12   27.00   8
  -2   2   8 1593.17   25.74   9
   2  -2   8 1511.29   27.20   8
   2   2   8 1547.56   26.30   4
  -2   2   8 1524.35   29.22   7
  -2  -2   8 1560.84   26.10   9
   2   2   8 1527.52   26.13   6
  -2   2   8 1503.11   25.76   6
   2   2  -8 1508.20   30.31   3
   2  -2  -8 1533.27   30.34   3
  -2   2  -8 1507.95   26.53   1
  -2   2   8 1517.96   27.00   8
   2  -2   8 1546.69   26.01   4
   2  -2   8 1522.13   25.81   6
   2  -2   8 1530.73   29.17   7
  -2  -2   8 1510.83   29.76   7
  -2  -2   8 1496.67   26.55   4
   2   2  -8 1519.57   26.76   1
  -2   2   8 1523.94   26.43   4
  -2  -2  -8 1545.35   26.79   1
  -2  -2   8 1546.30   27.41   8
   3   1   8 2254.64   36.17   6
   1   3  -8 2164.34   37.84   1
  -3  -1   8 2168.75   36.81   4
   1  -3   8 2149.85   40.91   7
  -3  -1   8 2205.15   36.46   9
   3   1   8 2161.80   38.04   8
  -3   1  -8 2142.89   37.68   1
   1  -3   8 2218.67   35.90   9
   3   1   8 2206.90   36.32   4
  -1   3   8 2216.13   36.31   6
   1  -3   8 2175.91   37.76   8
   3  -1  -8 2186.18   37.87   1
   1  -3   8 2202.32   36.80   4
  -1   3   8 2180.95   37.34   8
  -1  -3  -8 2178.69   37.97   1
   3  -1  -8 2184.66   42.90   3
  -3  -1   8 2191.67   41.23   7
  -3  -1   8 2230.74   36.34   6
  -1  -3  -8 2145.14   42.99   3
   1   3  -8 2127.77   42.85   3
  -3  -1   8 2150.86   38.22   8
  -1   3   8 2158.09   36.90   4
  -3   1   8 2225.49   40.87   7
   1   3   8 2199.02   37.00   4
  -3   1   8 2189.69   36.74   4
  -1   3  -8 2160.98   37.67   1
   3  -1   8 2249.21   36.08   4
  -3   1   8 2183.93   38.11   8
   3  -1   8 2143.84   38.10   8
  -1  -3   8 2126.24   37.06   4
  -3   1   8 2197.19   35.97   6
   1   3   8 2211.04   36.57   6
   1   3   8 2196.30   37.39   8
   1  -3  -8 2136.08   37.86   1
  -3   1   8 2261.94   36.34   9
   3  -1   8 2198.60   35.86   6
  -1  -3   8 2183.88   36.27   9
  -3  -1  -8 2183.06   37.78   1
   3   1  -8 2182.62   37.86   1
  -1  -3   8 2152.74   41.41   7
   3   1  -8 2208.78   42.92   3
   1  -3  -8 2205.77   42.91   3
  -1  -3   8 2148.89   37.87   8
  -3   3   8 920.161  16.616   6
  -3  -3   8 930.903  17.239   9
   3  -3  -8 921.746  17.471   1
   3  -3   8 947.667  16.747   6
   3  -3   8 941.585  17.833   8
   3   3   8 937.331  17.409   6
  -3  -3   8 939.067  16.237   2
   3  -3   8 955.419  18.706   7
  -3  -3   8 917.042  17.653   4
  -3  -3   8 943.100  18.139   8
   3   3   8 962.915  16.400   2
  -3   3  -8 929.635  17.252   1
   3  -3   8 958.984  16.704   4
  -3  -3  -8 912.575  17.602   1
   3   3  -8 907.209  17.497   1
   3   3   8 930.904  16.365   2
   3   3   8 910.815  17.565   8
  -3   3   8 929.030  16.850   9
  -3   3   8 931.834  17.640   8
  -3   3   8 911.455  17.281   4
   3  -3  -8 942.760  19.847   3
  -3  -3   8 946.121  20.143   7
  -3   3   8 921.486  16.657   2
   0  -4   8 47.0177  2.8882   7
   4   0   8 48.7045  2.0584   4
   4   0   8 50.7160  2.8375   8
  -4   0   8 47.7586  2.6634   7
   4   0  -8 45.8272  2.4519   3
   0   4   8 50.1904  2.7225   4
   0  -4  -8 49.7521  2.5167   3
   0  -4  -8 45.8603  2.1501   1
  -4   0   8 44.0875  2.3857   4
   0  -4   8 46.1189  2.3052   9
   0  -4   8 48.8174  2.4228   8
   0   4   8 44.1356  2.0566   8
   0   4   8 44.3239  1.6130   2
   0  -4   8 43.6525  2.7127   4
   0   4   8 44.4208  2.6234   6
   0   4  -8 44.8430  2.0207   1
   4   0  -8 45.0997  2.1227   1
   4   0   8 47.3272  2.2766   6
  -4   0   8 46.5893  2.3402   6
  -4   0   8 45.9568  2.4453   9
  -4   0  -8 42.9273  1.9950   1
  -4  -2   8 1732.05   30.11   9
   4   2   8 1762.50   30.00   2
   4   2   8 1729.12   31.41   8
   4   2   8 1715.63   29.67   6
   2  -4   8 1789.05   30.16   4
  -4  -2   8 1750.41   30.35   4
   4  -2  -8 1730.31   31.15   1
   2  -4   8 1788.12   29.41   9
   2  -4   8 1742.24   33.21   7
  -4  -2   8 1707.48   34.08   7
  -2   4   8 1821.19   29.63   9
  -4  -2   8 1748.24   30.16   2
  -2  -4  -8 1787.86   35.57   3
  -2   4   8 1722.97   30.45   4
  -2   4   8 1677.27   30.36   2
   4  -2  -8 1805.66   35.41   3
  -2   4   8 1736.64   30.33   8
  -4   2  -8 1734.23   30.97   1
  -2   4   8 1765.95   29.65   6
  -2  -4  -8 1732.24   31.27   1
   2   4  -8 1748.13   31.22   1
   2  -4   8 1699.18   30.76   8
   2   4   8 1731.29   30.38   8
   2  -4  -8 1740.81   35.30   3
   4  -2   8 1711.46   31.29   8
  -4   2   8 1773.96   30.34   2
  -4  -2  -8 1680.20   31.12   1
  -2  -4   8 1731.62   30.93   4
  -4   2   8 1720.84   29.96   4
  -2  -4   8 1736.40   31.07   8
   4   2  -8 1767.15   35.38   3
  -2  -4   8 1739.36   29.88   2
  -2  -4   8 1716.99   34.53   7
  -4   2   8 1789.72   29.96   9
   4  -2   8 1744.55   29.03   6
   2  -4  -8 1727.56   31.16   1
  -2   4  -8 1734.45   30.94   1
   4   2  -8 1736.06   31.18   1
   4  -2   8 1784.57   29.61   2
  -2  -4   8 1724.61   30.01   9
   2   4   8 1735.25   30.23   2
   2   4   8 1741.39   30.43   6
  -4   2   8 1762.35   29.16   6
  -4   2   8 1748.60   33.01   7
  -4   4   8 2386.87   39.50   9
  -4   4   8 2330.88   39.74   4
  -4  -4  -8 2334.05   41.61   1
   4   4   8 2355.18   40.61   2
   4  -4  -8 2334.22   47.00   3
  -4   4  -8 2326.39   41.25   1
   4  -4  -8 2309.96   41.46   1
   4   4   8 2245.36   40.62   8
  -4  -4   8 2368.02   40.51   4
   4   4   8 2237.30   39.74   6
   4   4  -8 2272.14   41.56   1
   4  -4   8 2344.71   40.83   8
  -4  -4   8 2282.46   39.70   9
   4  -4   8 2366.99   40.25   2
  -4  -4   8 2343.79   40.61   2
  -4  -4   8 2284.36   45.84   7
  -4   4   8 2316.39   40.75   2
  -4   4   8 2362.25   38.34   6
   5   1   8 127.915   3.955   6
   1  -5   8 134.441   4.117   9
  -5   1  -8 123.105   3.977   1
   1  -5   8 123.120   4.635   7
   1  -5   8 128.788   4.760   4
  -5  -1   8 133.021   4.076   3
   1  -5   8 131.576   4.166   8
  -1  -5  -8 134.598   4.857   3
   5  -1  -8 130.628   4.757   3
   5  -1  -8 126.268   4.094   1
  -5  -1   8 126.138   4.383   9
  -1   5   8 127.744   3.696   2
  -1  -5  -8 124.409   4.138   1
  -5  -1   8 135.613   4.905   7
  -5  -1   8 131.044   3.606   2
   5   1   8 124.822   4.977   8
   5   1   8 133.571   3.391   2
   1   5  -8 125.688   4.053   1
   1  -5   8 128.021   3.327   2
  -1   5   8 123.923   4.367   6
  -5  -1   8 125.956   4.143   4
  -5   1   8 130.966   3.632   2
  -5   1   8 130.303   4.452   7
  -1  -5   8 130.642   5.053   4
   1  -5  -8 126.790   4.053   1
   1  -5  -8 133.490   4.688   3
   5   1  -8 128.958   4.680   3
  -5   1   8 126.529   3.849   6
   5  -1   8 132.938   3.276   2
  -5   1   8 129.820   4.118   4
   5  -1   8 121.478   4.768   8
  -1  -5   8 130.397   4.304   9
   5   1  -8 123.428   4.049   1
  -5   1   8 126.533   4.333   9
  -1  -5   8 130.559   4.322   8
  -5  -1  -8 118.063   3.956   1
  -1   5  -8 125.771   3.912   1
  -1  -5   8 125.622   5.217   7
   1   5   8 124.711   3.648   2
   1   5   8 134.792   4.882   6
   5  -1   8 129.729   3.729   6
  -1  -5   8 129.161   3.437   2
  -5  -3   8 525.957  11.401   4
   3   5  -8 515.051  11.402   1
   5   3   8 510.667  10.462   2
   3  -5   8 540.218  10.384   2
   3  -5   8 521.917  11.103   8
  -3   5   8 534.198  10.769   6
   5   3   8 512.637  12.103   8
  -3   5   8 530.211  11.617   4
  -5  -3   8 517.280  11.343   9
   5  -3  -8 527.628  12.940   3
  -3  -5  -8 514.846  11.441   1
  -3   5   8 524.214  10.939   9
   5  -3  -8 523.459  11.332   1
   5   3   8 514.250  10.492   2
  -5   3  -8 515.355  11.072   1
   5   3   8 513.815  11.158   6
  -5  -3   8 515.774  10.592   2
  -3   5   8 518.790  10.709   2
   3  -5   8 526.881  11.003   4
  -5  -3   8 521.437  13.301   7
  -5   3   8 526.785  10.973   4
  -3   5  -8 511.667  11.076   1
   3  -5  -8 521.491  11.293   1
  -3  -5   8 535.639  11.654   8
   5   3  -8 516.261  11.384   1
   3  -5  -8 545.944  13.014   3
   3   5   8 530.250  10.774   2
  -5   3   8 537.947  11.245   9
  -5   3   8 528.093  10.735   2
  -3  -5   8 499.161  13.862   7
   5  -3   8 509.255  11.701   8
  -3  -5   8 520.550  10.668   2
  -3  -5   8 521.570  12.200   4
   5  -3   8 533.501  10.317   2
  -5  -3  -8 517.622  11.341   1
  -3  -5   8 508.382  11.239   9
  -5  -5   8 177.000   8.183   7
   5   5   8 166.186   5.758   8
   5  -5   8 168.888   4.905   2
  -5   5   8 170.997   5.244   2
  -5   5  -8 176.191   5.482   1
   5   5   8 180.542   5.253   2
   5  -5   8 171.803   5.632   8
  -5   5  -8 169.539   6.195   5
   5  -5  -8 170.566   5.612   1
  -5  -5   8 173.267   5.723   9
  -5  -5   8 169.083   5.203   2
  -5  -5  -8 169.311   5.686   1
  -5  -5   8 168.493   6.141   4
   5   5  -8 173.897   5.793   1
  -5   5   8 168.332   5.601   9
   6   0   8 3941.97   70.40   8
  -6   0   8 4241.53   74.56   7
   0   6   8 3907.23   66.69   6
   0   6  -8 4038.55   70.32   1
   0  -6   8 3903.77   69.48   2
  -6   0   8 4180.76   66.59   4
  -6   0   8 4086.37   69.78   2
   0   6   8 3995.74   69.85   2
   6   0   8 4114.08   69.39   2
   6   0  -8 4065.85   70.55   1
   0  -6  -8 3971.00   70.46   1
   0  -6   8 4135.30   68.90   4
   0  -6   8 4139.35   68.48   8
  -6   0  -8 4111.50   70.39   1
  -6   0   8 4107.37   66.96   9
   0  -6   8 4047.52   66.58   9
   0  -6   8 3907.20   75.18   7
   0  -6  -8 4015.04   79.80   3
   2  -6   8 112.173   4.803   4
   2  -6   8 105.853   4.258   7
   2  -6   8 106.293   3.979   9
  -2   6   8 110.169   4.023   9
  -2   6   8 104.570   3.741   2
   6   2   8 104.851   5.238   8
   2  -6   8 103.390   3.857   8
  -6  -2   8 104.700   4.303   9
  -6  -2   8 107.535   4.878   7
   2   6  -8 110.449   4.220   1
   6   2   8 106.220   3.855   6
  -6  -2   8 108.570   4.129   4
  -2  -6  -8 103.265   4.139   1
   6   2   8 108.450   3.552   2
  -2   6   8 109.741   4.180   6
  -6   2  -8 104.389   3.932   1
  -6  -2   8 112.016   3.741   2
   2  -6   8 114.634   3.600   2
   6  -2  -8 105.837   4.093   1
  -2  -6   8 121.551   4.418   9
  -2  -6   8 107.904   3.674   2
   6   2  -8 109.434   4.162   1
  -6   2   8 111.146   4.240   9
  -2  -6   8 103.209   5.550   7
   2   6   8 102.496   3.736   2
   2  -6  -8 106.336   4.609   3
  -2  -6   8 104.841   5.215   4
   6  -2   8 110.039   3.461   2
  -2  -6   8 107.417   4.120   8
   6  -2   8 104.516   4.716   8
   2  -6  -8 100.368   4.005   1
  -2   6  -8 112.861   4.055   1
  -6   2   8 109.396   3.743   2
  -6  -2  -8 100.159   4.001   1
  -6   2   8 111.666   3.952   4
  -4  -6  -8 6.23418 1.75623   1
   6   4   8 7.62740 2.41854   8
  -4   6   8 4.25412 1.66335   9
   4  -6   8 6.14769 1.45051   2
   4  -6   8 9.22460 1.84703   8
  -6  -4   8 8.65274 1.74358   2
  -6  -4   8 8.28991 2.03552   4
  -6   4  -8 7.34275 1.65299   1
  -6  -4   8 5.22739 2.48998   7
   6  -4  -8 7.58402 1.75305   1
   6   4   8 5.13206 1.51889   2
   6   4   8 8.34698 2.06652   6
  -6  -4   8 7.44229 2.02175   9
  -4   6   8 6.25863 1.60671   2
  -4  -6   8 17.3783  2.0844   2
  -6   4   8 6.81845 1.65567   2
  -4  -6   8 5.23127 1.89809   9
   6  -4   8 10.8372  1.6581   2
   4  -6  -8 9.15728 1.84938   1
  -6  -4  -8 8.61615 1.84841   1
  -4  -6   8 4.09299 2.17965   4
   6  -4   8 7.82691 2.04204   8
  -6   4   8 7.94464 1.83042   9
   4   6   8 5.85387 1.65108   2
  -4   6  -8 11.0523  1.8493   1
   6   4  -8 7.86393 1.93308   1
  -4  -6   8 4.75525 3.03816   7
  -6   6  -8 2230.56   43.79   5
  -6  -6   8 2191.30   40.18   4
  -6   6   8 2188.27   40.43   2
  -6  -6   8 2227.98   39.46   9
  -6   6  -8 2207.79   40.92   1
  -6  -6   8 2155.19   40.47   2
  -6   6   8 2273.89   39.30   9
   6  -6  -8 2201.12   41.13   1
   6  -6   8 2197.45   39.96   2
   6   6   8 2149.22   40.42   2
   6  -6   8 2237.50   39.90   8
  -6  -6  -8 2243.58   41.46   1
  -6  -6   8 2236.71   48.41   7
   6   6  -8 2273.06   41.51   1
   7  -1  -8 14.8536  2.1179   1
  -1  -7  -8 19.6809  2.2907   1
   1  -7   8 18.5972  3.2908   4
  -7  -1   8 17.7672  2.0179   2
  -7  -1   8 18.9573  2.4441   9
   1  -7   8 19.2530  2.0482   2
  -1   7   8 17.5176  2.0868   2
   7   1   8 18.5557  1.9527   2
   1   7  -8 19.7075  2.2193   1
   1  -7   8 18.3624  2.6164   7
  -7   1  -8 15.9189  2.0653   1
  -7  -1   8 22.5066  2.6597   7
   7   1   8 19.1741  3.3934   8
  -1   7   8 20.7544  2.3135   9
  -1   7   8 19.5053  2.5645   6
   1  -7   8 15.4670  2.1663   9
  -1  -7   8 19.4573  2.3402   9
  -1  -7   8 26.5667  3.7733   4
   1   7   8 20.9702  2.1458   2
  -1  -7   8 16.7352  2.0068   2
   7   1  -8 18.4355  2.3268   1
   7  -1   8 20.2038  3.1211   8
  -1  -7   8 29.2495  3.4713   7
  -1   7  -8 17.2625  2.1471   1
  -7   1   8 17.9797  2.0834   2
   7  -1   8 20.3045  1.9726   2
  -7   1   8 17.3360  2.3579   9
   1  -7  -8 20.7185  2.3206   1
  -7  -1  -8 19.3507  2.2074   1
   7   3   8 1866.11   33.61   2
   7  -3  -8 1834.32   34.50   1
  -3   7   8 1912.28   32.74   9
  -7  -3   8 1856.89   37.72   7
   3  -7   8 1823.91   33.35   2
   3  -7   8 1812.97   33.40   4
  -7  -3   8 1809.51   33.12   9
   7   3   8 1897.31   36.75   8
  -7  -3   8 1865.17   32.68   4
  -7  -3   8 1844.84   33.83   2
  -7   3  -8 1866.72   34.34   1
  -3   7   8 1894.73   32.15   6
  -3   7   8 1839.52   33.81   2
  -3  -7  -8 1838.20   34.70   1
   3   7  -8 1830.31   34.64   1
   7   3  -8 1802.72   34.50   1
  -7   3   8 1862.46   33.90   2
  -7  -3  -8 1856.48   34.56   1
  -7   3   8 1846.90   33.07   9
  -3  -7   8 1770.98   35.24   4
  -3  -7   8 1839.92   33.18   9
   7  -3   8 1778.52   34.57   8
  -3  -7   8 1822.43   33.68   2
   3   7   8 1854.86   33.86   2
  -3  -7   8 1818.96   40.19   7
   3  -7  -8 1890.27   34.55   1
  -3   7  -8 1832.37   34.24   1
   7  -3   8 1831.94   33.33   2
  -7   5  -8 46.7078  3.2682   1
   7   5   8 46.5675  3.0836   2
  -7   5  -8 40.1768  3.1057   1
  -7   5  -8 38.1228  3.6728   5
  -5   7   8 38.7656  2.9815   2
  -7  -5   8 39.4604  3.2638   9
   7   5   8 44.0614  4.4005   8
  -5  -7  -8 43.2605  3.4047   1
  -7  -5   8 44.3353  5.2380   7
  -7  -5   8 44.0596  3.1285   2
   7   5   8 38.5040  3.7510   6
   7  -5  -8 38.8619  3.2717   1
  -5   7   8 43.7312  3.3923   9
  -7  -5   8 36.6324  3.2713   4
   5  -7   8 41.3768  2.8108   2
   5   7  -8 49.6333  3.6619   1
  -5  -7   8 43.6022  3.5313   9
   5  -7  -8 42.5045  3.2998   1
  -5  -7   8 40.4646  3.1510   2
  -7  -5  -8 43.0570  3.3740   1
  -5  -7   8 38.9734  4.0666   4
  -7   5   8 41.6005  3.4502   9
   7  -5   8 41.3643  2.8536   2
   5   7   8 44.8575  3.1344   2
  -5  -7   8 47.5242  6.9514   7
  -7   5   8 42.0737  3.0532   2
   7   5  -8 50.9897  3.6199   1
   7  -5   8 44.2783  3.4212   8
  -5   7  -8 41.1214  3.1931   1
  -7   7   8 76.5666  4.5736   9
  -7   7   8 80.0655  4.3201   2
  -7  -7   8 81.7667  4.8246   9
   7  -7   8 80.2271  4.0755   2
  -7   7  -8 83.5091  5.0987   5
   7   7   8 78.6311  4.1385   2
   7   7  -8 78.9022  4.6823   1
  -7   7  -8 78.6797  4.4829   1
  -7  -7   8 80.3275  4.2553   2
  -7  -7   8 73.7820  4.8330   4
  -7  -7   8 77.6892  7.4624   7
  -7  -7  -8 85.5936  4.8190   1
   7  -7  -8 84.0594  4.6941   1
   0  -8   8 466.935  11.009   9
   8   0   8 448.118  10.348   2
   0  -8   8 458.372  10.651   2
   0  -8  -8 469.756  11.373   1
   0  -8   8 479.928  14.385   4
  -8   0   8 461.881  11.181   9
   0   8   8 464.958  10.875   2
   8   0  -8 466.920  11.422   1
  -8   0   8 447.132  10.665   2
  -8   0  -8 462.921  11.302   1
   0   8  -8 469.086  11.296   1
   0  -8   8 480.975  12.784   7
   8   0   8 474.558  13.880   8
  -8  -2   8 397.993  10.154   9
  -2  -8  -8 377.153  10.130   1
   2  -8   8 383.399   9.289   2
   8   2   8 393.582   9.422   2
   8   2   8 410.449  13.791   8
   8  -2  -8 388.388  10.212   1
  -2   8   8 400.563   9.875   6
  -2   8   8 404.446   9.724   9
  -8   2  -8 392.652   9.976   1
   2   8  -8 389.714  10.201   1
   2  -8   8 387.307   9.670   9
  -8  -2   8 398.916  11.113   7
  -2   8   8 382.098   9.552   2
   2  -8   8 389.397  11.507   4
  -8  -2   8 382.106   9.597   2
   2  -8  -8 387.587  10.083   1
  -2  -8   8 417.330  13.224   7
   8   2  -8 392.143  10.215   1
   8  -2   8 412.025  11.649   8
  -2  -8   8 372.968  12.348   4
  -2  -8   8 407.808  10.230   9
   2   8   8 380.597   9.598   2
  -2   8  -8 395.694   9.904   1
   8  -2   8 382.688   9.184   2
  -8   2   8 399.425  10.092   9
  -8   2   8 376.250   9.468   2
  -2  -8   8 392.933   9.486   2
  -8  -2  -8 392.643  10.154   1
  -4   8   8 361.820   9.367   2
  -8  -4   8 356.816   9.885   9
   8   4   8 350.105  12.201   8
   8   4   8 358.483   9.234   2
  -4   8   8 362.504   9.614   9
   8   4   8 361.673   9.204   2
  -8   4  -8 352.948   9.783   1
  -8  -4   8 359.955  11.713   7
   4  -8   8 355.739   8.967   2
  -4  -8  -8 366.827  10.105   1
   4   8  -8 371.682  10.113   1
  -8  -4   8 358.463   9.466   2
   8  -4  -8 358.060   9.965   1
  -8  -4  -8 365.088  10.094   1
  -8   4   8 356.868   9.670   9
   4   8   8 376.102   9.496   2
   4  -8  -8 345.808   9.825   1
  -4   8  -8 374.659   9.869   1
  -8   4   8 346.322   9.199   2
  -4  -8   8 366.215   9.914   9
  -4  -8   8 351.769  11.417   4
  -4  -8   8 368.784   9.355   2
   8  -4   8 359.305   8.945   2
   8  -4   8 368.084  10.387   8
   8   4  -8 367.961  10.094   1
  -4  -8   8 356.888  14.855   7
   8  -6  -8 311.533   9.443   1
  -8   6  -8 314.881   9.183   1
  -6   8   8 292.421   8.599   2
  -8  -6   8 288.429   8.650   2
   6  -8   8 296.692   8.212   2
  -6  -8  -8 321.494   9.531   1
  -8  -6   8 292.977   9.004   9
   8   6   8 284.142   8.485   2
  -8   6  -8 294.434   8.970   1
  -8   6  -8 291.939  10.205   5
  -8  -6   8 316.109   9.275   4
  -6   8   8 318.587   9.178   9
  -8  -6   8 273.026  11.780   7
   6   8  -8 303.890   9.321   1
  -6  -8   8 300.346   9.939   4
   8  -6   8 300.335   8.300   2
  -6  -8   8 320.159  15.346   7
   8   6  -8 302.891   9.500   1
   6  -8  -8 319.868   9.449   1
   6   8   8 295.985   8.559   2
  -6  -8   8 294.777   9.208   9
  -6  -8   8 300.021   8.694   2
  -6   8  -8 307.938   8.632   9
  -8   6   8 304.010   9.141   9
  -6   8  -8 295.618   8.980   1
  -8  -6  -8 307.244   9.386   1
  -8   6   8 296.540   8.669   2
   8  -8  -8 189.264   7.664   1
  -8   8  -8 195.180   7.443   1
  -8   8   8 193.837   7.082   2
   8   8  -8 209.865   7.943   1
  -8  -8   8 195.449   7.759   4
  -8  -8   8 179.510   7.271   9
  -8   8   8 188.808   7.459   9
   8   8   8 180.169   6.838   2
   8  -8   8 189.864   6.627   2
  -8  -8  -8 208.808   7.945   1
  -8  -8   8 195.442   7.007   2
  -8  -8   8 205.560  11.208   7
   1  -9   8 662.628  14.498   9
   9  -1  -8 656.180  15.304   1
  -1  -9  -8 660.260  15.192   1
  -9  -1   8 643.482  14.465   2
  -9  -1   8 653.263  14.856   9
   1  -9   8 627.750  18.103   4
  -9   1  -8 643.368  14.995   1
  -1   9   8 658.244  14.533   2
   9   1   8 651.950  14.177   2
   9   1   8 671.702  19.664   8
   1  -9   8 644.587  14.254   2
  -1   9   8 675.218  15.178   6
   1   9  -8 664.567  15.114   1
   9  -1   8 628.956  13.996   2
  -9  -1  -8 659.753  15.090   1
   1   9   8 646.544  14.488   2
  -9   1   8 639.495  14.631   9
  -1  -9   8 641.702  14.307   2
  -1  -9   8 668.354  14.801   9
  -9   1   8 633.031  14.355   2
   9  -1   8 697.454  17.700   8
   1  -9  -8 667.455  15.186   1
  -1   9  -8 656.977  14.964   1
  -1  -9   8 605.041  19.099   4
   9   1  -8 656.725  15.310   1
  -1  -9   8 660.248  17.487   7
   3   9  -8 161.241   6.344   1
  -3   9   8 165.932   6.182   9
   9   3   8 139.792   9.317   8
  -9  -3   8 161.029   6.476   9
   9   3   8 158.091   5.678   2
   9  -3  -8 173.577   6.528   1
  -9  -3   8 172.762   5.955   2
  -9   3  -8 171.990   6.286   1
  -3   9   8 151.612   5.739   2
  -3  -9  -8 170.349   6.613   1
   3  -9   8 163.009   5.659   2
   9  -3   8 161.249   7.139   8
   9  -3   8 169.403   5.563   2
  -9   3   8 162.519   6.354   9
   3   9   8 161.792   5.898   2
  -3  -9   8 152.078   8.125   4
  -3  -9   8 160.484   9.169   7
  -3   9  -8 161.931   6.217   1
   3  -9  -8 166.889   6.426   1
  -3  -9   8 163.091   6.452   9
  -9  -3  -8 162.264   6.353   1
  -3  -9   8 157.531   5.747   2
   9   3  -8 167.735   6.424   1
  -9   3   8 161.663   5.812   2
   9  -5  -8 195.946   7.273   1
  -9  -5   8 185.124   8.664   7
  -5   9   8 192.123   7.059   9
   9   5   8 194.490   6.654   2
  -9  -5   8 187.781   6.700   2
   5   9  -8 207.252   7.423   1
  -9  -5   8 180.854   6.955   9
  -5   9   8 182.200   6.619   2
  -5  -9  -8 200.275   7.410   1
   9   5   8 185.409   8.744   8
   9   5   8 188.378   6.612   2
   5  -9   8 184.801   6.329   2
  -9   5  -8 194.027   7.028   1
  -9   5  -8 190.422   8.203   5
   5  -9  -8 192.947   7.193   1
  -9   5   8 191.310   7.094   9
   5   9   8 178.799   6.520   2
  -5  -9   8 184.656   6.520   2
   9   5  -8 184.188   7.273   1
  -9   5   8 187.041   6.608   2
  -5  -9   8 183.879   7.116   9
  -5   9  -8 191.693   7.073   1
   9  -5   8 185.318   6.269   2
  -5  -9   8 186.957  11.615   7
  -9  -5  -8 189.822   7.274   1
   9  -5   8 196.502   7.311   8
  -5  -9   8 192.133   8.387   4
  10   0   8 70.2544  3.8998   2
   0 -10   8 74.7756  4.5566   9
 -10   0   8 79.0798  4.2689   2
   0  10  -8 75.5155  4.4634   1
  10   0   8 66.8961  6.7211   8
   0 -10   8 68.8699  8.3362   4
  10   0  -8 72.7780  4.5689   1
   0 -10   8 76.8821  4.1359   2
 -10   0   8 71.2009  4.5239   9
 -10   0  -8 79.6261  4.5161   1
   0  10   8 76.3777  4.3479   2
   0 -10  -8 72.6781  4.5124   1
  -2 -10  -8 695.373  16.435   1
  -2  10   8 637.381  15.302   2
  10   2   8 624.478  21.046   8
 -10  -2   8 675.382  15.569   2
   2 -10   8 680.288  15.123   2
  10  -2  -8 697.582  16.365   1
   2 -10   8 701.414  18.458   4
 -10   2  -8 672.640  15.967   1
  10   2   8 675.788  15.175   2
 -10  -2   8 674.656  15.768   9
  10   2  -8 688.254  16.420   1
   2 -10  -8 702.061  16.210   1
  -2 -10   8 675.926  15.236   2
  -2 -10   8 697.921  20.104   4
   2  10   8 684.639  15.487   2
  10  -2   8 655.118  17.568   8
  -2 -10   8 681.206  19.258   7
 -10   2   8 674.001  15.664   9
  10  -2   8 668.907  14.900   2
 -10   2   8 670.799  15.383   2
  -2  10  -8 690.901  16.042   1
 -10  -2  -8 711.763  16.308   1
  -2 -10   8 672.697  15.706   9
  10   4   8 1026.99   25.80   8
  -4  10   8 965.256  21.039   2
 -10   4  -8 1009.89   21.75   1
 -10  -4   8 975.734  21.151   2
  -4  10   8 1021.96   20.95   9
 -10  -4   8 988.663  21.218   9
   4  10  -8 999.182  21.998   1
  -4 -10  -8 1052.03   22.28   1
  10   4   8 984.693  20.901   2
   4 -10   8 964.966  20.526   2
  10  -4  -8 1026.26   22.20   1
 -10   4  -8 990.511  24.140   5
 -10   4   8 962.318  20.989   9
  10   4  -8 1003.49   22.26   1
 -10  -4  -8 1027.89   22.22   1
  10  -4   8 969.657  22.166   8
 -10   4   8 974.328  21.002   2
  -4 -10   8 899.311  26.656   7
  -4  10  -8 1024.64   21.92   1
  -4 -10   8 996.989  21.219   9
   4 -10  -8 1024.95   22.04   1
  10  -4   8 965.534  20.422   2
   4  10   8 995.665  21.009   2
  -4 -10   8 1019.50   20.95   2
  -4 -10   8 1039.14   24.16   4
   1  11  -8 143.646   6.508   1
  11   1   8 129.092   8.660   8
   1 -11   8 134.138   5.613   2
  11   1   8 144.503   5.780   2
 -11  -1   8 128.506   6.174   9
 -11  -1   8 137.717   5.925   2
 -11   1  -8 137.235   6.291   1
   1 -11   8 141.273   6.292   9
  -1 -11  -8 144.162   6.597   1
  11  -1  -8 134.695   6.446   1
  -1  11   8 141.470   6.006   2
   1 -11   8 150.160   8.671   4
  -1 -11   8 138.984   6.408   9
  11   1  -8 145.181   6.682   1
 -11   1   8 134.456   5.822   2
  11  -1   8 141.648   7.942   8
  -1 -11   8 133.364   5.697   2
  -1  11  -8 142.200   6.321   1
 -11   1   8 142.320   6.438   9
 -11  -1  -8 140.982   6.371   1
  -1 -11   8 145.744   9.419   4
   1 -11  -8 142.826   6.416   1
   1  11   8 134.554   5.806   2
  11  -1   8 140.562   5.578   2
   0   1   9 -0.7893  0.9002   8
   0   1   9 1.36461 1.02368   4
  -1   0   9 -0.4719  0.8749   8
  -1   0   9 -0.5100  0.9853   4
   0  -1   9 6.63231 1.33369   8
   0   1   9 -0.6680  0.9496   6
   1   0   9 0.64470 1.11223   7
   0  -1   9 4.60967 1.27680   7
   0  -1   9 0.70875 0.97806   4
   1   0   9 0.90378 0.99961   6
  -1   0   9 -0.4123  1.0567   7
   1   0   9 -0.0207  0.9407   4
   1   0   9 1.47643 1.05220   8
   0  -1   9 -1.4296  0.9025   6
   0   1   9 0.21952 1.08751   7
   2   1   9 2122.20   36.14   4
  -2  -1   9 2146.35   35.94   6
   1  -2   9 2159.19   36.29   4
  -2  -1   9 2140.32   37.78   8
  -2  -1   9 2133.56   36.51   4
  -1   2   9 2207.93   35.94   6
   2  -1  -9 2174.15   36.99   1
   1  -2   9 2115.21   37.53   8
   1  -2   9 2132.18   40.62   7
   1   2  -9 2183.92   36.90   1
   1  -2   9 2146.60   35.86   6
  -2   1  -9 2244.51   36.76   1
  -2  -1   9 2117.02   40.84   7
  -1   2   9 2193.33   40.73   7
  -1   2   9 2145.95   37.28   8
   2   1   9 2149.04   35.88   6
  -1   2   9 2159.66   36.52   4
   2   1   9 2142.40   37.60   8
  -1  -2  -9 2196.44   37.06   1
  -2  -1   9 2183.16   35.81   9
   1   2   9 2074.84   37.19   8
  -1  -2   9 2096.35   40.84   7
  -1  -2   9 2154.57   36.09   6
  -2  -1  -9 2209.81   36.89   1
  -2   1   9 2179.32   40.64   7
  -1  -2   9 2146.54   37.65   8
   2  -1   9 2123.65   37.59   8
   2  -1   9 2183.43   35.74   6
  -2   1   9 2170.92   37.60   8
  -2   1   9 2133.86   36.43   4
   1  -2  -9 2118.04   36.97   1
   1   2   9 2178.42   36.07   6
  -1  -2   9 2163.54   36.59   4
   2   1  -9 2177.30   36.93   1
  -1   2  -9 2163.22   36.74   1
   2  -1   9 2136.61   40.54   7
  -2   1   9 2192.13   35.81   6
   2  -1   9 2157.49   35.99   4
  -1  -2   9 2197.42   35.67   9
   1   2   9 2148.69   36.39   4
   3   0   9 -0.1266  0.9417   4
   3   0   9 0.24166 0.98585   6
   0   3   9 0.70275 0.92334   8
   0  -3   9 1.59940 1.12021   8
   0  -3   9 0.96927 1.29382   7
   0   3   9 0.30076 1.15656   4
   3   0  -9 1.55871 0.83112   1
   0  -3  -9 0.50715 0.74359   1
   0   3  -9 -0.0638  0.7127   1
  -3   0   9 0.09006 1.05986   4
  -3   0  -9 1.03676 0.72414   1
   0  -3   9 1.96569 0.95819   9
   0   3   9 2.84820 1.26091   6
  -3   0   9 0.47676 1.16999   7
  -3   0   9 -0.3056  1.0112   6
   3   0   9 1.41546 1.20306   8
  -3   0   9 2.65204 1.30717   8
  -3   0   9 -0.4542  0.9727   9
   0  -3   9 1.83736 1.20777   4
  -3   2  -9 118.560   3.260   1
   2  -3   9 115.508   4.009   8
  -2   3   9 116.117   4.078   4
   3   2   9 112.350   3.953   6
   2   3  -9 114.629   3.431   1
   2  -3   9 111.865   4.133   7
   3   2   9 119.225   4.117   8
  -3  -2   9 117.988   3.894   9
   2  -3   9 115.460   3.765   4
  -3  -2   9 114.352   4.262   8
  -2   3   9 120.751   3.879   8
  -2   3   9 118.222   3.558   9
  -3  -2   9 137.171   4.900   7
  -2  -3  -9 117.692   3.494   1
   3   2   9 126.475   3.904   4
   2  -3   9 119.470   3.915   6
   3  -2  -9 116.260   3.421   1
  -3  -2   9 115.088   4.105   4
  -2   3   9 118.180   3.859   6
   3   2  -9 112.249   3.382   1
  -2  -3   9 113.249   3.770   9
  -2  -3   9 113.229   4.218   4
  -2  -3   9 112.045   4.704   7
  -3   2   9 114.774   3.956   4
  -3   2   9 118.936   3.739   6
  -2   3  -9 119.697   3.250   1
   3  -2   9 112.511   4.081   7
  -3   2   9 112.342   4.120   7
  -3  -2  -9 121.581   3.453   1
   2  -3  -9 114.232   3.394   1
  -2  -3   9 109.914   4.097   8
   2   3   9 113.812   3.955   4
   3  -2   9 119.347   3.753   6
  -3   2   9 118.139   4.176   8
   3  -2   9 111.260   4.117   8
   2   3   9 118.686   4.182   6
   3  -2   9 115.607   3.519   4
  -4  -1   9 965.334  20.272   7
   1  -4   9 983.467  20.082   7
   4   1   9 972.626  17.588   6
   4  -1  -9 963.608  18.116   1
   1   4  -9 957.572  18.049   1
  -4  -1   9 960.299  17.890   9
   4   1   9 990.519  17.413   4
   1  -4   9 1003.37   17.38   9
  -4   1  -9 972.867  17.913   1
  -1  -4  -9 952.081  18.169   1
  -1   4   9 969.402  18.394   4
  -1   4   9 982.676  17.987   6
  -4  -1   9 962.486  18.059   4
  -1   4   9 968.119  17.806   8
   1  -4   9 979.604  18.262   4
   1  -4   9 949.239  18.360   8
   4   1   9 942.819  18.922   8
  -4   1  -9 967.643  17.913   1
  -4  -1   9 966.870  19.161   8
  -4   1   9 1002.22   17.48   6
  -1  -4   9 943.333  20.508   7
   4  -1   9 948.373  18.917   8
   4  -1   9 971.766  17.302   6
  -1  -4   9 979.761  17.702   9
  -4   1   9 978.281  17.972   4
   1  -4  -9 930.889  18.007   1
  -4   1   9 1005.91   19.90   7
  -1   4  -9 983.320  17.900   1
  -4  -1  -9 936.594  17.923   1
   1   4   9 959.423  17.794   8
   4   1  -9 998.126  18.122   1
   1   4   9 969.262  18.331   6
  -1  -4   9 952.678  18.570   4
   1   4   9 951.899  18.418   4
  -4   1   9 1000.53   17.84   9
  -1  -4   9 960.040  18.483   8
   3  -4   9 71.5017  3.3083   8
   3  -4   9 75.6605  3.3491   7
  -4  -3   9 70.6023  4.1098   7
   4   3   9 73.1501  1.9147   2
  -4  -3   9 66.9791  3.4410   4
  -4  -3   9 71.3326  3.3830   9
   3   4  -9 70.1770  3.0381   1
  -3   4   9 70.4452  3.0127   6
   3  -4   9 70.0122  3.0072   4
   4  -3  -9 70.3278  2.9418   1
  -3   4   9 69.0372  2.3038   2
  -4  -3   9 69.0178  1.8540   2
  -3   4   9 79.1912  3.2812   9
  -4   3  -9 73.6796  2.9035   1
   4   3   9 70.0703  3.4424   8
  -4  -3   9 66.7072  3.6631   8
  -3  -4  -9 63.5200  2.9634   1
   4   3   9 64.9779  3.2815   6
  -3   4   9 66.7238  3.3499   4
  -4  -3  -9 66.0041  2.8867   1
  -3   4  -9 68.6096  2.7949   1
   4  -3   9 65.3239  2.8590   6
   3   4   9 72.8051  2.0501   2
  -4   3   9 67.0534  2.2455   2
   3   4   9 66.1022  3.5553   6
  -3  -4   9 64.9035  3.4732   4
  -4   3   9 70.6525  2.8674   6
  -4   3   9 70.2638  3.1395   9
  -4   3   9 70.6611  3.3107   7
   4   3  -9 68.1619  2.9950   1
   3   4   9 68.5996  3.1279   8
  -3  -4   9 65.9256  4.0312   7
   3  -4  -9 67.1941  2.9706   1
  -3  -4   9 67.3499  3.2492   9
   4  -3   9 66.8447  3.1496   7
   4  -3   9 67.2551  3.3809   8
  -4   3   9 82.2922  3.4246   4
  -3  -4   9 67.7951  3.4627   8
   0   5   9 0.36078 0.83617   2
   5   0  -9 0.12538 1.06894   1
   0  -5   9 -0.5170  1.3976   7
  -5   0  -9 1.00957 1.06071   1
   0   5   9 -0.0947  1.3491   6
   0  -5   9 0.52298 1.12227   9
   5   0   9 -0.7065  1.4221   8
  -5   0   9 1.66743 1.35359   7
   5   0   9 1.20694 1.08265   6
   0  -5  -9 1.11076 1.05114   1
   0  -5   9 0.09724 1.24264   8
  -5   0   9 0.40024 1.28053   9
   0   5  -9 0.84619 1.03352   1
  -5   0   9 1.30151 0.77962   2
   0  -5   9 0.46803 1.50419   4
  -5   0   9 1.15825 1.19409   4
   2  -5   9 2021.93   35.47   8
  -5   2  -9 1976.52   35.85   1
  -2   5   9 1994.24   34.22   6
   2   5  -9 1990.26   36.11   1
  -2   5   9 2037.42   34.14   9
   5   2   9 2014.58   36.63   8
  -2   5   9 2010.13   35.35   4
  -5   2  -9 1997.49   35.88   1
   5   2   9 1981.56   34.08   6
   2  -5   9 2031.53   34.00   9
  -5  -2   9 1988.40   34.70   2
   2  -5   9 1985.97   38.31   7
   2  -5   9 2061.65   35.10   4
  -5  -2   9 1967.95   39.22   7
  -2  -5  -9 1964.41   36.15   1
  -2   5   9 2003.15   35.02   2
   5   2   9 2059.62   34.45   2
  -5  -2   9 1936.36   34.69   9
   5  -2  -9 2006.84   36.11   1
  -5  -2   9 2018.51   34.86   4
  -2   5  -9 2005.22   35.82   1
  -2  -5   9 1968.06   35.94   4
  -2  -5   9 1940.13   39.90   7
  -2  -5   9 1997.35   35.77   8
  -5   2   9 2040.86   34.67   9
  -5   2   9 2040.11   33.55   6
  -5   2   9 2011.83   34.90   2
   5  -2   9 1985.11   36.38   8
  -5   2   9 2058.32   34.62   4
   2  -5  -9 1974.10   36.04   1
  -2  -5   9 2036.14   34.75   9
   2   5   9 2055.77   34.89   2
   2   5   9 1997.72   35.42   6
  -2  -5   9 2026.05   34.24   2
  -5   2   9 2052.16   38.10   7
  -5  -2  -9 1944.51   36.00   1
   5   2  -9 1985.40   36.08   1
  -5  -4   9 963.539  19.059   4
  -4   5   9 942.970  18.024   2
   4  -5   9 951.852  18.759   8
  -5  -4   9 922.766  18.511   9
   5   4   9 935.360  18.753   6
  -4   5   9 969.357  18.788   4
   5  -4  -9 932.839  18.865   1
  -4   5   9 975.930  18.353   9
  -5  -4   9 934.458  17.800   2
   5   4   9 978.173  17.818   2
  -5   4  -9 954.155  18.672   1
   5   4   9 910.982  19.058   8
   5   4   9 969.034  17.784   2
  -4   5   9 965.942  17.584   6
  -5  -4   9 965.131  22.115   7
  -4  -5  -9 932.205  19.002   1
   4   5  -9 920.831  19.005   1
   4  -5   9 965.942  17.427   2
  -5   4   9 952.547  18.056   2
   4  -5  -9 936.087  18.879   1
   4   5   9 949.126  17.907   2
  -4  -5   9 955.183  17.773   2
  -5   4   9 949.111  18.347   4
  -4  -5   9 968.585  19.559   4
  -4  -5   9 948.094  18.664   9
  -5  -4  -9 948.606  19.087   1
   5  -4   9 954.478  19.130   8
   4   5   9 933.132  19.367   6
   5   4  -9 953.766  19.114   1
  -4  -5   9 981.614  22.840   7
  -5   4   9 979.388  18.475   9
   5  -4   9 967.870  17.363   2
  -4   5  -9 958.192  18.766   1
   1  -6   9 283.466   6.775   8
   1  -6   9 254.035   6.561   9
   1   6  -9 240.325   6.637   1
  -6  -1   9 243.163   6.979   9
   6  -1  -9 248.225   6.798   1
  -1   6   9 229.148   5.997   2
   1  -6   9 233.627   7.359   7
   1  -6   9 236.817   5.465   2
  -1   6   9 242.135   7.003   6
   6   1   9 258.698   8.125   8
  -1  -6  -9 252.714   6.892   1
  -6  -1   9 244.595   6.606   4
  -6  -1   9 265.367   7.776   7
  -6  -1   9 247.798   5.912   2
   1  -6   9 252.200   7.663   4
   6   1   9 238.465   6.242   6
  -6   1  -9 253.238   6.571   1
   6   1   9 249.316   5.558   2
  -6   1   9 255.580   6.597   4
   6  -1   9 253.692   5.426   2
  -6  -1  -9 245.039   6.647   1
  -1  -6   9 254.142   5.613   2
  -1  -6   9 247.252   6.769   8
   6  -1   9 238.701   7.655   8
  -6   1   9 265.718   7.230   7
   1  -6  -9 233.744   6.655   1
  -1  -6   9 247.313   8.042   4
   1   6   9 255.165   7.586   6
  -6   1   9 254.430   6.951   9
  -1  -6   9 253.269   8.290   7
  -1   6  -9 252.436   6.575   1
   1   6   9 250.003   6.038   2
  -6   1   9 239.384   5.888   2
   6   1  -9 248.694   6.756   1
  -1  -6   9 264.783   6.958   9
  -3   6   9 6.26158 1.43009   2
   6   3   9 8.29003 1.84512   6
  -3   6   9 7.49966 1.84142   9
   6  -3  -9 7.35188 1.70990   1
  -6  -3   9 5.11618 1.79133   4
  -6  -3   9 6.29451 1.46174   2
   3  -6   9 7.08637 1.96778   4
  -6  -3   9 6.93052 2.28231   7
   3  -6   9 6.56736 1.30052   2
   3  -6   9 4.25040 1.67497   8
   3   6  -9 5.43821 1.68253   1
  -6   3  -9 10.1547  1.7314   1
   6   3   9 6.93137 1.36898   2
  -6  -3   9 6.95423 1.89934   9
  -6   3  -9 8.66867 1.74381   1
   6   3   9 9.41463 2.49282   8
  -3  -6  -9 5.49403 1.69869   1
  -3   6   9 6.75350 1.74991   6
   3   6   9 7.20060 2.35059   6
  -6   3   9 9.53386 1.78534   4
   3  -6  -9 7.29712 1.66079   1
   6  -3   9 3.29805 1.87901   8
   3   6   9 6.71526 1.53839   2
  -3  -6   9 2.90734 2.56407   7
  -3   6  -9 6.67085 1.55392   1
  -3  -6   9 7.16590 2.34538   4
  -6  -3  -9 5.31210 1.66779   1
  -3  -6   9 5.86839 1.98164   8
  -6   3   9 5.50321 1.39715   2
   6   3  -9 4.38898 1.56975   1
   6  -3   9 8.11356 1.31657   2
  -3  -6   9 3.92756 1.78080   9
  -6   3   9 2.30505 1.64892   9
  -3  -6   9 5.58783 1.42608   2
  -6   5  -9 223.684   7.779   5
   5  -6   9 228.048   5.920   2
  -6  -5   9 230.024   6.359   2
  -5   6   9 223.533   6.338   2
  -6  -5   9 231.579   9.546   7
  -5  -6  -9 226.858   7.116   1
  -5   6   9 235.152   7.035   9
   6  -5  -9 228.659   7.000   1
   5  -6   9 231.944   6.834   8
   5   6  -9 221.973   7.041   1
   6   5   9 223.559   6.228   2
  -6  -5   9 227.148   7.396   4
   6   5   9 218.686   7.431   6
   6   5   9 227.160   7.420   8
  -6   5  -9 212.360   6.701   1
  -6  -5   9 220.367   7.134   9
  -5  -6   9 227.009   7.790   4
   6  -5   9 230.561   5.959   2
  -5  -6   9 226.711   6.325   2
  -5   6  -9 226.700   6.810   1
   6  -5   9 229.268   7.204   8
  -6   5   9 220.122   6.366   2
  -6   5   9 225.619   7.019   9
   6   5  -9 222.539   7.070   1
  -6  -5  -9 219.874   6.914   1
   5   6   9 224.338   8.154   6
   5   6   9 217.282   6.231   2
  -5  -6   9 243.086  10.617   7
  -5  -6   9 227.924   7.233   9
   5  -6  -9 226.628   7.057   1
   7   0   9 1.43087 1.12449   2
   0  -7   9 0.58233 1.24051   2
   7   0  -9 0.79514 1.57508   1
   0  -7   9 0.76972 1.84301   7
   0  -7  -9 0.76081 1.38676   1
  -7   0   9 0.70762 1.32131   2
  -7   0   9 0.61211 1.59842   9
   0   7  -9 0.81197 1.28837   1
   0  -7   9 -0.3525  1.4409   9
  -7   0  -9 1.08067 1.39245   1
   7   0   9 -0.0497  2.1817   8
   0   7   9 -1.1060  1.7159   6
   0  -7   9 2.12016 2.37134   4
   0   7   9 -1.1837  1.2631   2
   2   7  -9 426.917  10.507   1
  -7  -2   9 432.897  10.007   4
   2  -7   9 421.181   9.917   9
  -2   7   9 425.629  10.172   6
   2  -7   9 446.212  11.323   4
  -7  -2   9 418.358   9.585   2
  -7  -2   9 442.909  11.835   7
  -2   7   9 425.536   9.741   2
  -7   2  -9 429.642  10.226   1
  -2  -7  -9 425.826  10.595   1
   7   2   9 446.362  12.723   8
  -7  -2   9 424.467  10.544   9
   2  -7   9 432.563   9.359   2
   7   2   9 427.750   9.340   2
   7  -2  -9 437.635  10.509   1
  -7  -2  -9 430.434  10.431   1
  -2   7  -9 431.479  10.244   1
  -7   2   9 429.207   9.700   2
   7  -2   9 438.633   9.147   2
   2  -7  -9 425.569  10.398   1
   2   7   9 445.229  12.131   6
   7  -2   9 407.440  11.320   8
  -7   2   9 422.987  10.337   9
  -2  -7   9 420.650  12.831   7
   2   7   9 431.730   9.733   2
   7   2  -9 426.953  10.467   1
  -2  -7   9 428.302  10.444   9
  -2  -7   9 413.851  12.045   4
  -2  -7   9 420.676   9.477   2
   7  -4  -9 166.454   5.966   1
  -7  -4   9 170.415   6.067   4
   7   4   9 165.640   6.078   6
   7   4   9 167.873   5.211   2
  -4   7   9 163.914   5.334   2
  -7   4  -9 164.353   5.722   1
   4  -7   9 169.089   4.989   2
  -7   4  -9 169.874   5.864   1
   4   7  -9 167.097   5.955   1
   7   4   9 168.193   7.342   8
  -4   7   9 176.887   5.929   9
  -7  -4   9 163.998   6.200   9
  -7  -4   9 167.565   5.371   2
  -4  -7  -9 164.821   6.004   1
  -7  -4   9 167.264   7.553   7
  -4  -7   9 168.876   9.248   7
   7   4  -9 160.004   5.952   1
   4  -7  -9 169.798   6.024   1
  -7   4   9 169.777   6.067   9
  -4  -7   9 160.843   5.292   2
   7  -4   9 170.601   6.417   8
  -4  -7   9 148.476   6.708   4
   4   7   9 169.763   5.389   2
   7  -4   9 161.709   4.925   2
  -4  -7   9 167.655   6.175   9
  -7  -4  -9 165.309   6.007   1
  -7   4   9 162.643   5.318   2
  -4   7  -9 168.091   5.859   1
   7   6   9 77.4263  3.9368   2
   6   7  -9 77.3454  4.4673   1
  -6   7   9 74.5252  4.3819   9
   7  -6  -9 78.5443  4.4421   1
  -7  -6   9 74.9623  3.9027   2
  -6  -7  -9 73.5877  4.3834   1
  -7   6  -9 80.4953  4.2715   1
   7   6   9 77.5183  4.9686   6
   6  -7   9 78.6982  3.6930   2
  -6   7   9 78.9713  3.9730   2
  -7   6  -9 85.2557  5.1316   5
  -7  -6   9 76.9280  4.6775   4
  -7  -6   9 82.0235  4.6548   9
  -7  -6   9 75.2715  6.5825   7
   6   7   9 74.8192  5.5754   6
  -7   6   9 74.5152  3.9908   2
  -6   7  -9 77.7234  4.2031   1
  -6  -7   9 81.0494  7.8364   7
   7  -6   9 82.0001  4.4151   8
  -6  -7   9 79.5810  3.9982   2
   6   7   9 74.0706  3.9169   2
  -7  -6  -9 76.0623  4.4273   1
  -7   6   9 79.6446  4.5470   9
   7  -6   9 77.2790  3.7297   2
   6  -7  -9 69.7128  4.2701   1
  -6  -7   9 88.4686  4.7699   9
   7   6  -9 82.1351  4.6325   1
   1   8  -9 970.335  19.964   1
  -1   8   9 935.157  19.170   2
  -8  -1   9 952.634  19.009   2
   8   1   9 972.323  18.627   2
   1  -8   9 977.091  19.111   9
   1  -8   9 953.885  21.954   4
  -8  -1   9 961.536  19.539   9
  -1  -8  -9 951.462  20.104   1
   8  -1  -9 958.192  20.027   1
  -8   1  -9 960.642  19.744   1
   1  -8   9 958.259  18.805   2
   8   1   9 974.413  23.085   8
  -1   8   9 936.887  19.510   6
  -1   8  -9 961.822  19.733   1
   8  -1   9 975.847  22.099   8
   8  -1   9 958.593  18.526   2
   1  -8  -9 954.378  19.880   1
  -8  -1  -9 945.138  19.719   1
  -1  -8   9 995.416  22.751   7
  -1  -8   9 946.628  18.740   2
  -1  -8   9 979.156  19.377   9
   1   8   9 947.255  19.087   2
  -8   1   9 974.733  19.035   2
  -8   1   9 955.479  19.409   9
   8   1  -9 945.878  20.007   1
   1   8   9 964.160  20.916   6
  -1  -8   9 958.402  22.691   4
  -8  -3   9 55.8197  4.4363   7
  -8  -3   9 55.8425  3.9471   9
  -8  -3   9 50.8050  3.2525   2
  -8   3  -9 51.0942  3.4573   1
   3  -8   9 59.5212  3.1664   2
  -3  -8  -9 51.1039  3.7231   1
   8   3   9 52.5816  5.7062   8
  -3   8   9 54.0727  3.3576   2
   8  -3  -9 57.8508  3.8846   1
   3   8  -9 52.4437  3.7336   1
   8   3   9 56.4856  3.1102   2
  -3   8   9 61.7264  3.7605   9
   8  -3   9 59.3620  3.0753   2
  -3  -8   9 59.3749  5.9564   7
  -8   3   9 52.0487  3.2181   2
  -3  -8   9 56.3495  4.0002   9
  -3  -8   9 55.8743  5.3749   4
   3  -8  -9 57.1933  3.7359   1
   8  -3   9 64.2351  4.7120   8
  -8  -3  -9 55.1436  3.8015   1
  -3  -8   9 62.9441  3.2983   2
   8   3  -9 58.1311  3.8181   1
   3   8   9 58.9692  3.4313   2
  -3   8  -9 55.4824  3.5743   1
  -8   3   9 52.6402  3.7700   9
   5  -8   9 983.562  19.419   2
   5   8  -9 998.913  21.063   1
  -8   5  -9 945.138  22.722   5
   8   5   9 977.370  19.790   2
  -8   5  -9 968.003  20.608   1
   8  -5  -9 989.874  20.970   1
  -8  -5   9 952.413  24.251   7
  -8  -5   9 967.685  20.375   9
   8   5   9 946.981  22.344   8
  -5   8   9 973.213  19.939   2
  -5  -8  -9 985.088  21.025   1
   8   5   9 965.580  19.690   2
  -8   5  -9 978.454  20.641   1
  -5   8   9 990.997  20.137   9
  -8  -5   9 961.981  19.981   2
   8  -5   9 981.026  19.390   2
  -5  -8   9 976.206  19.895   2
   8   5  -9 986.142  21.177   1
  -5  -8   9 907.163  28.667   7
  -8  -5  -9 978.098  21.048   1
   5  -8  -9 989.087  20.918   1
  -8   5   9 962.749  20.198   9
   5   8   9 974.203  19.914   2
   8  -5   9 1006.32   20.98   8
  -5  -8   9 961.271  21.865   4
  -5  -8   9 979.409  20.392   9
  -8   5   9 963.726  19.955   2
  -5   8  -9 975.282  20.733   1
   7   8  -9 227.053   8.089   1
   8   7   9 219.307   7.094   2
  -8   7  -9 218.272   7.783   1
   8  -7  -9 232.204   8.103   1
  -7   8   9 210.115   7.176   2
  -7   8   9 226.778   7.929   9
  -8  -7   9 223.561   8.124   9
  -8   7  -9 215.377   7.802   1
   7  -8   9 217.005   6.799   2
  -8  -7   9 218.025   7.996   4
  -8  -7   9 208.317  10.848   7
  -7  -8  -9 228.339   8.252   1
  -8  -7   9 220.951   7.145   2
  -8   7   9 221.578   7.310   2
  -7  -8   9 220.756   8.440   4
  -7   8  -9 221.463   7.708   1
  -7  -8   9 221.193  12.483   7
  -7  -8   9 223.220   7.226   2
  -7  -8   9 219.150   7.983   9
   8  -7   9 222.116   6.873   2
  -8  -7  -9 220.774   8.109   1
  -8   7   9 214.219   7.849   9
   7   8   9 217.807   7.119   2
   8   7  -9 214.415   8.027   1
   7  -8  -9 226.524   8.150   1
  -9   0  -9 1.34002 1.77024   1
  -9   0   9 2.99212 2.02624   9
   0  -9   9 -0.6584  2.2244   7
   9   0  -9 -0.3862  1.7864   1
   0  -9  -9 2.92265 1.94298   1
   0   9  -9 1.53697 1.76714   1
   0  -9   9 0.24554 1.64805   2
   0   9   9 -0.3757  1.6170   2
  -9   0   9 -0.4450  1.6328   2
   9   0   9 4.26063 3.37388   8
   0   9   9 1.01642 2.41453   6
   0  -9   9 -0.2767  3.7874   4
   0  -9   9 0.54234 1.93109   9
   9   0   9 1.22843 1.61475   2
   2  -9   9 291.265   7.804   2
  -9  -2   9 284.375   8.794   9
   9   2   9 299.539  12.910   8
   9  -2  -9 293.922   8.902   1
  -2   9   9 304.871   8.776   6
  -9   2  -9 276.828   8.497   1
  -2   9   9 282.902   8.073   2
   2  -9   9 304.703  10.451   4
   9   2   9 281.516   7.687   2
   2   9  -9 287.385   8.710   1
   2  -9   9 279.139   8.289   9
  -9  -2   9 281.235   7.979   2
  -2  -9  -9 285.284   8.823   1
  -9  -2  -9 278.328   8.575   1
  -2  -9   9 288.957   7.861   2
  -2  -9   9 282.121  11.047   7
   2   9   9 290.221   8.068   2
  -9   2   9 262.326   7.797   2
  -2  -9   9 294.973   8.811   9
   2  -9  -9 280.398   8.648   1
  -2   9  -9 270.489   8.401   1
   9  -2   9 286.107  10.248   8
  -2  -9   9 273.985  11.575   4
   9   2  -9 295.868   8.930   1
   9  -2   9 285.899   7.517   2
  -9   2   9 286.532   8.754   9
  -4   9   9 170.498   6.442   9
   9   4   9 166.661   8.933   8
   4  -9   9 159.821   5.624   2
  -4  -9  -9 166.427   6.768   1
   4   9  -9 175.784   6.762   1
  -9  -4   9 170.456   6.074   2
   9   4   9 173.529   5.926   2
   9  -4  -9 171.228   6.744   1
  -9  -4   9 177.694   8.227   7
  -9   4  -9 164.901   6.432   1
  -4   9   9 171.617   6.037   2
  -9  -4   9 170.262   6.865   9
  -9   4   9 163.809   6.634   9
  -4  -9   9 168.581   6.824   9
  -4  -9   9 179.509   5.977   2
  -4  -9   9 178.670   8.384   4
   9  -4   9 169.086   5.714   2
   9  -4   9 182.205   7.266   8
  -9  -4  -9 173.145   6.778   1
  -4  -9   9 172.981  10.510   7
   4   9   9 170.705   5.974   2
  -9   4   9 165.930   5.963   2
  -4   9  -9 161.427   6.477   1
   4  -9  -9 160.368   6.531   1
   9   4  -9 161.930   6.693   1
   6  -9   9 16.6098  2.5887   2
   9  -6  -9 19.7832  3.3058   1
  -6  -9  -9 16.3508  3.1077   1
  -6   9   9 23.1695  3.2433   9
  -9  -6   9 17.2588  3.1356   9
  -9   6  -9 21.8106  3.1358   1
  -9   6  -9 25.7756  4.1095   5
   6   9  -9 22.4732  3.4139   1
   9   6   9 16.8918  2.6764   2
  -6   9   9 21.0283  2.8573   2
  -9  -6   9 19.5124  2.8409   2
   9   6   9 20.6687  2.8658   2
  -9  -6   9 13.6815  3.9027   7
   6  -9  -9 20.3494  3.1444   1
   9   6  -9 22.4386  3.4171   1
  -6  -9   9 23.9925  3.9486   4
  -6  -9   9 21.7946  3.3821   9
  -6   9  -9 19.0016  3.0486   1
  -9   6   9 15.1526  3.0395   9
   6   9   9 20.0490  2.8290   2
  -9  -6  -9 20.3228  3.2433   1
  -9   6   9 16.8960  2.7439   2
  -6  -9   9 23.7196  6.7216   7
  -6  -9   9 20.4915  2.8682   2
   9  -6   9 21.0273  2.7623   2
   1 -10   9 83.1225  7.1744   4
  -1  10   9 81.5337  4.3258   2
  -1  10   9 90.8141  5.2075   6
  10   1   9 80.8342  8.1358   8
  10   1   9 78.9198  4.0030   2
 -10  -1   9 77.7368  4.7995   9
  -1 -10  -9 80.6846  4.8627   1
 -10  -1   9 74.0035  4.1750   2
   1 -10   9 85.0758  4.7690   9
 -10   1  -9 80.0704  4.6548   1
  10  -1  -9 84.2155  4.9376   1
   1  10  -9 77.0203  4.6389   1
   1 -10   9 80.5456  4.1157   2
  -1 -10   9 72.9772  8.5109   4
  10  -1   9 77.6389  3.9570   2
   1 -10  -9 85.4489  4.8373   1
  10  -1   9 77.2121  6.2145   8
  10   1  -9 86.5146  4.9778   1
 -10  -1  -9 89.4434  4.8774   1
   1  10   9 89.8949  4.4286   2
 -10   1   9 79.4920  4.9348   9
  -1 -10   9 84.7344  4.2454   2
  -1 -10   9 79.0179  5.7785   7
 -10   1   9 75.2234  4.1958   2
  -1  10  -9 81.3954  4.6252   1
  -1 -10   9 78.1654  4.6863   9
   3 -10   9 9.12999 2.26458   2
  10  -3  -9 11.9115  2.8568   1
  -3  10   9 13.6257  2.4753   2
  10   3   9 18.4008  5.5375   8
   3  10  -9 13.9310  2.8505   1
  -3 -10  -9 10.9983  2.7544   1
 -10  -3   9 12.5624  2.6362   2
 -10  -3   9 11.9939  2.8761   9
 -10   3  -9 13.6802  2.7614   1
  10   3   9 9.23356 2.34786   2
  -3 -10   9 8.15561 3.80752   7
  10  -3   9 10.3627  3.3788   8
  10  -3   9 16.1459  2.4272   2
  -3 -10   9 13.7363  4.1056   4
  -3 -10   9 10.4102  2.3000   2
   3 -10  -9 12.7442  2.7760   1
  -3 -10   9 10.7711  2.8130   9
  -3  10  -9 13.6397  2.6891   1
 -10  -3  -9 11.5869  2.7441   1
 -10   3   9 11.3194  2.3482   2
  10   3  -9 13.9231  2.9166   1
 -10   3   9 13.1954  2.8364   9
   3  10   9 17.7542  2.6822   2
  11   0   9 -0.1823  1.8904   2
 -11   0  -9 1.51376 2.15425   1
   0 -11   9 2.30128 4.21175   4
  11   0  -9 -2.7912  2.1966   1
   0  11   9 2.26133 2.09022   2
   0 -11  -9 -1.9914  2.0667   1
  11   0   9 -0.3999  3.3907   8
   0 -11   9 1.05778 2.29330   9
   0  11  -9 1.51859 2.08304   1
 -11   0   9 2.21513 2.32100   9
   0 -11   9 3.34235 2.09599   2
 -11   0   9 0.56811 1.99507   2
   0   0  10 502.878  10.160   6
   0   0  10 490.790  11.377   7
   0   0  10 477.361  10.415   8
   0   0  10 497.427  10.166   4
   1   1  10 3.51065 1.22682   6
   1  -1  10 4.35338 1.20742   4
   1  -1 -10 2.58285 0.53558   1
  -1   1  10 3.54274 1.26384   8
   1  -1  10 8.30175 1.45302   6
  -1  -1  10 3.80970 1.38836   7
  -1  -1  10 5.76498 1.09102   9
   1   1 -10 4.00264 0.46567   1
  -1  -1  10 2.35593 1.10444   4
  -1  -1  10 1.07684 1.01048   6
   1   1  10 2.71812 1.18483   4
  -1  -1  10 1.47267 1.08470   8
  -1   1  10 1.58795 1.13136   6
   1  -1  10 3.88717 1.25998   8
  -1   1  10 3.50841 1.23482   4
  -1  -1 -10 4.25912 0.52617   1
   1  -1  10 1.62042 1.14026   7
   1   1  10 1.33641 1.15361   8
  -1   1  10 0.86847 1.24062   7
   0   2  10 283.361   6.982   4
   0  -2  10 282.888   7.091   8
   0  -2  10 287.030   6.948   4
   0   2  10 280.854   6.825   8
  -2   0 -10 291.668   5.458   1
  -2   0  10 272.181   7.652   7
   2   0 -10 291.760   5.631   1
   0   2  10 279.795   6.897   6
  -2   0  10 272.296   6.884   4
  -2   0  10 291.572   6.869   6
   2   0  10 293.815   6.671   4
   2   0  10 282.493   7.129   8
   0  -2  10 287.945   6.866   6
   2   0  10 288.700   6.786   6
  -2   0  10 280.631   7.194   8
   0  -2 -10 294.497   5.729   1
   0   2 -10 288.849   5.505   1
   0  -2  10 280.282   7.741   7
   0  -2  10 296.207   6.061   9
  -2   2 -10 153.578   3.514   1
   2   2  10 153.567   4.623   4
   2  -2 -10 151.023   3.708   1
  -2  -2  10 147.059   4.898   8
  -2   2  10 151.489   4.060   9
   2  -2  10 147.821   4.769   8
  -2  -2  10 146.369   4.717   6
   2   2  10 155.533   4.749   6
   2  -2  10 149.231   4.976   7
  -2   2  10 144.532   4.444   6
  -2   2  10 148.774   5.022   7
  -2   2  10 153.072   4.674   4
  -2  -2 -10 150.043   3.727   1
   2   2  10 145.044   4.626   8
   2  -2  10 146.243   4.481   6
  -2  -2  10 153.909   4.368   9
  -2   2  10 146.989   4.637   8
   2   2 -10 145.389   3.681   1
  -2  -2  10 139.343   4.705   4
  -2  -2  10 143.845   5.321   7
   2  -2  10 154.259   4.398   4
  -3  -1  10 45.9283  2.9022   8
   3  -1 -10 49.1926  2.0161   1
   3   1  10 42.7264  2.5387   6
  -3  -1  10 54.0805  2.6809   9
  -1  -3 -10 48.5087  2.0860   1
   1   3 -10 47.3565  2.0016   1
  -3   1 -10 46.3039  1.8786   1
  -1   3  10 50.5123  2.7417   6
   1  -3  10 52.9204  2.7861   6
  -3  -1  10 47.1758  2.5979   6
   1  -3  10 46.8127  2.6823   4
  -3  -1  10 43.0435  2.6512   4
   3   1  10 52.3712  2.9067   8
   3   1  10 46.3644  2.4217   4
   1  -3  10 48.1858  2.9472   7
   1  -3  10 46.4557  2.6922   8
  -1   3  10 51.3814  2.8470   4
  -3  -1  10 50.5837  3.1497   7
  -1   3  10 49.7765  2.5838   8
   1   3  10 49.2547  2.5107   8
  -1  -3  10 50.6430  2.8115   8
  -3   1  10 49.4717  2.3876   9
  -3   1  10 48.4849  2.9021   7
   3  -1  10 51.1838  2.4516   4
  -3  -1 -10 49.2805  1.9541   1
   1   3  10 47.9833  2.6991   6
   1   3  10 44.6130  2.5927   4
   3  -1  10 48.1857  2.8541   8
  -3   1  10 48.5147  2.9757   8
   3   1 -10 49.4807  2.0189   1
  -1   3 -10 48.6153  1.9127   1
  -1  -3  10 53.6938  2.5376   9
  -3   1  10 50.5665  2.6834   6
  -3   1  10 47.1042  2.6846   4
   3  -1  10 46.6536  2.4800   6
  -1  -3  10 45.6560  3.1403   7
   1  -3 -10 48.8904  2.0296   1
  -1  -3  10 51.7179  2.8146   4
   3   3  10 6.99084 1.61151   8
   3  -3  10 3.97700 1.24298   4
  -3   3  10 5.97363 1.41387   9
   3  -3  10 3.01941 1.52371   8
   3  -3  10 9.84467 1.63625   6
  -3   3  10 11.3986  1.6229   6
  -3  -3  10 5.62230 1.51368   9
   3   3  10 6.44924 1.52196   6
  -3   3 -10 3.81938 1.04167   1
  -3  -3  10 6.19166 1.68822   8
  -3   3  10 5.80928 1.55126   4
   3  -3  10 6.43029 1.62901   7
  -3  -3  10 5.63261 1.66821   4
   3  -3 -10 3.44385 1.17289   1
  -3   3  10 6.44587 1.67727   8
  -3  -3  10 5.59971 1.79876   7
   3   3 -10 8.14481 1.38389   1
  -3  -3 -10 5.10948 1.20059   1
   3   3  10 4.63144 1.50427   4
  -4   0 -10 32.4259  1.8102   1
   0   4 -10 27.2367  1.7664   1
   4   0  10 27.6989  2.1915   6
  -4   0  10 28.0380  2.4352   8
   4   0 -10 29.6880  1.8301   1
   0   4  10 27.9110  2.2930   6
   0  -4  10 29.4360  2.5599   4
   0  -4 -10 29.8660  1.9214   1
   0  -4  10 29.9783  2.7571   7
  -4   0  10 29.0212  2.2473   6
  -4   0  10 34.7313  2.4635   4
   0   4  10 28.6995  2.5156   4
  -4   0  10 25.6589  2.4583   7
   4   0  10 28.2201  2.0304   4
  -4   0  10 32.5262  2.3593   9
   0  -4  10 31.5003  2.1581   9
   4   0  10 25.7648  2.5652   8
   0  -4  10 31.5711  2.3715   8
   0   4  10 29.0328  2.0118   8
   4   2  10 206.165   5.567   4
  -4   2 -10 189.959   5.000   1
  -2  -4 -10 193.035   5.304   1
  -2   4  10 197.185   5.624   6
  -4  -2  10 196.961   6.719   7
  -4  -2  10 196.687   5.924   4
   4   2  10 191.383   5.665   6
  -2   4  10 197.867   5.985   4
  -2   4  10 208.379   5.579   8
   4   2  10 197.087   6.117   8
  -4  -2  10 200.981   5.769   9
   2  -4  10 202.420   5.707   4
   2   4 -10 205.068   5.293   1
   2  -4  10 202.523   5.868   8
   2  -4  10 210.459   6.306   7
  -4  -2  10 194.906   6.299   8
   4  -2 -10 194.094   5.202   1
  -2  -4  10 192.632   6.889   7
  -2  -4  10 200.999   5.618   9
  -2  -4  10 188.645   5.907   8
   2   4  10 193.397   5.458   8
   4   2 -10 198.293   5.270   1
  -4   2  10 204.836   5.570   9
  -2   4 -10 192.898   5.002   1
  -4   2  10 193.951   5.387   6
  -4   2  10 205.762   5.815   4
   2   4  10 205.212   6.143   4
  -4   2  10 194.871   6.006   7
   4  -2  10 199.936   5.350   6
  -2  -4  10 202.797   6.305   4
  -4  -2 -10 197.483   5.217   1
   2   4  10 201.613   6.178   6
   2  -4 -10 194.753   5.225   1
   4  -2  10 204.928   6.144   8
  -4   4  10 429.028   9.081   6
  -4   4  10 413.740   7.914   2
  -4   4  10 416.496   9.378   9
  -4  -4  10 407.908  10.179   4
   4   4 -10 398.230   9.441   1
   4   4  10 404.613   9.971   6
   4  -4 -10 393.594   9.306   1
  -4  -4 -10 393.541   9.390   1
  -4  -4  10 407.500  10.340   8
   4  -4  10 413.990  10.003   8
  -4  -4  10 388.476   9.458   9
   4   4  10 406.772   9.749   8
  -4   4  10 396.718   9.637   4
  -4   4 -10 419.899   9.202   1
  -4  -4  10 412.511  11.832   7
   1   5 -10 50.7771  2.6200   1
   5   1  10 50.3597  2.8569   6
   1  -5  10 55.1734  2.8188   9
  -5   1 -10 43.3962  2.4518   1
  -1   5  10 47.3960  3.2390   4
   1  -5  10 46.7671  3.2220   7
   1  -5  10 56.8704  3.3493   4
  -1   5  10 44.7124  2.9379   6
   5  -1 -10 47.8136  2.5819   1
  -5  -1  10 50.3287  3.0167   9
   1  -5  10 51.9868  3.0201   8
  -5  -1  10 53.5235  3.5487   7
   5   1  10 47.1819  3.4049   8
  -5  -1  10 51.7450  3.0042   4
  -1  -5 -10 50.4699  2.7127   1
  -5   1  10 48.0897  2.8525   4
  -1  -5  10 57.3925  3.6452   7
  -1   5 -10 48.5537  2.4980   1
   5  -1  10 54.7728  3.4436   8
  -5   1  10 51.2883  3.2091   7
  -1  -5  10 48.5676  3.4274   4
   1   5  10 49.2704  3.2817   6
  -1  -5  10 52.4272  2.8722   9
   1  -5 -10 48.7373  2.5998   1
   5  -1  10 50.8702  2.6820   6
  -5   1  10 54.7976  2.8417   6
   5   1 -10 49.1738  2.6201   1
  -5   1  10 51.2871  2.9403   9
  -5  -1 -10 54.7251  2.6729   1
  -1  -5  10 48.2071  3.0393   8
   3  -5  10 35.9281  2.6677   8
  -3  -5 -10 37.2226  2.6065   1
   5  -3 -10 35.8383  2.5077   1
   5   3  10 33.9624  2.7380   6
   5   3  10 34.4110  3.0556   8
  -3   5  10 38.9795  1.8527   2
  -5  -3  10 36.0421  2.7906   4
  -3   5  10 38.8925  2.6302   9
   3   5 -10 37.0011  2.5871   1
  -5  -3  10 35.2301  2.8468   9
   3  -5  10 35.2278  2.6098   4
  -3   5  10 31.1675  2.5457   6
  -3   5  10 33.7473  2.9713   4
  -5   3 -10 31.8002  2.2849   1
  -5  -3  10 36.0307  3.5016   7
   5  -3  10 36.0691  3.0049   8
  -3   5 -10 36.0189  2.3946   1
  -3  -5  10 31.9866  3.1667   4
  -5   3  10 39.1750  2.7942   9
  -3  -5  10 36.1889  2.9814   8
  -3  -5  10 39.6631  3.8803   7
  -3  -5  10 37.5252  2.8193   9
   3  -5 -10 31.6851  2.3489   1
   5   3 -10 36.9174  2.6001   1
  -5   3  10 38.8127  1.7447   2
   3   5  10 36.2487  1.4676   2
  -5   3  10 35.7102  2.6718   4
  -5  -3 -10 45.6223  2.7471   1
   3   5  10 36.4897  3.4383   6
  -5   5  10 47.0770  3.3759   9
   5  -5 -10 38.0228  2.8514   1
  -5   5 -10 44.9249  2.8133   1
  -5   5  10 37.8694  3.1191   4
  -5  -5  10 43.9435  4.8934   7
  -5  -5  10 41.7767  3.2365   9
   5   5 -10 36.5856  3.0285   1
  -5  -5  10 43.3136  3.6072   4
   5   5  10 44.2429  2.2987   2
  -5  -5 -10 39.8546  2.9306   1
   5   5  10 41.8621  3.8225   6
  -5   5  10 39.9474  2.3797   2
  -5  -5  10 37.3623  2.1471   2
   5   5  10 43.0911  2.2600   2
   5  -5  10 46.0006  3.2772   8
   0   6  10 85.3397  4.2447   6
  -6   0  10 85.2656  2.5592   2
  -6   0  10 91.5234  4.3737   7
   0  -6  10 89.9394  3.9138   8
   0   6 -10 83.2865  3.5136   1
  -6   0  10 97.2536  4.0536   9
   0  -6  10 86.8038  3.7549   9
   6   0 -10 85.4932  3.6856   1
  -6   0 -10 92.9927  3.6391   1
   0  -6 -10 85.4162  3.7013   1
   0   6  10 84.4738  2.7353   2
   0  -6  10 81.5064  4.5610   7
  -6   0  10 81.1147  3.6758   4
   6   0  10 81.3723  4.5084   8
   0  -6  10 82.7035  4.5464   4
  -2   6  10 253.302   6.022   2
  -2   6  10 265.234   7.273   6
   6   2  10 265.224   8.374   8
   6   2  10 256.591   6.957   6
   2  -6  10 269.226   7.684   4
   6  -2 -10 251.030   7.034   1
   2  -6  10 260.846   6.810   9
  -6  -2  10 249.631   8.214   7
   2  -6  10 264.088   7.747   7
  -6  -2  10 251.488   5.596   2
  -6  -2  10 262.972   7.220   4
  -6   2 -10 253.179   6.844   1
   2   6 -10 248.697   7.001   1
  -2  -6 -10 244.157   7.025   1
  -6  -2  10 253.529   7.365   9
   2  -6  10 259.408   7.003   8
  -2  -6  10 261.168   8.415   4
   2   6  10 267.603   5.862   2
  -6   2  10 270.417   7.358   9
   2  -6 -10 256.306   7.039   1
   6  -2  10 244.059   7.873   8
  -6   2  10 263.546   7.037   4
  -6  -2 -10 258.576   7.011   1
  -2  -6  10 269.639   7.320   9
   2   6  10 255.356   8.269   6
  -2  -6  10 260.302   7.358   8
   6   2 -10 258.360   7.097   1
  -2  -6  10 249.285   8.900   7
  -6   2  10 266.436   5.886   2
  -2   6 -10 257.444   6.853   1
  -6  -4  10 89.1536  5.5613   7
  -4   6  10 95.0955  4.3491   9
   4  -6  10 87.8977  4.1627   8
   6   4  10 93.5215  4.7824   8
  -4  -6 -10 96.8707  4.3488   1
  -6  -4  10 84.0386  4.3785   4
  -4   6  10 89.4476  3.4073   2
  -6   4 -10 84.3046  3.8015   1
  -6  -4  10 85.0159  4.3320   9
   6   4  10 88.5373  4.3754   6
   6  -4 -10 84.1073  3.9696   1
   4   6 -10 85.4244  4.0365   1
   6   4  10 93.7938  3.1252   2
  -6  -4  10 87.9861  3.2222   2
  -4  -6  10 95.4538  6.4593   7
  -6  -4 -10 86.2497  4.1784   1
  -6   4  10 83.7915  3.3750   2
  -4  -6  10 88.7623  3.0567   2
   4   6  10 83.9015  5.1120   6
   4  -6 -10 84.7833  4.0942   1
  -4   6 -10 90.8755  4.0387   1
   6   4 -10 84.7181  4.1669   1
  -6   4  10 88.3208  4.2464   9
  -6   4  10 90.0640  4.1274   4
  -4  -6  10 79.7264  4.2589   9
   4   6  10 85.3020  3.2227   2
   6  -4  10 87.0719  4.4774   8
  -4  -6  10 83.6233  4.7785   4
   6  -6  10 4.03067 1.55921   2
  -6  -6  10 3.32844 1.68140   2
   6  -6  10 2.70256 2.08605   8
  -6  -6  10 6.60506 3.68357   7
   6   6  10 3.68272 2.71135   6
  -6   6  10 5.56266 1.73203   2
   6   6 -10 2.34798 1.87072   1
  -6  -6  10 3.68780 2.16684   9
  -6   6 -10 5.30200 1.83297   1
   6  -6 -10 6.66327 2.01215   1
  -6   6  10 4.95236 2.21063   9
  -6  -6 -10 4.91932 2.07696   1
   6   6  10 3.93907 1.61723   2
  -6  -6  10 5.74917 2.38040   4
   1  -7  10 3.77141 1.96364   7
   7   1  10 4.63403 2.68637   8
   1  -7  10 3.73311 2.36609   4
  -7  -1  10 6.94191 1.81831   4
  -1   7  10 4.99448 1.94529   6
  -1  -7 -10 3.74960 1.60454   1
  -1   7  10 4.00268 1.45997   2
  -7  -1  10 1.89924 2.02386   7
   1   7 -10 3.81098 1.57330   1
  -7  -1  10 2.32390 1.80211   9
  -7   1 -10 5.59800 1.70799   1
   7   1  10 3.17570 1.10422   2
   1  -7  10 1.45373 1.54946   9
   7  -1 -10 3.98689 1.71313   1
  -7  -1  10 7.16933 1.46976   2
  -7  -1 -10 4.07045 1.64014   1
   1  -7 -10 4.83254 1.62712   1
   7  -1  10 9.53530 2.54278   8
  -7   1  10 4.15283 1.69164   9
  -1  -7  10 0.47711 2.12941   7
  -1  -7  10 6.49114 1.92425   9
   1   7  10 2.34811 2.10319   6
  -7   1  10 4.20445 1.37044   2
  -1  -7  10 4.07605 2.33058   4
   7   1 -10 3.20694 1.71699   1
  -1   7 -10 2.03652 1.55635   1
  -7  -3  10 40.7537  3.2328   9
  -7  -3  10 47.1204  4.3072   7
   7  -3 -10 44.3135  3.1491   1
   7   3  10 41.8680  4.4312   8
  -3   7  10 43.5939  2.6789   2
  -7   3 -10 41.5267  3.0780   1
   3   7 -10 40.2991  3.1092   1
  -3   7  10 39.9432  3.0381   6
  -7  -3  10 42.2755  2.5562   2
   7   3  10 46.9636  2.4535   2
  -7  -3  10 42.0924  3.2482   4
  -3  -7 -10 48.4282  3.3019   1
  -3   7 -10 40.6454  3.0331   1
  -3  -7  10 46.1499  2.5089   2
  -3  -7  10 36.2756  4.1891   4
   3  -7 -10 42.3960  3.0845   1
   3   7  10 43.1543  2.6587   2
  -7   3  10 39.1214  3.2758   9
   7  -3  10 44.9412  2.2010   2
  -7   3  10 37.4312  2.5401   2
  -3  -7  10 38.7621  3.2966   9
  -3  -7  10 39.4725  4.9038   7
   3   7  10 36.6443  4.4697   6
  -7  -3 -10 42.5792  3.1011   1
   7   3 -10 45.5923  3.1736   1
   7  -3  10 37.1588  3.7850   8
  -7  -5  10 50.7924  3.9145   4
  -5   7  10 43.4152  3.5263   9
  -7  -5  10 44.3563  3.7298   9
  -5  -7 -10 42.6355  3.4337   1
  -5   7  10 47.5905  3.0247   2
   7   5  10 52.1784  2.9722   2
  -7   5 -10 46.1781  3.3311   1
   5  -7  10 49.2337  2.7359   2
  -7   5 -10 48.0270  3.3127   1
  -7  -5  10 51.5764  5.5759   7
  -7   5 -10 46.5954  4.0634   5
  -7  -5  10 48.0908  2.9840   2
   7  -5 -10 51.4768  3.6010   1
   5   7 -10 45.4883  3.5213   1
   7   5  10 48.1183  3.9082   6
  -5  -7  10 50.6640  3.8619   9
   5   7  10 49.8939  3.0035   2
  -5   7 -10 47.4408  3.3856   1
  -5  -7  10 44.6525  2.8751   2
  -7   5  10 41.5733  3.6035   9
  -5  -7  10 52.9132  6.8608   7
   7  -5  10 47.8556  3.9402   8
   5  -7 -10 48.4772  3.5016   1
  -5  -7  10 39.4306  4.3030   4
   5   7  10 47.0036  4.9783   6
  -7   5  10 49.5458  3.0654   2
   7  -5  10 46.8466  2.6685   2
  -7  -5 -10 39.5652  3.3946   1
   7   5 -10 48.5222  3.7664   1
  -7  -7  10 8.40338 2.18067   2
  -7  -7 -10 12.5431  2.8525   1
  -7  -7  10 11.2865  4.5486   7
   7   7 -10 5.85492 2.35404   1
   7  -7 -10 9.40503 2.45606   1
  -7  -7  10 7.61269 2.70281   4
  -7   7 -10 6.55302 2.20877   1
  -7  -7  10 8.87688 2.58726   9
   7  -7  10 13.8553  2.1708   2
  -7   7  10 5.01812 2.41561   9
   7   7  10 9.06376 2.12324   2
  -7   7  10 7.11339 2.10319   2
   0  -8  10 451.146  13.660   4
   0   8 -10 430.802  10.925   1
   0  -8  10 437.721  12.515   7
   0  -8 -10 458.959  11.203   1
   0   8  10 451.858  10.140   2
  -8   0  10 431.761  11.001   9
   0   8  10 446.432  11.808   6
   8   0  10 443.112  13.344   8
   8   0 -10 453.926  11.227   1
  -8   0  10 436.345  10.006   2
   0  -8  10 454.406  10.932   9
  -8   0 -10 436.733  10.933   1
   8   2  10 31.6021  2.3379   2
  -8  -2  10 31.9568  3.7087   7
   2  -8  10 37.7529  3.1420   9
   2  -8  10 27.5401  3.6671   4
  -8   2 -10 30.3235  2.8097   1
  -8  -2  10 29.4592  2.4667   2
   8  -2 -10 26.9634  2.9923   1
   2   8 -10 28.6996  2.9675   1
   8   2  10 30.5453  4.8498   8
  -2  -8 -10 29.5255  3.1260   1
  -2   8  10 28.9890  2.6001   2
  -8  -2  10 32.4200  3.4204   9
   2  -8  10 31.3745  2.3100   2
  -2   8  10 33.0900  3.2728   6
   8  -2  10 30.1466  2.2368   2
   2   8  10 27.2547  2.4789   2
  -8  -2 -10 34.8075  2.9747   1
   8  -2  10 33.2320  3.9191   8
  -2  -8  10 30.1806  3.2561   9
   8   2 -10 41.1880  3.4092   1
  -8   2  10 29.7055  3.2484   9
  -2  -8  10 24.9177  4.0526   4
  -8   2  10 29.0533  2.5286   2
   2   8  10 30.6006  4.2805   6
  -2  -8  10 27.6311  2.3273   2
   2  -8 -10 33.5263  3.0164   1
  -2   8 -10 31.5411  2.9216   1
  -2  -8  10 29.5991  4.3549   7
  -4  -8 -10 9.70171 2.50638   1
   4   8 -10 6.00991 2.19977   1
   4  -8  10 7.10031 1.85622   2
   8   4  10 9.73221 3.39044   8
  -8  -4  10 5.14455 1.81120   2
  -8  -4  10 4.54763 3.03520   7
   8  -4 -10 7.63213 2.27090   1
   8   4  10 9.27027 1.93966   2
  -4   8  10 6.58459 1.93273   2
  -8   4 -10 12.3692  2.3525   1
  -8  -4  10 10.4635  2.5778   9
   8  -4  10 7.58971 1.74243   2
   4  -8 -10 8.61624 2.30507   1
   4   8  10 5.32794 3.60354   6
  -4  -8  10 4.50074 3.96738   7
  -4  -8  10 8.01084 2.44579   9
  -4  -8  10 8.03674 3.11337   4
   8  -4  10 9.32796 2.69215   8
   4   8  10 9.28269 1.97134   2
  -8  -4 -10 7.38921 2.22135   1
  -8   4  10 4.96202 1.83218   2
  -4  -8  10 8.57224 1.96211   2
  -4   8 -10 7.69845 2.08779   1
  -8   4  10 12.3204  2.5721   9
   8   4 -10 7.46356 2.22256   1
   6   8 -10 286.776   9.034   1
  -6  -8 -10 290.686   9.140   1
   8   6  10 283.004   7.863   2
  -8   6 -10 283.190   9.999   5
   6  -8  10 298.537   7.558   2
  -6   8  10 294.705   8.941   9
  -8  -6  10 270.019   8.900   9
   8  -6 -10 287.657   9.073   1
  -8  -6  10 268.569  11.621   7
  -6   8  10 275.028   8.006   2
  -8  -6  10 281.697   7.995   2
  -8   6 -10 275.089   8.660   1
  -8  -6  10 280.974   9.049   4
  -8   6 -10 274.562   8.677   1
   8  -6  10 288.752   7.453   2
   8   6 -10 275.889   9.108   1
   6   8  10 289.694   8.005   2
  -6  -8  10 278.400   7.893   2
  -6   8 -10 276.900   8.662   1
  -6  -8  10 284.407   9.939   4
  -8   6  10 275.004   8.887   9
  -8   6  10 284.021   8.118   2
  -6  -8  10 257.920  14.194   7
  -6  -8  10 275.239   8.974   9
   6  -8 -10 279.649   8.976   1
  -8  -6 -10 283.217   9.120   1
  -1  -9 -10 2.67400 2.01216   1
   1  -9  10 5.80176 1.85347   2
   1  -9  10 -0.6221  1.7820   9
  -1   9  10 2.51800 1.78762   2
   1   9 -10 2.50640 1.98738   1
   9   1  10 7.51634 3.98703   8
   1  -9  10 2.48401 3.09420   4
   9  -1 -10 1.76529 2.03599   1
  -9   1 -10 4.39824 1.92666   1
  -9  -1  10 3.75228 2.18740   9
   9   1  10 3.63969 1.66386   2
  -9  -1  10 4.66044 1.83133   2
  -1   9  10 3.80227 2.29026   6
   1   9  10 4.03665 1.82551   2
  -9  -1 -10 1.00778 1.78291   1
   9  -1  10 0.13088 2.81302   8
  -1  -9  10 2.16658 3.57042   4
  -1  -9  10 3.37210 1.75595   2
   1  -9 -10 4.42098 2.06808   1
  -1   9 -10 2.94782 1.98631   1
  -1  -9  10 2.80316 2.90131   7
   1   9  10 5.79428 2.85234   6
  -9   1  10 2.24039 1.66938   2
   9   1 -10 2.29159 2.04552   1
   9  -1  10 1.01993 1.56347   2
  -9   1  10 7.81130 2.46741   9
  -1  -9  10 2.56016 2.15633   9
   3   9 -10 118.718   5.530   1
   9   3  10 135.219   4.818   2
   9  -3 -10 127.255   5.694   1
  -9  -3  10 124.882   4.922   2
   3  -9  10 137.335   4.813   2
  -3  -9 -10 129.207   5.906   1
   9   3  10 124.640   8.350   8
  -9  -3  10 118.847   5.851   9
  -9   3 -10 122.501   5.405   1
  -3   9  10 125.837   5.047   2
  -9   3  10 115.292   5.687   9
   3   9  10 121.320   4.816   2
   3  -9 -10 116.144   5.512   1
  -3  -9  10 130.686   4.837   2
   9  -3  10 137.027   4.681   2
   9  -3  10 141.104   6.905   8
   9   3 -10 139.171   5.968   1
  -3  -9  10 123.782   7.590   4
  -9   3  10 125.620   4.977   2
  -9  -3 -10 130.964   5.731   1
  -3   9 -10 129.997   5.510   1
  -3  -9  10 142.445   8.839   7
  -3  -9  10 126.639   5.862   9
   5  -9  10 25.1044  2.6785   2
  -5   9  10 19.8555  3.1603   9
   9   5  10 24.4391  2.7540   2
  -9  -5  10 19.9946  4.1018   7
  -9   5 -10 28.0319  3.2941   1
   9   5  10 19.8727  4.3350   8
  -9  -5  10 26.1838  3.5470   9
  -9  -5  10 20.5182  2.7021   2
  -5   9  10 21.1666  2.7406   2
  -5  -9 -10 22.1740  3.3044   1
   9  -5 -10 21.2873  3.2378   1
  -9   5 -10 23.1427  3.8873   5
   5   9 -10 23.0953  3.2682   1
  -5  -9  10 19.1475  3.2460   9
  -9   5  10 28.9793  3.0417   2
  -5  -9  10 27.8234  2.9228   2
   9  -5  10 23.8407  2.6627   2
   5  -9 -10 18.3982  3.1153   1
  -5   9 -10 19.8945  3.0576   1
   9   5 -10 25.5384  3.4505   1
   9  -5  10 25.1167  3.6956   8
  -5  -9  10 23.1706  4.0843   4
  -9   5  10 29.7568  3.6749   9
  -5  -9  10 19.7705  6.1069   7
  -9  -5 -10 22.2378  3.2729   1
   5   9  10 21.8503  2.7414   2
   0 -10 -10 69.9769  4.5133   1
   0  10 -10 70.7471  4.3800   1
   0  10  10 70.1074  3.9496   2
   0 -10  10 75.2769  3.8250   2
  10   0 -10 73.4828  4.6466   1
   0 -10  10 68.1415  4.5132   9
 -10   0 -10 62.4721  4.1561   1
  10   0  10 82.6412  7.1190   8
 -10   0  10 64.8411  3.7911   2
   0 -10  10 59.7397  7.5323   4
 -10   0  10 64.1180  4.5317   9
  10  -2 -10 40.0763  3.9974   1
   2 -10  10 42.4480  3.2186   2
 -10  -2  10 45.9051  4.3105   9
   2  10 -10 36.2314  3.8202   1
  10   2  10 50.8919  7.8163   8
   2 -10  10 40.4543  5.0906   4
 -10  -2  10 37.8427  3.1604   2
  10   2  10 38.4028  3.0599   2
 -10   2 -10 46.4852  3.7529   1
  -2 -10 -10 43.8952  3.9155   1
  -2  10  10 40.8680  3.4122   2
  -2  10 -10 37.1401  3.4888   1
  10  -2  10 35.6241  4.8205   8
  -2 -10  10 42.5583  5.3596   7
   2  10  10 38.3515  3.3173   2
 -10   2  10 40.4193  3.2590   2
  -2 -10  10 38.3796  4.0530   9
  -2 -10  10 45.6918  3.3384   2
   2 -10 -10 35.3812  3.8038   1
 -10   2  10 46.4870  4.0510   9
  10   2 -10 37.2891  3.8849   1
 -10  -2 -10 38.3955  3.8598   1
  -2 -10  10 45.7841  6.3880   4
  10  -2  10 42.9930  3.0074   2
   0   1  11 3.58010 1.28772   6
  -1   0  11 0.91244 1.33444   7
  -1   0  11 9.59624 1.56214   6
   0  -1  11 4.73563 1.57869   7
   0   1  11 1.21510 1.32421   7
   0  -1  11 0.93938 1.26683   8
  -1   0  11 0.74940 1.24374   8
   1   0  11 -0.2857  1.2420   7
   1   0  11 2.27604 1.29397   8
   0   1  11 0.14254 1.12979   8
   1   0  11 -0.1788  1.0939   6
   0  -1  11 0.58668 1.13035   4
   0  -1  11 1.26460 1.26473   6
  -1   0  11 3.15120 1.33557   4
   0   1  11 2.02802 1.15634   4
   1   0  11 1.43569 1.06596   4
   1  -2  11 1938.96   37.78   7
   1  -2  11 1930.24   33.64   4
   1  -2  11 1937.76   34.86   8
  -2  -1  11 1973.57   35.17   8
   1   2 -11 2022.87   33.64   1
  -2  -1  11 1949.66   33.98   4
  -1  -2 -11 1993.02   33.82   1
  -1   2  11 1944.64   34.64   8
  -2  -1  11 1967.51   38.04   7
  -1   2  11 1982.90   37.88   7
   2   1  11 1924.79   34.86   8
   2  -1 -11 1957.36   33.74   1
  -2  -1  11 1947.36   33.46   6
  -2  -1  11 2013.51   33.03   9
  -2   1 -11 2015.47   33.46   1
   2   1  11 1962.12   33.63   4
  -1   2  11 1917.60   33.89   4
   2   1  11 1958.77   33.38   6
   1  -2  11 1932.52   33.34   6
  -1   2  11 1994.07   33.45   6
   2  -1  11 1895.95   33.20   6
   1   2  11 1986.20   33.59   6
   2  -1  11 1970.76   35.06   8
  -1  -2  11 1947.26   33.57   6
  -2   1  11 1966.62   33.34   6
  -2   1  11 1894.70   34.86   8
  -1  -2  11 1945.38   38.07   7
  -2  -1 -11 1962.85   33.61   1
   1  -2 -11 1995.37   33.80   1
  -1  -2  11 1955.83   35.04   8
  -2   1  11 1919.02   33.84   4
  -1  -2  11 1908.24   33.93   4
   2  -1  11 1984.29   33.50   4
   2  -1  11 1978.10   37.75   7
  -1   2 -11 1991.49   33.46   1
   2   1 -11 2007.27   33.68   1
  -2   1  11 1931.88   37.67   7
   1   2  11 1918.80   34.58   8
   1   2  11 1932.31   33.77   4
   3   0  11 0.50697 1.08735   4
   0   3  11 0.92866 1.31737   6
   0   3 -11 0.09774 0.79357   1
  -3   0  11 2.61246 1.51941   8
   0   3  11 0.88957 1.21969   4
   0  -3  11 0.70159 1.27438   8
   0  -3 -11 1.23093 0.88042   1
   0   3  11 -0.6247  1.1748   8
   3   0  11 -0.3599  1.1206   6
   3   0 -11 0.84840 0.83776   1
   0  -3  11 2.21489 1.36953   4
  -3   0 -11 -0.4167  0.7636   1
   0  -3  11 -0.2084  1.3944   7
  -3   0  11 3.29252 1.27793   6
  -3   0  11 -0.1593  1.1315   9
  -3   0  11 2.58134 1.40579   4
  -3   0  11 0.09455 1.37028   7
   3   0  11 -0.2342  1.3464   8
   2   3 -11 139.151   3.844   1
  -2   3  11 132.990   4.488   8
  -3   2 -11 129.418   3.569   1
  -2   3  11 134.229   4.496   6
   3  -2 -11 134.119   3.781   1
   3   2  11 132.118   4.610   6
   2  -3  11 131.410   4.912   7
   2  -3  11 129.755   4.697   8
   2  -3  11 141.206   4.500   4
   2  -3  11 133.890   4.576   6
  -2   3  11 127.962   4.667   4
   3   2  11 128.575   4.402   4
  -3  -2  11 139.077   5.476   7
  -3  -2  11 133.860   4.471   9
   3   2  11 126.669   4.704   8
  -2  -3 -11 134.069   3.851   1
  -3  -2  11 128.671   4.723   4
  -3  -2  11 129.559   4.912   8
   3  -2  11 138.950   4.224   4
  -3   2  11 134.025   4.942   7
   3  -2  11 128.164   4.799   8
   2   3  11 132.962   4.781   6
  -3   2  11 128.993   4.686   8
  -3   2  11 130.406   4.366   6
   3  -2  11 129.159   4.818   7
   3  -2  11 128.705   4.330   6
  -2  -3  11 127.081   4.817   4
   3   2 -11 129.623   3.744   1
   2  -3 -11 130.536   3.769   1
  -3  -2 -11 126.875   3.694   1
  -2  -3  11 123.874   5.360   7
   2   3  11 137.937   4.655   4
  -3   2  11 136.320   4.219   9
  -2  -3  11 126.008   4.788   8
  -3   2  11 136.763   4.700   4
  -2  -3  11 135.989   4.362   9
  -2   3 -11 131.586   3.543   1
   2   3  11 125.975   4.439   8
   4   1  11 887.204  16.141   4
  -4  -1  11 861.447  18.840   7
  -4  -1  11 862.946  16.839   4
   4  -1 -11 863.298  16.340   1
   1  -4  11 847.024  17.013   8
  -1   4  11 829.453  16.910   4
  -4  -1  11 856.876  17.737   8
  -1   4  11 847.997  16.474   8
  -4   1 -11 856.086  16.050   1
  -1  -4 -11 857.441  16.370   1
   1   4 -11 830.263  16.187   1
   4   1  11 822.887  17.398   8
   1  -4  11 854.747  18.604   7
  -1   4  11 863.507  16.650   6
   4   1  11 848.919  16.287   6
  -4   1 -11 853.413  16.036   1
   1  -4  11 849.505  16.844   4
  -4  -1  11 865.095  16.430   9
  -4   1  11 870.367  18.409   7
   1   4  11 853.548  17.000   6
   4  -1  11 859.432  16.092   6
   1   4  11 856.607  16.509   8
   1  -4 -11 851.018  16.238   1
  -1  -4  11 845.391  16.053   9
  -4   1  11 845.791  16.649   4
  -1  -4  11 823.559  18.944   7
   1   4  11 856.003  17.031   4
  -4   1  11 852.383  17.551   8
   4   1 -11 852.018  16.258   1
  -1  -4  11 853.240  17.185   8
  -1  -4  11 853.325  17.215   4
   4  -1  11 848.795  17.528   8
  -1   4 -11 856.813  16.016   1
  -4   1  11 857.794  16.191   6
  -4  -1 -11 878.751  16.190   1
  -3  -4 -11 64.8102  3.0670   1
   3  -4  11 61.4673  3.5387   7
   3  -4  11 64.5788  3.4721   8
   4   3  11 64.0668  3.5100   6
  -4  -3  11 68.4147  3.8986   8
   4  -3 -11 72.1617  3.0522   1
   3   4 -11 60.1175  2.9938   1
  -3   4  11 66.0804  3.6122   4
  -4  -3  11 63.0757  4.1434   7
  -4   3 -11 65.4041  2.8341   1
  -4  -3  11 67.2144  3.4142   9
   4   3  11 68.5520  3.5781   8
   3  -4  11 62.5564  3.1250   4
  -4  -3  11 62.4002  3.4710   4
  -4   3  11 72.4623  3.6094   4
   4  -3  11 66.8770  3.5430   7
   3  -4 -11 63.2622  2.9112   1
  -4   3  11 67.6517  3.2619   6
  -3  -4  11 60.4559  3.3563   9
   3   4  11 66.0483  3.2866   8
  -4   3  11 68.4224  3.6602   7
  -3  -4  11 60.1026  3.5767   8
  -3  -4  11 66.3599  3.7175   4
   4   3 -11 64.1400  2.9884   1
  -4   3  11 64.6648  3.2196   9
  -4  -3 -11 64.1092  3.0015   1
  -3   4 -11 64.1639  2.8105   1
   4  -3  11 63.8650  3.6628   8
  -3  -4  11 65.1105  4.3579   7
   4  -3  11 68.3947  3.3038   6
   3   4  11 62.8635  3.6750   6
   5   0 -11 1.40832 1.21400   1
  -5   0  11 1.37285 1.42509   4
  -5   0  11 2.26737 1.62115   7
   0  -5 -11 1.01632 1.14357   1
   0   5  11 -2.2105  1.4914   4
  -5   0  11 0.05372 1.36937   9
   0   5 -11 2.48922 1.18256   1
   0  -5  11 -0.1071  1.6974   7
   5   0  11 1.71869 1.29638   6
   5   0  11 2.27772 1.78431   8
   0  -5  11 1.75615 1.33767   9
   0   5  11 3.11518 1.66249   6
   0  -5  11 1.83654 1.76789   4
   0  -5  11 1.58674 1.59223   8
  -5   0  11 0.36311 1.41470   6
  -5   0 -11 -1.1232  1.0501   1
  -2   5  11 1937.63   34.90   4
  -5   2 -11 1959.48   34.95   1
   2  -5  11 1959.58   35.16   8
   2   5 -11 1929.60   35.21   1
  -5  -2  11 1949.72   34.50   4
   5   2  11 1950.20   36.06   8
  -5  -2  11 1940.48   34.24   9
   5  -2 -11 1903.76   35.21   1
  -5  -2  11 1938.32   38.81   7
  -2  -5 -11 1910.94   35.34   1
  -5   2 -11 1967.08   34.97   1
  -2   5  11 1915.24   33.80   6
   5   2  11 1880.49   33.60   6
   2  -5  11 2019.99   34.56   4
   2  -5  11 1947.00   37.96   7
  -5  -2 -11 1944.89   35.16   1
  -2  -5  11 1917.89   35.35   8
  -5   2  11 2020.61   33.30   6
  -5   2  11 2024.40   34.11   9
  -2  -5  11 1870.17   39.19   7
   5  -2  11 1926.87   35.85   8
  -2   5 -11 1944.02   34.95   1
   2  -5 -11 1957.79   35.25   1
  -5   2  11 1976.41   34.30   4
   5   2 -11 1947.78   35.26   1
   2   5  11 1960.32   34.92   6
  -5   2  11 1959.46   37.68   7
  -2  -5  11 1884.97   35.28   4
  -2  -5  11 1973.96   34.04   9
  -4   5  11 881.287  16.727   6
  -4   5  11 911.846  17.363   9
  -5  -4  11 876.833  20.866   7
  -5  -4  11 851.609  18.049   4
  -5  -4  11 868.301  17.567   9
   5  -4 -11 839.475  17.493   1
  -5   4 -11 847.199  17.235   1
   4   5 -11 828.336  17.589   1
   4  -5  11 872.349  17.901   8
  -4   5  11 858.246  17.774   4
  -4  -5 -11 851.702  17.708   1
   5   4  11 839.984  17.607   6
   5   4  11 884.135  18.251   8
   5  -4  11 873.220  18.198   8
  -4   5 -11 865.492  17.327   1
  -4  -5  11 886.775  17.666   9
   4  -5 -11 835.746  17.502   1
  -4  -5  11 892.258  21.450   7
  -5  -4 -11 862.181  17.680   1
  -5   4  11 882.994  17.355   9
   5   4 -11 849.779  17.708   1
  -4  -5  11 857.863  18.429   4
  -5   4  11 868.895  17.508   4
   4   5  11 847.581  18.180   6
  -6  -1  11 275.188   7.551   4
   6  -1 -11 258.488   7.240   1
   1  -6  11 275.377   7.094   9
   1  -6  11 279.422   8.246   4
  -1   6  11 262.476   7.693   6
   6   1  11 276.396   8.745   8
  -6  -1  11 277.974   8.583   7
   1  -6  11 271.315   8.424   7
   1  -6  11 273.634   7.513   8
  -6  -1  11 273.341   7.681   9
   1   6 -11 273.479   7.205   1
  -6   1 -11 265.562   7.031   1
  -1  -6 -11 272.771   7.356   1
  -1  -6  11 275.097   7.734   8
   1  -6 -11 272.520   7.303   1
  -1  -6  11 277.320   7.470   9
  -6   1  11 271.209   7.603   9
   6   1 -11 270.924   7.329   1
   6  -1  11 280.269   8.542   8
  -6   1  11 273.496   7.424   4
  -1   6 -11 277.456   7.091   1
  -6  -1 -11 266.472   7.125   1
   1   6  11 280.044   8.269   6
  -6   1  11 278.454   8.151   7
  -1  -6  11 285.421   9.107   7
  -1  -6  11 280.883   8.708   4
   6   3  11 15.7107  2.3860   6
  -6   3 -11 15.7460  2.0937   1
   3   6 -11 14.2878  2.1241   1
   6  -3 -11 12.3180  2.0571   1
  -3   6  11 12.7025  2.1436   6
  -6  -3  11 12.0132  2.3407   9
  -6  -3  11 19.8218  3.2025   7
  -6   3 -11 16.4121  2.0928   1
   3  -6  11 15.8607  2.3250   8
  -3  -6 -11 16.2808  2.2778   1
   6   3  11 13.9802  2.7905   8
  -6  -3  11 14.2932  2.4148   4
  -6  -3 -11 11.0655  2.0124   1
   3   6  11 13.0463  2.6379   6
  -3  -6  11 8.12929 2.36914   4
   6   3 -11 13.1494  2.0803   1
  -3  -6  11 16.3825  2.5383   8
   6  -3  11 13.6123  2.6608   8
  -3  -6  11 24.4199  3.8178   7
   3  -6 -11 14.0767  2.1033   1
  -6   3  11 15.4838  2.3811   9
  -3   6 -11 11.5281  1.9263   1
  -6   3  11 22.0226  2.5897   4
  -3  -6  11 12.2600  2.3118   9
  -5   6  11 276.611   8.027   9
   6   5  11 256.563   8.362   6
  -5  -6 -11 265.558   7.994   1
  -6  -5  11 267.759   8.535   4
   5  -6  11 263.461   7.969   8
   5   6 -11 258.950   7.873   1
  -6   5 -11 280.947   7.700   1
   6  -5 -11 261.212   7.828   1
  -6  -5  11 267.807  10.519   7
  -6  -5  11 261.266   7.990   9
  -5   6  11 269.693   6.587   2
  -5  -6  11 269.106   8.138   9
  -5  -6  11 279.379  11.424   7
  -6   5  11 276.293   6.544   2
   6  -5  11 266.284   8.291   8
   5   6  11 272.608   9.168   6
  -5   6 -11 249.546   7.553   1
  -6   5  11 274.313   8.068   9
  -5  -6  11 260.760   8.803   4
  -6   5  11 269.515   8.042   4
   5  -6 -11 257.318   7.832   1
   6   5 -11 263.844   7.921   1
  -6  -5 -11 259.334   7.892   1
  -7   0  11 4.60960 1.88361   4
   0  -7  11 0.20347 1.96179   7
   7   0 -11 0.09413 1.56092   1
  -7   0  11 -0.3785  1.6414   9
   0  -7 -11 -1.7121  1.3141   1
   7   0  11 -1.4999  2.0920   8
   0   7 -11 0.37973 1.35267   1
  -7   0 -11 0.42869 1.43310   1
   0  -7  11 0.70627 2.24034   4
   0   7  11 1.89305 2.00030   6
   0  -7  11 2.65668 1.72372   9
   2  -7  11 364.859  10.077   4
   2  -7  11 368.886   8.977   9
  -7  -2  11 349.542   9.588   9
  -2   7  11 355.103   7.706   2
   7   2  11 355.784  11.092   8
  -2  -7 -11 368.237   9.522   1
   2   7 -11 355.740   9.371   1
   7  -2 -11 346.899   9.231   1
  -7  -2  11 364.864   9.324   4
  -7   2 -11 354.496   9.101   1
  -7  -2  11 374.259  10.923   7
  -2   7  11 360.191   9.412   6
   2   7  11 356.290  10.892   6
  -2   7 -11 354.171   9.050   1
  -7  -2 -11 346.234   9.222   1
  -2  -7  11 347.312  11.585   7
  -2  -7  11 354.484   9.445   8
  -2  -7  11 366.348   9.544   9
  -7   2  11 370.870   9.594   9
   7   2 -11 361.064   9.414   1
   2  -7 -11 353.312   9.234   1
   7  -2  11 352.441  10.403   8
  -2  -7  11 362.564  11.171   4
  -4  -7 -11 140.004   5.617   1
   4   7 -11 148.091   5.607   1
  -7   4 -11 146.043   5.460   1
  -7  -4  11 154.853   5.978   4
  -7   4 -11 148.556   5.471   1
   7   4  11 147.526   6.800   8
  -4   7  11 152.366   4.704   2
   7   4  11 155.748   5.918   6
   7  -4 -11 143.081   5.584   1
  -7  -4  11 132.181   5.769   9
  -7  -4  11 146.852   7.278   7
  -7   4  11 142.732   5.848   9
  -4  -7  11 153.363   8.692   7
   7   4 -11 148.744   5.716   1
  -4  -7  11 143.516   5.910   9
  -7  -4 -11 144.922   5.744   1
  -4  -7  11 130.651   6.647   4
   4  -7 -11 150.087   5.689   1
   7  -4  11 143.359   6.183   8
   4   7  11 153.683   7.474   6
  -4   7 -11 136.337   5.402   1
  -6  -7 -11 57.3190  4.1622   1
  -6   7  11 62.5650  3.4250   2
  -7  -6  11 64.4282  4.5850   4
   7  -6 -11 65.8713  4.1860   1
   7   6  11 63.3796  4.7828   6
  -7   6 -11 57.3936  3.8940   1
  -6   7  11 66.3974  4.3175   9
  -7  -6  11 61.6915  4.3606   9
  -7  -6  11 63.8342  6.3417   7
   6   7 -11 56.3945  4.0934   1
   6  -7 -11 56.8183  3.9949   1
   6   7  11 71.7776  5.5421   6
  -6  -7  11 51.5005  4.5520   4
   7  -6  11 71.9837  4.4285   8
  -7  -6 -11 65.0271  4.1902   1
   6   7  11 65.5402  3.2967   2
   6   7  11 66.1307  3.3250   2
   7   6 -11 57.0514  4.1953   1
  -6  -7  11 60.8513  4.1710   9
  -7   6  11 63.7742  4.3460   9
  -6  -7  11 62.7320  7.4565   7
  -6   7 -11 60.9294  4.0051   1
  -7   6  11 60.3020  3.3628   2
  -1   8  11 921.226  19.204   6
   1  -8  11 944.110  21.112   4
   1  -8  11 955.848  18.610   9
  -1  -8 -11 947.590  19.563   1
  -8  -1  11 926.516  19.229   9
  -8   1 -11 895.463  19.089   1
   8   1  11 927.143  22.136   8
  -8  -1  11 929.673  17.424   2
  -1   8  11 925.503  17.691   2
   1   8 -11 892.772  19.198   1
   8  -1 -11 945.347  19.486   1
  -1  -8  11 897.425  21.853   4
   1   8  11 895.500  17.506   2
  -8   1  11 919.689  17.495   2
  -8  -1 -11 911.172  19.167   1
   1  -8 -11 871.846  19.171   1
   1   8  11 890.873  20.304   6
  -1   8 -11 893.945  19.046   1
  -8   1  11 937.962  19.240   9
  -1  -8  11 911.221  18.786   9
   8   1 -11 906.509  19.418   1
   8  -1  11 899.469  21.129   8
  -1  -8  11 914.498  22.038   7
   3   8 -11 63.2203  3.9855   1
   8  -3 -11 65.3658  4.1195   1
  -8  -3  11 64.1618  4.8592   7
  -8   3 -11 61.8048  3.7524   1
   8   3  11 65.1983  5.8078   8
  -3   8  11 71.5682  3.4816   2
  -8  -3  11 64.1966  4.3355   9
  -3  -8 -11 64.9821  4.2026   1
   8   3 -11 62.8233  4.1412   1
  -3  -8  11 67.3653  6.1198   7
   3   8  11 66.2094  3.0988   2
   8  -3  11 67.7003  4.7437   8
  -8   3  11 60.1629  4.2046   9
  -3   8 -11 62.0557  3.7394   1
  -3  -8  11 58.0428  4.1733   9
   3  -8 -11 62.2097  3.9555   1
   3   8  11 61.6818  6.0774   6
  -8   3  11 61.0726  3.1217   2
  -8  -3 -11 60.0772  3.8508   1
  -3  -8  11 55.0175  5.4864   4
   8  -5 -11 927.948  20.381   1
  -8  -5  11 954.405  24.165   7
  -5  -8 -11 958.405  20.663   1
  -8  -5  11 948.641  20.033   4
  -8  -5  11 949.879  20.221   9
  -5   8  11 962.577  18.974   2
  -8   5 -11 950.883  22.495   5
   5   8 -11 961.280  20.540   1
  -8   5 -11 910.425  20.064   1
  -8   5 -11 920.728  20.086   1
   8   5 -11 939.490  20.658   1
  -5  -8  11 893.975  21.458   4
   8  -5  11 975.466  20.841   8
  -5  -8  11 864.045  27.197   7
  -8   5  11 954.311  18.879   2
   5  -8 -11 945.569  20.464   1
  -8  -5 -11 936.069  20.572   1
  -5  -8  11 950.074  20.086   9
  -5   8 -11 945.606  20.268   1
   5   8  11 906.019  18.456   2
   0  -9  11 4.82168 2.61105   7
   9   0 -11 3.07344 2.11582   1
   0  -9 -11 -0.5685  1.8905   1
  -9   0  11 1.92588 1.70841   2
   9   0  11 10.0655  3.7724   8
  -9   0  11 -0.4122  2.0338   9
   0   9  11 2.66962 1.71174   2
   0  -9  11 -0.1967  2.0856   9
  -9   0 -11 2.52237 1.87998   1
   0   9 -11 -0.3223  1.8839   1
   0   9  11 0.71878 2.32986   6
   0  -9  11 -1.8447  3.2405   4
  -2  -9 -11 341.087  10.051   1
  -9  -2  11 332.033   9.995   9
  -9  -2  11 349.528   8.405   2
   2  -9  11 339.989   9.502   9
   9   2  11 373.710  14.038   8
   2   9 -11 338.473   9.810   1
  -2   9  11 352.847   8.688   2
   9  -2 -11 330.166   9.902   1
  -2   9  11 333.579   9.641   6
  -9   2 -11 328.338   9.595   1
  -2  -9  11 331.024  12.254   7
  -9   2  11 337.563   9.847   9
  -2   9 -11 340.179   9.603   1
  -2  -9  11 341.394   9.819   9
  -2  -9  11 324.791  12.712   4
  -9  -2 -11 326.879   9.640   1
  -9   2  11 358.196   8.630   2
   9   2 -11 334.972   9.870   1
   9  -2  11 339.363  11.450   8
   2  -9 -11 327.842   9.735   1
   2   9  11 341.738   8.446   2
  -9  -4  11 172.094   7.069   9
   9   4  11 166.440   8.897   8
  -9   4 -11 162.782   6.400   1
  -9  -4  11 174.714   8.343   7
  -4  -9 -11 164.785   6.855   1
   4   9 -11 167.122   6.684   1
  -4   9  11 178.175   5.889   2
   9  -4 -11 164.500   6.717   1
  -9   4  11 169.884   6.873   9
  -9  -4 -11 164.365   6.716   1
   9   4 -11 159.521   6.823   1
  -4   9 -11 166.945   6.631   1
  -4  -9  11 173.091   8.552   4
   9  -4  11 173.234   7.636   8
  -4  -9  11 168.478   6.946   9
  -4  -9  11 175.117  10.604   7
   4  -9 -11 169.032   6.741   1
   4   9  11 180.039   5.699   2
  -9   4  11 177.498   5.902   2
 -10   1 -11 54.1456  4.0227   1
 -10  -1  11 55.9816  4.4331   9
   1 -10  11 54.2204  6.1730   4
  -1  10  11 56.4654  3.5946   2
  -1 -10 -11 56.9745  4.3676   1
   1  10 -11 58.9854  4.2894   1
   1 -10  11 60.0429  4.2247   9
 -10  -1  11 55.2395  3.4378   2
  10  -1 -11 52.8114  4.3724   1
  10   1  11 53.0892  7.2929   8
  -1 -10  11 47.8632  7.1453   4
 -10   1  11 56.8982  3.5328   2
 -10   1  11 57.1196  4.3825   9
  10  -1  11 60.8013  6.4146   8
  -1 -10  11 57.5741  4.2683   9
  -1 -10  11 55.1050  5.2444   7
   1 -10 -11 53.3796  4.1287   1
   1  10  11 59.3531  3.5595   2
 -10  -1 -11 48.8464  3.9575   1
  10   1 -11 63.3165  4.5667   1
  -1  10 -11 51.3040  4.0193   1
   0   0  12 3435.31   58.17   8
   0   0  12 3430.96   56.29   4
   0   0  12 3269.72   62.93   7
   0   0  12 3359.50   55.49   6
   1   1  12 2.02376 1.36960   4
   1  -1 -12 1.17537 0.61019   1
  -1  -1  12 0.73928 1.34998   4
  -1   1  12 0.04497 1.13118   6
   1   1  12 1.98510 1.33429   8
  -1  -1 -12 3.69095 0.61172   1
   1  -1  12 2.36530 1.57110   7
  -1   1  12 1.27964 1.48952   7
   1  -1  12 1.50448 1.39276   8
  -1   1  12 1.98731 1.41373   8
   1  -1  12 1.86453 1.34739   4
   1  -1  12 1.51412 1.31594   6
   1   1 -12 1.56243 0.51629   1
  -1  -1  12 0.84281 1.41419   8
   1   1  12 -0.0340  1.2611   6
  -1   1  12 2.24873 1.39764   4
  -1  -1  12 4.99098 1.71040   7
  -1  -1  12 1.13689 1.16611   6
   0   2  12 61.6928  3.1634   8
   0   2  12 68.2167  3.3782   6
   0  -2  12 64.2250  3.2788   4
   0   2 -12 63.2983  1.8857   1
   0   2  12 67.3166  3.4089   4
   0  -2  12 62.9107  3.3327   8
   0  -2 -12 68.4801  2.1067   1
   2   0  12 68.5950  3.1654   4
   0  -2  12 65.4884  3.2996   6
  -2   0  12 63.9092  3.2770   6
  -2   0 -12 64.2800  1.8353   1
   2   0 -12 71.3066  2.0610   1
   2   0  12 63.9161  3.1968   6
   0  -2  12 63.7757  3.7212   7
  -2   0  12 67.0495  3.3355   4
  -2   0  12 68.1598  3.5400   8
  -2   0  12 65.0919  3.6006   7
   2   0  12 74.4397  3.5543   8
  -2  -2  12 827.650  18.674   7
  -2   2  12 835.852  18.219   7
  -2  -2  12 809.731  16.628   4
   2   2  12 857.569  16.449   4
  -2   2 -12 852.510  15.086   1
  -2   2  12 831.222  16.796   8
  -2   2  12 839.998  16.178   6
   2   2  12 833.986  16.799   8
  -2  -2  12 828.551  16.489   6
  -2  -2 -12 828.262  15.387   1
   2  -2  12 834.971  18.207   7
  -2   2  12 835.204  16.556   4
   2  -2 -12 836.740  15.361   1
   2  -2  12 838.625  16.119   4
   2  -2  12 843.914  17.091   8
  -2  -2  12 849.516  17.249   8
   2   2  12 822.648  16.359   6
   2  -2  12 841.613  16.168   6
   2   2 -12 835.168  15.325   1
   3   1  12 1132.27   20.56   4
  -1  -3 -12 1109.33   20.31   1
  -1   3  12 1097.84   21.14   4
  -1   3  12 1121.79   20.80   6
  -3  -1  12 1109.31   23.61   7
   1  -3  12 1080.66   21.45   8
  -3  -1  12 1105.45   21.09   4
   3  -1 -12 1136.85   20.24   1
   1   3 -12 1107.78   20.13   1
   1  -3  12 1140.29   20.96   4
  -3   1 -12 1116.21   19.94   1
   1  -3  12 1102.16   20.79   6
  -3  -1  12 1112.06   21.94   8
  -3  -1  12 1134.98   20.36   9
  -3  -1  12 1139.37   20.89   6
  -1   3  12 1101.74   21.07   8
   1  -3  12 1107.16   23.40   7
   3   1  12 1128.72   21.80   8
   3   1  12 1108.24   20.64   6
   1   3  12 1115.87   20.98   6
  -3   1  12 1126.75   21.77   8
   3   1 -12 1134.67   20.20   1
  -3  -1 -12 1109.92   20.10   1
  -3   1  12 1096.95   23.17   7
  -3   1  12 1098.82   20.96   4
  -3   1  12 1111.87   20.55   6
   1   3  12 1102.16   21.06   4
   1  -3 -12 1137.18   20.23   1
   1   3  12 1101.84   21.11   8
   3  -1  12 1127.69   21.82   8
  -1   3 -12 1138.84   19.97   1
  -1  -3  12 1102.63   21.62   8
  -1  -3  12 1116.69   21.29   4
  -1  -3  12 1086.08   23.65   7
   3  -1  12 1123.49   20.35   4
   3  -1  12 1110.44   20.49   6
  -3  -3  12 510.506  12.275   8
  -3   3  12 521.905  11.807   4
   3  -3  12 521.905  12.142   8
   3   3  12 518.220  11.805   6
  -3  -3 -12 520.588  10.986   1
  -3  -3  12 520.948  13.568   7
  -3   3  12 529.174  11.872   8
  -3   3 -12 535.453  10.640   1
  -3  -3  12 524.852  12.125   4
   3  -3 -12 537.002  10.955   1
   3   3  12 526.452  11.705   4
  -3  -3  12 531.513  11.343   9
   3   3 -12 525.275  10.923   1
   3  -3  12 540.151  11.524   6
  -3   3  12 530.538  11.355   6
   3  -3  12 523.722  11.158   4
   3   3  12 534.261  11.934   8
   3  -3  12 549.124  12.815   7
  -4   0  12 17.5695  2.1090   9
  -4   0  12 11.3122  2.2399   7
   0   4  12 12.3443  2.1766   4
  -4   0  12 13.0889  2.0437   6
   0  -4  12 12.7893  2.0669   8
   0   4 -12 13.8304  1.5058   1
   4   0 -12 11.7499  1.5195   1
  -4   0 -12 14.7814  1.5086   1
   0   4  12 13.0791  1.9171   8
   0   4  12 10.8075  1.9234   6
  -4   0  12 9.62682 1.89170   4
   4   0  12 14.2626  1.9837   6
   0  -4  12 11.2496  2.3570   7
   0  -4 -12 13.2922  1.5481   1
   0  -4  12 13.1027  2.1927   4
  -4   0  12 12.2514  2.2864   8
   4   0  12 13.7405  2.2971   8
  -4  -2  12 988.527  20.310   8
  -4  -2  12 954.671  21.628   7
  -4  -2  12 994.158  18.877   9
  -4   2 -12 988.594  18.437   1
  -4  -2  12 985.635  19.469   4
   4   2  12 986.147  18.773   4
  -2   4  12 984.377  18.868   6
   4   2  12 979.904  19.949   8
   2   4 -12 1011.70   18.77   1
   4   2  12 963.852  18.870   6
   2  -4  12 990.240  19.636   8
  -2   4  12 992.656  19.472   4
  -2  -4 -12 987.721  18.864   1
   2  -4  12 973.317  21.064   7
   2  -4  12 1012.58   19.11   4
   4  -2 -12 945.338  18.665   1
  -2  -4  12 1019.93   18.74   9
  -4  -2 -12 994.971  18.696   1
   4   2 -12 989.572  18.772   1
   4  -2  12 988.791  18.504   6
   2   4  12 957.423  19.104   8
  -4   2  12 1012.90   18.62   9
  -4   2  12 996.705  19.216   4
   4  -2  12 980.755  20.051   8
  -2   4 -12 1009.20   18.46   1
  -4   2  12 985.814  20.984   7
   2   4  12 991.539  19.511   4
   2  -4 -12 1013.09   18.79   1
  -2  -4  12 971.250  19.822   8
  -2  -4  12 960.785  21.971   7
  -4   2  12 1009.74   18.61   6
   2   4  12 968.582  19.408   6
  -4   2  12 970.761  19.876   8
  -2  -4  12 953.000  19.667   4
  -4  -4 -12 1155.22   22.77   1
  -4  -4  12 1183.20   26.45   7
   4   4  12 1203.21   23.33   8
  -4   4 -12 1191.09   22.48   1
  -4  -4  12 1216.23   22.57   9
   4  -4 -12 1186.67   22.75   1
   4   4 -12 1175.80   22.85   1
   4   4  12 1177.26   22.98   6
  -4  -4  12 1173.79   23.85   8
   4  -4  12 1205.18   23.56   8
  -4  -4  12 1188.60   23.41   4
  -4   4  12 1223.83   21.95   6
  -4   4  12 1195.28   22.96   4
   1  -5  12 45.7415  3.5024   7
  -5   1 -12 43.6000  2.4303   1
   1  -5  12 47.9940  3.1434   8
   1   5 -12 45.0403  2.6023   1
  -1   5  12 47.5220  3.2734   6
  -5  -1  12 47.8390  3.1434   9
  -1   5  12 42.0409  3.2182   4
   5   1  12 48.4297  3.5812   8
   5  -1 -12 46.8507  2.6620   1
  -5  -1  12 48.2432  3.2701   4
   5   1  12 45.7885  2.9382   6
  -5  -1  12 50.1649  3.6834   7
  -1  -5 -12 46.7619  2.6784   1
   1  -5  12 47.8407  3.3769   4
  -5  -1 -12 49.5078  2.6583   1
  -5   1  12 51.0204  3.0415   6
  -1  -5  12 49.4094  3.9321   7
   5   1 -12 49.6310  2.7870   1
  -1   5 -12 45.1459  2.5052   1
  -5   1  12 52.9782  3.2733   9
   1  -5 -12 47.1013  2.7430   1
  -1  -5  12 44.0045  3.5554   4
  -5   1  12 44.9736  3.4697   7
   5  -1  12 51.3489  3.4072   8
   1   5  12 39.6479  3.1271   6
  -1  -5  12 45.5980  2.9183   9
  -5   1  12 50.6479  3.2267   4
  -1  -5  12 48.2293  3.2679   8
   5  -1  12 45.1326  2.9436   6
   3  -5  12 345.073   8.994   8
   3  -5  12 348.040   8.586   4
  -5  -3  12 334.665  10.421   7
   5   3  12 337.572   9.340   8
  -3   5  12 326.940   9.117   4
  -3   5  12 343.565   8.575   6
  -5  -3  12 340.147   8.831   9
  -5  -3  12 321.016   9.021   4
   3   5 -12 323.675   8.291   1
  -3  -5 -12 340.111   8.476   1
   5  -3 -12 336.824   8.324   1
  -5   3 -12 337.946   8.113   1
   5   3  12 315.050   8.746   6
  -5  -3 -12 339.320   8.382   1
   3  -5 -12 330.791   8.322   1
  -5   3  12 338.585   8.578   9
  -3  -5  12 328.375   8.631   9
  -3   5 -12 337.161   8.074   1
  -3  -5  12 322.644   9.520   4
   5  -3  12 330.684   9.337   8
   3   5  12 334.144   9.445   6
  -3  -5  12 332.848   9.218   8
   5   3 -12 335.253   8.366   1
  -3  -5  12 332.196  10.784   7
  -5   3  12 326.465   8.763   4
  -5  -5  12 95.0893  4.9591   4
   5   5 -12 100.223   4.447   1
   5  -5 -12 91.2261  4.2537   1
  -5   5  12 101.696   4.857   4
  -5  -5  12 95.1828  4.7273   9
  -5   5 -12 95.2263  4.0813   1
  -5  -5 -12 92.2431  4.3281   1
  -5  -5  12 95.9431  6.2560   7
   5  -5  12 93.8470  4.6833   8
   5   5  12 94.8470  5.0280   6
  -6   0 -12 2412.51   43.32   1
   6   0  12 2426.25   44.73   8
  -6   0  12 2440.99   42.21   9
   0  -6  12 2438.42   47.66   7
  -6   0  12 2470.94   47.10   7
  -6   0  12 2406.13   42.11   4
   0   6 -12 2396.44   43.31   1
   0  -6 -12 2434.67   43.57   1
   0  -6  12 2398.54   41.45   9
   0   6  12 2359.02   42.31   6
   0  -6  12 2433.05   43.46   4
   0  -6  12 2442.21   43.34   8
   6   0 -12 2406.58   43.62   1
  -6  -2  12 60.0936  4.2863   7
   6   2  12 55.8549  3.4147   6
   2  -6  12 56.3512  3.7772   4
  -2  -6 -12 55.1190  3.3318   1
   6   2  12 60.4637  4.3157   8
  -6   2 -12 59.5094  3.2045   1
   2  -6  12 61.1229  3.7062   8
  -6  -2  12 55.5450  3.6190   4
   2  -6  12 54.5933  3.7557   7
  -2   6  12 57.7012  3.6108   6
   2   6 -12 62.4586  3.3442   1
  -6  -2  12 57.1169  3.6885   9
   6  -2 -12 57.3888  3.2494   1
  -2  -6  12 56.2354  3.7902   8
  -6   2  12 62.7321  3.7584   4
  -6  -2 -12 55.9997  3.2184   1
   6   2 -12 58.6486  3.2776   1
   2  -6 -12 54.4351  3.1942   1
  -6   2  12 58.5665  3.5731   9
   6  -2  12 58.6551  4.0625   8
  -2   6 -12 54.3027  3.0288   1
  -2  -6  12 54.3116  3.4352   9
  -2  -6  12 57.6359  4.6117   7
  -2  -6  12 56.8857  4.3056   4
   2   6  12 53.4131  4.1615   6
   4  -6  12 4.32562 2.03889   8
   6  -4 -12 4.70366 1.83808   1
   4   6 -12 2.90611 1.75659   1
   6   4  12 0.62201 2.09116   8
  -4  -6 -12 4.81934 1.83125   1
  -6  -4  12 6.20996 2.73274   7
  -6  -4  12 3.46858 2.08284   4
   6   4  12 4.52601 2.13714   6
  -6  -4  12 4.68763 2.13351   9
  -6   4 -12 4.22184 1.66372   1
   6  -4  12 2.66245 2.08318   8
  -4   6 -12 5.72714 1.80331   1
   4  -6 -12 2.51777 1.71603   1
  -4  -6  12 1.73210 1.92378   9
  -4  -6  12 0.36837 2.27643   4
  -4  -6  12 -0.4762  2.7125   7
   6   4 -12 1.20299 1.71688   1
   4   6  12 4.71970 2.41004   6
  -6  -4 -12 4.87294 1.85862   1
  -6   4  12 2.45468 1.91013   9
  -6   4  12 3.31568 1.93853   4
  -6   6 -12 1432.87   28.06   1
   6   6  12 1432.10   28.67   6
   6  -6  12 1452.57   28.25   8
   6  -6 -12 1400.45   28.27   1
   6   6 -12 1409.29   28.46   1
  -6  -6  12 1399.39   28.59   4
  -6  -6 -12 1429.69   28.50   1
  -6   6  12 1487.98   27.70   9
  -6  -6  12 1450.73   27.86   9
  -6  -6  12 1434.07   34.13   7
   1   7 -12 9.83244 1.95744   1
   7   1  12 7.05281 2.82780   8
  -7   1 -12 8.26637 1.91851   1
   1  -7  12 8.12507 2.76385   4
  -7  -1  12 9.84378 2.23660   4
  -1  -7 -12 14.4308  2.3270   1
   7  -1 -12 8.43310 1.96958   1
   1  -7  12 6.06344 2.30554   7
  -7  -1  12 8.06060 2.30776   9
  -7  -1  12 5.62618 2.30177   7
  -1   7  12 8.13990 2.27905   6
  -1  -7  12 13.4569  2.3826   9
  -1  -7  12 10.0591  2.7620   7
   1  -7 -12 4.72584 1.83679   1
   7  -1  12 10.4641  2.8978   8
   1   7  12 8.02761 2.59492   6
  -7   1  12 10.7189  2.3869   9
  -1  -7  12 6.41222 2.19369   8
  -7   1  12 10.9258  2.3258   4
  -1  -7  12 6.05417 2.50470   4
  -7  -1 -12 8.60925 1.89448   1
   7   1 -12 5.69866 1.87298   1
  -1   7 -12 8.89215 1.86186   1
   3   7 -12 991.438  20.579   1
  -7  -3  12 1005.76   23.44   7
  -3   7  12 1036.90   19.92   6
   7   3  12 1026.72   22.40   8
  -7  -3  12 976.118  20.375   9
  -3  -7 -12 987.458  20.732   1
  -7  -3  12 1016.43   20.50   4
   7  -3 -12 992.860  20.582   1
  -7   3 -12 1006.27   20.31   1
  -7   3  12 1030.46   20.38   9
   7  -3  12 956.547  21.452   8
  -7  -3 -12 988.641  20.562   1
   7   3 -12 992.793  20.643   1
  -3  -7  12 1008.68   20.96   8
  -3   7 -12 998.683  20.268   1
  -3  -7  12 954.880  21.958   4
   3   7  12 1020.65   22.49   6
  -3  -7  12 962.274  24.555   7
   3  -7 -12 975.632  20.546   1
  -3  -7  12 986.635  20.205   9
   7  -5 -12 10.4124  2.3847   1
  -7  -5  12 8.06333 2.48373   9
  -7  -5  12 11.5072  2.7418   4
   5   7 -12 7.21210 2.23379   1
  -7   5 -12 9.78124 2.27016   1
  -5  -7 -12 9.65448 2.49064   1
  -7  -5  12 10.4817  3.5249   7
   7   5  12 12.3523  2.8611   6
  -7   5 -12 8.76990 2.17416   1
  -5   7 -12 9.33324 2.15570   1
   7   5 -12 10.9961  2.5104   1
  -7  -5 -12 13.0036  2.4648   1
  -5  -7  12 7.68507 2.50054   9
  -7   5  12 14.2505  2.8426   9
  -5  -7  12 10.1326  3.0141   4
  -5  -7  12 9.59740 4.34692   7
   7  -5  12 10.9800  2.7230   8
   5  -7 -12 9.40635 2.31408   1
  -7   7  12 41.4792  4.2000   9
  -7  -7  12 31.7341  3.7632   9
  -7  -7  12 29.4676  5.7847   7
  -7  -7 -12 33.1715  3.6630   1
  -7  -7  12 36.3254  4.3198   4
   7   7 -12 35.1907  3.7570   1
  -7   7 -12 30.6807  3.4232   1
   7  -7 -12 27.2413  3.4239   1
   0   8  12 197.106   7.681   6
   0  -8 -12 202.611   6.984   1
   0  -8  12 212.255   6.894   9
  -8   0 -12 206.236   6.818   1
   0  -8  12 213.682   8.219   7
  -8   0  12 220.658   7.475   9
   8   0  12 204.396   8.835   8
   0  -8  12 210.999   8.888   4
   8   0 -12 209.879   7.043   1
   0   8 -12 211.758   6.804   1
   8  -2 -12 254.667   7.972   1
   2  -8  12 254.334   8.870   4
   8   2  12 261.548  10.392   8
  -8  -2  12 277.354   9.463   7
  -2  -8 -12 256.919   8.031   1
  -8  -2  12 253.429   8.317   9
  -8   2 -12 255.746   7.752   1
   2   8 -12 255.305   7.868   1
  -2   8  12 261.379   8.159   6
  -8  -2 -12 256.486   7.899   1
  -2   8 -12 251.729   7.667   1
   2  -8 -12 263.536   7.997   1
  -8   2  12 265.055   8.280   9
  -2  -8  12 258.193  10.305   7
   8  -2  12 238.527   9.129   8
  -2  -8  12 250.316  10.053   4
   2   8  12 253.309   9.732   6
  -2  -8  12 265.923   8.172   9
   8   2 -12 255.093   7.958   1
  -8  -4  12 285.475   9.125   9
   8   4  12 306.859  10.799   8
   4   8 -12 298.241   9.014   1
  -4  -8 -12 297.850   9.072   1
  -8  -4  12 304.710   9.098   4
  -8   4 -12 293.727   8.673   1
  -8  -4  12 307.043  11.047   7
   8  -4 -12 303.177   9.061   1
  -4  -8  12 311.249   9.265   9
  -4  -8  12 297.920  12.870   7
  -8   4  12 295.577   9.116   9
  -8  -4 -12 292.116   9.052   1
   4  -8 -12 296.495   8.957   1
  -4  -8  12 276.953  10.515   4
  -4   8 -12 288.194   8.674   1
   8   4 -12 295.666   9.145   1
   8  -4  12 283.580   9.577   8
  -9  -1  12 391.427  11.139   9
   1   9 -12 395.648  10.805   1
   1  -9  12 406.755  10.691   9
  -9   1 -12 400.959  10.804   1
   1  -9  12 408.048  13.093   4
   9   1  12 404.701  14.235   8
  -1  -9 -12 409.921  11.254   1
   9  -1 -12 405.174  11.084   1
   9   1 -12 390.267  10.960   1
  -1  -9  12 418.334  13.141   7
  -9   1  12 424.851  11.253   9
   9  -1  12 401.632  13.316   8
  -1   9 -12 391.118  10.723   1
   1  -9 -12 394.395  10.973   1
  -1  -9  12 381.618  13.988   4
  -9  -1 -12 413.295  10.974   1
  -1  -9  12 409.772  10.932   9
   9  -3 -12 130.289   5.835   1
   9   3  12 141.211   8.411   8
  -9  -3  12 141.361   6.393   9
   3   9 -12 125.675   5.797   1
  -3  -9 -12 137.197   6.106   1
  -9   3 -12 132.215   5.773   1
  -9  -3 -12 137.051   5.943   1
   9   3 -12 135.043   6.039   1
  -3  -9  12 126.173   7.889   4
   3  -9 -12 147.731   6.069   1
  -9   3  12 146.877   6.380   9
  -3   9 -12 137.977   5.880   1
  -3  -9  12 137.715   8.576   7
  -3  -9  12 133.658   6.117   9
   9  -3  12 136.892   7.238   8
   0  -1  13 1.97866 1.50549   7
  -1   0  13 1.38978 1.46990   7
   1   0  13 0.27707 1.47315   8
   0   1  13 -0.5573  1.2345   4
   0  -1 -13 0.66203 0.53554   1
   0   1  13 -0.4839  1.3351   7
   1   0  13 0.50576 1.37067   6
   0  -1  13 0.84058 1.45495   8
  -1   0  13 0.30238 1.41114   4
   1   0  13 0.07716 1.52147   7
   0  -1  13 2.62730 1.49705   4
   0   1  13 1.72101 1.31254   6
  -1   0  13 -2.1150  1.2792   6
   1   0  13 2.41933 1.45345   4
  -1   0  13 -0.2219  1.4463   8
   0  -1  13 3.31983 1.53689   6
   0   1  13 0.96456 1.39796   8
   1  -2  13 1.74597 1.52643   8
   2   1  13 5.13553 1.73407   8
  -2  -1  13 3.76721 1.54264   4
  -2  -1  13 7.63895 1.94514   8
   2   1  13 5.35809 1.67368   6
   1  -2  13 3.84471 1.84125   7
  -1   2  13 3.65159 1.54047   6
  -1   2  13 3.32582 1.54923   4
   1   2 -13 4.47429 0.88594   1
   1  -2  13 4.98836 1.68968   6
   2  -1 -13 3.79366 0.93291   1
   1  -2  13 4.82184 1.63219   4
  -1   2  13 4.93323 1.64323   8
  -2  -1  13 4.93070 1.96633   7
  -1  -2 -13 3.64550 0.96453   1
  -2  -1  13 1.65665 1.49806   6
  -2   1 -13 5.76317 0.84245   1
   2   1  13 4.05365 1.60460   4
   1  -2 -13 5.19513 1.01166   1
  -2  -1 -13 5.71865 0.92214   1
  -2   1  13 1.68960 1.64058   8
  -2   1  13 4.14721 1.58705   6
  -1  -2  13 1.42206 1.77188   7
   2   1 -13 3.86555 0.89107   1
   1   2  13 4.50695 1.52544   6
  -1  -2  13 5.32325 1.73702   8
  -2   1  13 3.09320 1.61563   4
  -2   1  13 3.51135 1.78203   7
  -1  -2  13 3.42852 1.53406   6
   1   2  13 5.50309 1.71733   4
  -1   2 -13 4.99688 0.81971   1
   2  -1  13 7.72399 1.80634   6
   2  -1  13 5.76292 1.63573   4
   1   2  13 3.97568 1.62332   8
   2  -1  13 4.86605 1.79538   8
   2  -1  13 4.19417 1.80976   7
  -1  -2  13 3.95229 1.65630   4
   0  -3  13 0.38164 1.75901   7
   0   3  13 -0.3857  1.5010   6
   3   0 -13 0.34459 0.93369   1
   0   3  13 0.76294 1.41064   8
  -3   0  13 -1.0082  1.3786   6
   3   0  13 -0.2349  1.3936   6
   0  -3  13 2.88944 1.69127   4
  -3   0  13 0.10306 1.45070   4
  -3   0  13 0.06902 1.63578   7
   0  -3  13 1.65450 1.51081   8
   3   0  13 1.37349 1.65859   8
  -3   0  13 2.68601 1.78736   8
   0   3  13 0.36937 1.55214   4
   3   0  13 0.66759 1.36763   4
   0  -3 -13 0.56064 0.99423   1
  -3   0 -13 1.55559 0.89427   1
   0   3 -13 1.62676 0.88709   1
  -2  -3 -13 24.2500  1.8874   1
  -3  -2  13 23.3125  2.9620   7
   2  -3  13 21.0676  2.4123   4
   2  -3  13 22.7010  2.5518   6
  -2   3  13 20.0845  2.4136   6
  -2   3  13 21.0186  2.5789   4
   3   2  13 22.8158  2.6836   8
  -3  -2  13 14.3911  2.2373   4
   2  -3  13 23.8346  2.7371   8
   3  -2 -13 21.4914  1.7552   1
   3   2  13 25.7837  2.6107   4
   2  -3  13 24.3693  2.8651   7
   2   3 -13 21.8804  1.8185   1
  -3   2 -13 22.7788  1.6613   1
  -2   3  13 24.8775  2.6581   8
  -3  -2  13 24.8693  2.9462   8
   3   2  13 21.9368  2.5365   6
   2   3  13 18.6568  2.4346   4
   3  -2  13 20.6029  2.6697   8
   3  -2  13 24.0811  2.3527   4
  -3   2  13 24.9584  2.5051   6
   2   3  13 20.7583  2.4508   8
   2   3  13 20.2905  2.5415   6
  -2  -3  13 21.1524  2.8808   7
  -2  -3  13 20.7486  2.5429   4
  -3   2  13 21.1101  2.6367   8
   3  -2  13 20.6582  2.3887   6
   3  -2  13 26.0633  2.9095   7
   3   2 -13 25.8477  1.8297   1
  -3   2  13 23.5892  2.7993   7
   2  -3 -13 22.4595  1.8177   1
  -2  -3  13 19.8149  2.5931   8
  -2   3 -13 23.1858  1.5834   1
  -3  -2 -13 23.1247  1.8101   1
  -3   2  13 22.2389  2.5027   4
   4   1  13 17.1310  2.5861   8
  -4  -1  13 17.6078  2.6926   7
   4  -1 -13 17.0384  1.8221   1
   1  -4  13 20.0508  2.6088   8
  -4  -1  13 19.8898  2.3474   9
  -4  -1  13 17.0344  2.7456   8
  -4   1 -13 17.4361  1.6794   1
   4   1  13 16.6908  2.3204   6
  -1   4  13 19.9782  2.4721   6
  -1  -4 -13 17.3929  1.8429   1
  -1   4  13 19.9906  2.6298   4
   1  -4  13 19.9860  2.8279   7
   1   4 -13 19.9603  1.8122   1
   1  -4  13 24.0377  2.6887   4
   4   1  13 21.2469  2.4209   4
  -4  -1  13 19.5877  2.5136   4
   4   1 -13 19.3697  1.8540   1
  -1  -4  13 17.8321  2.5263   8
   1   4  13 18.7976  2.5636   6
  -4   1  13 18.4640  2.2983   6
   4  -1  13 17.1284  2.2564   6
  -1   4 -13 20.5639  1.7574   1
  -4   1  13 20.7222  2.7506   8
   4  -1  13 20.5700  2.7393   8
  -4   1  13 20.8213  2.4663   4
  -4  -1 -13 20.7125  1.8425   1
  -1  -4  13 18.3125  2.9173   7
  -1  -4  13 21.7743  2.5890   4
  -4   1  13 19.7834  2.7523   7
   1   4  13 21.3216  2.5813   4
   1  -4 -13 19.8580  1.8755   1
   1   4  13 19.5707  2.3110   8
  -3   4  13 8.40683 2.01273   6
   4   3  13 5.24226 1.93781   4
   4   3  13 10.3534  2.1915   6
   4   3  13 8.18582 2.08820   8
   3  -4  13 11.7223  2.1291   4
   3   4 -13 6.17387 1.58092   1
  -4  -3  13 5.49934 2.43290   7
   3  -4  13 6.91887 2.19366   7
  -4  -3  13 8.13206 2.00461   9
  -3  -4 -13 6.41297 1.67964   1
  -4   3 -13 8.33015 1.49469   1
  -4  -3  13 7.16190 2.01255   4
   4  -3 -13 8.66386 1.66927   1
   3  -4  13 9.90195 2.23719   8
  -3   4  13 5.66203 1.89524   4
  -4  -3  13 9.29731 2.39389   8
  -3  -4  13 6.51663 2.16225   8
  -3  -4  13 6.83510 2.45177   7
  -4   3  13 7.77204 2.32019   8
  -4   3  13 9.87371 2.04511   4
  -4   3  13 6.64825 1.83785   6
   4   3 -13 7.80265 1.62655   1
  -4  -3 -13 8.09600 1.71633   1
  -3   4 -13 5.86912 1.40778   1
   4  -3  13 7.68468 2.18073   8
   4  -3  13 6.98055 2.14333   7
   3   4  13 6.46763 1.96255   8
   3  -4 -13 7.26255 1.55696   1
  -3  -4  13 7.83390 2.23685   4
   3   4  13 4.68932 2.03604   6
   4  -3  13 12.9285  2.1673   6
  -3  -4  13 8.40908 1.97666   9
   0   5  13 1.92498 1.79560   6
  -5   0  13 0.70010 1.79430   7
  -5   0  13 0.49371 1.68287   9
   5   0 -13 1.02439 1.31002   1
  -5   0  13 1.81219 1.53363   4
   0   5  13 0.27505 1.85071   4
   5   0  13 -0.1054  1.8933   8
   0  -5  13 4.24226 2.24573   7
   0  -5  13 -2.4545  1.7212   4
   0  -5 -13 1.40509 1.32057   1
   5   0  13 0.14574 1.49972   6
  -5   0  13 0.15205 1.64243   6
   0   5 -13 1.23040 1.25719   1
   0  -5  13 -0.2294  1.6445   8
  -5   0 -13 1.67304 1.27714   1
  -2  -5 -13 6.37142 1.61327   1
   5   2  13 5.17514 2.14736   8
  -2   5  13 8.25567 2.12186   4
  -5   2 -13 3.23188 1.39109   1
  -5  -2  13 4.16652 1.83714   4
   5  -2 -13 4.77075 1.57443   1
   2  -5  13 2.83429 1.82979   8
   2  -5  13 6.65275 2.10585   4
   2   5 -13 3.58570 1.51920   1
   2  -5  13 10.2833  2.4079   7
  -5  -2  13 4.87193 1.98579   9
  -2   5  13 2.50429 1.74632   6
   5   2  13 3.21343 1.75163   6
  -5   2 -13 5.13705 1.48241   1
  -5  -2  13 5.38410 2.36657   7
  -5   2  13 6.44939 2.10013   7
  -5   2  13 5.20981 1.96574   4
   2   5  13 1.89305 1.94916   6
  -2   5 -13 5.86626 1.48329   1
   2  -5 -13 6.34486 1.64368   1
  -2  -5  13 6.03743 2.49794   7
  -2  -5  13 3.88589 1.88085   9
  -2  -5  13 0.90304 2.00310   4
   5  -2  13 3.82825 2.13354   8
   5   2 -13 5.03862 1.63554   1
  -2  -5  13 7.96729 2.18390   8
  -5   2  13 2.54041 1.64284   6
  -5  -2 -13 5.45545 1.58161   1
  -5  -4  13 15.5543  3.2866   7
   5   4  13 22.8552  2.9828   6
   5  -4 -13 18.3195  2.2890   1
  -4   5  13 19.0758  2.8873   4
  -5  -4  13 20.5460  3.0493   4
  -5  -4  13 18.1082  2.6354   9
   4   5 -13 15.2393  2.2779   1
  -5   4 -13 18.9412  2.1877   1
  -4  -5 -13 16.9797  2.3489   1
   5   4  13 18.0454  2.8808   8
  -4   5  13 17.6574  2.4122   6
   4  -5  13 16.4345  2.6763   8
  -4  -5  13 15.5691  3.4716   7
   4   5  13 18.3958  2.9429   6
   4  -5 -13 20.3245  2.3807   1
  -4  -5  13 15.3087  2.6186   9
  -5  -4 -13 19.6010  2.4360   1
  -4  -5  13 22.2987  3.1799   8
   5   4 -13 18.2283  2.4206   1
  -4   5 -13 15.4944  2.1253   1
   5  -4  13 14.8221  2.7047   8
  -4  -5  13 17.7759  3.0236   4
  -5   4  13 20.8301  2.8271   4
   6   1  13 29.1829  3.4899   8
   1  -6  13 30.0599  3.3442   4
  -1  -6 -13 29.5640  2.6031   1
  -6  -1  13 30.5398  3.1615   4
   1  -6  13 30.1072  3.1181   8
   1   6 -13 30.1301  2.5685   1
  -6  -1  13 30.3140  3.1229   9
   1  -6  13 27.8843  3.4705   7
  -6  -1  13 31.7645  3.7072   7
  -6   1 -13 29.9870  2.5044   1
  -1   6  13 26.5207  3.0779   6
   6  -1 -13 30.7885  2.5690   1
  -6   1  13 33.6249  3.4928   7
  -6   1  13 32.1941  3.1291   9
   6  -1  13 22.4814  3.1750   8
  -1  -6  13 28.6720  3.6994   7
  -1  -6  13 32.1909  3.0689   9
  -6  -1 -13 31.5494  2.6043   1
  -1  -6  13 27.4791  3.5156   4
  -6   1  13 28.0498  3.0455   4
  -1  -6  13 33.1423  3.3447   8
   1  -6 -13 29.1207  2.5617   1
  -1   6 -13 30.1850  2.4395   1
   1   6  13 33.3893  3.5753   6
   6   1 -13 34.5898  2.7017   1
  -6  -3  13 2.03504 1.99375   9
   3   6 -13 5.49223 1.89296   1
   6   3  13 4.55176 2.50549   8
  -3  -6 -13 8.40584 2.00801   1
  -6  -3  13 5.66365 2.21337   4
  -3   6  13 3.87817 2.00529   6
   6   3  13 5.22050 2.05895   6
  -6   3 -13 5.49861 1.66992   1
  -6  -3  13 6.55810 2.70299   7
   3  -6  13 5.17983 2.07614   8
  -6   3 -13 5.84605 1.78913   1
   6  -3 -13 7.13158 1.86961   1
  -6   3  13 5.27440 2.11002   4
  -3  -6  13 4.79580 2.03865   9
  -3  -6  13 5.80977 2.87633   7
   6  -3  13 2.42149 2.18156   8
   3  -6 -13 3.16636 1.73406   1
  -3   6 -13 5.78293 1.73614   1
  -6   3  13 5.00810 2.05818   9
  -3  -6  13 4.53844 2.52930   4
  -3  -6  13 3.44562 2.20935   8
   3   6  13 5.14060 2.52418   6
  -6  -3 -13 3.57291 1.74458   1
   6   3 -13 5.32898 1.82281   1
  -6  -5  13 24.3452  3.4827   4
   6  -5 -13 27.1681  3.0033   1
  -6  -5  13 30.8205  3.5202   9
   5  -6  13 26.7328  3.3920   8
  -5  -6 -13 33.3677  3.2960   1
   6   5  13 28.5261  3.5921   6
  -6  -5  13 34.5334  4.7755   7
   5   6 -13 30.2242  3.1239   1
  -6   5 -13 30.3383  2.8504   1
  -6   5  13 37.4966  3.7491   4
  -5  -6  13 25.7834  4.6916   7
   5  -6 -13 30.2188  3.1368   1
   5   6  13 27.9868  3.8270   6
  -5   6 -13 25.2008  2.7584   1
  -5  -6  13 33.1113  3.9561   4
   6  -5  13 31.5144  3.5752   8
   6   5 -13 32.7563  3.2755   1
  -6  -5 -13 29.5373  3.1388   1
  -5  -6  13 31.7346  3.4569   9
   0  -7 -13 0.25638 1.70125   1
   0  -7  13 -0.7867  1.8045   8
   7   0 -13 1.16366 1.69794   1
  -7   0 -13 0.38480 1.59995   1
  -7   0  13 2.32954 1.95827   9
  -7   0  13 -0.0530  2.0398   7
   0   7 -13 2.36504 1.60956   1
  -7   0  13 1.85777 1.84850   4
   7   0  13 -1.0772  2.3214   8
   0  -7  13 2.50133 2.26538   7
   0   7  13 3.09934 2.24810   6
   0  -7  13 0.76953 2.34062   4
  -7  -2  13 53.7149  4.4083   7
  -7   2 -13 53.7237  3.3090   1
  -7  -2  13 52.4487  3.8247   4
   2  -7  13 49.0716  3.9906   4
   2  -7  13 51.2468  3.6202   8
   7   2  13 51.3605  5.0411   8
   7  -2 -13 54.9933  3.4503   1
  -7  -2  13 52.3766  3.9557   9
   2   7 -13 51.2517  3.3400   1
  -2  -7 -13 58.4315  3.6816   1
  -2   7  13 56.4371  3.8647   6
   2   7  13 57.7081  4.7363   6
   7  -2  13 46.6237  4.2089   8
  -2  -7  13 50.9031  3.9569   8
  -7   2  13 54.2434  4.0717   9
  -7   2  13 48.4295  3.8353   4
  -7  -2 -13 51.7638  3.4173   1
  -2  -7  13 49.2765  3.6805   9
   7   2 -13 52.3360  3.5263   1
  -2   7 -13 54.7818  3.2736   1
  -2  -7  13 53.2574  4.7735   4
  -2  -7  13 48.2400  4.7352   7
   2  -7 -13 53.5542  3.4551   1
  -7   4 -13 62.3788  3.7525   1
   7  -4 -13 65.8042  4.0215   1
   7   4  13 69.1002  5.1817   8
  -7  -4  13 64.9190  5.3998   7
  -7  -4  13 73.0706  4.5648   9
   4   7 -13 63.4555  3.9588   1
  -7  -4  13 63.5746  4.3821   4
  -4  -7 -13 67.7818  4.0795   1
  -7   4 -13 60.2282  3.7299   1
   7   4 -13 61.3160  4.0355   1
  -4   7 -13 65.2011  3.8415   1
  -7  -4 -13 67.2054  4.1104   1
  -4  -7  13 63.8904  4.2683   9
  -4  -7  13 61.5985  5.0650   4
   4  -7 -13 64.2232  3.8961   1
  -4  -7  13 61.0553  6.1318   7
  -7   4  13 67.4950  4.4029   9
   7  -4  13 60.7475  4.5288   8
  -7  -6  13 1.13724 3.46612   7
  -7  -6  13 3.61905 2.43144   9
   6   7 -13 0.46689 2.05613   1
   7  -6 -13 -0.3783  1.8156   1
  -7  -6  13 0.80904 2.60756   4
  -6  -7 -13 0.50551 2.09503   1
  -7   6 -13 0.62438 1.85304   1
  -6  -7  13 -0.2792  2.4940   4
   6  -7 -13 1.53144 1.96511   1
   7   6 -13 0.33737 2.00862   1
  -6  -7  13 2.17943 2.31533   9
   7  -6  13 2.41545 2.49400   8
  -7  -6 -13 2.01009 2.03578   1
  -6   7 -13 -1.3979  1.7780   1
  -6  -7  13 -0.4434  3.7375   7
   8  -1 -13 19.2030  2.6959   1
   1  -8  13 17.9406  3.4409   4
  -8   1 -13 16.4931  2.4811   1
  -1   8  13 13.4431  2.8808   6
   1   8 -13 17.0568  2.6118   1
   8   1  13 12.3623  3.6838   8
  -8  -1  13 17.1928  2.9510   9
  -1  -8 -13 18.8728  2.7749   1
   8  -1  13 19.6347  3.7760   8
  -1  -8  13 12.7526  2.6006   9
  -8  -1 -13 18.7826  2.6453   1
  -8   1  13 14.6233  2.8069   9
  -1  -8  13 16.3380  3.5000   7
   8   1 -13 17.8768  2.7049   1
  -1   8 -13 14.7816  2.4053   1
  -1  -8  13 16.8232  3.7765   4
   1  -8 -13 14.6174  2.5173   1
  -8  -3  13 10.0094  2.7303   4
  -8   3 -13 8.92203 2.20423   1
  -8  -3  13 10.3429  2.7492   9
   3   8 -13 8.34698 2.27914   1
  -3  -8 -13 5.15744 2.23741   1
  -8  -3  13 2.66293 2.80789   7
   8  -3 -13 7.68630 2.32097   1
   8   3  13 8.41901 3.67628   8
  -8  -3 -13 7.19064 2.28931   1
  -3  -8  13 5.86271 2.44284   9
   8  -3  13 3.10871 2.57071   8
   3  -8 -13 8.77347 2.20749   1
  -3   8 -13 7.58286 2.16078   1
   8   3 -13 6.99268 2.30617   1
  -3  -8  13 9.56075 3.87083   7
  -8   3  13 6.66585 2.41707   9
  -3  -8  13 6.84515 3.30909   4
  -8   5 -13 10.4361  2.4776   1
  -8  -5  13 13.6401  2.9958   9
  -8  -5  13 19.8462  3.4496   4
   8  -5 -13 14.2596  2.8535   1
  -8  -5  13 17.5553  4.1906   7
   5   8 -13 15.0687  2.8545   1
  -5  -8 -13 13.5366  2.7648   1
   5  -8 -13 13.7550  2.8617   1
  -5  -8  13 14.9877  3.6346   4
  -8  -5 -13 16.4308  2.8939   1
  -5   8 -13 14.5231  2.7127   1
  -5  -8  13 16.4458  3.2313   9
   8   5 -13 18.3202  3.0561   1
   8  -5  13 9.14009 2.95001   8
  -5  -8  13 11.2239  4.9332   7
  -8   5  13 16.0636  3.1188   9
   0  -9  13 -1.7338  3.2649   4
  -9   0 -13 -0.7449  1.6617   1
   0  -9  13 0.23810 2.22197   9
   9   0  13 -0.7941  3.1869   8
  -9   0  13 -0.9573  2.3276   9
   0   9 -13 -1.1087  1.6747   1
   9   0 -13 0.84397 1.88371   1
   0  -9 -13 1.58011 2.10846   1
  -9  -2  13 18.5883  3.2245   9
   2   9 -13 20.4236  2.9426   1
   9   2  13 20.6332  5.0254   8
   9  -2 -13 16.6027  2.9648   1
  -9   2 -13 17.5208  2.8306   1
  -2  -9 -13 20.5553  3.0152   1
  -2  -9  13 12.3920  4.1329   4
   2  -9 -13 14.6047  2.8471   1
  -2  -9  13 17.9833  3.0197   9
  -9  -2 -13 20.2483  2.9822   1
   9  -2  13 21.1462  4.2408   8
  -2  -9  13 16.6989  4.0420   7
  -9   2  13 25.8073  3.5343   9
  -2   9 -13 22.2129  2.9582   1
   9   2 -13 25.1750  3.2565   1
   0   0  14 1856.88   37.01   7
   0   0  14 1887.19   33.04   4
   0   0  14 1854.27   32.68   6
   0   0  14 1822.32   33.90   8
  -1   1  14 394.070   9.808   8
   1  -1  14 388.596   9.871   8
   1  -1  14 390.012  10.725   7
   1  -1  14 388.994   9.391   4
  -1  -1  14 390.476   9.714   4
  -1  -1  14 395.618  10.921   7
   1   1  14 391.788   9.511   4
   1  -1  14 399.769   9.553   6
  -1  -1  14 369.478   9.419   6
  -1   1  14 391.482   9.670   4
   1   1  14 388.892   9.758   8
  -1   1  14 383.070   9.456   6
   1   1  14 381.690   9.422   6
  -1  -1  14 398.925  10.008   8
  -1   1  14 380.683  10.612   7
  -2   0  14 958.876  19.344   8
   2   0  14 932.020  18.277   6
   0   2 -14 959.658  16.515   1
   0  -2  14 927.936  18.549   4
   0  -2  14 926.680  19.123   8
   2   0  14 961.107  18.328   4
  -2   0  14 934.231  18.704   4
  -2   0  14 933.507  20.765   7
   0  -2  14 920.947  18.419   6
   0   2  14 917.018  18.775   8
   0  -2  14 936.767  20.893   7
   0   2  14 948.071  18.661   4
   2   0  14 936.631  19.160   8
  -2   0  14 918.824  18.217   6
   0   2  14 911.915  18.347   6
  -2   2  14 19.5731  2.4683   6
   2  -2 -14 19.5643  1.5616   1
  -2  -2  14 22.1070  2.7740   8
  -2   2 -14 19.0530  1.3862   1
  -2   2  14 25.8491  2.8481   8
   2  -2  14 21.2944  2.5017   4
  -2  -2  14 19.4706  2.5766   6
   2  -2  14 18.3099  2.5672   8
   2  -2  14 19.2510  2.4110   6
  -2  -2  14 21.8217  2.6429   4
  -2   2  14 14.6513  2.3548   4
   2   2 -14 18.9894  1.5339   1
   2   2  14 18.8598  2.4802   6
   2  -2  14 16.9223  2.6967   7
  -2  -2 -14 18.4198  1.6250   1
   2   2  14 19.2782  2.5124   8
  -2   2  14 16.6185  2.6161   7
  -2  -2  14 17.4657  2.9036   7
   2   2  14 19.6701  2.5172   4
   3  -1 -14 746.141  14.388   1
  -3  -1  14 766.499  15.838   6
  -3  -1  14 752.907  17.939   7
  -3  -1  14 750.931  16.020   4
   1  -3  14 756.841  16.373   8
  -1   3  14 753.295  15.892   8
  -1  -3 -14 774.743  14.519   1
  -3  -1  14 758.825  16.640   8
   1   3 -14 770.883  14.281   1
   1  -3  14 747.654  15.731   6
  -3   1 -14 753.705  14.073   1
   3   1  14 772.860  15.488   4
  -1   3  14 757.884  16.050   4
   3   1  14 773.836  16.506   8
   1  -3  14 754.278  17.705   7
  -1   3  14 759.503  15.746   6
   1  -3  14 771.583  15.862   4
   3   1  14 748.130  15.590   6
   3  -1  14 744.780  16.473   8
  -3   1  14 756.440  15.991   4
   1   3  14 745.131  15.849   6
   1   3  14 755.711  15.940   4
  -3   1  14 755.986  17.612   7
   1   3  14 763.014  15.911   8
  -1  -3  14 734.900  16.300   8
   3  -1  14 766.173  15.296   4
   1  -3 -14 775.518  14.490   1
  -1   3 -14 775.732  14.083   1
  -1  -3  14 743.822  16.072   4
  -3   1  14 753.125  15.594   6
  -1  -3  14 776.154  18.064   7
  -3   1  14 765.407  16.464   8
   3   1 -14 764.510  14.393   1
   3  -1  14 742.261  15.431   6
  -3  -1 -14 755.455  14.265   1
  -3   3 -14 2348.61   40.91   1
  -3  -3  14 2324.05   46.57   7
  -3  -3 -14 2329.51   41.31   1
   3  -3  14 2327.66   40.36   6
   3   3  14 2324.68   40.82   6
  -3   3  14 2334.37   40.25   6
   3   3 -14 2326.46   41.24   1
  -3  -3  14 2324.85   42.74   8
   3  -3  14 2407.67   40.54   4
   3  -3  14 2329.09   42.55   8
   3  -3 -14 2316.97   41.25   1
   3  -3  14 2270.15   45.29   7
   3   3  14 2373.76   42.23   8
   3   3  14 2355.72   41.06   4
  -3  -3  14 2321.23   41.61   4
  -3   3  14 2320.92   42.03   8
  -3   3  14 2300.56   41.23   4
  -4   0  14 2276.76   40.35   4
   0  -4 -14 2228.06   40.19   1
   4   0 -14 2375.45   40.29   1
   0   4 -14 2288.11   39.95   1
  -4   0  14 2342.48   42.10   8
  -4   0 -14 2277.62   39.99   1
   0  -4  14 2268.17   41.40   8
   0  -4  14 2247.94   45.05   7
  -4   0  14 2276.95   44.85   7
   0  -4  14 2284.98   40.46   4
  -4   0  14 2284.78   39.56   6
   4   0  14 2250.36   39.29   6
   4   0  14 2260.55   41.73   8
   0   4  14 2243.22   40.42   4
   0   4  14 2248.19   39.90   6
  -2   4  14 12.8608  2.2967   6
   4   2  14 10.5208  2.2201   6
  -4  -2  14 9.62065 2.64279   7
   2  -4  14 12.1729  2.3241   8
   4   2  14 16.7149  2.4900   4
  -2   4  14 13.0684  2.3271   4
   2  -4  14 11.7812  2.5191   7
  -4  -2  14 14.5351  2.7557   8
  -2  -4 -14 13.5173  1.8819   1
   4  -2 -14 12.1390  1.7376   1
   2  -4  14 14.8942  2.3825   4
  -4  -2  14 12.2340  2.4152   4
  -4   2 -14 11.4485  1.5770   1
   2   4 -14 16.2703  1.8936   1
   4   2  14 13.6877  2.5259   8
  -2  -4  14 12.9847  2.8811   7
  -4   2  14 10.5889  2.5191   8
   2   4  14 8.84948 2.31950   4
  -2  -4  14 11.5505  2.3214   4
  -4   2  14 13.4693  2.5784   7
  -2  -4  14 10.3765  2.4186   8
   2   4  14 12.3069  2.3233   8
  -4   2  14 13.9491  2.3557   6
  -2   4 -14 13.0961  1.6308   1
  -4   2  14 16.0510  2.5218   4
  -4  -2 -14 17.1657  1.8795   1
   4  -2  14 12.6744  2.5296   8
   2   4  14 10.7239  2.3434   6
   4  -2  14 11.7902  2.1566   6
   2  -4 -14 9.82166 1.66665   1
   4   2 -14 13.1536  1.8219   1
   4   4  14 235.173   7.501   8
   4   4  14 235.426   7.708   6
  -4  -4  14 237.197   7.968   4
   4  -4  14 237.476   7.788   8
  -4  -4  14 234.439   7.288   9
   4   4 -14 235.560   6.641   1
  -4  -4  14 226.480   8.999   7
  -4   4 -14 232.831   6.323   1
  -4  -4  14 237.621   8.024   8
  -4   4  14 238.194   7.122   6
  -4   4  14 228.951   7.595   4
   4  -4 -14 217.071   6.434   1
  -4  -4 -14 232.286   6.645   1
  -1   5  14 27.8311  3.2521   4
   1  -5  14 28.4801  3.4485   7
   1  -5  14 38.6475  3.2694   8
  -1  -5 -14 28.8421  2.4504   1
  -5  -1  14 31.1375  3.2572   4
  -5   1 -14 27.0216  2.2208   1
   5  -1 -14 26.0160  2.3472   1
   5   1  14 27.1266  3.4553   8
  -5  -1  14 34.1157  3.0093   9
   1   5 -14 31.7180  2.3475   1
  -1   5  14 30.3460  3.1268   6
  -5  -1  14 32.1701  3.6219   7
   5   1  14 31.9393  3.0174   6
   1  -5  14 25.7951  3.0770   4
  -5   1  14 35.3942  3.3649   7
  -5  -1 -14 29.4136  2.2743   1
  -1   5 -14 25.8524  2.1728   1
   1   5  14 27.1297  3.2618   4
  -1  -5  14 34.6920  3.4744   4
   1   5  14 28.8102  3.2739   6
   5  -1  14 28.7700  3.3839   8
   5   1 -14 25.9215  2.3709   1
  -1  -5  14 28.7413  3.7114   7
  -5   1  14 29.2398  2.9611   6
  -1  -5  14 32.4861  3.3029   8
   1  -5 -14 30.7685  2.4335   1
  -5   1  14 28.7334  3.1415   4
   5   3  14 12.2414  2.4578   6
  -3   5  14 14.5586  2.5246   6
   3  -5  14 12.4124  2.6608   8
  -5   3 -14 14.7060  1.9695   1
  -5  -3  14 15.0473  2.6428   9
   5  -3 -14 13.2197  2.0253   1
  -5  -3  14 17.1263  3.2856   7
   5   3  14 20.3160  3.0346   8
  -3   5  14 13.7551  2.5944   4
  -5  -3  14 12.9592  2.6482   4
   3   5 -14 13.3374  1.9728   1
  -3  -5 -14 13.8275  2.1933   1
  -5  -3 -14 14.1851  2.1958   1
   3   5  14 16.9325  2.9112   6
  -3  -5  14 17.3910  3.0204   4
  -3  -5  14 19.0378  2.9681   8
   3  -5 -14 16.6276  2.2267   1
  -3  -5  14 11.6392  2.4378   9
   5   3 -14 16.4738  2.1677   1
  -5   3  14 15.6615  2.6473   4
  -3  -5  14 14.9294  3.2325   7
  -3   5 -14 16.1885  1.9930   1
   5  -3  14 12.4157  2.6796   8
   5   5  14 1.11534 2.28426   6
  -5  -5  14 3.29046 2.09542   9
  -5  -5  14 1.54651 2.86691   7
   5  -5  14 1.46406 2.11816   8
  -5   5 -14 2.18169 1.68064   1
   5   5 -14 2.04634 1.76424   1
   5  -5 -14 0.63637 1.73945   1
  -5  -5 -14 5.42751 2.06083   1
  -5   5  14 2.96754 2.23491   4
  -5  -5  14 3.77582 2.41346   4
  -6   0  14 906.910  18.403   9
  -6   0  14 883.941  18.533   4
  -6   0 -14 895.797  17.888   1
   0   6 -14 888.875  17.830   1
   0  -6  14 886.862  21.049   7
   6   0  14 870.807  19.959   8
   0  -6  14 904.343  19.589   4
  -6   0  14 932.991  20.851   7
   0  -6  14 878.090  18.898   8
   0  -6 -14 907.408  18.149   1
   0   6  14 856.483  18.799   6
   6   0 -14 896.999  18.177   1
   2  -6  14 499.783  12.193   8
  -6   2 -14 486.946  11.125   1
  -6  -2  14 477.095  12.188   4
   2   6 -14 489.475  11.363   1
   2  -6  14 485.627  13.168   7
   6  -2 -14 504.288  11.521   1
  -2   6  14 499.792  12.121   6
  -6  -2  14 508.831  12.108   9
  -6  -2  14 519.240  14.037   7
   6   2  14 485.813  11.757   6
  -2  -6 -14 491.873  11.582   1
   6   2  14 502.123  13.382   8
   2  -6  14 482.576  12.080   4
   2  -6 -14 505.717  11.496   1
   2   6  14 501.534  13.077   6
  -2   6 -14 501.443  11.124   1
  -6   2  14 502.916  12.153   4
  -2  -6  14 501.598  12.555   8
  -6  -2 -14 470.794  11.328   1
   6  -2  14 481.798  13.107   8
  -2  -6  14 475.155  13.094   4
  -2  -6  14 477.853  14.297   7
   6   2 -14 492.032  11.559   1
  -6  -4  14 1218.76   23.71   9
   6   4  14 1199.23   24.93   8
   4   6 -14 1175.34   23.64   1
  -4   6  14 1141.18   24.15   4
  -6   4 -14 1187.55   23.38   1
  -4  -6 -14 1169.22   23.77   1
   4  -6  14 1230.90   24.29   8
  -6   4 -14 1179.08   23.35   1
   6   4  14 1208.36   23.77   6
   6  -4 -14 1204.19   23.73   1
  -6  -4  14 1204.61   27.90   7
  -6  -4  14 1177.54   24.20   4
  -6   4  14 1210.39   23.81   4
  -4  -6  14 1125.91   24.86   4
  -4   6 -14 1156.40   23.26   1
   4  -6 -14 1198.14   23.68   1
   4   6  14 1206.81   25.04   6
  -6  -4 -14 1165.83   23.74   1
   6   4 -14 1177.97   23.79   1
  -4  -6  14 1166.20   28.55   7
   6  -4  14 1169.39   24.79   8
  -4  -6  14 1183.08   23.45   9
  -6  -6  14 373.695  10.547   9
  -6   6 -14 353.325   9.701   1
  -6  -6  14 359.662  11.217   4
   6  -6 -14 369.818  10.175   1
  -6  -6 -14 358.955  10.167   1
  -6  -6  14 370.847  13.927   7
   6   6 -14 367.021  10.230   1
   1   7 -14 446.121  10.876   1
   1  -7  14 471.366  12.546   4
   1  -7  14 464.572  11.637   8
  -7  -1  14 475.534  11.854   9
   1  -7  14 450.109  12.923   7
  -7   1 -14 451.817  10.846   1
   7  -1 -14 441.111  11.001   1
  -1   7  14 461.785  11.886   6
  -7  -1  14 466.239  13.006   7
  -7  -1  14 447.331  11.476   4
  -1  -7 -14 436.064  11.151   1
   7   1  14 437.810  13.071   8
  -1   7 -14 430.761  10.718   1
  -1  -7  14 470.195  13.084   4
  -7   1  14 453.818  11.622   9
   1  -7 -14 433.325  10.983   1
   7  -1  14 425.752  12.628   8
  -7  -1 -14 441.311  10.864   1
  -1  -7  14 454.964  11.773   8
   1   7  14 441.707  12.411   6
  -7   1  14 458.327  11.515   4
  -1  -7  14 450.110  13.536   7
  -7  -3  14 944.580  19.802   9
  -3   7  14 951.961  19.315   6
   7  -3 -14 937.729  19.584   1
   7   3  14 945.172  21.514   8
  -7  -3  14 950.313  22.743   7
  -7   3 -14 876.906  19.066   1
  -3  -7 -14 924.934  19.692   1
  -7  -3  14 920.001  19.830   4
   3   7 -14 898.797  19.385   1
  -3  -7  14 942.798  20.406   8
  -3  -7  14 961.632  19.653   9
  -3  -7  14 893.920  23.653   7
  -7  -3 -14 925.792  19.638   1
   7  -3  14 930.616  21.001   8
   3  -7 -14 931.855  19.523   1
  -3   7 -14 925.873  19.236   1
  -7   3  14 947.550  19.593   4
  -3  -7  14 898.597  21.362   4
   7   3 -14 913.982  19.530   1
  -7  -5  14 42.6675  5.4036   7
  -7   5 -14 36.7034  3.2167   1
  -7  -5  14 30.3883  3.6871   9
   5   7 -14 33.0959  3.4230   1
  -7  -5  14 37.6418  4.0979   4
  -7   5 -14 31.6622  3.2425   1
   7  -5 -14 31.8934  3.4279   1
  -5  -7 -14 30.7491  3.3379   1
  -5  -7  14 39.1465  5.9243   7
   7  -5  14 35.6906  4.1988   8
  -7  -5 -14 27.0946  3.1800   1
  -5  -7  14 35.8086  4.4452   4
  -5  -7  14 40.1839  4.0019   9
  -5   7 -14 33.5653  3.1756   1
   5  -7 -14 37.3532  3.4731   1
   7   5 -14 33.6875  3.5481   1
   0  -8 -14 20.5663  2.8198   1
  -8   0 -14 20.3149  2.7514   1
   0  -8  14 23.4688  3.8513   7
   0  -8  14 22.9993  4.1372   4
   8   0  14 17.4956  3.8974   8
   0   8 -14 22.5564  2.7915   1
  -8   0  14 21.4332  3.2373   9
   8   0 -14 22.7407  2.9398   1
  -2  -8 -14 97.2090  4.8562   1
   8   2  14 87.1601  6.6751   8
   2  -8  14 92.5490  5.4250   4
  -8  -2  14 94.5638  5.2373   9
  -8  -2  14 95.8900  6.0616   7
   8  -2 -14 87.8537  4.6905   1
  -8   2 -14 90.5287  4.6308   1
   2   8 -14 86.1696  4.5110   1
  -2  -8  14 92.6544  6.4926   4
   2  -8 -14 96.5362  4.7818   1
  -8   2  14 88.6431  5.2517   9
   8  -2  14 83.0910  5.6339   8
  -2  -8  14 90.6556  4.9943   9
  -8  -2 -14 87.5263  4.5657   1
  -2   8 -14 97.9255  4.5794   1
  -2  -8  14 94.7531  6.5402   7
   8   2 -14 92.2679  4.8086   1
   0  -1  15 -1.3618  1.5675   8
   0   1  15 -0.6458  1.5097   6
   0  -1  15 -0.0568  1.5976   6
  -1   0  15 1.69544 1.99161   7
   0   1  15 2.33492 1.76808   8
   1   0  15 0.99213 1.69007   8
   0  -1  15 -0.8827  1.5691   4
   0   1  15 2.01337 1.78112   4
  -1   0  15 -0.3788  1.5525   4
   1   0  15 1.93753 1.91564   7
   0  -1  15 2.20011 1.98418   7
   1   0  15 0.36686 1.57685   6
  -1   0  15 0.02699 1.37629   6
  -1   0  15 -0.1468  1.6902   8
   1   0  15 -0.9186  1.4961   4
  -2  -1  15 307.729   9.808   7
   1  -2  15 306.430   9.599   7
   2  -1 -15 320.690   6.618   1
  -1  -2 -15 319.108   6.647   1
  -1   2  15 313.158   8.605   6
  -1   2  15 318.714   8.725   8
  -2  -1  15 319.705   8.691   6
   1   2 -15 313.853   6.438   1
   1  -2  15 312.205   8.554   4
  -2  -1  15 310.130   8.759   4
  -2  -1  15 328.359   9.158   8
   2   1  15 322.492   8.610   6
   1  -2  15 307.020   8.470   6
   1  -2  15 326.504   9.089   8
   2   1  15 324.850   8.589   4
  -1   2  15 324.686   8.865   4
   2   1  15 316.234   8.882   8
   1  -2 -15 321.916   6.610   1
   1   2  15 318.802   8.741   8
   2  -1  15 296.608   8.408   6
   2   1 -15 326.902   6.533   1
  -1  -2  15 305.280   8.641   6
  -2   1  15 313.673   8.739   4
   2  -1  15 326.878   8.440   4
  -1  -2  15 308.333   8.916   8
  -2   1  15 322.251   9.688   7
   1   2  15 303.488   8.581   6
  -1  -2  15 319.962   9.905   7
   2  -1  15 297.435   9.450   7
   2  -1  15 309.680   8.948   8
   1   2  15 314.917   8.611   4
  -2   1  15 318.632   8.934   8
  -1  -2  15 303.446   8.686   4
  -2   1  15 309.492   8.442   6
  -2  -1 -15 316.029   6.489   1
  -3   0  15 -1.1002  1.6979   4
   0   3  15 1.29854 1.62971   4
  -3   0  15 -1.5237  1.5742   6
  -3   0  15 4.92396 2.15695   7
   3   0  15 0.02870 1.55538   4
   0  -3 -15 0.18418 1.03653   1
   3   0  15 -1.9666  1.5763   6
   3   0  15 -0.6987  1.8093   8
   0   3  15 1.16602 1.58145   6
   0   3  15 0.52379 1.62792   8
   0  -3  15 3.70590 2.26141   7
   3   0 -15 1.14934 1.11885   1
   0  -3  15 0.24620 1.76643   8
   0   3 -15 0.75116 0.95226   1
   0  -3  15 0.76860 1.75395   4
  -3   0  15 5.36408 2.19611   8
  -3   0 -15 0.73734 0.99779   1
   2   3 -15 4.36701 1.26296   1
   3   2  15 5.52047 1.95278   4
  -3  -2  15 3.15325 1.84305   4
   3   2  15 5.77974 2.14589   8
  -2  -3 -15 5.11648 1.41182   1
  -2   3  15 4.88780 1.96323   6
  -2   3  15 6.74442 2.19222   8
   2  -3  15 4.84382 2.16954   7
   2  -3  15 4.09010 2.04168   8
  -3   2 -15 4.80523 1.22399   1
  -3  -2  15 1.63619 1.99959   8
   2  -3  15 5.19720 1.92839   4
   3  -2 -15 3.94707 1.35338   1
  -2   3  15 6.18249 1.94403   4
  -3  -2  15 16.3725  3.0175   7
   3   2  15 4.19116 1.98152   6
   2  -3  15 2.86864 1.94785   6
   2   3  15 3.03455 1.92261   4
   2   3  15 7.95024 2.17936   8
   2   3  15 3.45427 1.98983   6
   3   2 -15 4.59147 1.39356   1
   3  -2  15 7.39281 2.35629   7
  -2  -3  15 7.42729 2.27067   8
   2  -3 -15 5.38948 1.38841   1
  -3   2  15 3.55008 2.15868   8
  -3  -2 -15 4.31093 1.33403   1
  -3   2  15 4.08479 1.88629   6
  -2   3 -15 4.27132 1.19731   1
  -3   2  15 5.76237 2.11648   4
  -2  -3  15 6.43351 2.50334   7
   3  -2  15 2.35747 1.77859   4
  -3   2  15 4.16368 2.13367   7
   3  -2  15 5.80434 2.23003   8
   3  -2  15 4.81894 1.97595   6
  -2  -3  15 4.81868 2.05851   4
  -4  -1  15 212.848   7.655   8
   1  -4  15 215.785   7.866   7
   4  -1 -15 214.223   5.681   1
  -4  -1  15 210.091   7.171   4
  -1  -4 -15 217.868   5.749   1
  -1   4  15 221.085   7.224   4
   1   4 -15 218.479   5.558   1
   1  -4  15 205.653   7.102   8
  -4  -1  15 211.210   7.994   7
   4   1  15 214.842   7.442   8
   4   1  15 204.243   6.761   6
  -4   1 -15 217.002   5.482   1
  -1   4  15 209.961   7.020   6
   1  -4  15 231.315   7.245   4
  -1  -4  15 200.474   7.972   7
  -1   4 -15 224.176   5.493   1
  -4   1  15 198.239   6.900   4
  -4   1  15 215.191   7.473   8
  -4  -1 -15 205.822   5.532   1
  -1  -4  15 209.714   7.257   4
   1   4  15 205.381   7.184   6
   4  -1  15 216.686   6.822   6
   1   4  15 216.063   7.258   4
   4   1 -15 213.937   5.718   1
  -4   1  15 219.007   7.803   7
  -4   1  15 211.915   6.778   6
   1  -4 -15 212.054   5.695   1
   4  -1  15 212.391   7.493   8
  -1  -4  15 213.488   7.241   8
   4  -3 -15 8.42007 1.74496   1
  -3   4  15 4.78243 1.97763   6
   3  -4  15 5.53812 2.31084   7
  -4  -3  15 6.67972 2.37584   4
  -4  -3  15 7.92523 2.51227   8
   3   4 -15 5.98545 1.63997   1
   3  -4  15 7.80190 2.46104   8
   4   3  15 8.10181 2.44304   8
  -4  -3  15 6.90586 2.69930   7
   4   3  15 4.77265 2.12175   4
   4   3  15 5.36459 2.12552   6
  -4   3 -15 4.37271 1.49691   1
  -3  -4 -15 7.04164 1.78943   1
  -3   4  15 9.66413 2.48225   4
  -4  -3 -15 7.82672 1.76836   1
   3   4  15 11.4728  2.6079   6
   3  -4 -15 5.60310 1.64012   1
  -3  -4  15 9.85899 2.97068   7
  -4   3  15 5.01869 1.98793   6
  -4   3  15 7.66144 2.53049   8
  -3   4 -15 5.67873 1.50781   1
  -4   3  15 8.84335 2.33999   4
   4  -3  15 6.07369 2.15266   6
   3   4  15 8.95797 2.37579   8
   3   4  15 8.10989 2.36781   4
  -3  -4  15 7.30382 2.41417   8
   4   3 -15 6.07536 1.69105   1
   4  -3  15 10.2373  2.5634   8
  -3  -4  15 4.63545 2.22357   4
   0   5 -15 7.62673 1.63283   1
   0   5  15 2.07372 1.96761   6
  -5   0  15 1.71815 2.14266   7
   0  -5  15 0.92667 2.03464   4
   0  -5 -15 0.22046 1.42330   1
  -5   0  15 -0.0166  1.8093   4
   0  -5  15 -1.6156  2.0629   7
   0   5  15 -0.1526  1.9410   4
  -5   0  15 0.86936 1.94642   6
  -5   0 -15 0.04696 1.29705   1
   5   0  15 1.93821 2.22003   8
   0  -5  15 -0.1671  1.8968   8
   5   0 -15 0.45266 1.39541   1
   5   0  15 -0.6094  1.8598   6
   5  -2 -15 302.303   7.894   1
  -2  -5 -15 324.845   8.086   1
  -5  -2  15 312.312  10.399   7
   2  -5  15 310.859   9.226   8
  -5  -2  15 317.083   9.308   4
   2  -5  15 322.811   9.059   4
   2  -5  15 305.484   9.778   7
  -2   5  15 307.602   9.368   4
  -5   2 -15 314.360   7.678   1
   2   5 -15 305.413   7.786   1
   5   2  15 292.368   8.641   6
  -2   5  15 309.009   8.941   6
   5   2  15 301.423   9.565   8
  -5  -2 -15 302.862   7.865   1
   5  -2  15 301.105   9.541   8
  -2   5 -15 313.787   7.664   1
  -2  -5  15 295.611   9.498   4
  -2  -5  15 299.154  10.580   7
   2  -5 -15 320.603   7.996   1
  -5   2  15 319.075   9.813   7
  -5   2  15 304.039   9.026   4
   5   2 -15 318.206   8.019   1
  -5   2  15 325.658   8.671   6
  -2  -5  15 314.079   9.367   8
   2   5  15 306.051   9.456   6
  -5  -4  15 225.143   9.216   7
  -4  -5 -15 214.659   6.670   1
   5  -4 -15 206.844   6.571   1
   4   5 -15 215.865   6.584   1
   5   4  15 223.504   7.779   6
  -5  -4  15 230.077   7.520   9
  -4   5  15 213.302   7.716   4
  -5   4 -15 220.740   6.433   1
  -5  -4  15 207.456   7.855   4
   4  -5  15 218.281   7.665   8
   5   4  15 227.878   7.822   8
  -4  -5  15 207.637   8.027   4
   5   4 -15 217.445   6.739   1
  -4  -5  15 212.542   9.269   7
  -5   4  15 212.116   7.525   4
   4  -5 -15 215.171   6.570   1
  -5  -4 -15 213.697   6.618   1
  -4  -5  15 205.693   7.864   8
   5  -4  15 220.347   7.905   8
  -4   5 -15 215.754   6.352   1
   4   5  15 202.293   7.791   6
  -1  -6 -15 20.5290  2.5065   1
   1  -6  15 20.3376  3.4821   7
   1  -6  15 16.1215  2.8685   8
  -1   6  15 17.7913  2.8849   6
  -6   1 -15 16.6094  2.1947   1
  -6  -1  15 15.6415  3.1748   7
   6  -1 -15 16.4645  2.3450   1
  -6  -1  15 17.3241  2.8674   4
   6   1  15 13.8658  3.2117   8
   1  -6  15 18.6626  3.0910   4
   1   6 -15 15.4408  2.1411   1
  -6   1  15 18.5732  2.9386   4
  -1  -6  15 19.1116  3.0978   8
  -6   1  15 16.0497  3.0476   7
  -1  -6  15 16.1070  3.2378   4
  -1   6 -15 19.2118  2.2247   1
   1  -6 -15 19.2042  2.4408   1
   6  -1  15 14.4650  3.0833   8
  -1  -6  15 18.1458  3.4301   7
   1   6  15 17.9854  3.1176   6
   6   1 -15 15.4895  2.2655   1
  -6  -1 -15 17.4667  2.2784   1
   6   3  15 3.31631 2.45625   8
  -6  -3  15 0.91335 2.14386   9
  -3   6  15 0.04717 2.06287   6
   3  -6  15 0.45647 2.04724   8
  -6  -3  15 -0.8384  2.4892   7
  -3   6  15 -3.9787  1.9741   4
   6   3  15 0.53458 2.26117   6
  -6  -3  15 -1.3511  2.0727   4
  -6   3 -15 -1.1765  1.4813   1
  -3  -6 -15 0.38414 1.80822   1
   3   6 -15 0.83309 1.66716   1
   6  -3 -15 2.09196 1.72517   1
  -3  -6  15 0.68149 2.34093   4
  -3  -6  15 -2.0369  2.1154   8
   6   3 -15 0.49908 1.69742   1
  -3   6 -15 0.18174 1.50585   1
   6  -3  15 1.92597 2.31212   8
  -3  -6  15 -1.1957  2.5364   7
  -6   3  15 -0.8134  2.0500   4
  -6  -3 -15 -0.2395  1.8165   1
   3  -6 -15 -1.3150  1.5471   1
   6  -5 -15 15.7804  2.5679   1
  -6  -5  15 10.6450  2.7462   9
  -6  -5  15 13.0601  3.1364   4
  -6  -5  15 16.0011  4.0339   7
  -6   5 -15 11.7887  2.2870   1
  -5   6  15 16.4133  3.3123   4
   5   6 -15 11.0628  2.3471   1
  -5  -6 -15 13.4851  2.5110   1
   5  -6  15 15.7708  3.1573   8
  -5   6 -15 9.96457 2.13133   1
  -5  -6  15 15.8245  4.3249   7
   6   5 -15 13.3093  2.6102   1
   6  -5  15 14.7489  3.0806   8
  -6   5  15 13.0489  2.9926   4
  -5  -6  15 10.9013  2.8923   9
   5  -6 -15 12.0185  2.3855   1
  -5  -6  15 10.6429  3.1287   4
  -6  -5 -15 11.8678  2.4498   1
   0  -7  15 1.78955 2.32765   8
   0  -7  15 -1.2540  2.3475   7
   7   0  15 -0.7256  2.4738   8
  -7   0 -15 2.84346 1.72304   1
  -7   0  15 1.90067 2.18412   9
  -7   0  15 1.15804 2.06710   4
   0   7 -15 -2.5996  1.4346   1
   0  -7  15 2.42700 2.44757   4
   7   0 -15 -0.4997  1.6098   1
   0  -7 -15 0.13071 1.76809   1
  -7  -2  15 150.081   6.407   4
  -7  -2  15 151.408   6.495   9
   7  -2 -15 141.982   5.630   1
   2  -7  15 148.660   6.425   4
  -7  -2  15 154.393   7.335   7
  -2  -7 -15 151.278   5.810   1
   2  -7  15 154.117   6.404   8
   7   2  15 163.272   7.785   8
  -7   2 -15 142.588   5.402   1
   2   7 -15 150.092   5.578   1
  -2   7 -15 149.684   5.430   1
  -7  -2 -15 143.808   5.591   1
   2  -7 -15 148.319   5.608   1
   7  -2  15 146.398   7.077   8
  -7   2  15 152.011   6.308   4
  -2  -7  15 154.727   7.851   7
  -2  -7  15 154.779   6.487   8
   7   2 -15 143.110   5.696   1
  -2  -7  15 143.820   7.332   4
  -7  -4  15 71.6153  4.7330   9
   7  -4 -15 79.1790  4.3953   1
  -4  -7 -15 80.0742  4.4671   1
   7   4  15 81.0408  5.7566   8
  -7   4 -15 75.5146  4.2272   1
   4   7 -15 76.0616  4.2977   1
  -7  -4  15 83.9680  5.2200   4
  -7  -4  15 81.1144  6.2611   7
  -4  -7  15 87.6046  7.0672   7
  -4   7 -15 78.7524  4.2442   1
   4  -7 -15 75.6149  4.3658   1
  -7  -4 -15 73.6626  4.3694   1
  -4  -7  15 84.3512  4.9373   9
  -4  -7  15 90.4514  6.0257   4
   7   4 -15 82.1328  4.5443   1
   7  -4  15 87.0438  5.4947   8
   8   1  15 222.442   9.555   8
  -8  -1  15 243.498   8.350   9
   1   8 -15 207.618   6.943   1
   1  -8  15 222.868   8.959   4
  -8   1 -15 211.303   7.062   1
  -1  -8 -15 211.184   7.337   1
   8  -1 -15 210.428   7.223   1
   1  -8 -15 211.518   7.223   1
  -8  -1 -15 202.518   7.039   1
  -8   1  15 227.251   7.960   9
  -1  -8  15 220.302   9.415   4
  -1  -8  15 214.645   9.312   7
   8  -1  15 207.877   9.045   8
   8   1 -15 213.041   7.328   1
  -1   8 -15 218.725   7.059   1
   0   0  16 430.191  11.147   8
   0   0  16 433.640  12.156   7
   0   0  16 435.660  10.834   4
   0   0  16 430.047  10.791   6
  -1  -1  16 69.6316  4.2116   8
   1  -1  16 66.9631  4.5140   7
   1   1  16 62.0442  3.9084   6
  -1   1  16 62.9181  3.8835   6
  -1  -1  16 65.2608  3.9443   6
   1  -1  16 68.5678  3.9442   4
   1   1  16 69.0245  3.9986   4
   1   1  16 66.8799  4.0884   8
  -1   1  16 67.7227  3.9293   4
  -1   1  16 64.2058  4.4624   7
  -1  -1  16 68.2118  4.3900   7
   1  -1  16 69.4146  4.2163   8
   1  -1  16 65.5079  3.9423   6
  -1   1  16 76.2939  4.2271   8
  -1  -1  16 61.9284  3.9453   4
   2   0  16 164.450   6.065   6
   0  -2 -16 164.743   4.022   1
   0  -2  16 163.965   6.186   4
   0  -2  16 165.361   6.906   7
  -2   0  16 169.728   6.446   8
   2   0  16 164.211   6.393   8
   0   2  16 168.622   6.193   8
   0   2  16 166.746   6.022   4
   0  -2  16 168.117   6.213   6
   2   0  16 170.552   5.993   4
   0   2  16 169.939   6.187   6
  -2   0  16 176.775   6.133   6
  -2   0  16 160.499   6.151   4
  -2   0  16 166.395   7.003   7
   0  -2  16 157.521   6.262   8
   2   2  16 335.382   9.357   6
   2   2 -16 341.658   7.290   1
   2  -2  16 355.519   9.257   4
  -2   2  16 347.795   9.386   6
   2   2  16 343.561   9.666   8
   2  -2 -16 353.921   7.436   1
  -2   2  16 330.120   9.534   4
  -2   2  16 346.708   9.600   8
  -2  -2  16 339.736   9.851   8
  -2  -2 -16 339.411   7.378   1
  -2  -2  16 339.343   9.706   4
  -2  -2  16 327.375   9.430   6
   2  -2  16 334.939   9.705   8
  -2  -2  16 342.846  10.858   7
   2   2  16 345.160   9.364   4
   2  -2  16 340.170  10.417   7
   2  -2  16 342.398   9.258   6
   1  -3  16 99.7179  4.9305   6
   3  -1 -16 105.638   3.434   1
  -1   3  16 98.2625  4.8074   6
   1   3 -16 104.530   3.274   1
   1  -3  16 95.4634  4.7399   4
  -1  -3 -16 104.380   3.387   1
   1  -3  16 104.982   5.483   7
   3   1  16 93.7116  4.7121   6
  -3  -1  16 94.1816  5.0674   8
   1  -3  16 96.9764  4.9147   8
  -3  -1  16 102.130   4.942   6
  -3  -1  16 105.473   5.754   7
  -1   3  16 97.7628  4.9507   4
  -1   3  16 102.662   4.876   8
  -3  -1  16 92.8229  4.8744   4
   3   1  16 94.0011  4.9599   8
   3   1  16 105.233   4.686   4
   1   3  16 101.311   5.003   6
  -1  -3  16 102.538   5.723   7
   3  -1  16 102.741   4.699   4
   1  -3 -16 108.291   3.440   1
  -3   1  16 101.403   5.227   8
   3  -1  16 92.1990  4.9833   8
  -3   1  16 97.1967  4.9081   4
  -3   1  16 98.8449  5.3934   7
   3   1 -16 102.387   3.380   1
   1   3  16 96.0394  4.8850   4
  -3   1  16 97.3601  4.7059   6
   3  -1  16 100.766   4.755   6
  -1  -3  16 98.3732  4.8512   4
  -1  -3  16 101.537   5.072   8
  -3  -1 -16 101.415   3.320   1
   1   3  16 99.7779  4.8467   8
  -3   3 -16 4.32844 1.38128   1
   3   3  16 4.22013 2.12905   8
   3   3  16 5.68018 2.21656   4
   3   3 -16 3.58993 1.47791   1
   3  -3  16 2.75254 2.12972   8
  -3   3  16 4.25490 2.26433   8
  -3   3  16 0.81363 1.84726   6
  -3   3  16 2.09085 1.84730   4
  -3  -3  16 4.59343 2.25415   4
   3  -3  16 2.05581 2.10575   7
  -3  -3 -16 3.49753 1.50680   1
  -3  -3  16 3.63542 2.25885   8
   3   3  16 4.14075 2.16215   6
   3  -3  16 6.63341 2.28120   6
  -3  -3  16 2.44357 2.46284   7
   3  -3 -16 6.38330 1.60807   1
   0  -4 -16 226.107   5.869   1
  -4   0  16 225.831   8.290   7
   4   0  16 207.868   7.686   8
   0  -4  16 219.157   8.408   7
  -4   0  16 230.118   7.627   4
  -4   0 -16 228.761   5.676   1
   4   0 -16 223.864   5.867   1
   4   0  16 222.627   7.206   6
   0   4  16 213.443   7.490   4
   0   4 -16 229.294   5.624   1
   0   4  16 211.428   7.405   6
  -4   0  16 215.781   7.879   8
   0  -4  16 209.988   7.463   8
  -4   0  16 215.254   7.248   6
   0  -4  16 224.681   7.567   4
  -4  -2  16 290.541  10.031   7
   2  -4  16 284.233   9.357   7
   2  -4  16 259.755   8.638   8
  -4  -2  16 264.347   9.067   8
   2   4 -16 280.718   6.914   1
  -4   2 -16 279.312   6.754   1
   4  -2 -16 283.712   7.103   1
   4   2  16 279.679   8.429   6
  -2   4  16 261.240   8.223   6
   4   2  16 287.897   8.993   8
   2  -4  16 287.602   8.430   4
  -2   4  16 270.006   8.633   4
  -2  -4 -16 277.257   7.113   1
  -4   2 -16 284.132   6.791   1
  -4  -2  16 265.810   8.710   4
   4  -2  16 283.050   8.209   6
   4  -2  16 278.670   9.021   8
  -4  -2 -16 283.594   7.041   1
  -2  -4  16 280.559   8.929   4
  -2  -4  16 270.337   9.880   7
   2   4  16 291.807   8.861   4
  -4   2  16 271.889   8.146   6
  -2   4 -16 286.400   6.723   1
  -4   2  16 268.440   8.579   4
  -4   2  16 283.205   9.372   7
  -4   2  16 282.528   8.904   8
   4   2 -16 283.985   7.121   1
  -2  -4  16 270.520   8.847   8
   2  -4 -16 285.937   7.082   1
   2   4  16 264.390   8.636   6
  -4   4  16 175.147   6.962   4
  -4   4  16 188.053   6.664   6
  -4  -4  16 182.545   8.405   7
   4  -4  16 178.130   7.072   8
   4   4  16 175.285   6.988   6
   4  -4 -16 181.195   5.740   1
  -4  -4  16 177.193   7.320   8
  -4  -4  16 181.409   7.268   4
   4   4 -16 180.652   5.753   1
  -4  -4 -16 179.405   5.814   1
  -4   4 -16 184.699   5.506   1
  -1  -5 -16 21.4599  2.3294   1
  -5  -1  16 17.9574  3.3619   7
  -5  -1  16 18.9309  3.0033   4
   1  -5  16 24.0517  3.2491   8
  -5   1 -16 22.2919  2.1981   1
   1   5 -16 24.3011  2.2307   1
   5   1  16 24.2303  3.5957   8
  -1   5  16 18.8707  3.0165   6
   5   1  16 17.1972  2.7906   6
   1  -5  16 22.4765  3.1487   4
   5  -1 -16 24.0306  2.4269   1
   1  -5  16 19.0776  3.3732   7
  -1   5  16 21.7149  3.0792   4
  -5   1  16 19.6781  3.3601   7
  -1  -5  16 19.5137  3.4956   7
  -1  -5  16 22.8580  3.3186   4
  -5   1  16 23.3349  3.0007   6
   5   1 -16 20.7170  2.3128   1
   1   5  16 18.1681  3.1703   4
  -1   5 -16 21.4000  2.1532   1
  -5  -1 -16 21.1026  2.2840   1
   5  -1  16 20.8903  3.2779   8
  -1  -5  16 15.6526  3.0677   8
   1   5  16 21.2171  3.1388   6
  -5   1  16 19.3982  2.9894   4
   1  -5 -16 20.0415  2.2948   1
   3   5 -16 151.597   5.341   1
  -3  -5 -16 158.512   5.526   1
   5  -3 -16 158.222   5.478   1
  -3   5  16 155.173   6.694   4
  -3   5  16 167.851   6.463   6
   5   3  16 166.629   6.594   6
   3  -5  16 161.785   6.644   8
   5   3  16 171.421   6.993   8
  -5   3 -16 164.274   5.226   1
  -5   3 -16 168.282   5.297   1
  -5  -3  16 163.202   7.773   7
  -5  -3  16 155.889   6.708   4
   5   3 -16 159.320   5.480   1
  -3  -5  16 163.406   7.944   7
  -3  -5  16 149.273   6.805   4
  -5  -3 -16 161.830   5.487   1
   3  -5 -16 170.101   5.589   1
  -3   5 -16 156.850   5.164   1
  -5   3  16 143.602   6.342   4
   5  -3  16 166.306   7.010   8
  -3  -5  16 163.546   6.851   8
  -5  -5  16 12.2906  3.2056   4
   5  -5 -16 12.7784  2.3853   1
   5   5 -16 15.5926  2.5203   1
  -5   5  16 15.0070  3.0840   4
  -5   5 -16 15.7543  2.3583   1
  -5  -5 -16 10.6457  2.3879   1
  -5  -5  16 15.6402  4.0156   7
   5  -5  16 10.2708  2.8868   8
   0  -6  16 462.181  12.167   8
   6   0 -16 458.880  10.933   1
   0  -6  16 463.555  12.651   4
  -6   0  16 457.252  13.260   7
  -6   0 -16 452.208  10.647   1
   0  -6  16 460.605  13.581   7
   6   0  16 460.801  13.110   8
   0   6 -16 443.079  10.451   1
   0  -6 -16 462.066  10.926   1
  -6   0  16 441.633  11.851   4
  -2  -6 -16 84.5957  4.1553   1
   6  -2 -16 83.7492  4.1094   1
   2  -6  16 77.8739  4.7137   8
   2  -6  16 84.6499  4.9118   4
  -2   6  16 67.9500  4.9740   4
  -6  -2  16 85.2981  5.0491   4
   6   2  16 75.4414  5.3186   8
  -6  -2  16 77.8131  5.5045   7
   2   6 -16 81.0187  3.9771   1
  -6   2 -16 79.8195  3.8612   1
   2  -6  16 80.6752  5.2129   7
   2  -6 -16 82.1716  4.0661   1
  -2   6 -16 82.3855  3.8041   1
  -6   2  16 80.3785  4.8361   4
  -2  -6  16 80.5689  5.3907   4
   6   2 -16 78.6093  4.0363   1
  -6  -2 -16 79.7132  3.9727   1
  -2  -6  16 74.5891  5.7406   7
   6  -2  16 80.0545  5.2505   8
  -2  -6  16 84.6588  5.2016   8
   6  -4 -16 96.9475  4.6369   1
   4  -6  16 105.879   5.649   8
  -6   4 -16 97.2950  4.4138   1
  -4  -6 -16 92.7681  4.5556   1
  -6   4 -16 101.651   4.457   1
  -6  -4  16 89.8754  5.5152   4
   4   6 -16 97.6258  4.5043   1
  -6  -4  16 97.7051  6.6638   7
  -4   6  16 103.418   5.837   4
   6  -4  16 106.339   5.870   8
   4  -6 -16 97.7158  4.5766   1
  -4  -6  16 90.0886  5.8504   4
  -6   4  16 97.2372  5.3937   4
  -4   6 -16 101.564   4.450   1
  -6  -4 -16 87.1612  4.3814   1
  -4  -6  16 87.3976  6.6919   7
   6   4 -16 96.9289  4.7373   1
   1  -7  16 40.6977  4.0875   8
   7   1  16 31.3421  4.4521   8
  -7  -1  16 26.7559  3.5555   4
   1   7 -16 33.9330  2.9690   1
   1  -7  16 38.9709  4.4540   7
  -7  -1  16 36.4067  4.4861   7
  -1  -7 -16 29.2028  3.0814   1
   7  -1 -16 32.2791  3.2370   1
   1  -7  16 34.7756  4.0951   4
  -7   1 -16 31.2008  2.9525   1
  -7   1  16 33.5182  3.8095   4
  -1  -7  16 37.2753  4.1126   8
   1  -7 -16 33.5386  3.0735   1
  -1  -7  16 34.7773  4.5734   7
   7  -1  16 30.7973  4.2633   8
  -7  -1 -16 33.3209  3.0919   1
  -1   7 -16 33.7983  2.9238   1
  -1  -7  16 35.8464  4.4111   4
   7   1 -16 34.7650  3.2389   1
   0   1  17 2.39241 1.97654   4
   0  -1  17 6.00865 2.18363   4
  -1   0  17 -0.3686  2.0467   7
   0   1  17 1.32182 1.92182   6
   0  -1  17 0.67944 1.96250   8
   0  -1  17 0.89035 2.14838   7
  -1   0  17 1.93018 2.04520   8
   0   1  17 4.41821 2.31309   8
   1   0  17 -0.8058  1.9119   8
  -1   0  17 -0.7225  1.7849   4
   1   0  17 -0.1460  1.7803   4
  -1   0  17 1.61632 1.95543   6
   1   0  17 0.51308 1.82844   6
   0  -1  17 0.91351 1.89643   6
   2   1  17 1327.15   26.49   8
   2   1  17 1308.16   25.37   6
  -2  -1  17 1319.19   28.89   7
  -2  -1  17 1321.41   25.55   6
   1  -2  17 1341.01   25.61   4
  -2  -1  17 1279.57   25.79   4
   1  -2  17 1331.75   28.78   7
   2   1  17 1365.35   25.50   4
  -1   2  17 1295.40   25.68   4
   1  -2  17 1301.92   26.48   8
  -1   2  17 1327.64   26.23   8
  -2  -1  17 1314.35   26.67   8
  -1   2  17 1299.03   25.37   6
   1  -2  17 1342.89   25.55   6
  -1  -2  17 1290.63   28.83   7
   1   2  17 1298.87   26.06   8
   2  -1  17 1310.05   26.56   8
   2  -1  17 1369.92   25.54   4
  -2   1  17 1304.88   28.61   7
  -2   1  17 1329.45   26.47   8
  -2   1  17 1308.22   25.30   6
   1   2  17 1280.90   25.42   6
  -1  -2  17 1293.24   25.53   6
   2  -1  17 1327.43   25.35   6
  -1  -2  17 1296.44   25.83   4
  -1  -2  17 1283.72   26.46   8
  -2   1  17 1303.95   25.80   4
   1   2  17 1348.34   25.75   4
   3   0  17 1.81761 2.14316   8
  -3   0  17 0.52790 1.97351   4
   0  -3 -17 -0.0427  1.1505   1
   0   3  17 2.64887 2.07306   6
  -3   0  17 1.26821 2.27618   7
   0   3  17 -1.8014  1.9902   8
  -3   0  17 -1.3186  1.7563   6
   0  -3  17 -1.2763  1.9125   8
   3   0 -17 1.99917 1.25643   1
   0  -3  17 -0.5633  1.9293   4
   0   3  17 1.23438 1.97800   4
  -3   0  17 0.18388 2.03473   8
   3   0  17 1.51102 1.99225   6
   0  -3  17 -1.6480  2.0376   7
   3   0  17 2.07354 1.95274   4
   2   3 -17 95.0774  3.4291   1
  -3  -2  17 84.3060  5.0218   4
  -2   3  17 103.220   5.211   8
  -3  -2  17 100.974   6.003   7
  -3  -2  17 102.903   5.471   8
   2  -3  17 93.7190  5.2465   8
   2  -3  17 105.522   5.689   7
  -3   2 -17 100.397   3.295   1
  -2   3  17 98.6914  5.1982   4
   2  -3  17 106.841   5.025   4
   3   2  17 109.325   5.097   4
   3   2  17 96.1133  5.1781   8
   3   2  17 99.6524  5.0747   6
  -2   3  17 96.3821  4.9842   6
   2  -3  17 95.2521  5.0091   6
  -2  -3 -17 102.955   3.651   1
   2   3  17 104.950   5.192   4
  -3  -2 -17 101.892   3.617   1
   3  -2  17 98.3402  5.0497   6
   2   3  17 101.193   5.217   8
   3  -2  17 95.1360  5.2928   8
   3   2 -17 102.701   3.542   1
  -2  -3  17 92.9062  5.8177   7
   2  -3 -17 100.372   3.645   1
  -2   3 -17 101.254   3.292   1
  -2  -3  17 98.6081  5.3152   4
  -3   2  17 96.0356  5.0383   4
  -3   2  17 102.013   5.385   8
  -2  -3  17 100.258   5.377   8
  -3   2  17 101.713   5.063   6
   2   3  17 99.2497  5.1306   6
   4   1  17 586.333  14.705   8
  -4  -1  17 543.353  13.912   4
   1  -4  17 577.260  15.452   7
  -4   1 -17 585.433  11.656   1
   4   1  17 567.990  13.615   6
  -4  -1  17 578.065  15.737   7
  -1  -4 -17 586.403  11.995   1
  -4  -1  17 560.599  14.645   8
   1   4 -17 572.423  11.661   1
  -1   4  17 563.509  13.713   6
  -1   4  17 554.002  13.937   4
   1  -4  17 591.983  14.000   4
   1  -4  17 566.278  14.200   8
   4  -1 -17 576.554  12.025   1
  -4  -1 -17 585.428  11.844   1
  -1  -4  17 574.088  14.145   4
   1   4  17 575.451  14.059   4
   4  -1  17 567.579  13.353   6
   4  -1  17 555.372  14.456   8
  -4   1  17 556.561  13.911   4
  -4   1  17 570.778  14.484   8
   1  -4 -17 592.306  12.046   1
  -1  -4  17 532.922  15.531   7
  -4   1  17 562.171  15.228   7
  -4   1  17 558.993  13.357   6
  -1  -4  17 557.849  14.264   8
   3  -4  17 54.3389  4.3602   7
  -4  -3  17 57.8479  4.5587   8
   3  -4  17 59.0242  4.5628   8
  -3  -4 -17 51.3843  3.0787   1
  -3   4  17 48.8971  3.9537   6
  -4  -3  17 50.0809  4.2592   4
  -3   4  17 51.6135  4.1706   4
   3   4 -17 48.7852  3.0259   1
  -4  -3  17 45.9979  5.0106   7
  -4   3 -17 52.5549  2.8461   1
   4  -3 -17 52.9444  3.0677   1
   4   3  17 61.9662  4.4078   8
   3   4  17 49.5298  4.1100   4
  -4   3  17 44.5156  4.0626   8
  -4   3  17 46.3202  4.0707   4
   3  -4 -17 51.2967  3.1188   1
   4   3 -17 54.5135  3.0884   1
  -3  -4  17 45.7140  4.3979   4
  -4   3  17 53.2795  3.9388   6
  -3  -4  17 52.6806  4.3600   8
  -4  -3 -17 55.2059  3.1233   1
  -3   4 -17 47.2126  2.8001   1
   4  -3  17 55.1044  4.3638   8
  -3  -4  17 51.9073  4.9307   7
   5   0 -17 -0.1259  1.5473   1
  -5   0  17 -0.7070  2.0567   4
   0   5 -17 1.00947 1.44942   1
   0   5  17 -0.3484  2.2649   4
   5   0  17 2.79574 2.26912   6
   0  -5  17 -0.5316  2.3664   7
   0  -5  17 0.93812 2.22899   4
  -5   0  17 5.57431 2.58731   7
   0  -5 -17 1.58941 1.61319   1
  -5   0 -17 2.20727 1.59569   1
   5   0  17 -1.5679  2.3063   8
   0  -5  17 3.11641 2.28116   8
  -2   5  17 1334.61   27.67   4
   5   2  17 1359.52   28.49   8
   5  -2 -17 1366.95   26.34   1
   2  -5  17 1403.60   27.23   4
  -5  -2  17 1377.88   27.73   4
  -5  -2  17 1394.86   31.07   7
   2   5 -17 1374.91   26.05   1
   2  -5  17 1375.77   28.09   8
   2  -5  17 1419.02   30.23   7
  -5   2 -17 1406.83   25.98   1
  -2  -5 -17 1406.26   26.49   1
   2  -5 -17 1414.81   26.45   1
  -5   2  17 1430.22   26.63   6
   5  -2  17 1378.10   28.63   8
  -2  -5  17 1369.27   28.17   4
  -2   5 -17 1389.08   25.84   1
  -2  -5  17 1370.55   28.25   8
  -5   2  17 1355.22   27.43   4
  -5  -2 -17 1398.19   26.32   1
   5   2 -17 1381.17   26.37   1
  -2  -5  17 1305.18   30.99   7
  -5   2  17 1401.67   30.16   7
   5  -4 -17 582.018  13.537   1
  -5   4 -17 619.940  13.268   1
   4  -5  17 623.941  15.300   8
  -4   5  17 608.196  15.219   4
  -5  -4  17 601.243  17.514   7
   4   5 -17 586.895  13.415   1
  -4  -5 -17 594.079  13.587   1
  -5  -4  17 595.446  15.345   4
  -4   5 -17 595.652  13.136   1
  -5  -4 -17 603.326  13.566   1
   5  -4  17 614.291  15.538   8
  -4  -5  17 604.956  17.966   7
  -4  -5  17 606.995  15.657   8
   4  -5 -17 599.990  13.637   1
  -4  -5  17 576.676  15.458   4
  -5   4  17 593.506  14.902   4
   5   4 -17 589.863  13.530   1
   1   6 -17 216.651   6.487   1
   1  -6  17 228.660   8.165   8
  -6  -1  17 215.841   8.054   4
   1  -6  17 229.809   8.355   4
  -6   1 -17 218.819   6.522   1
   1  -6  17 216.548   8.768   7
   6  -1 -17 215.350   6.743   1
  -6  -1  17 228.417   9.025   7
  -1  -6 -17 223.089   6.801   1
   6   1  17 225.795   8.848   8
  -1  -6  17 215.042   9.137   7
  -1   6 -17 225.394   6.442   1
   6   1 -17 215.954   6.757   1
   6  -1  17 218.296   8.605   8
  -6   1  17 204.349   7.741   4
   1  -6 -17 210.748   6.665   1
  -1  -6  17 214.632   8.027   8
  -1  -6  17 223.337   8.572   4
  -6  -1 -17 214.036   6.568   1
  -6   1  17 217.879   8.595   7
   0   0  18 9.80048 2.64083   8
   0   0  18 18.9357  2.9662   4
   0   0  18 14.6062  2.7124   6
  -1  -1  18 14.9018  3.2035   7
   1  -1  18 10.8717  2.7150   8
   1  -1  18 13.7525  3.0091   7
   1  -1  18 11.8337  2.5939   4
   1  -1  18 15.4242  2.8044   6
   1   1  18 15.3524  2.8992   8
   1   1  18 15.8320  2.7694   6
  -1   1  18 14.3715  2.6616   4
  -1   1  18 13.4834  2.8529   8
  -1   1  18 11.0184  2.6038   6
  -1  -1  18 8.56161 2.59701   8
  -1  -1  18 10.7748  2.5976   4
  -1  -1  18 13.7332  2.8210   6
   1   1  18 10.5968  2.6147   4
  -2   0  18 213.948   7.774   8
   0  -2  18 209.609   7.705   8
   0  -2  18 212.068   8.484   7
   0   2  18 213.840   7.645   8
  -2   0  18 210.020   7.386   6
   0   2  18 190.712   7.229   4
   2   0  18 205.513   7.700   8
  -2   0  18 209.333   8.386   7
   2   0  18 210.546   7.240   4
   2   0  18 203.341   7.341   6
   0  -2  18 208.644   7.447   4
  -2   0  18 205.290   7.526   4
   2  -2  18 23.1415  3.1990   6
  -2  -2  18 32.9300  4.2731   7
   2  -2  18 27.5260  3.7525   7
   2   2  18 27.4447  3.3378   4
  -2  -2  18 32.3159  3.7648   8
   2  -2 -18 25.8258  2.0623   1
  -2   2  18 31.4981  3.6659   8
   2  -2  18 31.2075  3.7371   8
  -2   2  18 24.6573  3.3791   4
   2  -2  18 28.8096  3.3504   4
  -2  -2  18 34.2364  3.7025   4
   2   2  18 26.6482  3.4985   8
  -1  -3 -18 27.6363  2.1146   1
  -1   3  18 24.7030  3.3678   4
  -1   3  18 27.5635  3.5635   8
   3   1  18 28.9189  3.7038   8
   3   1  18 29.0350  3.3773   4
   1  -3  18 33.0627  4.0871   7
  -3  -1  18 32.8015  3.7575   4
   3  -1 -18 32.4466  2.2666   1
  -3  -1  18 29.6344  4.0424   7
   1  -3  18 29.6839  3.6594   8
   1  -3  18 29.6678  3.4450   4
  -3  -1  18 26.3174  3.6402   8
  -1  -3  18 29.4283  3.6703   4
  -1  -3  18 25.2801  3.9199   7
  -3   1  18 32.6624  3.9509   7
  -1  -3  18 30.5774  3.7617   8
   1   3  18 26.1339  3.5098   8
   3  -1  18 28.8272  3.4345   6
  -3   1  18 30.5376  3.7176   8
  -3   1  18 25.6253  3.4341   4
   3  -1  18 26.9640  3.6236   8
   1  -3 -18 28.8930  2.1306   1
   1   3  18 28.3784  3.4440   4
  -3   3 -18 164.125   4.719   1
   3  -3  18 154.791   6.864   8
  -3  -3 -18 159.119   4.976   1
   3   3 -18 163.266   4.894   1
  -3  -3  18 166.832   7.971   7
   3   3  18 158.933   6.624   4
  -3   3  18 141.574   6.537   4
   3  -3 -18 170.473   5.116   1
  -3  -3  18 158.554   7.011   8
  -3  -3  18 151.802   6.862   4
   3   3  18 156.787   6.802   8
   0  -4  18 182.726   7.345   8
   4   0 -18 184.538   5.332   1
   4   0  18 176.790   7.422   8
  -4   0  18 187.745   8.084   7
  -4   0 -18 188.908   5.150   1
   0   4 -18 191.805   5.080   1
   0  -4  18 187.647   7.405   4
   0   4  18 176.334   7.185   4
   0  -4  18 176.338   8.007   7
  -4   0  18 184.768   7.718   8
   0  -4 -18 202.097   5.487   1
  -4   0  18 170.270   7.140   4
   2   4 -18 17.6596  2.0422   1
  -4   2 -18 18.1223  2.0324   1
  -4  -2  18 19.8279  3.7777   7
  -2   4  18 18.9844  3.2071   4
   2  -4  18 19.5407  3.3591   8
  -4  -2  18 14.3992  2.9881   4
   4  -2 -18 17.8072  2.2322   1
   2  -4  18 17.1250  3.4098   7
   2  -4  18 22.5716  3.2933   4
  -4  -2  18 23.6823  3.7278   8
   4   2  18 21.3669  3.4747   8
  -2  -4 -18 20.0292  2.2159   1
   4   2 -18 19.2460  2.2296   1
   2  -4 -18 19.8761  2.2782   1
   4  -2  18 16.4227  3.1719   8
  -4   2  18 14.4190  3.1338   8
  -4  -2 -18 15.0001  2.0407   1
  -2   4 -18 17.3783  1.9386   1
  -4   2  18 14.4103  3.1365   4
  -2  -4  18 14.9402  3.2332   8
  -2  -4  18 11.2730  3.3598   7
   2   4  18 16.6448  3.2078   4
  -2  -4  18 12.8922  3.0512   4
  -5   1 -18 20.0410  2.2498   1
  -1   5  18 17.3934  3.2612   4
   1  -5  18 14.5556  3.1472   8
  -5  -1  18 13.9861  3.0707   4
   1  -5  18 19.8520  3.6394   7
   5  -1 -18 16.2409  2.3604   1
  -1  -5 -18 12.8993  2.1723   1
   1  -5  18 14.6664  3.2502   4
   1   5 -18 15.7188  2.0783   1
   5   1  18 17.3320  3.5400   8
  -5  -1  18 18.8957  3.7311   7
  -1  -5  18 14.1187  3.3041   8
  -1  -5  18 17.7256  3.4010   4
   1   5  18 15.7344  3.2165   4
  -1  -5  18 17.1693  3.6127   7
   5  -1  18 17.9159  3.4738   8
  -5   1  18 20.5725  3.3815   4
  -5  -1 -18 17.4237  2.2455   1
   5   1 -18 15.6612  2.2606   1
  -1   5 -18 18.8578  2.1341   1
   1  -5 -18 17.3607  2.2478   1
  -5   1  18 23.0284  3.7189   7
   0   1  19 1.06343 2.35929   8
  -1   0  19 1.70908 2.22026   4
   1   0  19 -0.7922  2.0919   4
   0  -1  19 0.03299 2.11012   4
   0   1  19 2.21419 2.24915   4
  -1   0  19 1.75721 2.40401   7
   0  -1  19 4.69050 2.41178   8
  -1   0  19 -0.1285  2.2549   8
   0  -1  19 1.71117 2.18476   7
   1   0  19 -0.6435  2.1026   8
   2   1  19 66.7486  4.5422   4
  -1   2  19 64.5602  4.5365   4
   2   1  19 64.6693  4.6418   8
  -1   2  19 60.0988  4.5011   8
   1  -2  19 56.9680  4.3014   4
  -2  -1  19 52.8066  4.2792   4
  -2  -1  19 62.9268  4.6355   8
  -2  -1  19 62.2258  5.1001   7
   1  -2  19 58.1195  4.6628   8
   1  -2  19 55.7667  4.9109   7
   2  -1  19 56.0353  4.5067   8
  -1  -2  19 56.6745  4.9741   7
  -1  -2  19 56.2373  4.5484   8
  -1  -2  19 55.9595  4.4478   4
   1   2  19 51.1020  4.2097   4
   2  -1  19 50.8858  4.0967   4
  -2   1  19 57.3233  4.4317   8
   1   2  19 61.2000  4.4773   8
  -2   1  19 57.6919  4.4233   4
   0  -3  19 1.77763 2.31395   8
   3   0  19 -2.5642  2.1838   8
   0   3  19 0.74594 2.16044   4
   0  -3  19 -1.8252  2.4314   7
  -3   0  19 -0.1287  2.3954   7
  -3   0  19 -1.4257  2.4608   8
   0   3  19 -1.1349  2.3250   8
   0  -3  19 2.65194 2.34147   4
  -3   0  19 -0.6490  2.2400   4
  -3  -2  19 -1.3068  2.2095   8
  -3  -2  19 0.81819 2.75394   7
   2  -3  19 1.00438 2.29052   4
   3  -2 -19 1.83422 1.46382   1
   2  -3  19 3.63828 2.52626   8
   3   2  19 -0.1018  2.4741   8
   2  -3  19 0.78756 2.72384   7
  -3  -2  19 0.85728 2.24552   4
   3   2  19 0.68683 2.12494   4
  -2   3  19 1.73826 2.27445   4
  -2  -3  19 0.14145 2.31177   4
  -2  -3  19 -0.0487  2.5387   7
  -2  -3  19 0.65807 2.49775   8
  -3   2  19 -1.5202  2.1709   4
   3  -2  19 1.41816 2.41794   8
   2  -3 -19 1.14987 1.51827   1
   2   3  19 -3.7644  2.2106   8
   2   3  19 2.06086 2.37063   4
  -3   2  19 4.87954 2.57318   8
   1  -4  19 51.4705  4.6460   8
   4   1  19 64.8695  4.9074   8
   1  -4  19 54.0968  4.9884   7
  -4  -1  19 62.4445  4.7063   4
  -4  -1  19 53.2218  4.9886   7
  -1   4  19 52.7138  4.4747   4
  -4  -1  19 51.3735  4.6528   8
   1  -4  19 58.5639  4.5751   4
   4  -1 -19 65.8689  3.2943   1
  -1  -4 -19 56.2852  3.0877   1
   4  -1  19 57.3079  4.7633   8
  -4   1  19 59.0318  4.9702   7
   1  -4 -19 61.2779  3.1592   1
   4   1 -19 58.5832  3.0744   1
  -4   1  19 61.3969  4.6958   4
   1   4  19 57.6501  4.6221   4
  -1  -4  19 57.0168  5.2127   7
  -1  -4  19 57.8164  4.7334   8
  -1  -4  19 56.7422  4.6525   4
  -4   1  19 64.2734  4.8515   8
   0   0  20 2289.72   42.54   4
   0   0  20 2328.59   43.99   8
  -1  -1  20 64.1853  4.7726   4
  -1   1  20 66.3764  4.8206   4
   1  -1  20 66.4614  4.7001   4
  -1   1  20 60.9138  4.7466   8
   1  -1  20 64.2757  4.8242   8
   1   1  20 70.7668  4.9731   8
   1   1  20 72.1575  4.7952   4
  -1  -1  20 64.1777  5.2667   7
  -1  -1  20 57.8932  4.7656   8
   0   0   0    0.00    0.00   0
;
_shelx_hkl_checksum              5022
loop_
_space_group_symop_operation_xyz
'x, y, z'
'-x, -y, z'
'-y, x, z'
'y, -x, z'
'-x, y, -z+1/2'
'x, -y, -z+1/2'
'y, x, -z+1/2'
'-y, -x, -z+1/2'
'x+1/2, y+1/2, z+1/2'
'-x+1/2, -y+1/2, z+1/2'
'-y+1/2, x+1/2, z+1/2'
'y+1/2, -x+1/2, z+1/2'
'-x+1/2, y+1/2, -z+1'
'x+1/2, -y+1/2, -z+1'
'y+1/2, x+1/2, -z+1'
'-y+1/2, -x+1/2, -z+1'
'-x, -y, -z'
'x, y, -z'
'y, -x, -z'
'-y, x, -z'
'x, -y, z-1/2'
'-x, y, z-1/2'
'-y, -x, z-1/2'
'y, x, z-1/2'
'-x+1/2, -y+1/2, -z+1/2'
'x+1/2, y+1/2, -z+1/2'
'y+1/2, -x+1/2, -z+1/2'
'-y+1/2, x+1/2, -z+1/2'
'x+1/2, -y+1/2, z'
'-x+1/2, y+1/2, z'
'-y+1/2, -x+1/2, z'
'y+1/2, x+1/2, z'
loop_
_atom_site_label
_atom_site_type_symbol
_atom_site_fract_x
_atom_site_fract_y
_atom_site_fract_z
_atom_site_U_iso_or_equiv
_atom_site_adp_type
_atom_site_occupancy
_atom_site_site_symmetry_order
_atom_site_calc_flag
_atom_site_refinement_flags_posn
_atom_site_refinement_flags_adp
_atom_site_refinement_flags_occupancy
_atom_site_disorder_assembly
_atom_site_disorder_group
Ba1 Ba 0.15870(2) 0.65870(2) 0.0000 0.00860(13) Uani 1 4 d S T P . .
Ba2 Ba 0.0000 0.0000 0.2500 0.01343(15) Uani 0.5 8 d S T P . .
Cs2 Cs 0.0000 0.0000 0.2500 0.01343(15) Uani 0.5 8 d S T P . .
Ti1 Ti 0.0000 0.5000 0.2500 0.0087(2) Uani 1 8 d S T P . .
Se1 Se 0.64956(3) 0.14956(3) 0.14890(3) 0.01568(14) Uani 1 2 d S T P . .
Se2 Se 0.0000 0.0000 0.0000 0.0147(2) Uani 0.5 8 d S T P . .
Cl2 Cl 0.0000 0.0000 0.0000 0.0147(2) Uani 0.5 8 d S T P . .
loop_
_atom_site_aniso_label
_atom_site_aniso_U_11
_atom_site_aniso_U_22
_atom_site_aniso_U_33
_atom_site_aniso_U_23
_atom_site_aniso_U_13
_atom_site_aniso_U_12
Ba1 0.00880(15) 0.00880(15) 0.00820(18) 0.000 0.000 -0.00201(7)
Ba2 0.00952(17) 0.00952(17) 0.0212(2) 0.000 0.000 0.000
Cs2 0.00952(17) 0.00952(17) 0.0212(2) 0.000 0.000 0.000
Ti1 0.0101(3) 0.0101(3) 0.0058(4) 0.000 0.000 0.000
Se1 0.01862(17) 0.01862(17) 0.0098(2) 0.00126(8) 0.00126(8) -0.00757(11)
Se2 0.0101(3) 0.0101(3) 0.0240(4) 0.000 0.000 0.000
Cl2 0.0101(3) 0.0101(3) 0.0240(4) 0.000 0.000 0.000
loop_
_atom_type_symbol
_atom_type_description
_atom_type_scat_dispersion_real
_atom_type_scat_dispersion_imag
_atom_type_scat_source
Cl Cl 0.1484 0.1585 'International Tables Vol C Tables 4.2.6.8 and 6.1.1.4'
Ti Ti 0.2776 0.4457 'International Tables Vol C Tables 4.2.6.8 and 6.1.1.4'
Se Se -0.0929 2.2259 'International Tables Vol C Tables 4.2.6.8 and 6.1.1.4'
Cs Cs -0.3680 2.1192 'International Tables Vol C Tables 4.2.6.8 and 6.1.1.4'
Ba Ba -0.3244 2.2819 'International Tables Vol C Tables 4.2.6.8 and 6.1.1.4'
loop_
_geom_angle_atom_site_label_1
_geom_angle_atom_site_label_2
_geom_angle_atom_site_label_3
_geom_angle
_geom_angle_site_symmetry_1
_geom_angle_site_symmetry_3
Se1 Ba1 Se1 83.720(16) 2_665 17_665
Se1 Ba1 Cl2 75.198(4) 2_665 13_554
Se1 Ba1 Cl2 75.198(4) 17_665 13_554
Se1 Ba1 Se2 75.198(4) 2_665 13_554
Se1 Ba1 Se2 75.198(4) 17_665 13_554
Cl2 Ba1 Se2 0.0 13_554 13_554
Se1 Ba1 Cl2 75.198(4) 2_665 1_565
Se1 Ba1 Cl2 75.198(4) 17_665 1_565
Cl2 Ba1 Cl2 139.877(8) 13_554 1_565
Se2 Ba1 Cl2 139.877(8) 13_554 1_565
Se1 Ba1 Se2 75.198(4) 2_665 1_565
Se1 Ba1 Se2 75.198(4) 17_665 1_565
Cl2 Ba1 Se2 139.9 13_554 1_565
Se2 Ba1 Se2 139.877(8) 13_554 1_565
Cl2 Ba1 Se2 0.0 1_565 1_565
Se1 Ba1 Se1 147.006(5) 2_665 20
Se1 Ba1 Se1 90.734(10) 17_665 20
Cl2 Ba1 Se1 134.599(6) 13_554 20
Se2 Ba1 Se1 134.599(6) 13_554 20
Cl2 Ba1 Se1 71.944(5) 1_565 20
Se2 Ba1 Se1 71.944(5) 1_565 20
Se1 Ba1 Se1 147.006(5) 2_665 19_565
Se1 Ba1 Se1 90.734(10) 17_665 19_565
Cl2 Ba1 Se1 71.944(5) 13_554 19_565
Se2 Ba1 Se1 71.944(5) 13_554 19_565
Cl2 Ba1 Se1 134.599(6) 1_565 19_565
Se2 Ba1 Se1 134.599(6) 1_565 19_565
Se1 Ba1 Se1 65.195(11) 20 19_565
Se1 Ba1 Se1 90.734(10) 2_665 4_565
Se1 Ba1 Se1 147.006(5) 17_665 4_565
Cl2 Ba1 Se1 71.944(5) 13_554 4_565
Se2 Ba1 Se1 71.944(5) 13_554 4_565
Cl2 Ba1 Se1 134.599(6) 1_565 4_565
Se2 Ba1 Se1 134.599(6) 1_565 4_565
Se1 Ba1 Se1 110.266(9) 20 4_565
Se1 Ba1 Se1 76.462(12) 19_565 4_565
Se1 Ba1 Se1 90.734(10) 2_665 3
Se1 Ba1 Se1 147.006(5) 17_665 3
Cl2 Ba1 Se1 134.599(6) 13_554 3
Se2 Ba1 Se1 134.599(6) 13_554 3
Cl2 Ba1 Se1 71.944(5) 1_565 3
Se2 Ba1 Se1 71.944(5) 1_565 3
Se1 Ba1 Se1 76.462(12) 20 3
Se1 Ba1 Se1 110.266(9) 19_565 3
Se1 Ba1 Se1 65.195(11) 4_565 3
Se1 Ba1 Ba1 138.140(8) 2_665 17_565
Se1 Ba1 Ba1 138.140(8) 17_665 17_565
Cl2 Ba1 Ba1 110.061(4) 13_554 17_565
Se2 Ba1 Ba1 110.061(4) 13_554 17_565
Cl2 Ba1 Ba1 110.061(4) 1_565 17_565
Se2 Ba1 Ba1 110.061(4) 1_565 17_565
Se1 Ba1 Ba1 55.133(5) 20 17_565
Se1 Ba1 Ba1 55.133(5) 19_565 17_565
Se1 Ba1 Ba1 55.133(5) 4_565 17_565
Se1 Ba1 Ba1 55.133(5) 3 17_565
Se1 Ba1 Ti1 160.681(10) 2_665 17_565
Se1 Ba1 Ti1 76.961(7) 17_665 17_565
Cl2 Ba1 Ti1 99.518(1) 13_554 17_565
Se2 Ba1 Ti1 99.518(1) 13_554 17_565
Cl2 Ba1 Ti1 99.518(1) 1_565 17_565
Se2 Ba1 Ti1 99.518(1) 1_565 17_565
Se1 Ba1 Ti1 35.138(6) 20 17_565
Se1 Ba1 Ti1 35.138(6) 19_565 17_565
Se1 Ba1 Ti1 105.461(8) 4_565 17_565
Se1 Ba1 Ti1 105.461(8) 3 17_565
Ba1 Ba1 Ti1 61.179(3) 17_565 17_565
Cl2 Ba2 Se2 180.0 5 .
Cl2 Ba2 Se2 0.0 5 5
Se2 Ba2 Se2 180.0 . 5
Cl2 Ba2 Se1 113.409(6) 5 3_545
Se2 Ba2 Se1 66.591(6) . 3_545
Se2 Ba2 Se1 113.409(6) 5 3_545
Cl2 Ba2 Se1 66.591(6) 5 28_545
Se2 Ba2 Se1 113.409(6) . 28_545
Se2 Ba2 Se1 66.591(6) 5 28_545
Se1 Ba2 Se1 139.988(10) 3_545 28_545
Cl2 Ba2 Se1 66.591(6) 5 25
Se2 Ba2 Se1 113.409(6) . 25
Se2 Ba2 Se1 66.591(6) 5 25
Se1 Ba2 Se1 137.773(10) 3_545 25
Se1 Ba2 Se1 80.919(4) 28_545 25
Cl2 Ba2 Se1 113.409(6) 5 1_455
Se2 Ba2 Se1 66.591(6) . 1_455
Se2 Ba2 Se1 113.409(6) 5 1_455
Se1 Ba2 Se1 80.919(4) 3_545 1_455
Se1 Ba2 Se1 137.773(10) 28_545 1_455
Se1 Ba2 Se1 63.241(10) 25 1_455
Cl2 Ba2 Se1 66.591(6) 5 27_455
Se2 Ba2 Se1 113.409(6) . 27_455
Se2 Ba2 Se1 66.591(6) 5 27_455
Se1 Ba2 Se1 63.241(10) 3_545 27_455
Se1 Ba2 Se1 133.182(11) 28_545 27_455
Se1 Ba2 Se1 80.919(4) 25 27_455
Se1 Ba2 Se1 64.861(11) 1_455 27_455
Cl2 Ba2 Se1 113.409(6) 5 4_565
Se2 Ba2 Se1 66.591(6) . 4_565
Se2 Ba2 Se1 113.409(6) 5 4_565
Se1 Ba2 Se1 133.182(11) 3_545 4_565
Se1 Ba2 Se1 63.241(10) 28_545 4_565
Se1 Ba2 Se1 64.861(11) 25 4_565
Se1 Ba2 Se1 80.919(4) 1_455 4_565
Se1 Ba2 Se1 139.988(10) 27_455 4_565
Cl2 Ba2 Se1 66.591(6) 5 26_445
Se2 Ba2 Se1 113.409(6) . 26_445
Se2 Ba2 Se1 66.591(6) 5 26_445
Se1 Ba2 Se1 64.861(11) 3_545 26_445
Se1 Ba2 Se1 80.919(4) 28_545 26_445
Se1 Ba2 Se1 133.182(11) 25 26_445
Se1 Ba2 Se1 139.988(10) 1_455 26_445
Se1 Ba2 Se1 80.919(4) 27_455 26_445
Se1 Ba2 Se1 137.773(10) 4_565 26_445
Cl2 Ba2 Se1 113.409(6) 5 2_655
Se2 Ba2 Se1 66.591(6) . 2_655
Se2 Ba2 Se1 113.409(6) 5 2_655
Se1 Ba2 Se1 80.919(4) 3_545 2_655
Se1 Ba2 Se1 64.861(11) 28_545 2_655
Se1 Ba2 Se1 139.988(10) 25 2_655
Se1 Ba2 Se1 133.182(11) 1_455 2_655
Se1 Ba2 Se1 137.773(10) 27_455 2_655
Se1 Ba2 Se1 80.919(4) 4_565 2_655
Se1 Ba2 Se1 63.241(10) 26_445 2_655
Se1 Ti1 Se1 112.222(10) 26_455 4_565
Se1 Ti1 Se1 112.222(10) 26_455 3
Se1 Ti1 Se1 104.100(19) 4_565 3
Se1 Ti1 Se1 104.100(19) 26_455 25
Se1 Ti1 Se1 112.222(10) 4_565 25
Se1 Ti1 Se1 112.222(10) 3 25
Se1 Ti1 Ba1 99.129(10) 26_455 .
Se1 Ti1 Ba1 57.398(8) 4_565 .
Se1 Ti1 Ba1 57.398(8) 3 .
Se1 Ti1 Ba1 156.771(9) 25 .
Se1 Ti1 Ba1 156.771(9) 26_455 17_565
Se1 Ti1 Ba1 57.398(8) 4_565 17_565
Se1 Ti1 Ba1 57.398(8) 3 17_565
Se1 Ti1 Ba1 99.129(10) 25 17_565
Ba1 Ti1 Ba1 57.642(6) . 17_565
Se1 Ti1 Ba1 57.398(8) 26_455 27_455
Se1 Ti1 Ba1 99.129(10) 4_565 27_455
Se1 Ti1 Ba1 156.771(9) 3 27_455
Se1 Ti1 Ba1 57.398(8) 25 27_455
Ba1 Ti1 Ba1 140.139(4) . 27_455
Ba1 Ti1 Ba1 140.139(4) 17_565 27_455
Se1 Ti1 Ba1 57.398(8) 26_455 11
Se1 Ti1 Ba1 156.771(9) 4_565 11
Se1 Ti1 Ba1 99.129(10) 3 11
Se1 Ti1 Ba1 57.398(8) 25 11
Ba1 Ti1 Ba1 140.139(4) . 11
Ba1 Ti1 Ba1 140.139(4) 17_565 11
Ba1 Ti1 Ba1 57.642(7) 27_455 11
Se1 Ti1 Cs2 56.111(5) 26_455 25
Se1 Ti1 Cs2 56.111(5) 4_565 25
Se1 Ti1 Cs2 123.889(5) 3 25
Se1 Ti1 Cs2 123.889(5) 25 25
Ba1 Ti1 Cs2 70.070(2) . 25
Ba1 Ti1 Cs2 109.931(2) 17_565 25
Ba1 Ti1 Cs2 70.069(2) 27_455 25
Ba1 Ti1 Cs2 109.931(2) 11 25
Se1 Ti1 Cs2 123.889(5) 26_455 25_455
Se1 Ti1 Cs2 123.889(5) 4_565 25_455
Se1 Ti1 Cs2 56.111(5) 3 25_455
Se1 Ti1 Cs2 56.111(5) 25 25_455
Ba1 Ti1 Cs2 109.930(2) . 25_455
Ba1 Ti1 Cs2 70.069(2) 17_565 25_455
Ba1 Ti1 Cs2 109.931(2) 27_455 25_455
Ba1 Ti1 Cs2 70.069(2) 11 25_455
Cs2 Ti1 Cs2 180.0 25 25_455
Se1 Ti1 Cs2 56.111(5) 26_455 1_565
Se1 Ti1 Cs2 123.889(5) 4_565 1_565
Se1 Ti1 Cs2 56.111(5) 3 1_565
Se1 Ti1 Cs2 123.889(5) 25 1_565
Ba1 Ti1 Cs2 70.070(2) . 1_565
Ba1 Ti1 Cs2 109.931(2) 17_565 1_565
Ba1 Ti1 Cs2 109.931(2) 27_455 1_565
Ba1 Ti1 Cs2 70.069(2) 11 1_565
Cs2 Ti1 Cs2 90.0 25 1_565
Cs2 Ti1 Cs2 90.0 25_455 1_565
Ti1 Se1 Ba1 176.090(17) 25 17_665
Ti1 Se1 Ba1 87.463(9) 25 3_655
Ba1 Se1 Ba1 89.329(9) 17_665 3_655
Ti1 Se1 Ba1 87.463(9) 25 19
Ba1 Se1 Ba1 89.329(9) 17_665 19
Ba1 Se1 Ba1 69.735(9) 3_655 19
Ti1 Se1 Cs2 91.458(8) 25 25
Ba1 Se1 Cs2 90.592(7) 17_665 25
Ba1 Se1 Cs2 86.753(4) 3_655 25
Ba1 Se1 Cs2 156.487(9) 19 25
Ti1 Se1 Ba2 91.458(8) 25 25
Ba1 Se1 Ba2 90.592(7) 17_665 25
Ba1 Se1 Ba2 86.753(4) 3_655 25
Ba1 Se1 Ba2 156.487(9) 19 25
Cs2 Se1 Ba2 0.0 25 25
Ti1 Se1 Ba2 91.458(8) 25 1_655
Ba1 Se1 Ba2 90.592(7) 17_665 1_655
Ba1 Se1 Ba2 156.487(9) 3_655 1_655
Ba1 Se1 Ba2 86.753(4) 19 1_655
Cs2 Se1 Ba2 116.8 25 1_655
Ba2 Se1 Ba2 116.759(10) 25 1_655
Ti1 Se1 Cs2 91.458(8) 25 1_655
Ba1 Se1 Cs2 90.592(7) 17_665 1_655
Ba1 Se1 Cs2 156.487(9) 3_655 1_655
Ba1 Se1 Cs2 86.753(4) 19 1_655
Cs2 Se1 Cs2 116.759(10) 25 1_655
Ba2 Se1 Cs2 116.759(10) 25 1_655
Ba2 Se1 Cs2 0.0 1_655 1_655
Ba1 Se2 Ba1 180.0 19_455 3_655
Ba1 Se2 Ba1 90.0 19_455 17_565
Ba1 Se2 Ba1 90.0 3_655 17_565
Ba1 Se2 Ba1 90.0 19_455 1_545
Ba1 Se2 Ba1 90.0 3_655 1_545
Ba1 Se2 Ba1 180.0 17_565 1_545
Ba1 Se2 Cs2 90.0 19_455 17
Ba1 Se2 Cs2 90.0 3_655 17
Ba1 Se2 Cs2 90.0 17_565 17
Ba1 Se2 Cs2 90.0 1_545 17
Ba1 Se2 Ba2 90.0 19_455 .
Ba1 Se2 Ba2 90.0 3_655 .
Ba1 Se2 Ba2 90.0 17_565 .
Ba1 Se2 Ba2 90.0 1_545 .
Cs2 Se2 Ba2 180.0 17 .
Ba1 Se2 Ba2 90.0 19_455 17
Ba1 Se2 Ba2 90.0 3_655 17
Ba1 Se2 Ba2 90.0 17_565 17
Ba1 Se2 Ba2 90.0 1_545 17
Cs2 Se2 Ba2 0.0 17 17
Ba2 Se2 Ba2 180.0 . 17
loop_
_geom_bond_atom_site_label_1
_geom_bond_atom_site_label_2
_geom_bond_distance
_geom_bond_site_symmetry_2
Ba1 Se1 3.2001(4) 2_665
Ba1 Se1 3.2001(4) 17_665
Ba1 Cl2 3.30836(11) 13_554
Ba1 Se2 3.30836(11) 13_554
Ba1 Cl2 3.30836(11) 1_565
Ba1 Se2 3.30836(11) 1_565
Ba1 Se1 3.4509(4) 20
Ba1 Se1 3.4509(4) 19_565
Ba1 Se1 3.4509(4) 4_565
Ba1 Se1 3.4509(4) 3
Ba1 Ba1 3.9456(5) 17_565
Ba1 Ti1 4.09228(15) 17_565
Ba2 Cl2 3.58538(10) 5
Ba2 Se2 3.58538(10) .
Ba2 Se2 3.58538(10) 5
Ba2 Se1 3.6494(2) 3_545
Ba2 Se1 3.6494(2) 28_545
Ba2 Se1 3.6494(2) 25
Ba2 Se1 3.6494(2) 1_455
Ba2 Se1 3.6494(2) 27_455
Ba2 Se1 3.6494(2) 4_565
Ba2 Se1 3.6494(2) 26_445
Ba2 Se1 3.6494(2) 2_655
Ti1 Se1 2.3576(4) 26_455
Ti1 Se1 2.3576(4) 4_565
Ti1 Se1 2.3576(4) 3
Ti1 Se1 2.3576(4) 25
Ti1 Ba1 4.09230(15) 17_565
Ti1 Ba1 4.09229(15) 27_455
Ti1 Ba1 4.09229(15) 11
Ti1 Cs2 4.39485(10) 25
Ti1 Cs2 4.39485(10) 25_455
Ti1 Cs2 4.39485(10) 1_565
Se1 Ti1 2.3576(4) 25
Se1 Ba1 3.2001(4) 17_665
Se1 Ba1 3.4509(4) 3_655
Se1 Ba1 3.4509(4) 19
Se1 Cs2 3.6494(2) 25
Se1 Ba2 3.6494(2) 25
Se1 Ba2 3.6494(2) 1_655
Se1 Cs2 3.6494(2) 1_655
Se2 Ba1 3.30835(11) 19_455
Se2 Ba1 3.30835(11) 3_655
Se2 Ba1 3.30835(11) 17_565
Se2 Ba1 3.30835(11) 1_545
Se2 Cs2 3.58538(10) 17
Se2 Ba2 3.58538(10) 17
