#------------------------------------------------------------------------------
#$Date: 2021-03-10 11:56:35 +0200 (Wed, 10 Mar 2021) $
#$Revision: 262968 $
#$URL: file:///home/coder/svn-repositories/cod/cif/1/56/09/1560992.cif $
#------------------------------------------------------------------------------
#
# This file is available in the Crystallography Open Database (COD),
# http://www.crystallography.net/
#
# All data on this site have been placed in the public domain by the
# contributors.
#
data_1560992
loop_
_publ_author_name
'\/Dor\/devi\'c, Tamara'
'Karanovi\'c, Ljiljana'
'Jagli\<ci\'c, Zvonko'
_publ_section_title
;
 A new copper(II) arsenate, Na2Cu3(AsO3OH)4&#x00B7;4H2O containing
 discrete [Cu3O12]18&#x2212; units: Synthesis, crystal structure and
 magnetic properties
;
_journal_name_full               'Journal of Solid State Chemistry'
_journal_page_first              55
_journal_page_last               63
_journal_paper_doi               10.1016/j.jssc.2018.05.024
_journal_volume                  265
_journal_year                    2018
_chemical_formula_sum            'As2 Cu1.5 H4 Na O9'
_chemical_formula_weight         416.17
_space_group_crystal_system      monoclinic
_space_group_IT_number           14
_space_group_name_Hall           '-P 2ybc'
_space_group_name_H-M_alt        'P 1 21/c 1'
_atom_sites_solution_hydrogens   difmap
_cell_angle_alpha                90
_cell_angle_beta                 92.63(3)
_cell_angle_gamma                90
_cell_formula_units_Z            4
_cell_length_a                   8.7089(17)
_cell_length_b                   9.7452(19)
_cell_length_c                   9.3353(19)
_cell_measurement_reflns_used    6788
_cell_measurement_temperature    293(2)
_cell_measurement_theta_max      34.972
_cell_measurement_theta_min      0.407
_cell_volume                     791.5(3)
_computing_cell_refinement       'HKL SCALEPACK (Otwinowski and Minor, 1997)'
_computing_data_collection       'COLLECT (Nonius, 2002)'
_computing_data_reduction        'DENZO-SMN (Otwinowski <i>et al</i>., 2003)'
_computing_structure_refinement  'SHELXL-2018/1 (Sheldrick, 2018)'
_diffrn_ambient_temperature      293(2)
_diffrn_measured_fraction_theta_full 0.999
_diffrn_measured_fraction_theta_max 0.999
_diffrn_measurement_device_type
'Nonius Kappa CCD single-crystal four-circle diffractometer'
_diffrn_measurement_method       '\f and \w scans'
_diffrn_radiation_type           MoK\a
_diffrn_radiation_wavelength     0.71073
_diffrn_reflns_av_R_equivalents  0.0424
_diffrn_reflns_av_unetI/netI     0.0294
_diffrn_reflns_Laue_measured_fraction_full 0.999
_diffrn_reflns_Laue_measured_fraction_max 0.999
_diffrn_reflns_limit_h_max       13
_diffrn_reflns_limit_h_min       -13
_diffrn_reflns_limit_k_max       14
_diffrn_reflns_limit_k_min       -14
_diffrn_reflns_limit_l_max       14
_diffrn_reflns_limit_l_min       -14
_diffrn_reflns_number            11646
_diffrn_reflns_point_group_measured_fraction_full 0.999
_diffrn_reflns_point_group_measured_fraction_max 0.999
_diffrn_reflns_theta_full        25.242
_diffrn_reflns_theta_max         33.135
_diffrn_reflns_theta_min         2.341
_diffrn_source                   'fine-focus sealed tube'
_exptl_absorpt_coefficient_mu    12.443
_exptl_absorpt_correction_T_max  0.6365
_exptl_absorpt_correction_T_min  0.4769
_exptl_absorpt_correction_type   multi-scan
_exptl_crystal_colour            blue
_exptl_crystal_density_diffrn    3.493
_exptl_crystal_density_method    'not measured'
_exptl_crystal_description       plate-like
_exptl_crystal_F_000             786
_exptl_crystal_size_max          0.080
_exptl_crystal_size_mid          0.070
_exptl_crystal_size_min          0.040
_refine_diff_density_max         1.144
_refine_diff_density_min         -0.820
_refine_diff_density_rms         0.162
_refine_ls_extinction_coef       0.0002(2)
_refine_ls_extinction_expression Fc^*^=kFc[1+0.001xFc^2^\l^3^/sin(2\q)]^-1/4^
_refine_ls_extinction_method     'SHELXL-2018/1 (Sheldrick 2018)'
_refine_ls_goodness_of_fit_ref   1.052
_refine_ls_hydrogen_treatment    refall
_refine_ls_matrix_type           full
_refine_ls_number_parameters     141
_refine_ls_number_reflns         3013
_refine_ls_number_restraints     4
_refine_ls_restrained_S_all      1.051
_refine_ls_R_factor_all          0.0389
_refine_ls_R_factor_gt           0.0278
_refine_ls_shift/su_max          0.001
_refine_ls_shift/su_mean         0.000
_refine_ls_structure_factor_coef Fsqd
_refine_ls_weighting_details
'w=1/[\s^2^(Fo^2^)+(0.0300P)^2^+0.7676P] where P=(Fo^2^+2Fc^2^)/3'
_refine_ls_weighting_scheme      calc
_refine_ls_wR_factor_gt          0.0602
_refine_ls_wR_factor_ref         0.0636
_reflns_Friedel_coverage         0.000
_reflns_Friedel_fraction_full    .
_reflns_Friedel_fraction_max     .
_reflns_number_gt                2487
_reflns_number_total             3013
_reflns_threshold_expression     'I > 2\s(I)'
_cod_data_source_file            JSSC-2018-265-55.cif
_cod_data_source_block           1
_cod_original_cell_volume        791.4(3)
_cod_original_sg_symbol_H-M      'P 21/c'
_cod_original_formula_sum        'As2 Cu1.50 H4 Na O9'
_cod_database_code               1560992
_shelx_space_group_comment
;
The symmetry employed for this shelxl refinement is uniquely defined
by the following loop, which should always be used as a source of
symmetry information in preference to the above space-group names.
They are only intended as comments.
;
_shelx_estimated_absorpt_t_min   0.436
_shelx_estimated_absorpt_t_max   0.636
_shelx_res_file
;

TITL CuAsparacel in P2(1)/c  Na2Cu3(HAsO4)4&#x00B7;4H2O
    shelx.res
    created by SHELXL-2018/1 at 12:56:14 on 12-Mar-2018
CELL  0.71073   8.7089   9.7452   9.3353   90.000   92.634   90.000
ZERR     4.00   0.0017   0.0019   0.0019    0.000    0.030    0.000
LATT   1
SYMM  - X, 1/2 + Y, 1/2 - Z
SFAC  O    H    CU   AS   NA
UNIT  36 16 6 8 4
MERG   2
OMIT     0   1   1
OMIT    -2   1   4
FMAP   2
PLAN   11
ACTA
shel  100 .65
HTAB    2.00000
DFIX     0.850   0.010 O9 H1
DFIX     0.850   0.010 O9 H2
DFIX     0.820   0.010 O4 H4
DFIX     0.820   0.010 O8 H8
size 0.04 0.07 0.08

CONN 15 O1 3.5
CONN 15 O2 3.5
CONN 15 O3 3.5
CONN 15 O4 3.5
CONN 15 O5 3.5
CONN 15 O6 3.5
CONN 15 O7 3.5
CONN 15 O8 3.5
CONN 15 O9 3.5

EQIV $4 x+1, -y+3/2, z-1/2
EQIV $3 -x, -y+1, -z
EQIV $2 -x+1, -y+1, -z
EQIV $1 x+1, y, z-1
HTAB O9 O6_$1
HTAB O9 O4_$2
HTAB O8 O9_$3
HTAB O4 O8_$4

BOND  $H
L.S.  10

WGHT    0.030000    0.767600
EXTI    0.000209
FVAR       0.24272
MOLE    1
AS1   4    0.112300    0.697504    0.104044    11.00000    0.01381    0.01202 =
         0.01177    0.00025    0.00160    0.00048
AS2   4   -0.288834    0.687817    0.527497    11.00000    0.01290    0.01587 =
         0.01187   -0.00101    0.00206    0.00080
CU1   3   -0.100709    0.855801    0.319384    11.00000    0.01578    0.01648 =
         0.01104    0.00067    0.00180   -0.00101
CU2   3    0.000000    1.000000    0.000000    10.50000    0.01449    0.01564 =
         0.01876    0.00604   -0.00126   -0.00241
NA1   5    0.222333    0.496037   -0.196761    11.00000    0.02474    0.03045 =
         0.01887   -0.00185    0.00356    0.00494
O1    1    0.061296    0.576624    0.215734    11.00000    0.02719    0.01207 =
         0.01743    0.00414    0.00701   -0.00003
O2    1    0.096945    0.665293   -0.071455    11.00000    0.01852    0.02301 =
         0.01261   -0.00321    0.00217    0.00128
O3    1    0.019983    0.847283    0.140227    11.00000    0.01705    0.01199 =
         0.01325    0.00156    0.00396    0.00223
O4    1    0.305500    0.732162    0.142314    11.00000    0.01409    0.03260 =
         0.02364    0.00554   -0.00113   -0.00238
O5    1   -0.219648    0.843744    0.490797    11.00000    0.01996    0.01629 =
         0.01534   -0.00091    0.00481   -0.00144
O6    1   -0.294217    0.672308    0.705894    11.00000    0.01681    0.02694 =
         0.01165    0.00175    0.00244    0.00030
O7    1   -0.202192    0.560088    0.441786    11.00000    0.01669    0.02160 =
         0.01990   -0.00809   -0.00052    0.00552
O8    1   -0.479083    0.676122    0.466805    11.00000    0.01115    0.03387 =
         0.02242   -0.00603   -0.00101    0.00208
O9    1    0.490805    0.480121   -0.223009    11.00000    0.02592    0.03001 =
         0.03606    0.00589   -0.00427   -0.00321
H1    2    0.549151    0.546330   -0.241401    11.00000    0.05312
H2    2    0.546318    0.430642   -0.166729    11.00000    0.04021
H8    2   -0.463826    0.624614    0.399565    11.00000    0.06390
H4    2    0.332148    0.772750    0.070757    11.00000    0.07536
HKLF    4




REM  CuAsparacel in P2(1)/c  Na2Cu3(HAsO4)4&#x00B7;4H2O
REM R1 =  0.0278 for    2487 Fo > 4sig(Fo)  and  0.0389 for all    3013 data
REM    141 parameters refined using      4 restraints

END

WGHT      0.0300      0.7710

REM Instructions for potential hydrogen bonds
HTAB O9 O6_$1
HTAB O9 O4_$2
HTAB As2 O9_$3
HTAB O8 O9_$3
HTAB O4 O8_$4

REM Highest difference peak  1.144,  deepest hole -0.820,  1-sigma level  0.162
Q1    1   0.0860  0.4682 -0.3133  11.00000  0.05    0.93
Q2    1   0.4973  0.3611 -0.2430  11.00000  0.05    0.82
Q3    1   0.4723  0.6928 -0.1609  11.00000  0.05    0.81
Q4    1   0.2830  0.8603  0.0448  11.00000  0.05    0.79
Q5    1  -0.0894  0.7691  0.3206  11.00000  0.05    0.77
Q6    1   0.3115  0.8489 -0.1055  11.00000  0.05    0.75
Q7    1   0.0749  0.7029  0.2642  11.00000  0.05    0.71
Q8    1   0.5183  0.6913 -0.3245  11.00000  0.05    0.67
Q9    1  -0.3795  0.6986  0.4751  11.00000  0.05    0.67
Q10   1   0.1148  0.9283  0.1014  11.00000  0.05    0.64
Q11   1   0.6007  0.5018 -0.0720  11.00000  0.05    0.64
;
_shelx_res_checksum              89089
_shelx_hkl_file
;
   0   0   1    0.40    0.20   1
   0   0  -1    0.60    0.20   1
   0   0   2  603.20    7.90   1
   0   0  -2  607.40    8.50   1
   0   0   3    1.40    0.50   1
   0   0  -3    0.80    0.50   1
   0   0   4  193.60    3.20   1
   0   0  -4  187.00    3.20   1
   0   0   5    0.60    0.70   1
   0   0  -5   -0.50    0.70   1
   0   0   6  525.30    9.00   1
   0   0  -6  522.90    8.90   1
   0   0   7    0.40    1.40   1
   0   0  -7    0.30    0.90   1
   0   0   8    2.30    1.30   1
   0   0  -8    1.00    1.20   1
   0   0   9    0.40    1.60   1
   0   0  -9    1.40    1.50   1
   0   0  10  372.00   10.90   1
   0   0 -10  372.90   11.00   1
   0   0  11   -2.00    2.60   1
   0   0 -11   -2.00    2.60   1
   0   0  12    2.60    3.20   1
   0   0 -12    5.10    4.40   1
   0   0  13   -1.10    3.90   1
   0   0 -13    3.30    5.30   1
   0   0  14  103.40    8.00   1
   0   0 -14  122.30    9.60   1
   0   1 -14   31.10    9.50   1
   0  -1  14   21.40   10.30   1
   0   1 -13   14.10    4.20   1
   0  -1  13   11.70    3.30   1
   0   1 -12   70.80    6.40   1
   0  -1  12   77.70    4.60   1
   0   1 -11   47.80    3.40   1
   0  -1  11   40.40    3.40   1
   0   1 -10  551.00   14.50   1
   0  -1  10  541.60   15.00   1
   0   1  -9    0.60    1.50   1
   0  -1   9    4.00    1.80   1
   0   1  -8   18.50    1.60   1
   0  -1   8   15.00    1.80   1
   0   1  -7  277.90    6.10   1
   0  -1   7  267.80    6.00   1
   0   1  -6  101.80    2.70   1
   0  -1   6   99.70    2.40   1
   0   1  -5    2.40    0.80   1
   0  -1   5    1.30    0.70   1
   0   1  -4  463.90    7.70   1
   0  -1   4  460.50    7.00   1
   0   1  -3 2122.30   35.70   1
   0  -1   3 2100.50   28.80   1
   0   1  -2  755.40   11.80   1
   0  -1   2  752.70   13.40   1
   0   1  -1   -0.30    0.40   1
   0  -1   1   -1.30    0.60   1
   0   1   0    1.00    0.20   1
   0  -1   0    1.90    0.20   1
   0   1   1   -0.40    0.40   1
   0  -1  -1    0.00    0.30   1
   0   1   2  732.50   10.30   1
   0  -1  -2  742.20   10.30   1
   0   1   3 2204.70   29.30   1
   0  -1  -3 2185.20   26.90   1
   0   1   4  471.70    7.50   1
   0  -1  -4  477.00    6.40   1
   0   1   5    2.40    0.70   1
   0  -1  -5    1.20    0.60   1
   0   1   6  100.10    2.10   1
   0  -1  -6  104.00    2.20   1
   0   1   7  271.50    6.70   1
   0  -1  -7  288.10    5.90   1
   0   1   8   13.30    1.80   1
   0  -1  -8   12.20    1.40   1
   0   1   9    1.50    1.80   1
   0  -1  -9    1.10    1.30   1
   0   1  10  555.50   15.00   1
   0  -1 -10  594.20   15.20   1
   0   1  11   46.80    3.20   1
   0  -1 -11   47.40    3.40   1
   0   1  12   77.30    4.70   1
   0  -1 -12   68.70    9.20   1
   0   1  13   12.00    4.60   1
   0  -1 -13   13.90    5.30   1
   0   1  14   26.60    5.70   1
   0  -1 -14   27.70    6.30   1
   0   2 -14  121.30   10.20   1
   0  -2  14   80.80   13.40   1
   0   2 -13   27.70    5.20   1
   0  -2  13   21.60    4.00   1
   0   2 -12    9.10    4.70   1
   0  -2  12   18.50    3.50   1
   0   2 -11    1.40    2.40   1
   0  -2  11   -5.00    2.70   1
   0   2 -10    3.30    2.30   1
   0  -2  10    4.60    2.30   1
   0   2  -9   10.10    2.20   1
   0  -2   9   13.30    1.90   1
   0   2  -8   18.50    1.60   1
   0  -2   8   18.20    1.60   1
   0   2  -7 1204.40   21.70   1
   0  -2   7 1162.10   22.50   1
   0   2  -6   26.70    1.70   1
   0  -2   6   26.60    1.40   1
   0   2  -5    8.50    0.90   1
   0  -2   5    6.90    0.80   1
   0   2  -4  485.30    8.60   1
   0  -2   4  502.10    7.90   1
   0   2  -3   61.50    1.50   1
   0  -2   3   68.80    1.70   1
   0   2  -2  527.30    9.90   1
   0  -2   2  544.90    9.00   1
   0   2  -1  287.00    5.50   1
   0  -2   1  293.40    5.90   1
   0   2   0 1187.20   16.40   1
   0  -2   0 1173.40   17.80   1
   0   2   1  292.20    4.80   1
   0  -2  -1  292.10    4.50   1
   0   2   2  565.10    8.90   1
   0  -2  -2  568.80    8.10   1
   0   2   3   68.70    1.50   1
   0  -2  -3   68.80    1.50   1
   0   2   4  511.00    7.30   1
   0  -2  -4  512.30    8.10   1
   0   2   5    6.90    0.80   1
   0  -2  -5    8.60    0.70   1
   0   2   6   26.10    1.40   1
   0  -2  -6   21.60    1.00   1
   0   2   7 1211.60   24.50   1
   0  -2  -7 1228.60   19.30   1
   0   2   8   17.90    1.70   1
   0  -2  -8   18.10    1.30   1
   0   2   9   13.40    2.00   1
   0  -2  -9   15.80    2.00   1
   0   2  10    1.30    1.90   1
   0  -2 -10   -0.40    2.30   1
   0   2  11    1.00    2.60   1
   0  -2 -11    1.10    2.30   1
   0   2  12   13.10    4.00   1
   0  -2 -12    8.60    4.50   1
   0   2  13   27.80    4.90   1
   0  -2 -13   20.80    5.60   1
   0   2  14  137.10    9.40   1
   0  -2 -14  131.60    9.80   1
   0   3 -14   -0.10    4.60   1
   0  -3  14   -6.60    9.90   1
   0   3 -13   19.00    6.00   1
   0  -3  13    6.90    5.20   1
   0   3 -12  104.10    7.40   1
   0  -3  12   92.10    5.10   1
   0   3 -11  453.70   13.50   1
   0  -3  11  466.60   13.30   1
   0   3 -10    1.40    3.50   1
   0  -3  10    2.30    1.80   1
   0   3  -9   26.80    3.60   1
   0  -3   9   24.60    2.10   1
   0   3  -8    6.90    2.00   1
   0  -3   8   11.20    1.50   1
   0   3  -7    5.00    1.70   1
   0  -3   7    4.80    1.30   1
   0   3  -6    3.30    1.40   1
   0  -3   6    0.70    1.00   1
   0   3  -5  331.20    7.40   1
   0  -3   5  344.50    6.10   1
   0   3  -4  113.20    3.10   1
   0  -3   4  110.80    2.60   1
   0   3  -3  240.20    5.20   1
   0  -3   3  245.40    4.80   1
   0   3  -2  765.80   16.30   1
   0  -3   2  769.30   14.30   1
   0   3  -1  201.50    3.70   1
   0  -3   1  215.30    5.20   1
   0   3   0    1.50    0.50   1
   0  -3   0    1.30    0.60   1
   0   3   1  209.60    3.40   1
   0  -3  -1  214.90    3.40   1
   0   3   2  805.70   12.40   1
   0  -3  -2  794.60   11.30   1
   0   3   3  264.20    4.60   1
   0  -3  -3  261.50    4.10   1
   0   3   4  115.90    2.30   1
   0  -3  -4  118.30    2.10   1
   0   3   5  359.40    6.10   1
   0  -3  -5  361.20    5.60   1
   0   3   6    2.70    1.20   1
   0  -3  -6    1.40    0.90   1
   0   3   7    5.20    1.40   1
   0  -3  -7    5.70    1.00   1
   0   3   8   13.10    1.70   1
   0  -3  -8   14.90    1.40   1
   0   3   9   30.00    1.50   1
   0  -3  -9   32.80    2.30   1
   0   3  10    3.10    2.00   1
   0  -3 -10    1.40    2.00   1
   0   3  11  499.40   17.60   1
   0  -3 -11  487.50   14.50   1
   0   3  12   95.80    6.80   1
   0  -3 -12  108.30    7.60   1
   0   3  13    9.30    4.60   1
   0  -3 -13   -1.50    5.00   1
   0   3  14    3.00    5.20   1
   0  -3 -14   11.00    6.00   1
   0   4 -14    7.80    7.00   1
   0  -4  14   10.10    6.60   1
   0   4 -13    5.10    6.00   1
   0  -4  13    9.70    5.80   1
   0   4 -12    4.00    5.10   1
   0  -4  12    2.50    4.90   1
   0   4 -11    1.90    4.00   1
   0  -4  11    0.70    2.10   1
   0   4 -10   24.30    4.10   1
   0  -4  10   19.40    2.40   1
   0   4  -9   92.80    8.70   1
   0  -4   9   97.30    3.70   1
   0   4  -8  192.20    7.20   1
   0  -4   8  187.30    5.00   1
   0   4  -7 1265.60   28.00   1
   0  -4   7 1284.70   25.20   1
   0   4  -6   41.90    2.40   1
   0  -4   6   37.00    1.70   1
   0   4  -5  299.30    7.70   1
   0  -4   5  300.90    6.80   1
   0   4  -4   38.70    1.60   1
   0  -4   4   41.00    1.40   1
   0   4  -3  156.80    3.80   1
   0  -4   3  151.30    3.20   1
   0   4  -2  134.30    2.80   1
   0  -4   2  132.40    3.20   1
   0   4  -1  231.60    4.30   1
   0  -4   1  240.30    4.50   1
   0   4   0    2.20    0.60   1
   0  -4   0    2.10    0.60   1
   0   4   1  242.80    4.00   1
   0  -4  -1  237.80    3.80   1
   0   4   2  136.40    2.60   1
   0  -4  -2  139.40    2.50   1
   0   4   3  161.60    3.60   1
   0  -4  -3  159.40    2.80   1
   0   4   4   45.40    1.40   1
   0  -4  -4   44.20    1.10   1
   0   4   5  307.60    6.20   1
   0  -4  -5  315.10    5.90   1
   0   4   6   40.40    1.70   1
   0  -4  -6   45.50    1.70   1
   0   4   7 1381.70   29.10   1
   0  -4  -7 1446.10   22.80   1
   0   4   8  190.80    6.70   1
   0  -4  -8  211.20    4.40   1
   0   4   9  112.80    5.30   1
   0  -4  -9  115.60    4.50   1
   0   4  10   22.20    3.40   1
   0  -4 -10   21.20    2.60   1
   0   4  11    1.70    3.60   1
   0  -4 -11   -1.70    2.30   1
   0   4  12    2.80    4.30   1
   0  -4 -12   -3.60    4.30   1
   0   4  13   -6.00    4.80   1
   0  -4 -13    7.10    3.80   1
   0   4  14   13.50    5.90   1
   0  -4 -14    9.10    4.70   1
   0   5 -14    0.90    6.90   1
   0  -5  14   15.40    6.80   1
   0   5 -13    1.70    5.00   1
   0  -5  13   -0.60    5.20   1
   0   5 -12   13.70    4.40   1
   0  -5  12   11.40    4.60   1
   0   5 -11   25.60    4.30   1
   0  -5  11   28.30    3.30   1
   0   5 -10  105.90    6.40   1
   0  -5  10  116.30    4.20   1
   0   5  -9   39.40    3.70   1
   0  -5   9   38.60    2.40   1
   0   5  -8    1.20    2.50   1
   0  -5   8    3.00    1.50   1
   0   5  -7  168.30    6.50   1
   0  -5   7  174.80    4.70   1
   0   5  -6   16.10    1.80   1
   0  -5   6   19.00    1.30   1
   0   5  -5 1335.10   28.90   1
   0  -5   5 1380.80   29.90   1
   0   5  -4  393.60    9.60   1
   0  -5   4  415.20    8.70   1
   0   5  -3 1165.30   21.40   1
   0  -5   3 1165.20   22.50   1
   0   5  -2  119.80    2.70   1
   0  -5   2  120.80    3.20   1
   0   5  -1   98.40    3.00   1
   0  -5   1  102.00    2.40   1
   0   5   0    0.10    0.70   1
   0  -5   0   -0.30    0.70   1
   0   5   1  100.20    2.00   1
   0  -5  -1  101.60    2.20   1
   0   5   2  120.00    2.50   1
   0  -5  -2  120.60    2.30   1
   0   5   3 1207.10   21.40   1
   0  -5  -3 1176.40   16.70   1
   0   5   4  421.60    8.20   1
   0  -5  -4  419.10    6.90   1
   0   5   5 1439.80   25.50   1
   0  -5  -5 1434.40   22.20   1
   0   5   6   18.20    1.70   1
   0  -5  -6   19.80    1.30   1
   0   5   7  187.30    6.20   1
   0  -5  -7  191.00    4.00   1
   0   5   8    3.50    2.50   1
   0  -5  -8    3.00    1.20   1
   0   5   9   54.80    3.90   1
   0  -5  -9   52.10    2.70   1
   0   5  10  133.70    6.20   1
   0  -5 -10  130.20    4.60   1
   0   5  11   26.00    3.80   1
   0  -5 -11   31.20    3.00   1
   0   5  12    8.70    4.70   1
   0  -5 -12    5.90    3.70   1
   0   5  13   10.00    5.10   1
   0  -5 -13    2.60    4.30   1
   0   5  14   -2.30    5.90   1
   0  -5 -14   -4.00    5.30   1
   0   6 -13   14.50    6.70   1
   0  -6  13   17.80    7.10   1
   0   6 -12    0.00    5.50   1
   0  -6  12   -1.80    5.60   1
   0   6 -11   -6.70    4.60   1
   0  -6  11    2.90    3.90   1
   0   6 -10  111.60    6.70   1
   0  -6  10   99.30    5.60   1
   0   6  -9  173.60    8.00   1
   0  -6   9  174.80    5.30   1
   0   6  -8    1.40    3.10   1
   0  -6   8    0.30    1.60   1
   0   6  -7  115.30    5.70   1
   0  -6   7  114.90    3.70   1
   0   6  -6  268.20    9.40   1
   0  -6   6  272.20    6.70   1
   0   6  -5  180.40    6.20   1
   0  -6   5  200.90    5.70   1
   0   6  -4  159.20    4.50   1
   0  -6   4  155.70    4.50   1
   0   6  -3   80.30    2.40   1
   0  -6   3   87.00    3.10   1
   0   6  -2  257.70    6.00   1
   0  -6   2  267.80    6.00   1
   0   6  -1  744.20   11.50   1
   0  -6   1  751.10   14.70   1
   0   6   0 3311.60   45.20   1
   0  -6   0 3396.90   50.70   1
   0   6   1  763.30   11.70   1
   0  -6  -1  759.90   12.80   1
   0   6   2  261.20    5.60   1
   0  -6  -2  258.70    4.70   1
   0   6   3   90.50    3.70   1
   0  -6  -3   87.80    2.10   1
   0   6   4  169.50    4.40   1
   0  -6  -4  166.30    3.50   1
   0   6   5  216.00    5.40   1
   0  -6  -5  215.00    4.30   1
   0   6   6  287.30    6.90   1
   0  -6  -6  289.40    5.60   1
   0   6   7  117.50    4.80   1
   0  -6  -7  123.10    3.10   1
   0   6   8    2.90    2.70   1
   0  -6  -8    0.80    1.70   1
   0   6   9  203.80    8.10   1
   0  -6  -9  205.10    5.70   1
   0   6  10  105.80    6.30   1
   0  -6 -10  120.70    4.50   1
   0   6  11    4.90    3.40   1
   0  -6 -11   -0.40    2.40   1
   0   6  12   -2.70    4.60   1
   0  -6 -12    2.60    3.80   1
   0   6  13    9.00    4.50   1
   0  -6 -13   13.00    6.40   1
   0   7 -13   11.40    7.00   1
   0  -7  13    8.50    7.10   1
   0   7 -12   97.60    7.50   1
   0  -7  12   94.40    9.00   1
   0   7 -11    2.80    4.80   1
   0  -7  11   -1.70    4.10   1
   0   7 -10   88.70    6.90   1
   0  -7  10   86.10    5.30   1
   0   7  -9  265.80   11.00   1
   0  -7   9  264.20    8.90   1
   0   7  -8    1.70    2.90   1
   0  -7   8    3.40    1.70   1
   0   7  -7   28.30    3.30   1
   0  -7   7   34.00    2.00   1
   0   7  -6    0.90    2.30   1
   0  -7   6    8.60    1.50   1
   0   7  -5  442.10   11.40   1
   0  -7   5  454.60   14.20   1
   0   7  -4   60.10    2.70   1
   0  -7   4   59.20    3.50   1
   0   7  -3   21.50    2.10   1
   0  -7   3   24.60    1.60   1
   0   7  -2  178.70    4.90   1
   0  -7   2  194.10    4.90   1
   0   7  -1    4.00    1.10   1
   0  -7   1    3.20    1.50   1
   0   7   0    1.40    1.00   1
   0  -7   0   -1.50    1.00   1
   0   7   1    2.90    1.00   1
   0  -7  -1    4.70    1.20   1
   0   7   2  203.80    5.10   1
   0  -7  -2  187.40    6.40   1
   0   7   3   27.90    1.90   1
   0  -7  -3   26.70    1.30   1
   0   7   4   64.20    3.20   1
   0  -7  -4   69.10    2.30   1
   0   7   5  489.50   11.30   1
   0  -7  -5  478.00    8.70   1
   0   7   6    7.40    1.80   1
   0  -7  -6    6.60    1.40   1
   0   7   7   36.50    3.50   1
   0  -7  -7   39.10    2.40   1
   0   7   8    0.80    2.90   1
   0  -7  -8   -0.70    1.80   1
   0   7   9  303.20   11.90   1
   0  -7  -9  316.40    8.30   1
   0   7  10  100.60    6.50   1
   0  -7 -10   90.60    4.30   1
   0   7  11    5.20    4.50   1
   0  -7 -11    4.60    3.10   1
   0   7  12   97.60    7.90   1
   0  -7 -12   97.70    8.30   1
   0   7  13   10.90    6.00   1
   0  -7 -13   12.50    6.60   1
   0   8 -12   49.20    7.30   1
   0  -8  12   50.40    8.10   1
   0   8 -11    4.10    4.80   1
   0  -8  11    9.30    5.10   1
   0   8 -10    0.50    4.70   1
   0  -8  10   -0.70    4.10   1
   0   8  -9   27.60    4.60   1
   0  -8   9   32.40    4.40   1
   0   8  -8   22.90    4.10   1
   0  -8   8   30.00    3.80   1
   0   8  -7   -6.30    2.90   1
   0  -8   7    2.40    1.50   1
   0   8  -6  201.70    7.50   1
   0  -8   6  201.00    5.40   1
   0   8  -5   62.30    3.90   1
   0  -8   5   56.70    2.40   1
   0   8  -4    6.80    2.00   1
   0  -8   4    5.10    1.60   1
   0   8  -3   35.70    2.30   1
   0  -8   3   36.50    2.30   1
   0   8  -2  407.20    8.70   1
   0  -8   2  404.50   10.30   1
   0   8  -1  342.50    7.30   1
   0  -8   1  348.70    8.90   1
   0   8   0  304.00    6.70   1
   0  -8   0  316.70    7.30   1
   0   8   1  341.90    7.10   1
   0  -8  -1  346.30    8.70   1
   0   8   2  410.30   10.00   1
   0  -8  -2  417.70   10.40   1
   0   8   3   36.70    4.40   1
   0  -8  -3   37.20    2.30   1
   0   8   4    6.10    2.30   1
   0  -8  -4    7.40    1.30   1
   0   8   5   60.80    3.00   1
   0  -8  -5   59.40    2.30   1
   0   8   6  198.20   10.10   1
   0  -8  -6  215.00    5.40   1
   0   8   7    3.80    2.90   1
   0  -8  -7    0.50    1.90   1
   0   8   8   32.00    3.90   1
   0  -8  -8   30.70    2.60   1
   0   8   9   37.40    4.30   1
   0  -8  -9   35.10    2.80   1
   0   8  10    6.90    4.20   1
   0  -8 -10    4.20    3.30   1
   0   8  11    5.00    5.00   1
   0  -8 -11    3.50    3.20   1
   0   8  12   71.70    7.60   1
   0  -8 -12   62.60    7.50   1
   0   9 -12  285.00   15.60   1
   0  -9  12  242.70   14.80   1
   0   9 -11   39.90    7.00   1
   0  -9  11   35.00    6.50   1
   0   9 -10   15.40    6.60   1
   0  -9  10   15.40    5.30   1
   0   9  -9    0.50    4.50   1
   0  -9   9   -1.10    4.20   1
   0   9  -8    1.50    4.00   1
   0  -9   8   -3.40    3.60   1
   0   9  -7    5.80    3.30   1
   0  -9   7    6.50    3.10   1
   0   9  -6   36.80    4.10   1
   0  -9   6   38.50    2.70   1
   0   9  -5   15.70    3.10   1
   0  -9   5   12.60    2.00   1
   0   9  -4   20.30    2.60   1
   0  -9   4   17.60    3.00   1
   0   9  -3   17.50    2.10   1
   0  -9   3   19.70    2.00   1
   0   9  -2  530.40   11.60   1
   0  -9   2  531.20   14.10   1
   0   9  -1    5.50    1.30   1
   0  -9   1    8.10    1.70   1
   0   9   0   -1.60    1.30   1
   0  -9   0   -0.50    2.20   1
   0   9   1    6.40    1.60   1
   0  -9  -1    5.60    1.70   1
   0   9   2  561.20   13.50   1
   0  -9  -2  539.60   13.10   1
   0   9   3   17.60    2.10   1
   0  -9  -3   18.10    2.30   1
   0   9   4   24.90    4.70   1
   0  -9  -4   21.00    2.30   1
   0  -9  -5   18.10    1.70   1
   0   9   6   46.90    3.90   1
   0  -9  -6   42.90    2.50   1
   0   9   7   14.20    3.00   1
   0  -9  -7    8.60    2.00   1
   0   9   8    4.40    2.90   1
   0  -9  -8    0.40    2.70   1
   0   9   9    4.30    4.30   1
   0  -9  -9    0.00    3.30   1
   0   9  10   20.00    5.00   1
   0  -9 -10   21.50    3.90   1
   0   9  11   51.10    6.30   1
   0  -9 -11   45.40    5.00   1
   0   9  12  293.00   14.90   1
   0  -9 -12  280.00   15.60   1
   0  10 -11    5.30    6.40   1
   0 -10  11    8.50    7.80   1
   0  10 -10   61.70    6.80   1
   0 -10  10   66.00    6.20   1
   0  10  -9   41.90    5.90   1
   0 -10   9   49.00    4.90   1
   0  10  -8  148.10   10.80   1
   0 -10   8  147.80    7.40   1
   0  10  -7   22.00    4.50   1
   0 -10   7   20.30    4.00   1
   0  10  -6   36.50    4.30   1
   0 -10   6   34.70    4.10   1
   0  10  -5   29.90    3.50   1
   0 -10   5   34.20    2.60   1
   0  10  -4    2.30    2.60   1
   0 -10   4   12.20    3.40   1
   0  10  -3    4.20    2.60   1
   0 -10   3    7.60    3.00   1
   0  10  -2  268.90    9.60   1
   0 -10   2  286.50   10.30   1
   0  10  -1   -3.20    2.00   1
   0 -10   1   -0.20    2.70   1
   0  10   0  196.10    7.50   1
   0 -10   0  191.10    7.40   1
   0  10   1   -1.10    1.90   1
   0 -10  -1   -1.90    1.90   1
   0  10   2  288.20    9.90   1
   0 -10  -2  311.80   10.40   1
   0  10   3    5.70    2.30   1
   0 -10  -3    8.60    2.50   1
   0  10   4    9.80    2.40   1
   0 -10  -4    6.50    2.30   1
   0  10   5   39.60    3.10   1
   0 -10  -5   35.60    3.20   1
   0  10   6   44.80    6.70   1
   0 -10  -6   44.50    3.70   1
   0  10   7   21.30    5.90   1
   0 -10  -7   17.60    3.40   1
   0  10   8  180.10   12.70   1
   0 -10  -8  158.40    6.80   1
   0  10   9   74.10    9.50   1
   0 -10  -9   56.50    4.90   1
   0  10  10   78.50   11.10   1
   0 -10 -10   73.00    5.50   1
   0  10  11   11.60    9.30   1
   0 -10 -11   21.50    6.50   1
   0  11 -10   -1.00    6.00   1
   0 -11  10    0.60    5.00   1
   0  11  -9   11.90    5.40   1
   0 -11   9   12.40    5.30   1
   0  11  -8   12.00    4.70   1
   0 -11   8    6.40    4.10   1
   0  11  -7   55.20    5.80   1
   0 -11   7   40.70    5.00   1
   0  11  -6    3.60    4.20   1
   0 -11   6   -0.30    3.30   1
   0  11  -5  328.70   17.10   1
   0 -11   5  281.00   17.30   1
   0  11  -4   34.40    3.70   1
   0 -11   4   25.40    4.20   1
   0  11  -3   70.40    4.90   1
   0 -11   3   70.20    5.10   1
   0  11  -2  180.90    7.80   1
   0 -11   2  173.10    6.30   1
   0  11  -1  128.00    5.90   1
   0 -11   1  122.90    6.50   1
   0  11   0    1.00    2.00   1
   0 -11   0   -1.90    3.80   1
   0  11   1  125.00    5.70   1
   0 -11  -1  135.10    7.00   1
   0  11   2  175.40    7.80   1
   0 -11  -2  163.90    6.10   1
   0  11   3   71.50    4.40   1
   0 -11  -3   72.10    5.40   1
   0  11   4   27.70    3.10   1
   0 -11  -4   30.90    3.10   1
   0  11   5  312.50   18.90   1
   0 -11  -5  307.70   10.20   1
   0  11   6   -6.30    4.20   1
   0 -11  -6   -1.50    2.70   1
   0  11   7   41.70    8.50   1
   0 -11  -7   52.00    4.10   1
   0  11   8    6.90    7.40   1
   0 -11  -8    4.90    3.30   1
   0  11   9   23.20    8.80   1
   0 -11  -9   16.00    3.90   1
   0  11  10   -0.70    9.00   1
   0 -11 -10   -4.60    5.80   1
   0  12  -9   72.50    7.60   1
   0 -12   9   72.00    6.70   1
   0  12  -8    4.80    6.10   1
   0 -12   8    1.40    6.50   1
   0  12  -7   32.60    5.20   1
   0 -12   7   26.90    4.70   1
   0  12  -6   42.80    5.70   1
   0 -12   6   37.10    4.70   1
   0  12  -5   85.00    5.90   1
   0 -12   5   90.00    5.40   1
   0  12  -4   80.80    6.00   1
   0 -12   4  101.20    7.50   1
   0  12  -3    4.80    3.30   1
   0 -12   3    5.80    5.00   1
   0  12  -2    3.70    3.00   1
   0 -12   2    5.50    3.40   1
   0  12  -1   80.70    5.40   1
   0 -12   1   83.30    4.90   1
   0  12   0    5.00    2.60   1
   0 -12   0    1.00    3.80   1
   0  12   1   78.60    4.90   1
   0 -12  -1   94.60    6.60   1
   0  12   2   -1.10    2.50   1
   0 -12  -2   -1.10    4.20   1
   0  12   3    2.20    4.10   1
   0 -12  -3   -1.30    3.40   1
   0  12   4  110.50    9.70   1
   0 -12  -4  106.10    6.90   1
   0  12   5  112.10   10.40   1
   0 -12  -5   93.50    7.10   1
   0  12   6   49.60    7.00   1
   0 -12  -6   41.30    5.20   1
   0  12   7   27.10    8.30   1
   0 -12  -7   20.00    5.80   1
   0  12   8    4.40    8.30   1
   0 -12  -8   -6.10    5.50   1
   0  12   9   84.10   11.30   1
   0 -12  -9   89.40    7.60   1
   0  13  -8    6.70    6.00   1
   0 -13   8   17.40    5.90   1
   0  13  -7    2.60    4.70   1
   0 -13   7   15.60    5.60   1
   0  13  -6   32.70    5.90   1
   0 -13   6   36.40    5.80   1
   0  13  -5  187.70   10.70   1
   0 -13   5  189.10    9.30   1
   0  13  -4   26.10    5.50   1
   0 -13   4   33.80    8.60   1
   0  13  -3    7.30    3.80   1
   0 -13   3   12.90    5.60   1
   0  13  -2   -4.80    3.30   1
   0 -13   2    4.70    5.00   1
   0  13  -1   14.30    7.80   1
   0 -13   1    1.80    3.60   1
   0  13   0   10.80    5.50   1
   0 -13   0   -0.60    3.10   1
   0  13   1   -3.20    5.10   1
   0 -13  -1   -3.10    4.40   1
   0  13   2    1.20    7.30   1
   0 -13  -2   -1.40    4.00   1
   0  13   3   10.40    7.40   1
   0 -13  -3    8.10    7.30   1
   0  13   4   24.60    6.10   1
   0 -13  -4   30.10    4.50   1
   0  13   5  208.90   15.30   1
   0 -13  -5  208.80   11.40   1
   0  13   6   38.90    7.30   1
   0 -13  -6   37.50    5.90   1
   0  13   7   -9.70    8.90   1
   0 -13  -7    7.30    8.20   1
   0  13   8   20.00   11.10   1
   0 -13  -8   12.20    9.70   1
   0  14  -6   25.40    8.90   1
   0 -14   6   15.30    4.40   1
   0  14  -5    2.80    9.80   1
   0 -14   5   13.00    4.70   1
   0  14  -4   14.00   10.00   1
   0 -14   4   -0.90    5.20   1
   0  14  -3   48.40    8.60   1
   0 -14   3   22.60    6.00   1
   0  14  -2   26.50    9.50   1
   0 -14   2   22.30    5.30   1
   0  14  -1   18.80    8.80   1
   0 -14   1    7.30    6.00   1
   0  14   0   52.20    9.30   1
   0 -14   0   32.30    5.30   1
   0  14   1   29.40    9.20   1
   0 -14  -1    9.50    5.90   1
   0  14   2   40.80    9.50   1
   0 -14  -2   32.50    6.70   1
   0  14   3   37.60    9.50   1
   0 -14  -3   39.60    6.80   1
   0  14   4   -8.20    9.20   1
   0 -14  -4    7.20    6.30   1
   0  14   5    2.40    8.90   1
   0 -14  -5   11.50    5.60   1
   0  14   6   22.60    7.70   1
   0 -14  -6   13.30    5.40   1
   0  15  -4    0.90    8.00   1
   0 -15   4    0.40    4.50   1
   0 -15   3   82.60    8.70   1
   0  15  -2   35.30   11.70   1
   0 -15   2   18.20    6.10   1
   0  15  -1   10.70   10.80   1
   0 -15   1    9.60    7.10   1
   0  15   0    7.70    9.80   1
   0 -15   0    4.10    6.80   1
   0  15   1    1.20    9.20   1
   0 -15  -1    1.70    5.50   1
   0  15   2    2.60    9.70   1
   0 -15  -2   28.50    7.10   1
   0  15   3   87.10   10.60   1
   0 -15  -3   98.70    7.20   1
   0 -15  -4   13.30    7.20   1
   1 -15  -4    0.10    7.90   1
  -1  15   4   11.80    7.60   1
   1 -15  -3    7.40    5.80   1
  -1  15   3    6.20    9.60   1
   1 -15  -2   58.80    6.70   1
   1 -15  -1   29.10    5.50   1
  -1  15   1   30.10    7.70   1
   1 -15   0    7.70    4.70   1
  -1  15   0    3.40    6.60   1
   1 -15   1    1.50    5.10   1
  -1  15  -1   -0.90    6.80   1
   1 -15   2   14.20    6.20   1
  -1  15  -2   13.00    8.20   1
   1 -15   3  121.70    9.70   1
  -1  15  -3  102.40   12.60   1
   1 -15   4   24.20   12.90   1
   1 -14  -6  116.90    9.80   1
  -1  14   6  128.10   13.70   1
   1 -14  -5   -7.20    5.40   1
  -1  14   5    3.70    9.00   1
   1 -14  -4   16.00    6.60   1
  -1  14   4   22.20    9.40   1
   1 -14  -3    0.10    8.10   1
  -1  14   3   -3.50    6.00   1
   1 -14  -2   27.10    6.30   1
  -1  14   2   20.20    8.80   1
   1 -14  -1   19.20    6.00   1
  -1  14   1   14.50    8.70   1
   1 -14   0  114.70    8.50   1
  -1  14   0   92.60   12.70   1
   1 -14   1  204.50   10.20   1
  -1  14  -1  173.50   15.20   1
   1 -14   2   27.10    6.00   1
  -1  14  -2   20.80    6.80   1
   1 -14   3   88.60    7.70   1
  -1  14  -3   73.50   12.00   1
   1 -14   4    7.20    6.30   1
  -1  14  -4    1.50    9.90   1
   1 -14   5    8.70    4.40   1
  -1  14  -5  -10.80    7.50   1
   1 -14   6    2.70    6.20   1
  -1  14  -6   18.10   10.90   1
   1 -13  -8   41.20    7.20   1
  -1  13   8   35.40   10.30   1
   1 -13  -7    0.60    5.80   1
  -1  13   7   11.00    9.10   1
   1 -13  -6   -6.20    5.30   1
  -1  13   6    8.50    8.00   1
   1 -13  -5    0.00    4.40   1
  -1  13   5    6.40    6.20   1
   1 -13  -4    8.10    4.40   1
  -1  13   4    9.30    7.30   1
   1 -13  -3  186.80    9.80   1
  -1  13   3  164.50   13.40   1
   1 -13  -2    0.70    3.90   1
  -1  13   2   10.30    7.40   1
   1 -13  -1  109.00    7.40   1
  -1  13   1  115.30   11.00   1
   1 -13   0    6.10    5.00   1
  -1  13   0    0.40    7.30   1
   1 -13   1   38.10    8.10   1
  -1  13  -1   31.80    6.40   1
   1 -13   2   17.00    4.10   1
  -1  13  -2   16.10    8.50   1
   1 -13   3   12.40    4.70   1
  -1  13  -3    6.40    8.70   1
   1 -13   4   30.50    5.60   1
  -1  13  -4   26.80    7.30   1
   1 -13   5   88.10   13.30   1
  -1  13  -5  102.60    7.20   1
   1 -13   6    8.20    3.90   1
  -1  13  -6    8.90    4.20   1
   1 -13   7   25.50    5.10   1
  -1  13  -7   28.60    6.50   1
   1 -13   8    0.70    5.90   1
  -1  13  -8    5.90    5.60   1
   1 -12  -9    7.20    5.90   1
  -1  12   9    5.40    9.20   1
   1 -12  -8   21.70    6.10   1
  -1  12   8   11.70    8.50   1
   1 -12  -7   -0.90    5.00   1
  -1  12   7   -6.20    7.40   1
   1 -12  -6   20.20    4.60   1
  -1  12   6   34.40    7.80   1
   1 -12  -5   61.70    5.60   1
  -1  12   5   61.60    7.60   1
   1 -12  -4   47.30    5.30   1
  -1  12   4   45.80    8.20   1
   1 -12  -3   11.40    4.40   1
  -1  12   3    9.00    6.30   1
   1 -12  -2   13.90    4.50   1
  -1  12   2   22.00    6.70   1
   1 -12  -1   23.10    3.60   1
  -1  12   1   16.10    4.60   1
   1 -12   0    4.00    4.40   1
  -1  12   0   -7.50    6.00   1
   1 -12   1  489.20   17.80   1
  -1  12  -1  466.20   16.30   1
   1 -12   2   55.70    4.20   1
  -1  12  -2   47.70    4.00   1
   1 -12   3   71.70    5.50   1
  -1  12  -3   59.00    4.40   1
   1 -12   4   60.00    6.00   1
  -1  12  -4   52.80    4.80   1
   1 -12   5   -4.50    5.20   1
  -1  12  -5    2.50    3.60   1
   1 -12   6   17.60    7.70   1
  -1  12  -6   13.00    4.70   1
   1 -12   7   18.00    4.50   1
  -1  12  -7    9.80    4.70   1
   1 -12   8    8.50    4.50   1
  -1  12  -8   11.90    5.30   1
   1 -12   9    1.90    5.90   1
  -1  12  -9    9.90    7.30   1
   1 -11 -10   87.30    7.90   1
  -1  11  10   68.80   12.20   1
   1 -11  -9   98.10    8.10   1
  -1  11   9   85.90   11.20   1
   1 -11  -8   22.70    4.60   1
  -1  11   8   24.60    5.90   1
   1 -11  -7    8.10    4.70   1
  -1  11   7    1.80    4.30   1
   1 -11  -6   -0.60    3.00   1
  -1  11   6    0.90    6.20   1
   1 -11  -5   -2.20    2.50   1
  -1  11   5    1.20    4.00   1
   1 -11  -4   55.10    4.40   1
  -1  11   4   88.90    8.40   1
   1 -11  -3   75.10    4.00   1
  -1  11   3   73.10    6.50   1
   1 -11  -2   92.30    3.90   1
  -1  11   2   84.50    5.20   1
   1 -11  -1   -2.20    3.70   1
  -1  11   1   -2.20    1.80   1
   1 -11   0   35.30    3.90   1
  -1  11   0   25.50    2.70   1
   1 -11   1    0.50    2.70   1
  -1  11  -1    5.20    2.20   1
   1 -11   2   35.00    5.10   1
  -1  11  -2   38.60    3.40   1
   1 -11   3   51.60    4.60   1
  -1  11  -3   43.30    4.10   1
   1 -11   4   20.60    4.70   1
  -1  11  -4   24.30    3.50   1
   1 -11   5  315.00   13.00   1
  -1  11  -5  305.00   12.20   1
   1 -11   6   37.50    4.90   1
  -1  11  -6   52.10    5.00   1
   1 -11   7    5.30    4.30   1
  -1  11  -7    8.30    4.10   1
   1 -11   8   19.80    4.50   1
  -1  11  -8   14.40    4.50   1
   1 -11   9   17.70    5.40   1
  -1  11  -9   30.70    5.90   1
   1 -11  10   10.20    7.60   1
  -1  11 -10   -7.10    6.20   1
   1 -10 -11    9.00    4.30   1
  -1  10  11   -6.30    6.80   1
   1 -10 -10   31.80    4.20   1
  -1  10  10   56.90    9.50   1
   1 -10  -9    1.20    3.20   1
  -1  10   9   -0.30    4.80   1
   1 -10  -8    2.50    3.30   1
  -1  10   8   -7.40    7.20   1
   1 -10  -7    4.40    2.70   1
  -1  10   7    2.40    4.40   1
   1 -10  -6  495.00   13.80   1
  -1  10   6  495.80   24.20   1
   1 -10  -5   36.20    2.70   1
  -1  10   5   39.10    2.80   1
   1 -10  -4    6.30    1.90   1
  -1  10   4    4.50    1.80   1
   1 -10  -3   24.10    2.10   1
  -1  10   3   27.30    2.10   1
   1 -10  -2   56.90    3.10   1
  -1  10   2   52.50    3.10   1
   1 -10  -1   19.30    3.00   1
  -1  10   1   19.90    2.20   1
   1 -10   0    7.10    3.40   1
  -1  10   0    4.40    1.80   1
   1 -10   1  273.30    9.90   1
  -1  10  -1  252.70    9.00   1
   1 -10   2   90.00    5.00   1
  -1  10  -2   94.90    6.00   1
   1 -10   3    2.30    2.90   1
  -1  10  -3    1.70    2.80   1
   1 -10   4   46.00    4.80   1
  -1  10  -4   39.30    2.70   1
   1 -10   5   25.10    3.00   1
  -1  10  -5   22.00    3.60   1
   1 -10   6   35.10    4.30   1
  -1  10  -6   36.40    3.90   1
   1 -10   7    2.10    3.90   1
  -1  10  -7    1.20    3.60   1
   1 -10   8  507.50   15.60   1
  -1  10  -8  517.70   19.60   1
   1 -10   9   18.80    5.80   1
  -1  10  -9    5.50    4.20   1
   1 -10  10   59.70    8.20   1
  -1  10 -10   61.60    7.10   1
   1 -10  11    3.00    7.70   1
  -1  10 -11    7.30    6.60   1
   1  -9 -12   10.70    6.40   1
  -1   9  12   16.00    9.00   1
   1  -9 -11   57.10    5.60   1
  -1   9  11   68.50   11.30   1
   1  -9 -10  123.30    6.20   1
  -1   9  10  112.90   10.10   1
   1  -9  -9    1.30    3.50   1
  -1   9   9   -1.00    6.10   1
   1  -9  -8   25.70    3.40   1
  -1   9   8   32.30    6.50   1
   1  -9  -7   87.60    4.60   1
  -1   9   7  104.30    9.00   1
   1  -9  -6   16.80    2.30   1
  -1   9   6   18.90    4.00   1
   1  -9  -5  147.40    5.00   1
  -1   9   5  150.90    9.70   1
   1  -9  -4  108.50    4.40   1
  -1   9   4  100.50    4.30   1
   1  -9  -3    0.80    1.50   1
  -1   9   3    3.40    1.50   1
   1  -9  -2  843.10   16.80   1
  -1   9   2  814.80   22.00   1
   1  -9  -1  139.80    4.40   1
  -1   9   1  143.30    4.00   1
   1  -9   0    9.30    2.70   1
  -1   9   0   11.40    1.30   1
   1  -9   1   19.20    3.10   1
  -1   9  -1   14.40    1.30   1
   1  -9   2    1.50    4.00   1
  -1   9  -2    6.20    1.40   1
   1  -9   3   96.90    4.00   1
  -1   9  -3   93.00    5.50   1
   1  -9   4  350.00   12.80   1
  -1   9  -4  349.10    9.50   1
   1  -9   5   49.70    3.20   1
  -1   9  -5   57.20    4.90   1
   1  -9   6   38.10    2.70   1
  -1   9  -6   35.40    3.90   1
   1  -9   7   27.40    2.40   1
  -1   9  -7   14.90    3.60   1
   1  -9   8   70.40    4.70   1
  -1   9  -8   73.20    5.30   1
   1  -9   9    6.70    4.20   1
  -1   9  -9    6.30    4.30   1
   1  -9  10   30.50    4.60   1
  -1   9 -10   26.30    5.00   1
   1  -9  11   13.00    7.10   1
  -1   9 -11    3.70    5.80   1
   1  -9  12   98.40   10.40   1
  -1   9 -12  118.90   10.40   1
   1  -8 -12   27.80    5.30   1
  -1   8  12   26.10    8.70   1
   1  -8 -11   16.90    4.20   1
  -1   8  11    8.90    4.00   1
   1  -8 -10    4.80    3.30   1
  -1   8  10    8.40    4.20   1
   1  -8  -9   39.60    3.50   1
  -1   8   9   29.00    4.10   1
   1  -8  -8  192.70    5.70   1
  -1   8   8  182.50    7.80   1
   1  -8  -7    3.30    1.70   1
  -1   8   7    4.40    2.20   1
   1  -8  -6 1035.50   20.00   1
  -1   8   6 1064.30   42.50   1
   1  -8  -5   27.20    1.70   1
  -1   8   5   23.80    2.30   1
   1  -8  -4  280.00    7.50   1
  -1   8   4  269.10    8.50   1
   1  -8  -3  114.70    3.70   1
  -1   8   3  103.90    4.00   1
   1  -8  -2    9.00    1.50   1
  -1   8   2    6.20    1.50   1
   1  -8  -1   46.20    2.30   1
  -1   8   1   46.90    1.80   1
   1  -8   0   18.40    2.20   1
  -1   8   0   13.20    1.30   1
   1  -8   1  596.00   16.10   1
  -1   8  -1  583.20   11.30   1
   1  -8   2   51.20    2.30   1
  -1   8  -2   46.80    2.20   1
   1  -8   3    8.00    2.00   1
  -1   8  -3    8.90    2.30   1
   1  -8   4  182.20   10.60   1
  -1   8  -4  185.00    5.00   1
   1  -8   5    3.10    1.70   1
  -1   8  -5    4.40    1.80   1
   1  -8   6   18.30    2.70   1
  -1   8  -6   17.30    3.90   1
   1  -8   7    9.50    2.20   1
  -1   8  -7    6.00    2.90   1
   1  -8   8  321.30    8.50   1
  -1   8  -8  324.60   12.30   1
   1  -8   9    0.50    3.80   1
  -1   8  -9    8.30    4.10   1
   1  -8  10   48.30    5.00   1
  -1   8 -10   40.10    5.60   1
   1  -8  11   40.70    7.10   1
  -1   8 -11   23.50    5.90   1
   1  -8  12   -9.70    7.10   1
  -1   8 -12    6.10    6.20   1
   1  -7 -13   15.30    6.30   1
  -1   7  13   11.20    9.00   1
   1  -7 -12    4.60    3.80   1
  -1   7  12    6.00    4.60   1
   1  -7 -11   31.60    3.60   1
  -1   7  11   32.80    4.30   1
   1  -7 -10   18.80    2.60   1
  -1   7  10   20.00    4.10   1
   1  -7  -9  414.00   10.10   1
  -1   7   9  378.50   13.80   1
   1  -7  -8   32.40    2.40   1
  -1   7   8   35.70    3.50   1
   1  -7  -7    7.90    1.70   1
  -1   7   7    8.80    2.60   1
   1  -7  -6    6.90    1.30   1
  -1   7   6    7.50    1.70   1
   1  -7  -5   12.20    1.20   1
  -1   7   5   11.70    1.60   1
   1  -7  -4  444.10    7.90   1
  -1   7   4  446.70   12.40   1
   1  -7  -3  418.70    9.90   1
  -1   7   3  399.00   17.20   1
   1  -7  -2  294.80    7.20   1
  -1   7   2  286.20    8.10   1
   1  -7  -1  243.60    4.80   1
  -1   7   1  228.50    5.40   1
   1  -7   0  220.80    6.20   1
  -1   7   0  208.40    4.70   1
   1  -7   1   52.90    2.50   1
  -1   7  -1   58.10    2.10   1
   1  -7   2   16.60    1.40   1
  -1   7  -2   13.90    1.30   1
   1  -7   3    2.40    1.60   1
  -1   7  -3    2.50    1.40   1
   1  -7   4  231.20    8.30   1
  -1   7  -4  229.80    5.30   1
   1  -7   5  144.30    5.00   1
  -1   7  -5  137.20    5.50   1
   1  -7   6  504.90   15.80   1
  -1   7  -6  494.50   15.50   1
   1  -7   7  142.30    5.10   1
  -1   7  -7  133.00    5.90   1
   1  -7   8   12.20    2.10   1
  -1   7  -8   10.00    3.20   1
   1  -7   9  114.10    4.40   1
  -1   7  -9  102.40    6.50   1
   1  -7  10   15.00    3.60   1
  -1   7 -10   10.50    3.40   1
   1  -7  11   70.80    7.30   1
  -1   7 -11   56.30    6.50   1
   1  -7  12   28.40    7.30   1
  -1   7 -12   46.10    7.10   1
   1  -7  13    7.20    6.90   1
  -1   7 -13   -5.40    7.00   1
   1  -6 -13  208.20   12.20   1
  -1   6  13  193.90   11.30   1
   1  -6 -12   44.50    4.00   1
  -1   6  12   53.10    5.70   1
   1  -6 -11    2.60    2.70   1
  -1   6  11    9.90    4.00   1
   1  -6 -10   -1.40    2.40   1
  -1   6  10    5.70    3.30   1
   1  -6  -9   62.50    2.90   1
  -1   6   9   66.70    4.50   1
   1  -6  -8   23.40    2.10   1
  -1   6   8   18.20    3.00   1
   1  -6  -7    3.10    1.30   1
  -1   6   7    4.60    1.70   1
   1  -6  -6   35.50    1.60   1
  -1   6   6   38.80    2.10   1
   1  -6  -5   56.80    1.80   1
  -1   6   5   56.50    2.30   1
   1  -6  -4  176.90    3.60   1
  -1   6   4  177.30    4.60   1
   1  -6  -3  156.10    3.50   1
  -1   6   3  151.70    8.00   1
   1  -6  -2    0.40    0.90   1
  -1   6   2   -0.30    0.90   1
   1  -6  -1  143.50    3.10   1
  -1   6   1  141.90    3.00   1
   1  -6   0  374.30    7.90   1
  -1   6   0  354.10    5.80   1
   1  -6   1 2402.60   38.30   1
  -1   6  -1 2313.10   40.10   1
   1  -6   2   62.40    2.40   1
  -1   6  -2   57.00    1.90   1
   1  -6   3  187.00    5.30   1
  -1   6  -3  174.40    4.10   1
   1  -6   4    5.30    1.50   1
  -1   6  -4    7.40    1.60   1
   1  -6   5    7.00    2.20   1
  -1   6  -5    4.80    2.20   1
   1  -6   6  469.60   11.80   1
  -1   6  -6  438.20   13.00   1
   1  -6   7    3.40    1.60   1
  -1   6  -7    6.20    2.80   1
   1  -6   8   55.00    3.10   1
  -1   6  -8   47.50    4.20   1
   1  -6   9    2.70    2.00   1
  -1   6  -9    4.60    3.00   1
   1  -6  10  178.20    6.00   1
  -1   6 -10  187.50    9.70   1
   1  -6  11   76.50    7.00   1
  -1   6 -11   84.70    5.90   1
   1  -6  12   26.30    6.40   1
  -1   6 -12   19.80    5.90   1
   1  -6  13   -6.40    6.50   1
  -1   6 -13    5.10    6.30   1
   1  -5 -14   -0.80    6.60   1
  -1   5  14    5.70    5.90   1
   1  -5 -13    2.40    4.30   1
  -1   5  13    5.60    5.10   1
   1  -5 -12   24.80    3.70   1
  -1   5  12   17.20    4.60   1
   1  -5 -11  161.90    6.40   1
  -1   5  11  156.50    8.00   1
   1  -5 -10  113.40    4.70   1
  -1   5  10  110.40    5.40   1
   1  -5  -9  188.30    6.30   1
  -1   5   9  187.90    7.30   1
   1  -5  -8    6.30    1.70   1
  -1   5   8    6.00    2.40   1
   1  -5  -7   33.20    1.80   1
  -1   5   7   34.60    2.10   1
   1  -5  -6   29.80    1.70   1
  -1   5   6   30.40    1.90   1
   1  -5  -5  104.80    2.80   1
  -1   5   5  110.50    3.20   1
   1  -5  -4  376.00    6.40   1
  -1   5   4  375.00    7.10   1
   1  -5  -3  465.50    7.20   1
  -1   5   3  461.30    8.00   1
   1  -5  -2   93.70    2.20   1
  -1   5   2   92.00    2.90   1
   1  -5  -1  302.60    5.40   1
  -1   5   1  290.10    5.10   1
   1  -5   0  523.20    8.90   1
  -1   5   0  524.30    9.00   1
   1  -5   1   14.30    1.00   1
  -1   5  -1   11.90    0.70   1
   1  -5   2   17.10    1.20   1
  -1   5  -2   14.70    0.90   1
   1  -5   3  780.50   15.40   1
  -1   5  -3  734.90   12.40   1
   1  -5   4   25.90    1.50   1
  -1   5  -4   22.10    1.70   1
   1  -5   5  990.00   22.60   1
  -1   5  -5  931.50   20.70   1
   1  -5   6  580.80   17.80   1
  -1   5  -6  556.30   13.30   1
   1  -5   7   22.60    1.80   1
  -1   5  -7   18.90    2.00   1
   1  -5   8    4.40    2.20   1
  -1   5  -8   -3.90    2.90   1
   1  -5   9   43.10    2.50   1
  -1   5  -9   51.00    4.40   1
   1  -5  10   20.70    2.40   1
  -1   5 -10   28.00    3.90   1
   1  -5  11  100.50    5.40   1
  -1   5 -11   84.80    6.60   1
   1  -5  12   17.00    4.90   1
  -1   5 -12   15.90    4.90   1
   1  -5  13  182.60   11.00   1
  -1   5 -13  185.40   11.70   1
   1  -5  14   17.60    8.40   1
  -1   5 -14   15.60    8.80   1
   1  -4 -14   14.40    5.10   1
  -1   4  14   15.00    5.10   1
   1  -4 -13  152.50    9.60   1
  -1   4  13  152.50    9.00   1
   1  -4 -12   12.70    3.40   1
  -1   4  12    8.60    3.90   1
   1  -4 -11   88.60    4.60   1
  -1   4  11   86.40    5.20   1
   1  -4 -10   96.10    4.20   1
  -1   4  10   89.10    4.90   1
   1  -4  -9   81.00    3.50   1
  -1   4   9   87.20    4.20   1
   1  -4  -8  105.60    3.30   1
  -1   4   8  103.70    4.30   1
   1  -4  -7  340.60    7.10   1
  -1   4   7  340.80    8.00   1
   1  -4  -6  207.60    4.40   1
  -1   4   6  204.20    4.40   1
   1  -4  -5   35.70    1.50   1
  -1   4   5   32.40    1.50   1
   1  -4  -4  605.70    8.90   1
  -1   4   4  619.90   10.00   1
   1  -4  -3    2.40    0.60   1
  -1   4   3    2.50    0.70   1
   1  -4  -2  436.90    6.50   1
  -1   4   2  437.00    9.40   1
   1  -4  -1 1030.80   15.80   1
  -1   4   1 1020.30   15.50   1
   1  -4   0  128.00    2.90   1
  -1   4   0  122.50    2.40   1
   1  -4   1  652.80   13.90   1
  -1   4  -1  640.50   10.60   1
   1  -4   2  841.70   15.90   1
  -1   4  -2  786.60   14.50   1
   1  -4   3  528.00   10.70   1
  -1   4  -3  495.60    8.60   1
   1  -4   4   35.30    1.50   1
  -1   4  -4   32.50    1.60   1
   1  -4   5    5.30    1.10   1
  -1   4  -5    2.80    1.40   1
   1  -4   6   44.70    1.80   1
  -1   4  -6   43.60    2.10   1
   1  -4   7  139.90    4.00   1
  -1   4  -7  132.40    4.50   1
   1  -4   8  219.50    5.90   1
  -1   4  -8  207.20    5.40   1
   1  -4   9   86.40    3.70   1
  -1   4  -9   89.80    5.50   1
   1  -4  10    1.60    1.80   1
  -1   4 -10    2.50    3.60   1
   1  -4  11   30.30    3.60   1
  -1   4 -11   34.70    4.80   1
   1  -4  12   19.20    3.90   1
  -1   4 -12   22.00    4.70   1
   1  -4  13    3.40    5.80   1
  -1   4 -13    6.30    6.10   1
   1  -4  14    4.20   10.60   1
  -1   4 -14   16.00    7.30   1
   1  -3 -14    1.10    6.10   1
  -1   3  14   -1.80    4.90   1
   1  -3 -13   40.20    6.10   1
  -1   3  13   41.60    5.40   1
   1  -3 -12   12.60    3.40   1
  -1   3  12   16.20    3.90   1
   1  -3 -11  991.90   25.00   1
  -1   3  11  919.10   22.90   1
   1  -3 -10   52.90    3.90   1
  -1   3  10   48.40    3.10   1
   1  -3  -9   86.40    4.40   1
  -1   3   9   77.20    2.60   1
   1  -3  -8    5.40    1.60   1
  -1   3   8    5.50    1.80   1
   1  -3  -7  306.30    6.20   1
  -1   3   7  304.60    6.20   1
   1  -3  -6    0.10    1.00   1
  -1   3   6    0.80    1.10   1
   1  -3  -5  388.50    6.60   1
  -1   3   5  365.20    6.30   1
   1  -3  -4  404.20    6.60   1
  -1   3   4  386.00    6.30   1
   1  -3  -3  242.30    4.30   1
  -1   3   3  238.80    4.10   1
   1  -3  -2  269.50    4.50   1
  -1   3   2  266.20    4.50   1
   1  -3  -1 6319.80   88.90   1
  -1   3   1 6507.20  118.60   1
   1  -3   0  224.00    3.90   1
  -1   3   0  206.40    3.60   1
   1  -3   1   99.90    2.30   1
  -1   3  -1   92.60    2.20   1
   1  -3   2   52.40    1.70   1
  -1   3  -2   50.40    1.30   1
   1  -3   3   92.20    2.40   1
  -1   3  -3   84.60    2.60   1
   1  -3   4  210.90    4.40   1
  -1   3  -4  208.20    4.70   1
   1  -3   5   34.60    1.40   1
  -1   3  -5   29.50    1.50   1
   1  -3   6   51.50    2.00   1
  -1   3  -6   54.80    2.80   1
   1  -3   7  253.30    5.30   1
  -1   3  -7  250.90    5.50   1
   1  -3   8   25.00    1.30   1
  -1   3  -8   23.40    2.20   1
   1  -3   9   19.30    1.90   1
  -1   3  -9   14.30    2.90   1
   1  -3  10   -1.30    1.90   1
  -1   3 -10    1.10    2.00   1
   1  -3  11    7.60    2.80   1
  -1   3 -11    9.60    4.10   1
   1  -3  12   60.80    4.70   1
  -1   3 -12   67.40    5.80   1
   1  -3  13  176.30   10.80   1
  -1   3 -13  195.30   11.40   1
   1  -3  14   -4.90    9.10   1
  -1   3 -14    3.30    6.50   1
   1  -2 -14   68.60    7.80   1
  -1   2  14   73.60    6.90   1
   1  -2 -13   17.70    5.30   1
  -1   2  13   15.40    4.20   1
   1  -2 -12   -0.40    3.60   1
  -1   2  12    3.80    2.90   1
   1  -2 -11  197.30    8.80   1
  -1   2  11  187.00    6.70   1
   1  -2 -10    9.40    2.40   1
  -1   2  10   12.10    2.30   1
   1  -2  -9   19.30    2.20   1
  -1   2   9   18.90    2.20   1
   1  -2  -8  329.00    6.10   1
  -1   2   8  312.70    7.80   1
   1  -2  -7  210.80    4.20   1
  -1   2   7  202.50    5.10   1
   1  -2  -6 1293.20   18.00   1
  -1   2   6 1236.70   21.20   1
   1  -2  -5  406.50    5.50   1
  -1   2   5  395.90    6.40   1
   1  -2  -4 1871.70   23.30   1
  -1   2   4 1830.00   24.70   1
   1  -2  -3  120.50    2.10   1
  -1   2   3  120.50    2.10   1
   1  -2  -2   16.80    0.80   1
  -1   2   2   16.20    0.70   1
   1  -2  -1 1398.30   20.50   1
  -1   2   1 1375.90   22.50   1
   1  -2   0   12.00    0.50   1
  -1   2   0   13.90    0.80   1
   1  -2   1  177.90    3.70   1
  -1   2  -1  172.60    3.60   1
   1  -2   2 1115.50   19.40   1
  -1   2  -2 1033.20   16.00   1
   1  -2   3  484.10    7.40   1
  -1   2  -3  483.50    9.20   1
   1  -2   4  120.40    2.60   1
  -1   2  -4  111.40    2.50   1
   1  -2   5    2.70    0.90   1
  -1   2  -5    2.90    0.70   1
   1  -2   6    2.40    1.10   1
  -1   2  -6    1.20    0.80   1
   1  -2   7  380.30    8.40   1
  -1   2  -7  395.30    9.50   1
   1  -2   8  135.90    3.80   1
  -1   2  -8  141.10    5.60   1
   1  -2   9  120.90    4.50   1
  -1   2  -9  111.60    3.60   1
   1  -2  10   90.10    4.20   1
  -1   2 -10   99.60    4.30   1
   1  -2  11    1.50    2.70   1
  -1   2 -11    1.00    3.80   1
   1  -2  12    2.10    3.00   1
  -1   2 -12    3.50    4.80   1
   1  -2  13   21.00    4.40   1
  -1   2 -13   11.20    4.70   1
   1  -2  14    8.20   10.00   1
  -1   2 -14    9.60    6.40   1
   1  -1 -15   14.60    6.60   1
  -1   1  15   14.60   10.00   1
   1  -1 -14    1.40    5.90   1
  -1   1  14   10.40    5.00   1
   1  -1 -13    0.60    7.40   1
  -1   1  13    2.50    4.10   1
   1  -1 -12    3.60    3.20   1
  -1   1  12    3.60    3.00   1
   1  -1 -11   75.80    4.30   1
  -1   1  11   64.00    3.90   1
   1  -1 -10   15.00    2.40   1
  -1   1  10   19.00    2.30   1
   1  -1  -9    0.30    1.70   1
  -1   1   9    3.70    1.70   1
   1  -1  -8  477.50    9.10   1
  -1   1   8  481.50   11.40   1
   1  -1  -7   34.70    1.30   1
  -1   1   7   37.50    1.80   1
   1  -1  -6   50.20    1.30   1
  -1   1   6   48.50    1.50   1
   1  -1  -5   11.20    0.80   1
  -1   1   5   12.10    0.80   1
   1  -1  -4 3043.00   36.80   1
  -1   1   4 2937.40   42.40   1
   1  -1  -3  274.80    3.90   1
  -1   1   3  268.80    4.50   1
   1  -1  -2  465.90    6.70   1
  -1   1   2  460.80    6.70   1
   1  -1  -1  145.70    2.80   1
  -1   1   1  143.00    3.10   1
   1  -1   0  554.80    7.70   1
  -1   1   0  574.30   13.80   1
   1  -1   1   21.10    0.60   1
  -1   1  -1   20.60    0.80   1
   1  -1   2   76.60    1.70   1
  -1   1  -2   73.90    1.60   1
   1  -1   3  459.80    7.60   1
  -1   1  -3  453.70    7.70   1
   1  -1   4  465.60    7.10   1
  -1   1  -4  450.00    6.90   1
   1  -1   5    2.10    0.70   1
  -1   1  -5    1.70    0.80   1
   1  -1   6 2044.30   35.70   1
  -1   1  -6 1960.90   39.50   1
   1  -1   7  200.50    4.60   1
  -1   1  -7  196.80    4.00   1
   1  -1   8   19.80    1.90   1
  -1   1  -8   18.60    1.40   1
   1  -1   9   84.50    3.60   1
  -1   1  -9   90.60    3.50   1
   1  -1  10  133.50    5.30   1
  -1   1 -10  145.10    5.30   1
   1  -1  11    3.40    2.60   1
  -1   1 -11    8.20    3.30   1
   1  -1  12    4.40    3.10   1
  -1   1 -12    5.70    4.40   1
   1  -1  13  169.70    9.40   1
  -1   1 -13  185.60    9.90   1
   1  -1  14   11.90    5.40   1
  -1   1 -14   24.50    7.00   1
   1   0 -15   -2.40    5.40   1
  -1   0  15    3.50    9.70   1
   1   0 -14   36.80    8.70   1
  -1   0  14   30.20    5.20   1
   1   0 -13   -5.50    5.10   1
  -1   0  13    4.00    3.40   1
   1   0 -12   61.70    4.40   1
  -1   0  12   49.60    3.70   1
   1   0 -11   -2.70    2.20   1
  -1   0  11   -1.90    2.70   1
   1   0 -10    8.10    2.40   1
  -1   0  10    8.90    2.10   1
   1   0  -9   -0.80    1.60   1
  -1   0   9    1.10    1.70   1
   1   0  -8  227.50    5.40   1
  -1   0   8  228.80    6.20   1
   1   0  -7   -1.80    1.00   1
  -1   0   7   -0.40    1.40   1
   1   0  -6  461.00    6.80   1
  -1   0   6  458.30    7.30   1
   1   0  -5    0.40    0.70   1
  -1   0   5   -0.50    0.70   1
   1   0  -4  780.50   11.20   1
  -1   0   4  762.40   10.90   1
   1   0  -3    1.20    0.50   1
  -1   0   3    1.40    0.50   1
   1   0  -2  479.80    6.90   1
  -1   0   2  470.60    6.90   1
   1   0  -1    0.70    0.20   1
  -1   0   1    0.40    0.20   1
   1   0   0 2476.40   35.50   1
   1   0   1    1.50    0.20   1
  -1   0  -1    0.50    0.20   1
   1   0   2  497.90    8.10   1
  -1   0  -2  502.60    8.00   1
   1   0   3    0.90    0.50   1
  -1   0  -3    1.20    0.40   1
   1   0   4  148.00    2.90   1
  -1   0  -4  140.30    2.40   1
   1   0   5    0.70    0.70   1
  -1   0  -5    0.00    0.60   1
   1   0   6 1039.60   19.00   1
  -1   0  -6 1053.40   16.20   1
   1   0   7    2.80    1.40   1
  -1   0  -7    0.50    1.30   1
   1   0   8  202.70    5.80   1
  -1   0  -8  187.00    4.50   1
   1   0   9    0.40    1.50   1
  -1   0  -9   -0.80    1.20   1
   1   0  10  875.30   22.20   1
  -1   0 -10  881.90   21.20   1
   1   0  11   -2.40    2.60   1
  -1   0 -11    2.60    2.00   1
   1   0  12   47.70    3.80   1
  -1   0 -12   63.00    5.70   1
   1   0  13   -0.70    3.90   1
  -1   0 -13    2.30    4.60   1
   1   0  14    8.40    5.40   1
  -1   0 -14    8.80    5.90   1
   1   1 -14    6.90    6.00   1
  -1  -1  14    9.20    9.10   1
   1   1 -13    1.20    5.10   1
  -1  -1  13    3.50    3.00   1
   1   1 -12    1.90    3.10   1
  -1  -1  12    5.50    3.10   1
   1   1 -11   73.30    4.10   1
  -1  -1  11   83.30    4.00   1
   1   1 -10   12.00    2.30   1
  -1  -1  10   18.00    2.20   1
   1   1  -9    1.10    1.80   1
  -1  -1   9    1.30    1.80   1
   1   1  -8  472.40   12.10   1
  -1  -1   8  479.90   10.30   1
   1   1  -7   33.50    1.70   1
  -1  -1   7   31.10    1.60   1
   1   1  -6   49.40    1.70   1
  -1  -1   6   43.40    1.40   1
   1   1  -5   12.00    0.90   1
  -1  -1   5   11.20    0.80   1
   1   1  -4 2962.30   36.40   1
  -1  -1   4 2940.50   39.50   1
   1   1  -3  273.30    3.90   1
  -1  -1   3  268.30    4.20   1
   1   1  -2  445.90    6.60   1
  -1  -1   2  463.40    7.00   1
   1   1  -1  149.90    2.50   1
  -1  -1   1  149.70    4.40   1
   1   1   0  582.50    7.70   1
  -1  -1   0  610.40   14.60   1
   1   1   1   22.40    0.60   1
  -1  -1  -1   23.80    0.70   1
   1   1   2   73.20    1.40   1
  -1  -1  -2   75.30    1.70   1
   1   1   3  454.60    6.60   1
  -1  -1  -3  457.00    7.30   1
   1   1   4  476.80    7.70   1
  -1  -1  -4  455.10    6.80   1
   1   1   5    2.60    0.60   1
  -1  -1  -5    1.80    0.60   1
   1   1   6 2034.40   30.40   1
  -1  -1  -6 2007.40   30.30   1
   1   1   7  208.20    5.40   1
  -1  -1  -7  205.60    5.20   1
   1   1   8   21.30    1.80   1
  -1  -1  -8   18.90    1.30   1
   1   1   9   87.80    3.50   1
  -1  -1  -9   86.60    3.10   1
   1   1  10  131.10    5.00   1
  -1  -1 -10  146.50    4.80   1
   1   1  11    3.10    2.20   1
  -1  -1 -11    7.60    2.10   1
   1   1  12    6.70    3.40   1
  -1  -1 -12   17.10    3.80   1
   1   1  13  162.20    9.60   1
  -1  -1 -13  176.20    9.90   1
   1   1  14    8.90    5.50   1
  -1  -1 -14   23.70    5.70   1
   1   2 -14   64.40    7.80   1
  -1  -2  14   49.00   11.00   1
   1   2 -13    5.40    5.30   1
  -1  -2  13   14.70    5.60   1
   1   2 -12    5.80    3.40   1
  -1  -2  12    3.00    3.00   1
   1   2 -11  171.90    7.10   1
  -1  -2  11  189.60    6.90   1
   1   2 -10   11.00    2.80   1
  -1  -2  10   11.60    1.80   1
   1   2  -9   19.70    2.80   1
  -1  -2   9   19.50    1.80   1
   1   2  -8  298.10    7.30   1
  -1  -2   8  298.50    7.00   1
   1   2  -7  194.40    4.60   1
  -1  -2   7  191.10    4.60   1
   1   2  -6 1272.60   22.80   1
  -1  -2   6 1228.10   21.90   1
   1   2  -5  396.40    6.40   1
  -1  -2   5  390.00    5.80   1
   1   2  -4 1846.60   28.70   1
  -1  -2   4 1784.80   25.00   1
   1   2  -3  125.90    2.60   1
  -1  -2   3  119.60    2.60   1
   1   2  -2   16.30    0.80   1
  -1  -2   2   16.50    0.80   1
   1   2  -1 1401.50   18.00   1
  -1  -2   1 1318.30   18.50   1
   1   2   0   11.70    0.50   1
  -1  -2   0   13.20    0.50   1
   1   2   1  180.10    3.00   1
  -1  -2  -1  177.40    2.90   1
   1   2   2 1099.70   16.40   1
  -1  -2  -2 1080.00   15.10   1
   1   2   3  504.60    8.00   1
  -1  -2  -3  501.40    6.70   1
   1   2   4  117.50    2.00   1
  -1  -2  -4  115.70    2.00   1
   1   2   5    2.60    0.60   1
  -1  -2  -5    3.10    0.50   1
   1   2   6    3.60    1.00   1
  -1  -2  -6    2.40    1.00   1
   1   2   7  405.30    7.60   1
  -1  -2  -7  410.60    7.90   1
   1   2   8  134.90    3.30   1
  -1  -2  -8  153.20    3.70   1
   1   2   9  110.10    3.90   1
  -1  -2  -9  117.60    3.50   1
   1   2  10   95.80    4.00   1
  -1  -2 -10  102.50    3.90   1
   1   2  11   -1.30    3.40   1
  -1  -2 -11    2.80    2.20   1
   1   2  12    0.60    4.20   1
  -1  -2 -12    8.50    4.60   1
   1   2  13   12.10    5.10   1
  -1  -2 -13    9.30    5.30   1
   1   2  14    8.90    5.40   1
  -1  -2 -14    4.80    4.40   1
   1   3 -14   13.20    6.50   1
  -1  -3  14   -3.70    6.40   1
   1   3 -13   38.20    6.40   1
  -1  -3  13   42.50    6.20   1
   1   3 -12    6.60    3.10   1
  -1  -3  12    6.30    4.80   1
   1   3 -11  870.80   22.80   1
  -1  -3  11  854.80   19.20   1
   1   3 -10   43.30    4.00   1
  -1  -3  10   44.40    2.60   1
   1   3  -9   69.80    3.60   1
  -1  -3   9   76.50    2.90   1
   1   3  -8    5.30    1.60   1
  -1  -3   8    5.10    0.90   1
   1   3  -7  275.70    5.40   1
  -1  -3   7  271.40    6.20   1
   1   3  -6    1.40    1.30   1
  -1  -3   6    1.00    1.00   1
   1   3  -5  334.70    7.10   1
  -1  -3   5  349.20    6.30   1
   1   3  -4  366.90    7.80   1
  -1  -3   4  380.00    6.30   1
   1   3  -3  227.40    4.30   1
  -1  -3   3  231.90    4.50   1
   1   3  -2  268.00    5.00   1
  -1  -3   2  252.10    4.20   1
   1   3  -1 6750.30  107.70   1
  -1  -3   1 6895.70  110.70   1
   1   3   0  225.10    3.80   1
  -1  -3   0  216.70    4.00   1
   1   3   1   95.50    1.80   1
  -1  -3  -1   93.80    1.80   1
   1   3   2   55.10    1.40   1
  -1  -3  -2   53.30    1.20   1
   1   3   3   90.80    2.20   1
  -1  -3  -3   88.70    1.60   1
   1   3   4  220.00    4.00   1
  -1  -3  -4  218.20    3.20   1
   1   3   5   35.90    1.40   1
  -1  -3  -5   31.20    1.00   1
   1   3   6   58.60    2.00   1
  -1  -3  -6   55.40    1.70   1
   1   3   7  279.00    8.30   1
  -1  -3  -7  289.00    6.00   1
   1   3   8   28.70    1.80   1
  -1  -3  -8   30.90    1.80   1
   1   3   9   16.80    2.90   1
  -1  -3  -9   17.70    2.10   1
   1   3  10   -1.90    2.90   1
  -1  -3 -10   -0.30    2.10   1
   1   3  11   11.30    3.70   1
  -1  -3 -11    8.10    2.40   1
   1   3  12   70.80    5.90   1
  -1  -3 -12   66.20    6.10   1
   1   3  13  198.20   11.60   1
  -1  -3 -13  205.30    9.80   1
   1   3  14   -1.00    6.20   1
  -1  -3 -14    8.80    5.00   1
   1   4 -14   10.90    7.10   1
  -1  -4  14    5.60    7.10   1
   1   4 -13  144.20   10.40   1
  -1  -4  13  122.10    9.90   1
   1   4 -12   12.20    3.10   1
  -1  -4  12    9.90    5.20   1
   1   4 -11   67.70    5.40   1
  -1  -4  11   64.20    4.70   1
   1   4 -10   80.30    5.10   1
  -1  -4  10   82.20    3.40   1
   1   4  -9   65.10    4.50   1
  -1  -4   9   75.20    2.90   1
   1   4  -8   87.70    3.20   1
  -1  -4   8   89.40    3.00   1
   1   4  -7  308.20    9.80   1
  -1  -4   7  321.90    7.10   1
   1   4  -6  192.60    5.80   1
  -1  -4   6  186.00    4.50   1
   1   4  -5   31.90    2.00   1
  -1  -4   5   32.00    1.40   1
   1   4  -4  546.80   13.10   1
  -1  -4   4  579.40   10.00   1
   1   4  -3    1.30    0.60   1
  -1  -4   3    2.50    0.90   1
   1   4  -2  420.60    7.70   1
  -1  -4   2  412.20    7.20   1
   1   4  -1  991.20   14.70   1
  -1  -4   1  988.90   16.10   1
   1   4   0  117.30    2.10   1
  -1  -4   0  119.00    2.70   1
   1   4   1  679.00   10.30   1
  -1  -4  -1  639.80    9.50   1
   1   4   2  837.30   12.30   1
  -1  -4  -2  791.10   11.30   1
   1   4   3  546.80    9.20   1
  -1  -4  -3  530.80    8.00   1
   1   4   4   37.50    1.30   1
  -1  -4  -4   37.70    1.00   1
   1   4   5    4.40    1.10   1
  -1  -4  -5    5.40    0.80   1
   1   4   6   45.60    2.00   1
  -1  -4  -6   46.00    1.50   1
   1   4   7  145.00    4.30   1
  -1  -4  -7  149.20    3.20   1
   1   4   8  243.00    8.20   1
  -1  -4  -8  250.40    5.10   1
   1   4   9  101.40    5.10   1
  -1  -4  -9  105.10    3.90   1
   1   4  10   -2.20    3.30   1
  -1  -4 -10   -1.00    2.10   1
   1   4  11   39.50    4.60   1
  -1  -4 -11   43.70    3.00   1
   1   4  12   14.90    4.50   1
  -1  -4 -12   13.10    4.00   1
   1   4  13    6.60    5.20   1
  -1  -4 -13    2.00    3.90   1
   1   4  14   -0.40    4.40   1
  -1  -4 -14    2.50    5.20   1
   1   5 -14   12.30    7.20   1
  -1  -5  14   -2.70    7.40   1
   1   5 -13    5.40    6.60   1
  -1  -5  13   -7.50    6.20   1
   1   5 -12   23.40    5.40   1
  -1  -5  12   25.70    5.90   1
   1   5 -11  133.20    7.90   1
  -1  -5  11  135.70    6.40   1
   1   5 -10   98.70    6.00   1
  -1  -5  10   90.90    4.60   1
   1   5  -9  161.80    7.50   1
  -1  -5   9  172.30    5.00   1
   1   5  -8    6.40    3.00   1
  -1  -5   8    4.80    1.40   1
   1   5  -7   31.10    3.10   1
  -1  -5   7   31.30    1.60   1
   1   5  -6   28.30    2.80   1
  -1  -5   6   28.70    1.40   1
   1   5  -5   94.90    4.40   1
  -1  -5   5   96.10    2.60   1
   1   5  -4  366.00    8.00   1
  -1  -5   4  357.60    6.70   1
   1   5  -3  441.10    8.30   1
  -1  -5   3  444.40    8.20   1
   1   5  -2   85.80    2.30   1
  -1  -5   2   89.50    2.10   1
   1   5  -1  292.10    5.00   1
  -1  -5   1  288.90    5.30   1
   1   5   0  513.00    7.60   1
  -1  -5   0  509.70    8.90   1
   1   5   1   13.30    0.90   1
  -1  -5  -1   13.10    0.80   1
   1   5   2   16.40    0.90   1
  -1  -5  -2   16.60    0.90   1
   1   5   3  801.20   13.40   1
  -1  -5  -3  792.80   11.90   1
   1   5   4   25.10    1.80   1
  -1  -5  -4   27.40    1.20   1
   1   5   5 1011.00   18.20   1
  -1  -5  -5 1001.50   15.80   1
   1   5   6  583.50   13.20   1
  -1  -5  -6  589.50    9.90   1
   1   5   7   23.80    2.70   1
  -1  -5  -7   24.00    1.30   1
   1   5   8    2.80    2.50   1
  -1  -5  -8    2.90    1.80   1
   1   5   9   51.80    3.60   1
  -1  -5  -9   55.40    2.80   1
   1   5  10   24.20    3.90   1
  -1  -5 -10   24.80    2.40   1
   1   5  11  119.30    7.00   1
  -1  -5 -11  120.60    4.70   1
   1   5  12   20.50    5.10   1
  -1  -5 -12   22.20    3.90   1
   1   5  13  193.30   11.80   1
  -1  -5 -13  217.20   10.50   1
   1   5  14   15.60    6.30   1
  -1  -5 -14   14.50    6.70   1
   1   6 -13  167.10   11.00   1
  -1  -6  13  172.10   11.70   1
   1   6 -12   40.50    6.50   1
  -1  -6  12   45.80    6.70   1
   1   6 -11    5.20    4.90   1
  -1  -6  11    8.10    4.10   1
   1   6 -10    0.20    4.10   1
  -1  -6  10    3.60    3.30   1
   1   6  -9   59.60    4.70   1
  -1  -6   9   50.20    3.50   1
   1   6  -8   27.00    3.70   1
  -1  -6   8   20.30    1.50   1
   1   6  -7    8.30    2.80   1
  -1  -6   7    4.40    1.10   1
   1   6  -6   32.70    3.00   1
  -1  -6   6   29.90    1.40   1
   1   6  -5   59.70    4.50   1
  -1  -6   5   49.30    2.00   1
   1   6  -4  174.20    5.00   1
  -1  -6   4  166.10    3.30   1
   1   6  -3  147.00    4.30   1
  -1  -6   3  145.80    3.40   1
   1   6  -2    1.00    1.10   1
  -1  -6   2    0.90    0.70   1
   1   6  -1  140.60    2.90   1
  -1  -6   1  138.40    3.00   1
   1   6   0  363.40    6.20   1
  -1  -6   0  351.90    6.60   1
   1   6   1 2423.10   31.70   1
  -1  -6  -1 2368.50   37.10   1
   1   6   2   61.00    1.80   1
  -1  -6  -2   60.60    1.70   1
   1   6   3  177.50    4.20   1
  -1  -6  -3  177.40    3.60   1
   1   6   4    5.70    2.00   1
  -1  -6  -4    5.70    1.30   1
   1   6   5    7.20    1.60   1
  -1  -6  -5    2.90    1.00   1
   1   6   6  468.00   12.70   1
  -1  -6  -6  489.30    8.40   1
   1   6   7    4.50    2.50   1
  -1  -6  -7    6.60    1.20   1
   1   6   8   54.60    5.90   1
  -1  -6  -8   59.70    2.60   1
   1   6   9   -1.00    3.00   1
  -1  -6  -9    2.20    2.10   1
   1   6  10  201.20    8.80   1
  -1  -6 -10  201.90    6.30   1
   1   6  11   90.30    6.60   1
  -1  -6 -11   98.40    4.50   1
   1   6  12   31.00    4.40   1
  -1  -6 -12   33.20    4.40   1
   1   6  13    9.60    4.60   1
  -1  -6 -13    1.50    4.50   1
   1   7 -13    8.90    6.90   1
  -1  -7  13   16.50    7.60   1
   1   7 -12    4.30    6.10   1
  -1  -7  12    4.10    6.50   1
   1   7 -11   22.40    5.30   1
  -1  -7  11   24.70    4.80   1
   1   7 -10   17.80    4.10   1
  -1  -7  10   11.20    3.10   1
   1   7  -9  342.70   13.60   1
  -1  -7   9  328.80   10.70   1
   1   7  -8   33.50    3.80   1
  -1  -7   8   33.70    3.30   1
   1   7  -7    6.60    2.70   1
  -1  -7   7    7.60    2.60   1
   1   7  -6   11.10    2.60   1
  -1  -7   6    5.80    0.80   1
   1   7  -5   12.90    2.70   1
  -1  -7   5   12.00    0.80   1
   1   7  -4  450.60   10.70   1
  -1  -7   4  430.20    9.50   1
   1   7  -3  388.80    9.40   1
  -1  -7   3  408.00   11.20   1
   1   7  -2  288.00    6.60   1
  -1  -7   2  282.10    6.80   1
   1   7  -1  234.50    6.30   1
  -1  -7   1  218.70    5.70   1
   1   7   0  216.30    5.10   1
  -1  -7   0  213.20    5.40   1
   1   7   1   56.00    1.70   1
  -1  -7  -1   54.70    2.10   1
   1   7   2   15.80    1.30   1
  -1  -7  -2   14.90    1.20   1
   1   7   3    3.40    1.40   1
  -1  -7  -3    2.50    1.20   1
   1   7   4  233.40    7.00   1
  -1  -7  -4  239.30    5.40   1
   1   7   5  155.80    5.70   1
  -1  -7  -5  148.20    3.30   1
   1   7   6  515.00   14.60   1
  -1  -7  -6  527.80    9.40   1
   1   7   7  152.60    6.10   1
  -1  -7  -7  154.10    4.50   1
   1   7   8   12.70    2.70   1
  -1  -7  -8   17.40    2.20   1
   1   7   9  128.40    6.40   1
  -1  -7  -9  130.40    4.50   1
   1   7  10   11.90    4.00   1
  -1  -7 -10   20.70    3.00   1
   1   7  11   84.50    6.60   1
  -1  -7 -11   83.50    5.40   1
   1   7  12   54.30    6.60   1
  -1  -7 -12   40.10    5.00   1
   1   7  13    0.60    5.80   1
  -1  -7 -13    2.60    6.50   1
   1   8 -12   30.00    6.90   1
  -1  -8  12   33.40    7.40   1
   1   8 -11    8.00    5.90   1
  -1  -8  11   14.30    4.80   1
   1   8 -10    7.10    4.90   1
  -1  -8  10    2.00    4.20   1
   1   8  -9   30.50    4.80   1
  -1  -8   9   33.00    3.80   1
   1   8  -8  182.60    8.10   1
  -1  -8   8  172.80    7.30   1
   1   8  -7   -0.60    2.80   1
  -1  -8   7   -0.30    2.70   1
   1   8  -6  971.40   37.10   1
  -1  -8   6  975.10   28.10   1
   1   8  -5   21.10    3.20   1
  -1  -8   5   29.00    1.20   1
   1   8  -4  272.00   11.60   1
  -1  -8   4  254.60    5.60   1
   1   8  -3   99.10    3.70   1
  -1  -8   3   98.80    3.60   1
   1   8  -2   10.30    1.50   1
  -1  -8   2    9.40    1.50   1
   1   8  -1   42.90    1.90   1
  -1  -8   1   43.10    2.60   1
   1   8   0   12.50    1.50   1
  -1  -8   0   13.30    1.20   1
   1   8   1  602.40   12.10   1
  -1  -8  -1  608.60   12.50   1
   1   8   2   45.90    1.80   1
  -1  -8  -2   46.20    2.30   1
   1   8   3   11.30    1.50   1
  -1  -8  -3   11.40    1.40   1
   1   8   4  201.70    7.10   1
  -1  -8  -4  197.00    4.90   1
   1   8   5    7.90    2.50   1
  -1  -8  -5    2.20    1.40   1
   1   8   6   14.50    3.00   1
  -1  -8  -6   14.90    1.90   1
   1   8   7    9.70    3.10   1
  -1  -8  -7    9.00    2.00   1
   1   8   8  339.70   12.50   1
  -1  -8  -8  347.80    8.80   1
   1   8   9    3.20    3.70   1
  -1  -8  -9    9.70    2.50   1
   1   8  10   48.80    5.00   1
  -1  -8 -10   46.20    3.20   1
   1   8  11   35.60    5.60   1
  -1  -8 -11   27.80    5.70   1
   1   8  12   -5.10    5.60   1
  -1  -8 -12   -6.10    5.00   1
   1   9 -12   15.10    7.30   1
  -1  -9  12   13.60    7.60   1
   1   9 -11   55.50    6.30   1
  -1  -9  11   44.00    6.30   1
   1   9 -10  117.20    7.50   1
  -1  -9  10  108.80    6.70   1
   1   9  -9    5.30    4.60   1
  -1  -9   9    4.50    3.20   1
   1   9  -8   30.30    4.70   1
  -1  -9   8   28.00    4.00   1
   1   9  -7   74.80    5.00   1
  -1  -9   7   70.60    4.40   1
   1   9  -6   15.40    3.30   1
  -1  -9   6   15.30    2.70   1
   1   9  -5  135.50    5.80   1
  -1  -9   5  134.60    3.90   1
   1   9  -4  102.60    6.30   1
   1   9  -3    6.40    2.40   1
  -1  -9   3    3.80    1.60   1
   1   9  -2  773.50   18.90   1
  -1  -9   2  787.40   18.40   1
   1   9  -1  133.00    4.10   1
  -1  -9   1  143.00    4.10   1
   1   9   0   12.20    1.90   1
  -1  -9   0   11.90    1.50   1
   1   9   1   17.10    1.60   1
  -1  -9  -1   20.90    2.10   1
   1   9   2    8.40    1.60   1
  -1  -9  -2    6.50    1.80   1
   1   9   3  101.60    3.10   1
  -1  -9  -3  105.10    4.10   1
   1   9   4  367.80   11.50   1
  -1  -9  -4  357.00    8.50   1
   1   9   5   63.90    4.10   1
  -1  -9  -5   60.40    2.80   1
   1   9   6   38.50    3.50   1
  -1  -9  -6   36.50    2.50   1
   1   9   7   22.40    3.70   1
  -1  -9  -7   22.00    2.40   1
   1   9   8   85.80    6.00   1
  -1  -9  -8   76.70    3.90   1
   1   9   9    3.00    4.50   1
  -1  -9  -9    2.40    3.10   1
   1   9  10   24.70    5.40   1
  -1  -9 -10   27.20    4.00   1
   1   9  11   -2.00    4.50   1
  -1  -9 -11    8.00    4.50   1
   1   9  12  133.60   14.80   1
  -1  -9 -12  134.80   10.30   1
   1  10 -11   -2.90    6.60   1
  -1 -10  11    3.00    7.60   1
   1  10 -10   33.00    6.40   1
  -1 -10  10   44.70    6.00   1
   1  10  -9    0.00    5.10   1
  -1 -10   9    1.50    3.90   1
   1  10  -8    5.40    5.30   1
  -1 -10   8    2.20    4.20   1
   1  10  -7    9.70    4.00   1
  -1 -10   7    1.60    3.10   1
   1  10  -6  485.30   17.50   1
  -1 -10   6  456.10   14.30   1
   1  10  -5   31.00    4.80   1
  -1 -10   5   38.80    4.00   1
   1  10  -4   -3.80    3.40   1
  -1 -10   4    2.60    2.40   1
   1  10  -3   25.60    3.20   1
  -1 -10   3   20.10    3.80   1
   1  10  -2   49.10    3.70   1
  -1 -10   2   44.90    4.00   1
   1  10  -1   16.90    3.00   1
  -1 -10   1   16.30    3.40   1
   1  10   0    6.10    2.70   1
  -1 -10   0    6.20    3.30   1
   1  10   1  276.10    9.80   1
  -1 -10  -1  279.60    8.10   1
   1  10   2   94.70    4.90   1
  -1 -10  -2  108.10    4.30   1
   1  10   3    2.00    2.60   1
  -1 -10  -3    3.30    2.20   1
   1  10   4   39.30    3.30   1
  -1 -10  -4   45.40    3.10   1
   1  10   5   28.60    3.40   1
  -1 -10  -5   21.00    2.40   1
   1  10   6   38.60    4.10   1
  -1 -10  -6   38.10    2.80   1
   1  10   7    0.90    3.80   1
  -1 -10  -7    0.20    2.70   1
   1  10   8  545.50   19.90   1
  -1 -10  -8  551.60   16.10   1
   1  10   9    8.30    4.90   1
  -1 -10  -9    1.90    3.60   1
   1  10  10   62.40    7.00   1
  -1 -10 -10   72.40    5.30   1
   1  10  11    9.00    6.10   1
  -1 -10 -11   -3.00    6.60   1
   1  11 -10   80.10    8.50   1
  -1 -11  10   50.20    7.10   1
   1  11  -9   85.00    7.60   1
  -1 -11   9   77.90    6.40   1
   1  11  -8   19.40    5.50   1
  -1 -11   8   33.00    5.10   1
   1  11  -7    4.10    4.80   1
  -1 -11   7    5.50    5.30   1
   1  11  -6   -4.50    4.10   1
  -1 -11   6    1.40    3.90   1
   1  11  -5    2.50    3.90   1
  -1 -11   5    0.20    3.50   1
   1  11  -4   70.20    4.70   1
  -1 -11   4   62.10    4.20   1
   1  11  -3   74.10    4.60   1
  -1 -11   3   71.90    5.40   1
   1  11  -2   77.80    5.70   1
  -1 -11   2   77.10    5.50   1
   1  11  -1    1.80    2.50   1
  -1 -11   1   -2.40    2.50   1
   1  11   0   28.80    3.50   1
  -1 -11   0   37.80    4.50   1
   1  11   1    7.20    3.50   1
  -1 -11  -1    3.80    2.40   1
   1  11   2   42.80    3.70   1
  -1 -11  -2   42.40    3.20   1
   1  11   3   40.40    3.20   1
  -1 -11  -3   52.00    2.90   1
   1  11   4   20.10    2.80   1
  -1 -11  -4   22.10    3.00   1
   1  11   5  322.70   13.20   1
  -1 -11  -5  320.90   10.30   1
   1  11   6   54.50    8.30   1
  -1 -11  -6   45.10    3.80   1
   1  11   7   10.20    7.40   1
  -1 -11  -7    9.40    3.60   1
   1  11   8   21.10    8.20   1
  -1 -11  -8   14.40    4.10   1
   1  11   9   40.70   10.00   1
  -1 -11  -9   17.70    4.40   1
   1  11  10   -2.60    9.50   1
  -1 -11 -10    2.10    3.40   1
   1  12  -9   12.90    5.40   1
  -1 -12   9    6.70    5.20   1
   1  12  -8   18.70    5.80   1
  -1 -12   8   27.50    5.70   1
   1  12  -7   -5.00    4.20   1
  -1 -12   7    6.80    5.10   1
   1  12  -6   26.30    5.70   1
  -1 -12   6   28.50    4.80   1
   1  12  -5   64.80    5.40   1
  -1 -12   5   56.20    4.80   1
   1  12  -4   39.40    5.10   1
  -1 -12   4   38.20    4.10   1
   1  12  -3   11.30    4.10   1
  -1 -12   3   14.00    5.10   1
   1  12  -2   13.60    3.00   1
  -1 -12   2   14.10    3.40   1
   1  12  -1   19.60    3.20   1
  -1 -12   1   20.20    4.80   1
   1  12   0   -2.30    3.30   1
  -1 -12   0    1.50    3.10   1
   1  12   1  480.20   16.80   1
  -1 -12  -1  494.10   14.40   1
   1  12   2   56.00    4.40   1
  -1 -12  -2   56.20    4.90   1
   1  12   3   56.70    4.50   1
  -1 -12  -3   61.80    5.00   1
   1  12   4   56.40    7.40   1
  -1 -12  -4   62.30    3.50   1
   1  12   5    6.80    7.10   1
  -1 -12  -5    2.70    3.00   1
   1  12   6   12.30    7.80   1
  -1 -12  -6    5.50    3.70   1
   1  12   7   29.90    9.10   1
  -1 -12  -7   19.20    5.50   1
   1  12   8    5.00    8.90   1
  -1 -12  -8   12.30    5.70   1
   1  12   9   10.40   10.30   1
  -1 -12  -9    1.40    5.90   1
   1  13  -8   29.90    6.70   1
  -1 -13   8   19.20    5.50   1
   1  13  -7   10.50    5.00   1
  -1 -13   7   11.00    4.90   1
   1  13  -6   -6.40    5.90   1
  -1 -13   6    8.90    4.30   1
   1  13  -5   -0.40    4.80   1
  -1 -13   5   -2.90    3.50   1
   1  13  -4   15.10    4.60   1
  -1 -13   4   10.30    4.10   1
   1  13  -3  152.70   11.20   1
  -1 -13   3  152.50    7.90   1
   1  13  -2    4.80    3.50   1
  -1 -13   2    4.60    4.40   1
   1  13  -1   94.40    5.90   1
  -1 -13   1  104.80    7.60   1
   1  13   0    7.40    3.20   1
  -1 -13   0   -1.50    3.50   1
   1  13   1   39.30    4.50   1
  -1 -13  -1   32.80    3.70   1
   1  13   2   -4.30    7.30   1
  -1 -13  -2   21.70    3.60   1
   1  13   3    9.30    7.50   1
  -1 -13  -3    9.60    4.50   1
   1  13   4   28.20    8.60   1
  -1 -13  -4   34.90    5.10   1
   1  13   5  125.40   10.80   1
  -1 -13  -5  117.60    6.80   1
   1  13   6    6.80    9.10   1
  -1 -13  -6   22.20    5.00   1
   1  13   7   25.80    9.90   1
  -1 -13  -7   27.80    6.80   1
   1  13   8   -7.40   10.00   1
  -1 -13  -8    1.50    6.40   1
   1  14  -6   77.40    7.40   1
  -1 -14   6   85.10    7.20   1
   1  14  -5   -5.00    5.00   1
  -1 -14   5   -6.20    5.40   1
   1  14  -4    6.20    5.10   1
  -1 -14   4    7.50    5.00   1
   1  14  -3   16.30    4.30   1
  -1 -14   3    4.80    4.50   1
   1  14  -2   -1.80    9.40   1
  -1 -14   2   21.50    4.80   1
   1  14  -1    7.60    8.70   1
  -1 -14   1   16.20    6.00   1
   1  14   0  121.00   11.60   1
  -1 -14   0  118.40    8.50   1
   1  14   1  208.80   16.10   1
  -1 -14  -1  186.60   10.90   1
   1  14   2   23.00    6.50   1
  -1 -14  -2   19.10    3.90   1
   1  14   3   81.50   11.60   1
  -1 -14  -3   81.90    6.60   1
   1  14   4   -4.00    8.70   1
  -1 -14  -4    4.10    4.40   1
   1  14   5   -8.50    6.10   1
  -1 -14  -5   -3.30    4.20   1
   1  14   6  -21.20    9.80   1
  -1 -14  -6   -5.20    6.50   1
   1  15  -4   15.50    8.50   1
  -1 -15   4    8.60    6.10   1
   1  15  -3   30.20   11.50   1
  -1 -15   3    7.80    4.80   1
   1  15  -2   51.90   11.80   1
  -1 -15   2   47.20    6.10   1
   1  15  -1   30.60   10.60   1
  -1 -15   1   27.30    4.80   1
   1  15   0    4.50    9.40   1
  -1 -15   0    1.20    4.90   1
   1  15   1    6.90    9.60   1
  -1 -15  -1   -7.10    5.00   1
   1  15   2   -0.90    9.20   1
  -1 -15  -2    4.40    7.00   1
   1  15   3   99.10   12.10   1
  -1 -15  -3  119.10   10.30   1
  -1 -15  -4   35.00    6.70   1
   2 -15  -3   15.30    6.00   1
  -2  15   3   11.50    7.40   1
   2 -15  -2    3.60    9.80   1
  -2  15   2   -4.20    9.30   1
   2 -15  -1   70.80    8.70   1
  -2  15   1   39.70   11.10   1
   2 -15   0   50.30    7.40   1
  -2  15   0   35.10   10.90   1
   2 -15   1   21.90    6.00   1
  -2  15  -1   16.00   10.80   1
   2 -15   2    3.30    5.90   1
  -2  15  -2    0.30   11.00   1
   2 -15   3   21.00    8.00   1
  -2  15  -3   42.80   12.30   1
   2 -14  -6   25.90    5.50   1
  -2  14   6   29.30    8.20   1
   2 -14  -5   34.00    7.30   1
  -2  14   5   45.40   10.90   1
   2 -14  -4  -11.50    8.80   1
  -2  14   4   -3.50    8.80   1
   2 -14  -3   62.50    7.10   1
  -2  14   3   81.20   11.00   1
   2 -14  -2   70.60    7.00   1
  -2  14   2   62.10    9.80   1
   2 -14  -1    7.80    5.70   1
  -2  14   1   12.60    8.70   1
   2 -14   0   60.60    7.40   1
  -2  14   0   54.90    9.80   1
   2 -14   1   29.20    6.60   1
  -2  14  -1   19.90    9.70   1
   2 -14   2   -0.10    4.20   1
  -2  14  -2   -7.90    8.60   1
   2 -14   3    1.00    5.60   1
  -2  14  -3    0.50    6.20   1
   2 -14   4   72.60    8.90   1
  -2  14  -4   66.30   13.00   1
   2 -14   5   48.00    8.40   1
  -2  14  -5   37.20   12.20   1
   2 -14   6   11.90    8.00   1
  -2  14  -6   15.00   12.00   1
   2 -13  -8    0.60    4.90   1
  -2  13   8    6.10    6.00   1
   2 -13  -7   22.50    5.60   1
  -2  13   7   14.80    7.40   1
   2 -13  -6   53.80    4.90   1
  -2  13   6   59.80    8.50   1
   2 -13  -5    9.50    5.70   1
  -2  13   5    4.90    8.30   1
   2 -13  -4   51.20    5.50   1
  -2  13   4   32.70    6.80   1
   2 -13  -3  254.20   11.90   1
  -2  13   3  244.70   16.40   1
   2 -13  -2   -6.50    7.20   1
  -2  13   2   -0.80    5.00   1
   2 -13  -1  144.40    8.90   1
  -2  13   1  147.50   11.50   1
   2 -13   0   10.60    5.20   1
   2 -13   1  107.20    7.70   1
  -2  13  -1  113.10   11.50   1
   2 -13   2    6.70    4.60   1
  -2  13  -2    9.60    6.10   1
   2 -13   3   -4.90    5.50   1
  -2  13  -3   12.90    8.70   1
   2 -13   4   -7.10    5.80   1
  -2  13  -4    9.10    8.60   1
   2 -13   5   32.80    6.20   1
  -2  13  -5   40.70    8.20   1
   2 -13   6   -1.20    6.70   1
  -2  13  -6   -3.60   10.10   1
   2 -13   7  294.30   13.00   1
   2 -13   8   23.00    7.90   1
   2 -12  -9   19.20    5.20   1
  -2  12   9   17.70    6.50   1
   2 -12  -8   40.20    5.60   1
  -2  12   8   47.30    9.70   1
   2 -12  -7   47.70    5.10   1
  -2  12   7   54.90    7.70   1
   2 -12  -6   43.00    6.00   1
  -2  12   6   47.30    8.80   1
   2 -12  -5   62.10    6.20   1
  -2  12   5   64.20    9.60   1
   2 -12  -4   -9.00    4.70   1
  -2  12   4    4.80    6.60   1
   2 -12  -3  324.50   13.50   1
  -2  12   3  327.80   17.60   1
   2 -12  -2    8.00    4.40   1
  -2  12   2   15.70    6.30   1
   2 -12  -1    2.20    3.30   1
  -2  12   1    6.50    6.20   1
   2 -12   0    6.20    3.70   1
  -2  12   0    0.20    4.50   1
   2 -12   1   81.20    6.50   1
  -2  12  -1   95.90   10.00   1
   2 -12   2  121.40    7.40   1
  -2  12  -2  116.30   10.40   1
   2 -12   3   44.20    4.70   1
  -2  12  -3   41.20    4.30   1
   2 -12   4   46.20    6.00   1
  -2  12  -4   45.20    4.60   1
   2 -12   5    3.00    6.90   1
  -2  12  -5    5.60    4.50   1
   2 -12   6    4.90    5.60   1
  -2  12  -6    4.40    4.40   1
   2 -12   7   26.70    5.80   1
  -2  12  -7   20.90    5.40   1
   2 -12   8   13.30    5.30   1
  -2  12  -8    3.20    5.10   1
   2 -12   9   49.80    8.70   1
  -2  12  -9   24.50    6.20   1
   2 -11 -10   99.80    8.00   1
  -2  11  10   84.10   12.00   1
   2 -11  -9    3.10    4.30   1
  -2  11   9    2.30    7.60   1
   2 -11  -8   40.10    6.00   1
  -2  11   8   36.70    8.40   1
   2 -11  -7  144.60    8.40   1
  -2  11   7  151.20   12.50   1
   2 -11  -6    3.60    4.50   1
  -2  11   6   -0.80    6.70   1
   2 -11  -5    2.60    3.40   1
  -2  11   5    7.00    5.70   1
   2 -11  -4   14.10    4.00   1
  -2  11   4   11.00    6.00   1
   2 -11  -3   56.60    5.10   1
  -2  11   3   49.90    6.80   1
   2 -11  -2   11.30    2.80   1
  -2  11   2    7.70    4.30   1
   2 -11  -1   -2.00    3.70   1
  -2  11   1    5.60    5.30   1
   2 -11   0  198.70    8.90   1
  -2  11   0  180.20    6.70   1
   2 -11   1   39.20    5.20   1
  -2  11  -1   40.80    3.20   1
   2 -11   2    8.40    4.10   1
  -2  11  -2    9.10    2.20   1
   2 -11   3    0.00    4.10   1
  -2  11  -3    1.90    1.80   1
   2 -11   4   79.40    6.00   1
  -2  11  -4   80.20    5.00   1
   2 -11   5   -1.00    2.90   1
  -2  11  -5    1.70    2.90   1
   2 -11   6   19.50    5.20   1
  -2  11  -6   13.30    3.80   1
   2 -11   7  112.70    8.20   1
  -2  11  -7  131.90    7.60   1
   2 -11   8    2.00    4.00   1
  -2  11  -8    0.50    5.10   1
   2 -11   9    2.20    4.30   1
  -2  11  -9    1.50    6.20   1
   2 -11  10   12.10    6.40   1
  -2  11 -10   11.40    6.00   1
   2 -10 -11   -1.20    6.10   1
  -2  10  11   13.70    8.90   1
   2 -10 -10  124.70    8.40   1
  -2  10  10  146.70   13.20   1
   2 -10  -9   20.80    3.90   1
  -2  10   9   10.80    6.80   1
   2 -10  -8    5.90    3.30   1
  -2  10   8   12.20    6.60   1
   2 -10  -7   78.00    4.70   1
  -2  10   7   72.20    8.50   1
   2 -10  -6  120.60    5.10   1
  -2  10   6  135.90    9.20   1
   2 -10  -5   30.90    2.80   1
  -2  10   5   34.30    6.10   1
   2 -10  -4  248.00    7.50   1
  -2  10   4  259.50   14.50   1
   2 -10  -3   93.10    3.30   1
  -2  10   3   89.70    6.70   1
   2 -10  -2   69.80    4.70   1
  -2  10   2   68.90    3.10   1
   2 -10  -1    5.20    3.20   1
  -2  10   1    8.60    1.60   1
   2 -10   0   11.10    2.90   1
  -2  10   0   15.40    2.00   1
   2 -10   1   19.60    3.20   1
  -2  10  -1   17.30    2.10   1
   2 -10   2    7.50    3.20   1
  -2  10  -2    8.10    1.90   1
   2 -10   3   22.60    3.60   1
  -2  10  -3   23.30    2.80   1
   2 -10   4  237.80    9.50   1
  -2  10  -4  216.00    6.70   1
   2 -10   5   -1.00    2.40   1
  -2  10  -5    0.00    2.60   1
   2 -10   6   25.20    3.40   1
  -2  10  -6   24.50    4.30   1
   2 -10   7   14.60    5.00   1
  -2  10  -7   13.30    3.90   1
   2 -10   8  112.80    6.50   1
  -2  10  -8  109.20    7.20   1
   2 -10   9    9.90    4.80   1
  -2  10  -9    2.00    4.60   1
   2 -10  10   18.40    7.50   1
  -2  10 -10   18.90    5.90   1
   2 -10  11   47.50    6.80   1
  -2  10 -11   56.80    6.90   1
   2  -9 -12    4.00    4.90   1
  -2   9  12   15.10    9.50   1
   2  -9 -11   -5.40    4.40   1
  -2   9  11   -9.90    7.90   1
   2  -9 -10  341.50   11.60   1
  -2   9  10  321.90   22.50   1
   2  -9  -9    1.40    3.40   1
  -2   9   9    8.30    6.50   1
   2  -9  -8   59.70    4.00   1
  -2   9   8   62.20    7.20   1
   2  -9  -7    4.30    2.70   1
  -2   9   7    3.40    5.10   1
   2  -9  -6   72.50    3.60   1
  -2   9   6   73.60    6.90   1
   2  -9  -5   21.70    2.40   1
  -2   9   5   20.30    1.70   1
   2  -9  -4    3.90    1.90   1
  -2   9   4    0.10    1.10   1
   2  -9  -3    1.60    1.60   1
  -2   9   3    5.00    0.80   1
   2  -9  -2    1.30    1.10   1
  -2   9   2    0.10    1.00   1
   2  -9  -1  112.30    5.00   1
  -2   9   1  100.20    3.60   1
   2  -9   0  923.60   25.80   1
  -2   9   0  963.90   20.30   1
   2  -9   1   85.70    4.70   1
  -2   9  -1   76.20    2.90   1
   2  -9   2    3.40    2.50   1
  -2   9  -2    4.60    1.00   1
   2  -9   3   90.90    4.80   1
  -2   9  -3   85.30    4.20   1
   2  -9   4  214.90    6.80   1
  -2   9  -4  204.20    6.00   1
   2  -9   5  151.70    5.60   1
  -2   9  -5  152.40    6.40   1
   2  -9   6   21.40    2.70   1
  -2   9  -6   21.40    3.20   1
   2  -9   7    6.20    2.40   1
  -2   9  -7    7.60    3.10   1
   2  -9   8   53.00    4.90   1
  -2   9  -8   66.20    5.40   1
   2  -9   9    7.90    3.80   1
  -2   9  -9   10.30    3.90   1
   2  -9  10    3.00    6.20   1
  -2   9 -10   -1.20    5.30   1
   2  -9  11    9.50    7.30   1
  -2   9 -11    2.80    6.20   1
   2  -9  12   -3.60   10.40   1
  -2   9 -12   -3.30    6.40   1
   2  -8 -12   21.50    4.50   1
  -2   8  12   36.90    9.20   1
   2  -8 -11   70.50    5.20   1
  -2   8  11   70.80    8.70   1
   2  -8 -10   91.10    5.40   1
  -2   8  10   90.50    8.60   1
   2  -8  -9   18.20    3.00   1
  -2   8   9   17.40    4.30   1
   2  -8  -8   92.70    4.40   1
  -2   8   8   87.60    7.90   1
   2  -8  -7   -1.20    2.10   1
  -2   8   7    2.10    2.80   1
   2  -8  -6  208.20    5.20   1
  -2   8   6  209.50   10.70   1
   2  -8  -5   47.80    2.80   1
  -2   8   5   47.00    2.50   1
   2  -8  -4    2.40    1.60   1
  -2   8   4    2.70    0.80   1
   2  -8  -3  174.60    6.70   1
  -2   8   3  160.20    4.00   1
   2  -8  -2   32.50    1.80   1
  -2   8   2   30.00    1.60   1
   2  -8  -1   38.00    2.90   1
  -2   8   1   35.90    1.90   1
   2  -8   0  277.40    9.40   1
  -2   8   0  255.00    5.80   1
   2  -8   1  162.10    6.20   1
  -2   8  -1  164.40    4.30   1
   2  -8   2  895.90   20.60   1
  -2   8  -2  868.70   18.80   1
   2  -8   3  103.80    4.00   1
  -2   8  -3  104.40    2.90   1
   2  -8   4  826.90   24.80   1
  -2   8  -4  797.00   14.90   1
   2  -8   5    0.20    2.10   1
  -2   8  -5    1.20    1.80   1
   2  -8   6   43.50    3.60   1
  -2   8  -6   40.90    4.40   1
   2  -8   7    3.40    2.40   1
  -2   8  -7    2.40    3.10   1
   2  -8   8    4.10    2.30   1
  -2   8  -8    2.30    3.60   1
   2  -8   9    2.00    3.70   1
  -2   8  -9    0.30    4.80   1
   2  -8  10   69.40    7.40   1
  -2   8 -10   75.60    6.90   1
   2  -8  11   16.00    6.80   1
  -2   8 -11   28.00    6.30   1
   2  -8  12   44.60    8.00   1
  -2   8 -12   23.80    6.90   1
   2  -7 -13    1.40    6.20   1
  -2   7  13   17.00    8.80   1
   2  -7 -12   20.30    4.60   1
  -2   7  12   23.90    8.90   1
   2  -7 -11   31.80    4.40   1
  -2   7  11   16.80    6.90   1
   2  -7 -10  134.30    5.80   1
  -2   7  10  120.80   10.40   1
   2  -7  -9   43.10    2.80   1
  -2   7   9   46.80    6.20   1
   2  -7  -8  184.80    5.40   1
  -2   7   8  180.50   10.80   1
   2  -7  -7  207.80    5.40   1
  -2   7   7  206.30   10.70   1
   2  -7  -6   79.90    2.60   1
  -2   7   6   72.10    3.30   1
   2  -7  -5  147.50    3.50   1
  -2   7   5  145.20    4.80   1
   2  -7  -4    3.60    1.70   1
  -2   7   4    3.80    1.10   1
   2  -7  -3  580.10   13.00   1
  -2   7   3  572.20   11.60   1
   2  -7  -2  162.90    4.40   1
  -2   7   2  161.20    4.90   1
   2  -7  -1  261.00    8.50   1
  -2   7   1  237.70    6.60   1
   2  -7   0  496.10   12.50   1
  -2   7   0  439.80    9.40   1
   2  -7   1  404.80   10.40   1
  -2   7  -1  387.40   10.90   1
   2  -7   2   52.50    2.60   1
  -2   7  -2   49.30    1.90   1
   2  -7   3    4.00    1.80   1
  -2   7  -3    4.70    1.10   1
   2  -7   4  135.90    6.30   1
  -2   7  -4  131.90    4.10   1
   2  -7   5   17.10    2.10   1
  -2   7  -5   21.90    2.50   1
   2  -7   6  310.70    8.40   1
  -2   7  -6  297.90    9.50   1
   2  -7   7  650.60   16.10   1
  -2   7  -7  656.00   19.70   1
   2  -7   8   20.50    2.50   1
  -2   7  -8   27.90    4.00   1
   2  -7   9   54.80    3.20   1
  -2   7  -9   47.70    4.50   1
   2  -7  10    4.30    5.10   1
  -2   7 -10    4.20    4.60   1
   2  -7  11   13.30    4.80   1
  -2   7 -11    3.10    5.10   1
   2  -7  12   29.40    7.30   1
  -2   7 -12   54.50    6.90   1
   2  -7  13    3.50    7.30   1
  -2   7 -13    4.20    6.90   1
   2  -6 -13   91.40    8.70   1
  -2   6  13  107.80   12.50   1
   2  -6 -12  247.20   12.50   1
  -2   6  12  246.80   17.80   1
   2  -6 -11   12.90    3.50   1
  -2   6  11    3.90    6.20   1
   2  -6 -10    0.40    2.50   1
  -2   6  10   -4.50    3.10   1
   2  -6  -9    3.40    2.20   1
  -2   6   9   -0.20    2.90   1
   2  -6  -8   55.30    3.00   1
  -2   6   8   45.50    3.40   1
   2  -6  -7  159.70    4.70   1
  -2   6   7  152.70    4.60   1
   2  -6  -6    0.20    1.30   1
  -2   6   6   -1.50    1.30   1
   2  -6  -5  267.30    5.30   1
  -2   6   5  266.20    7.50   1
   2  -6  -4  163.90    3.30   1
  -2   6   4  153.10    4.70   1
   2  -6  -3  639.70   13.90   1
  -2   6   3  621.80   12.40   1
   2  -6  -2  274.60    6.40   1
  -2   6   2  293.10   12.20   1
   2  -6  -1   20.40    1.20   1
  -2   6   1   19.90    1.00   1
   2  -6   0    0.40    1.30   1
  -2   6   0    0.50    0.60   1
   2  -6   1  492.70   10.10   1
  -2   6  -1  470.40    8.10   1
   2  -6   2  185.10    4.90   1
  -2   6  -2  155.10    4.00   1
   2  -6   3  247.00    6.70   1
  -2   6  -3  241.70    5.50   1
   2  -6   4   11.80    1.80   1
  -2   6  -4    8.80    1.10   1
   2  -6   5   13.60    1.80   1
  -2   6  -5   12.80    1.70   1
   2  -6   6   -1.60    1.90   1
  -2   6  -6   -1.00    1.80   1
   2  -6   7   10.80    2.10   1
  -2   6  -7   11.10    3.00   1
   2  -6   8   -3.40    1.90   1
  -2   6  -8   -2.80    2.70   1
   2  -6   9   79.10    3.90   1
  -2   6  -9   90.40    5.70   1
   2  -6  10    2.60    2.90   1
  -2   6 -10    0.00    4.20   1
   2  -6  11  265.70   12.90   1
  -2   6 -11  271.30   12.50   1
   2  -6  12    7.90    5.40   1
  -2   6 -12    5.60    4.90   1
   2  -6  13   -0.40    5.70   1
  -2   6 -13   -1.90    5.50   1
   2  -5 -14    5.30    8.70   1
  -2   5  14   16.40    9.90   1
   2  -5 -13    5.30    5.10   1
  -2   5  13    6.30    7.80   1
   2  -5 -12   -0.10    3.50   1
  -2   5  12   -1.50    3.80   1
   2  -5 -11   -0.50    2.80   1
  -2   5  11    2.20    3.60   1
   2  -5 -10   15.50    2.60   1
  -2   5  10   20.30    3.40   1
   2  -5  -9   61.80    3.20   1
  -2   5   9   64.00    4.20   1
   2  -5  -8   85.60    3.40   1
  -2   5   8   77.90    4.00   1
   2  -5  -7  584.90   12.90   1
  -2   5   7  556.00   12.50   1
   2  -5  -6    5.10    1.10   1
  -2   5   6    2.10    1.30   1
   2  -5  -5  108.40    2.90   1
  -2   5   5  107.20    3.50   1
   2  -5  -4    4.00    0.90   1
  -2   5   4    3.60    1.00   1
   2  -5  -3  576.40    9.90   1
  -2   5   3  562.60   10.50   1
   2  -5  -2  504.80    8.60   1
  -2   5   2  489.20    9.30   1
   2  -5  -1   45.10    1.30   1
  -2   5   1   49.30    2.00   1
   2  -5   0   22.50    1.50   1
  -2   5   0   20.20    0.90   1
   2  -5   1    4.10    1.00   1
  -2   5  -1    3.60    0.50   1
   2  -5   2  128.60    3.30   1
  -2   5  -2  108.10    3.10   1
   2  -5   3   93.70    2.60   1
  -2   5  -3   87.80    2.20   1
   2  -5   4    1.90    1.50   1
  -2   5  -4    3.10    1.50   1
   2  -5   5    1.30    1.40   1
  -2   5  -5    2.80    1.40   1
   2  -5   6  626.10   18.10   1
  -2   5  -6  565.50   15.60   1
   2  -5   7  371.50    9.90   1
  -2   5  -7  354.30    8.90   1
   2  -5   8   32.30    2.30   1
  -2   5  -8   30.90    2.40   1
   2  -5   9   24.90    2.30   1
  -2   5  -9   25.20    3.50   1
   2  -5  10   10.30    2.90   1
  -2   5 -10   18.40    4.20   1
   2  -5  11   48.00    4.10   1
  -2   5 -11   56.10    5.00   1
   2  -5  12   43.00    6.50   1
  -2   5 -12   50.00    6.40   1
   2  -5  13   57.80    7.70   1
  -2   5 -13   71.00    8.10   1
   2  -4 -14   26.20    6.40   1
  -2   4  14    5.60    9.00   1
   2  -4 -13   35.70    4.30   1
  -2   4  13   28.90    5.10   1
   2  -4 -12   -1.40    3.20   1
  -2   4  12    5.20    4.00   1
   2  -4 -11   24.40    3.30   1
  -2   4  11   21.70    3.60   1
   2  -4 -10  115.10    4.60   1
  -2   4  10  113.10    5.60   1
   2  -4  -9    5.00    2.30   1
  -2   4   9    4.30    2.50   1
   2  -4  -8   15.70    2.60   1
  -2   4   8   11.50    2.30   1
   2  -4  -7  286.60    7.20   1
  -2   4   7  283.40    6.60   1
   2  -4  -6   89.20    3.00   1
  -2   4   6   81.30    2.60   1
   2  -4  -5 2861.50   54.20   1
  -2   4   5 2694.40   50.40   1
   2  -4  -4 1465.10   22.20   1
  -2   4   4 1431.30   24.40   1
   2  -4  -3  537.10    7.80   1
  -2   4   3  526.50    9.50   1
   2  -4  -2   33.70    1.40   1
  -2   4   2   29.20    1.40   1
   2  -4  -1    1.20    0.60   1
  -2   4   1    2.30    1.10   1
   2  -4   0   10.30    0.70   1
  -2   4   0    9.90    0.70   1
   2  -4   1    1.50    0.90   1
  -2   4  -1    0.40    0.40   1
   2  -4   2  748.20   13.90   1
  -2   4  -2  714.60   11.90   1
   2  -4   3   95.40    2.60   1
  -2   4  -3   87.40    2.10   1
   2  -4   4   44.00    1.70   1
  -2   4  -4   44.30    1.80   1
   2  -4   5  208.40    6.20   1
  -2   4  -5  204.50    5.30   1
   2  -4   6   80.70    3.20   1
  -2   4  -6   73.30    2.80   1
   2  -4   7   59.40    2.30   1
  -2   4  -7   61.80    2.30   1
   2  -4   8  241.00    6.40   1
  -2   4  -8  229.10    5.80   1
   2  -4   9  432.10   10.70   1
  -2   4  -9  473.10   15.60   1
   2  -4  10    0.80    2.50   1
  -2   4 -10    7.70    3.30   1
   2  -4  11  198.60    8.30   1
  -2   4 -11  189.90    9.40   1
   2  -4  12   30.80    4.20   1
  -2   4 -12   44.90    5.60   1
   2  -4  13   24.30   10.70   1
  -2   4 -13   22.80    4.50   1
   2  -4  14   26.50   11.70   1
  -2   4 -14   -2.40   10.80   1
   2  -3 -14   49.90    6.70   1
  -2   3  14   26.70    9.00   1
   2  -3 -13   15.90    4.10   1
  -2   3  13    8.50    4.40   1
   2  -3 -12    0.80    3.10   1
  -2   3  12   -3.90    3.00   1
   2  -3 -11   93.20    5.90   1
  -2   3  11   92.70    4.40   1
   2  -3 -10  166.70    7.50   1
  -2   3  10  159.40    5.50   1
   2  -3  -9  136.80    4.70   1
  -2   3   9  131.90    3.60   1
   2  -3  -8   13.30    1.80   1
  -2   3   8   12.00    1.80   1
   2  -3  -7   13.20    1.40   1
  -2   3   7   15.20    1.40   1
   2  -3  -6   47.10    1.60   1
  -2   3   6   47.70    1.80   1
   2  -3  -5   22.30    1.00   1
  -2   3   5   24.10    1.00   1
   2  -3  -4    7.90    0.80   1
  -2   3   4    8.20    0.80   1
   2  -3  -3  280.60    5.00   1
  -2   3   3  265.70    5.00   1
   2  -3  -2  280.60    4.80   1
  -2   3   2  264.00    4.90   1
   2  -3  -1 2273.60   43.20   1
  -2   3   1 2302.20   43.60   1
   2  -3   0  504.70   10.30   1
  -2   3   0  512.90   11.00   1
   2  -3   1    0.90    0.70   1
  -2   3  -1    0.60    0.60   1
   2  -3   2    0.30    0.70   1
  -2   3  -2    0.70    0.60   1
   2  -3   3   24.60    1.10   1
  -2   3  -3   22.60    1.00   1
   2  -3   4  136.80    2.80   1
  -2   3  -4  127.40    3.10   1
   2  -3   5 1380.80   22.90   1
  -2   3  -5 1365.20   28.30   1
   2  -3   6   61.00    2.10   1
  -2   3  -6   62.70    2.00   1
   2  -3   7   70.70    2.50   1
  -2   3  -7   68.90    2.30   1
   2  -3   8   33.40    2.00   1
  -2   3  -8   34.10    2.10   1
   2  -3   9  328.60    8.10   1
  -2   3  -9  327.50   11.70   1
   2  -3  10    0.90    2.40   1
  -2   3 -10    0.50    3.00   1
   2  -3  11   14.50    3.10   1
  -2   3 -11    5.70    3.10   1
   2  -3  12    3.70    3.90   1
  -2   3 -12    2.40    5.20   1
   2  -3  13  141.60    9.20   1
  -2   3 -13  136.40    9.70   1
   2  -3  14   56.60    9.50   1
  -2   3 -14   45.40    6.90   1
   2  -2 -14    2.20    5.50   1
  -2   2  14    3.50    4.90   1
   2  -2 -13   -1.60    4.60   1
  -2   2  13   -2.80    4.20   1
   2  -2 -12  161.60    7.40   1
  -2   2  12  145.90    6.50   1
   2  -2 -11  198.50    7.60   1
  -2   2  11  199.80    7.00   1
   2  -2 -10    6.10    2.30   1
  -2   2  10    9.60    2.10   1
   2  -2  -9   10.00    2.10   1
  -2   2   9    8.40    1.90   1
   2  -2  -8  317.70    8.30   1
  -2   2   8  302.40    6.10   1
   2  -2  -7  198.60    4.00   1
  -2   2   7  190.60    3.70   1
   2  -2  -6  283.80    4.80   1
  -2   2   6  268.60    4.90   1
   2  -2  -5 2870.90   35.60   1
  -2   2   5 2725.40   39.60   1
   2  -2  -4  459.10    6.30   1
  -2   2   4  437.70    7.10   1
   2  -2  -3   35.90    1.00   1
  -2   2   3   35.30    1.00   1
   2  -2  -2    6.00    0.50   1
  -2   2   2    5.40    0.50   1
   2  -2  -1   28.40    0.70   1
  -2   2   1   27.80    1.20   1
   2  -2   0  581.10    8.10   1
  -2   2   0  583.30   12.00   1
   2  -2   1    5.60    0.70   1
  -2   2  -1    5.10    0.60   1
   2  -2   2 1309.90   20.30   1
  -2   2  -2 1285.30   19.90   1
   2  -2   3  102.60    2.10   1
  -2   2  -3  100.30    2.40   1
   2  -2   4  774.50   11.90   1
  -2   2  -4  742.40   12.30   1
   2  -2   5  207.10    4.30   1
  -2   2  -5  194.30    3.90   1
   2  -2   6  100.90    2.80   1
  -2   2  -6  101.20    2.40   1
   2  -2   7    0.60    1.10   1
  -2   2  -7   -0.40    1.10   1
   2  -2   8   45.90    2.20   1
  -2   2  -8   42.40    1.70   1
   2  -2   9  470.40   12.60   1
  -2   2  -9  485.30   14.60   1
   2  -2  10   32.80    2.90   1
  -2   2 -10   27.20    2.30   1
   2  -2  11   53.10    3.70   1
  -2   2 -11   53.50    4.70   1
   2  -2  12  155.90    7.00   1
  -2   2 -12  168.30    8.70   1
   2  -2  13   41.60    6.60   1
  -2   2 -13   36.50    6.50   1
   2  -2  14   13.40   10.50   1
  -2   2 -14    7.70    6.50   1
   2  -1 -14    6.80    8.40   1
  -2   1  14    1.50    4.50   1
   2  -1 -13    4.20    3.90   1
  -2   1  13    0.80    3.20   1
   2  -1 -12    7.80    3.30   1
  -2   1  12    6.90    2.90   1
   2  -1 -11   11.70    3.00   1
  -2   1  11    8.30    2.40   1
   2  -1 -10  222.90    7.60   1
  -2   1  10  227.30    7.20   1
   2  -1  -9  152.10    5.00   1
  -2   1   9  151.00    4.90   1
   2  -1  -8  960.70   21.30   1
  -2   1   8  933.50   20.40   1
   2  -1  -7  158.10    3.20   1
  -2   1   7  158.60    3.50   1
   2  -1  -6    5.10    0.90   1
  -2   1   6    4.70    0.80   1
   2  -1  -5  252.80    4.00   1
  -2   1   5  239.70    3.80   1
   2  -1  -4    1.10    0.50   1
  -2   1   4    0.40    0.50   1
   2  -1  -3  154.80    2.40   1
  -2   1   3  151.50    3.00   1
   2  -1  -2 1458.60   18.40   1
  -2   1   2 1399.00   22.90   1
   2  -1  -1  131.90    1.90   1
  -2   1   1  129.40    2.90   1
   2  -1   0  601.80    9.50   1
  -2   1   0  586.80    8.40   1
   2  -1   1  292.90    4.40   1
  -2   1  -1  294.70    5.00   1
   2  -1   2  225.10    4.00   1
  -2   1  -2  219.00    3.50   1
   2  -1   3   18.40    0.70   1
  -2   1  -3   16.90    0.60   1
   2  -1   4  136.50    2.70   1
  -2   1  -4  128.20    2.50   1
   2  -1   5   27.00    1.10   1
  -2   1  -5   27.20    0.90   1
   2  -1   6 1755.70   36.10   1
  -2   1  -6 1646.20   25.10   1
   2  -1   7   93.00    3.40   1
  -2   1  -7   93.60    2.50   1
   2  -1   8   -1.00    1.80   1
  -2   1  -8    0.70    0.90   1
   2  -1   9    2.90    2.10   1
  -2   1  -9    2.50    1.20   1
   2  -1  10    1.10    2.50   1
  -2   1 -10    3.30    1.50   1
   2  -1  11   30.30    3.30   1
  -2   1 -11   38.40    4.60   1
   2  -1  12  131.40    7.90   1
  -2   1 -12  126.00    7.90   1
   2  -1  13   61.90    6.60   1
  -2   1 -13   63.70    6.40   1
   2  -1  14   25.10    6.60   1
  -2   1 -14   34.00    7.10   1
   2   0 -14   36.40    6.50   1
  -2   0  14   29.00    8.80   1
   2   0 -13    1.70    3.70   1
  -2   0  13   -0.70    3.10   1
   2   0 -12  769.90   22.70   1
  -2   0  12  759.70   21.30   1
   2   0 -11   -1.20    2.70   1
  -2   0  11    0.10    2.50   1
   2   0 -10   32.80    2.90   1
  -2   0  10   35.70    2.60   1
   2   0  -9    0.90    2.20   1
  -2   0   9    2.00    1.60   1
   2   0  -8    4.00    1.90   1
  -2   0   8    0.90    1.60   1
   2   0  -7   -1.00    1.10   1
  -2   0   7    1.30    1.40   1
   2   0  -6    1.00    0.80   1
  -2   0   6    0.30    0.80   1
   2   0  -5    0.00    0.70   1
  -2   0   5    0.70    0.50   1
   2   0  -4  310.30    4.90   1
  -2   0   4  294.00    4.20   1
   2   0  -3    0.50    0.50   1
  -2   0   3   -0.10    0.50   1
   2   0  -2  783.10   11.10   1
  -2   0   2  768.20   10.10   1
   2   0  -1    9.00    0.30   1
  -2   0   1    9.50    0.50   1
   2   0   0   12.00    0.30   1
  -2   0   0   14.00    0.50   1
   2   0   1    0.80    0.40   1
  -2   0  -1    1.40    0.50   1
   2   0   2 3356.50   40.70   1
  -2   0  -2 3381.80   49.40   1
   2   0   3    0.10    0.60   1
  -2   0  -3    0.30    0.60   1
   2   0   4   34.60    1.20   1
  -2   0  -4   28.20    1.20   1
   2   0   5   -0.70    1.00   1
  -2   0  -5   -0.40    0.90   1
   2   0   6   72.70    2.50   1
  -2   0  -6   67.20    1.90   1
   2   0   7   -1.10    1.30   1
  -2   0  -7    1.20    1.00   1
   2   0   8   60.60    2.80   1
  -2   0  -8   61.00    2.30   1
   2   0   9    1.60    1.80   1
  -2   0  -9    2.10    1.40   1
   2   0  10    8.10    2.40   1
  -2   0 -10   10.10    1.50   1
   2   0  11    7.50    2.80   1
  -2   0 -11    3.10    4.00   1
   2   0  12   99.90    6.90   1
  -2   0 -12   91.60    6.90   1
   2   0  13   -2.80    5.30   1
  -2   0 -13    6.50    4.60   1
   2   0  14    5.40    5.80   1
  -2   0 -14   -2.60    4.10   1
   2   1 -14    1.20    5.60   1
  -2  -1  14   -3.20    5.50   1
   2   1 -13   -3.50    4.00   1
  -2  -1  13    5.70    5.00   1
   2   1 -12    5.00    3.70   1
  -2  -1  12    5.30    2.60   1
   2   1 -11    5.80    3.00   1
  -2  -1  11    9.50    2.70   1
   2   1 -10  215.20    7.30   1
  -2  -1  10  223.70    7.10   1
   2   1  -9  155.60    5.60   1
  -2  -1   9  154.00    4.90   1
   2   1  -8  958.20   21.50   1
  -2  -1   8  919.40   17.50   1
   2   1  -7  148.60    3.80   1
  -2  -1   7  152.10    3.70   1
   2   1  -6    4.60    0.90   1
  -2  -1   6    3.80    0.80   1
   2   1  -5  246.50    4.20   1
  -2  -1   5  236.80    4.00   1
   2   1  -4   -0.40    0.50   1
  -2  -1   4   -1.10    0.50   1
   2   1  -3  149.20    2.40   1
  -2  -1   3  146.60    2.70   1
   2   1  -2 1445.70   18.70   1
  -2  -1   2 1389.50   19.50   1
   2   1  -1  132.70    2.00   1
  -2  -1   1  134.50    2.60   1
   2   1   0  632.90    7.50   1
  -2  -1   0  601.90    9.60   1
   2   1   1  306.60    4.10   1
  -2  -1  -1  289.90    4.50   1
   2   1   2  239.30    3.40   1
  -2  -1  -2  234.90    4.00   1
   2   1   3   16.70    0.50   1
  -2  -1  -3   18.00    0.90   1
   2   1   4  138.40    2.40   1
  -2  -1  -4  137.30    2.40   1
   2   1   5   27.70    1.00   1
  -2  -1  -5   28.60    0.80   1
   2   1   6 1733.30   29.80   1
  -2  -1  -6 1642.60   27.30   1
   2   1   7   91.60    3.20   1
  -2  -1  -7   93.70    2.20   1
   2   1   8   -2.10    1.50   1
  -2  -1  -8    0.80    1.20   1
   2   1   9   -1.20    1.80   1
  -2  -1  -9    0.70    1.40   1
   2   1  10    2.40    2.00   1
  -2  -1 -10    1.50    1.60   1
   2   1  11   36.00    4.40   1
  -2  -1 -11   39.20    4.50   1
   2   1  12  138.50    8.30   1
  -2  -1 -12  137.10    7.90   1
   2   1  13   76.00    7.00   1
  -2  -1 -13   65.50    4.80   1
   2   1  14   35.10    6.70   1
  -2  -1 -14   27.80    4.50   1
   2   2 -14    3.90    5.40   1
  -2  -2  14    7.00    6.90   1
   2   2 -13    4.50    4.00   1
  -2  -2  13   -3.10    4.90   1
   2   2 -12  145.50    6.80   1
  -2  -2  12  150.50    6.40   1
   2   2 -11  190.40    7.80   1
  -2  -2  11  205.00    7.30   1
   2   2 -10    4.00    2.40   1
  -2  -2  10    4.50    1.40   1
   2   2  -9   11.20    2.10   1
  -2  -2   9   10.50    1.40   1
   2   2  -8  291.40    7.90   1
  -2  -2   8  292.50    5.80   1
   2   2  -7  187.30    4.60   1
  -2  -2   7  184.60    3.90   1
   2   2  -6  260.80    5.20   1
  -2  -2   6  268.10    4.90   1
   2   2  -5 2773.10   35.40   1
  -2  -2   5 2690.90   34.30   1
   2   2  -4  429.20    6.30   1
  -2  -2   4  425.70    7.50   1
   2   2  -3   33.00    0.90   1
  -2  -2   3   35.60    1.10   1
   2   2  -2    6.40    0.40   1
  -2  -2   2    6.40    0.80   1
   2   2  -1   26.50    0.60   1
  -2  -2   1   28.50    1.00   1
   2   2   0  599.30    8.20   1
  -2  -2   0  587.00    8.10   1
   2   2   1    5.30    0.60   1
  -2  -2  -1    4.50    0.50   1
   2   2   2 1466.70   20.40   1
  -2  -2  -2 1406.70   17.90   1
   2   2   3  108.20    2.20   1
  -2  -2  -3  106.00    2.00   1
   2   2   4  796.70   12.50   1
  -2  -2  -4  779.50   11.30   1
   2   2   5  214.00    3.60   1
  -2  -2  -5  211.10    3.70   1
   2   2   6  106.00    2.60   1
  -2  -2  -6  107.70    2.40   1
   2   2   7    1.20    0.90   1
  -2  -2  -7    0.10    0.80   1
   2   2   8   46.10    1.80   1
  -2  -2  -8   47.10    1.70   1
   2   2   9  498.50   12.30   1
  -2  -2  -9  496.20   11.70   1
   2   2  10   23.30    2.30   1
  -2  -2 -10   26.80    2.20   1
   2   2  11   56.60    4.90   1
  -2  -2 -11   56.40    3.90   1
   2   2  12  154.90    9.30   1
  -2  -2 -12  169.90    7.50   1
   2   2  13   48.10    6.40   1
  -2  -2 -13   47.00    5.30   1
   2   2  14   13.20    6.10   1
  -2  -2 -14   16.90    4.50   1
   2   3 -14   25.10    7.10   1
  -2  -3  14   28.10    7.20   1
   2   3 -13    1.30    3.70   1
  -2  -3  13    7.20    4.70   1
   2   3 -12   -1.60    3.60   1
  -2  -3  12   -0.90    5.00   1
   2   3 -11   94.90    6.20   1
  -2  -3  11   85.40    3.70   1
   2   3 -10  157.20    7.60   1
  -2  -3  10  146.20    4.70   1
   2   3  -9  127.20    6.00   1
  -2  -3   9  124.40    3.70   1
   2   3  -8   13.60    1.90   1
  -2  -3   8   15.30    1.50   1
   2   3  -7   12.20    1.10   1
  -2  -3   7   12.00    1.20   1
   2   3  -6   45.30    1.60   1
  -2  -3   6   41.50    1.30   1
   2   3  -5   20.20    1.10   1
  -2  -3   5   20.00    0.80   1
   2   3  -4    7.90    1.20   1
  -2  -3   4    8.00    1.00   1
   2   3  -3  264.70    4.70   1
  -2  -3   3  261.20    5.20   1
   2   3  -2  273.10    4.70   1
  -2  -3   2  265.90    5.00   1
   2   3  -1 2278.50   31.70   1
  -2  -3   1 2181.20   37.20   1
   2   3   0  527.20    8.20   1
  -2  -3   0  500.70    7.20   1
   2   3   1    0.20    0.60   1
  -2  -3  -1    1.20    0.40   1
   2   3   2   -0.40    0.60   1
  -2  -3  -2    0.10    0.60   1
   2   3   3   24.50    1.00   1
  -2  -3  -3   24.40    0.90   1
   2   3   4  145.50    3.20   1
  -2  -3  -4  139.00    2.50   1
   2   3   5 1432.80   24.50   1
  -2  -3  -5 1425.40   21.90   1
   2   3   6   66.90    2.50   1
  -2  -3  -6   66.80    2.00   1
   2   3   7   79.20    2.80   1
  -2  -3  -7   76.00    2.00   1
   2   3   8   37.40    2.20   1
  -2  -3  -8   37.10    1.60   1
   2   3   9  334.80   11.60   1
  -2  -3  -9  343.60    7.60   1
   2   3  10   -3.80    3.30   1
  -2  -3 -10    2.10    1.60   1
   2   3  11   10.00    3.90   1
  -2  -3 -11   15.40    3.40   1
   2   3  12    4.70    4.40   1
  -2  -3 -12    3.70    3.80   1
   2   3  13  138.30    9.90   1
  -2  -3 -13  168.50    8.30   1
   2   3  14   63.60    7.40   1
  -2  -3 -14   70.60    6.60   1
   2   4 -14   19.00    6.80   1
  -2  -4  14   24.10    7.40   1
   2   4 -13   39.40    6.00   1
  -2  -4  13   28.90    6.40   1
   2   4 -12    3.10    5.00   1
  -2  -4  12    6.90    3.90   1
   2   4 -11   22.90    4.60   1
  -2  -4  11   15.60    3.70   1
   2   4 -10  109.60    6.20   1
  -2  -4  10  108.90    4.00   1
   2   4  -9   -0.70    2.50   1
  -2  -4   9    3.20    1.40   1
   2   4  -8   10.70    1.80   1
  -2  -4   8    9.70    1.30   1
   2   4  -7  264.30    7.20   1
  -2  -4   7  262.60    5.90   1
   2   4  -6   84.00    4.10   1
  -2  -4   6   77.60    2.20   1
   2   4  -5 2708.20   48.10   1
  -2  -4   5 2723.60   48.90   1
   2   4  -4 1381.30   25.70   1
  -2  -4   4 1334.00   22.70   1
   2   4  -3  509.30    8.00   1
  -2  -4   3  515.10    9.50   1
   2   4  -2   31.00    1.50   1
  -2  -4   2   33.10    1.00   1
   2   4  -1    0.90    0.50   1
  -2  -4   1    0.60    0.50   1
   2   4   0    9.40    0.70   1
  -2  -4   0    9.60    0.60   1
   2   4   1    0.70    0.70   1
  -2  -4  -1    2.30    0.60   1
   2   4   2  745.50   11.30   1
  -2  -4  -2  717.20   10.60   1
   2   4   3   99.30    2.30   1
  -2  -4  -3   94.30    2.00   1
   2   4   4   43.50    1.60   1
  -2  -4  -4   43.00    1.00   1
   2   4   5  216.50    4.70   1
  -2  -4  -5  210.50    4.60   1
   2   4   6   86.00    2.90   1
  -2  -4  -6   86.30    2.50   1
   2   4   7   65.40    2.80   1
  -2  -4  -7   68.20    2.30   1
   2   4   8  258.60    8.90   1
  -2  -4  -8  268.50    5.30   1
   2   4   9  485.60   15.40   1
  -2  -4  -9  486.50   10.30   1
   2   4  10    1.90    3.40   1
  -2  -4 -10    6.90    1.90   1
   2   4  11  203.20   10.30   1
  -2  -4 -11  222.10    8.00   1
   2   4  12   25.70    5.00   1
  -2  -4 -12   36.70    4.40   1
   2   4  13   16.60    5.70   1
  -2  -4 -13   31.10    4.60   1
   2   4  14   12.30    6.10   1
  -2  -4 -14   -2.00    5.30   1
   2   5 -14   37.50   10.60   1
  -2  -5  14    2.00    7.50   1
   2   5 -13   14.40    6.50   1
  -2  -5  13   -5.10    6.40   1
   2   5 -12   -3.10    5.30   1
  -2  -5  12   -1.80    4.30   1
   2   5 -11   -4.70    4.30   1
  -2  -5  11    2.80    3.70   1
   2   5 -10   13.50    4.00   1
  -2  -5  10   16.10    3.40   1
   2   5  -9   48.30    4.30   1
  -2  -5   9   56.30    3.80   1
   2   5  -8   79.10    4.50   1
  -2  -5   8   68.40    3.70   1
   2   5  -7  561.90   24.00   1
  -2  -5   7  534.70   13.80   1
   2   5  -6    9.70    2.60   1
  -2  -5   6    5.70    1.80   1
   2   5  -5   99.80    4.50   1
  -2  -5   5  107.90    3.80   1
   2   5  -4    2.70    1.00   1
  -2  -5   4    5.20    1.30   1
   2   5  -3  537.40   10.10   1
  -2  -5   3  556.40   10.60   1
   2   5  -2  497.30    8.50   1
  -2  -5   2  472.10    8.30   1
   2   5  -1   47.60    1.20   1
  -2  -5   1   44.30    1.30   1
   2   5   0   20.70    0.90   1
  -2  -5   0   20.60    1.00   1
   2   5   1    3.30    0.80   1
  -2  -5  -1    2.50    0.70   1
   2   5   2  125.30    2.50   1
  -2  -5  -2  118.80    2.40   1
   2   5   3   89.00    2.30   1
  -2  -5  -3   90.90    2.10   1
   2   5   4    2.30    1.20   1
  -2  -5  -4    1.30    0.70   1
   2   5   5    1.40    1.40   1
  -2  -5  -5    2.30    0.60   1
   2   5   6  619.50   14.40   1
  -2  -5  -6  600.70   11.20   1
   2   5   7  402.20   10.00   1
  -2  -5  -7  399.90    7.90   1
   2   5   8   41.00    4.80   1
  -2  -5  -8   34.00    2.00   1
   2   5   9   21.70    3.60   1
  -2  -5  -9   31.20    2.20   1
   2   5  10   11.70    3.80   1
  -2  -5 -10   14.60    2.40   1
   2   5  11   57.00    5.50   1
  -2  -5 -11   59.40    4.50   1
   2   5  12   31.90    5.80   1
  -2  -5 -12   42.90    4.30   1
   2   5  13   77.50    7.50   1
  -2  -5 -13   71.10    6.10   1
   2   6 -13   71.40    8.20   1
  -2  -6  13   79.90    8.40   1
   2   6 -12  222.40   12.40   1
  -2  -6  12  206.80   10.20   1
   2   6 -11    9.20    3.90   1
  -2  -6  11   10.50    3.80   1
   2   6 -10    2.10    4.10   1
  -2  -6  10    2.40    2.90   1
   2   6  -9    6.80    3.60   1
  -2  -6   9    1.40    3.00   1
   2   6  -8   41.50    4.00   1
  -2  -6   8   35.70    3.40   1
   2   6  -7  151.80    8.80   1
  -2  -6   7  148.40    5.30   1
   2   6  -6    0.30    2.60   1
  -2  -6   6   -2.00    1.90   1
   2   6  -5  261.70    9.00   1
  -2  -6   5  264.00    7.90   1
   2   6  -4  146.20    4.30   1
  -2  -6   4  157.20    4.80   1
   2   6  -3  608.20   15.00   1
  -2  -6   3  615.80   14.40   1
   2   6  -2  272.30    5.50   1
  -2  -6   2  261.70    5.60   1
   2   6  -1   18.60    1.30   1
  -2  -6   1   18.70    1.10   1
   2   6   0    1.00    0.80   1
  -2  -6   0    1.20    0.80   1
   2   6   1  487.30    8.10   1
  -2  -6  -1  487.40    8.70   1
   2   6   2  165.40    3.80   1
  -2  -6  -2  171.50    3.50   1
   2   6   3  246.70    5.80   1
  -2  -6  -3  240.10    5.40   1
   2   6   4   11.90    1.60   1
  -2  -6  -4   13.10    1.40   1
   2   6   5   13.90    2.30   1
  -2  -6  -5   15.40    1.00   1
   2   6   6   -2.10    2.20   1
  -2  -6  -6    0.50    1.50   1
   2   6   7    9.40    2.60   1
  -2  -6  -7   10.20    1.70   1
   2   6   8    2.20    2.80   1
  -2  -6  -8    0.40    2.00   1
   2   6   9   84.70    5.30   1
  -2  -6  -9   91.50    3.70   1
   2   6  10    2.60    3.80   1
  -2  -6 -10    1.30    2.20   1
   2   6  11  307.50   13.40   1
  -2  -6 -11  296.60   10.30   1
   2   6  12   12.20    4.50   1
  -2  -6 -12   10.70    3.90   1
   2   6  13   -9.20    5.70   1
  -2  -6 -13   10.10    5.30   1
   2   7 -13    6.20    5.90   1
  -2  -7  13   -1.70    5.70   1
   2   7 -12    4.10    5.40   1
  -2  -7  12    8.50    5.10   1
   2   7 -11   20.30    5.70   1
  -2  -7  11   23.00    4.90   1
   2   7 -10   96.10    7.00   1
  -2  -7  10  118.70    6.10   1
   2   7  -9   38.70    6.20   1
  -2  -7   9   42.20    4.10   1
   2   7  -8  174.70    7.90   1
  -2  -7   8  157.20    8.30   1
   2   7  -7  186.80    7.90   1
  -2  -7   7  189.00    6.30   1
   2   7  -6   77.80    4.40   1
  -2  -7   6   66.40    3.60   1
   2   7  -5  134.90    5.70   1
  -2  -7   5  136.90    4.80   1
   2   7  -4    4.50    1.50   1
  -2  -7   4    5.40    2.00   1
   2   7  -3  519.80   15.00   1
  -2  -7   3  548.20   12.50   1
   2   7  -2  159.70    5.00   1
  -2  -7   2  159.60    4.10   1
   2   7  -1  253.30    6.00   1
  -2  -7   1  249.30    5.70   1
   2   7   0  457.00    8.30   1
  -2  -7   0  454.40    8.30   1
   2   7   1  409.60    7.40   1
  -2  -7  -1  426.80    9.00   1
   2   7   2   53.30    2.00   1
  -2  -7  -2   51.90    1.80   1
   2   7   3    5.20    1.50   1
  -2  -7  -3    5.60    1.40   1
   2   7   4  143.40    4.20   1
  -2  -7  -4  137.10    3.80   1
   2   7   5   20.70    2.60   1
  -2  -7  -5   20.50    1.40   1
   2   7   6  329.50   10.70   1
  -2  -7  -6  325.00    6.10   1
   2   7   7  707.40   20.50   1
  -2  -7  -7  687.80   13.80   1
   2   7   8   21.50    3.50   1
  -2  -7  -8   19.80    2.30   1
   2   7   9   65.90    5.00   1
  -2  -7  -9   54.00    3.00   1
   2   7  10    1.50    4.00   1
  -2  -7 -10    3.80    2.50   1
   2   7  11    7.80    4.90   1
  -2  -7 -11   13.70    4.10   1
   2   7  12   44.10    6.60   1
  -2  -7 -12   60.00    5.50   1
   2   7  13  -11.50    9.10   1
  -2  -7 -13    7.40    6.60   1
   2   8 -12   25.20    7.10   1
  -2  -8  12   39.60    7.50   1
   2   8 -11   50.80    7.10   1
  -2  -8  11   59.90    5.60   1
   2   8 -10   80.50    6.60   1
  -2  -8  10   83.10    5.60   1
   2   8  -9   25.00    4.80   1
  -2  -8   9   15.70    4.10   1
   2   8  -8   73.70    5.00   1
  -2  -8   8   80.60    4.60   1
   2   8  -7    2.70    2.90   1
  -2  -8   7    9.80    3.10   1
   2   8  -6  182.00    7.30   1
  -2  -8   6  187.20    6.80   1
   2   8  -5   41.40    2.20   1
  -2  -8   5   46.90    3.20   1
   2   8  -4    3.00    1.70   1
  -2  -8   4   -0.70    2.20   1
   2   8  -3  154.80    6.10   1
  -2  -8   3  161.80    4.10   1
   2   8  -2   28.80    2.70   1
  -2  -8   2   32.70    1.70   1
   2   8  -1   38.30    3.00   1
  -2  -8   1   40.90    2.00   1
   2   8   0  255.30    6.40   1
  -2  -8   0  266.30    5.60   1
   2   8   1  166.90    4.10   1
  -2  -8  -1  183.30    4.70   1
   2   8   2  887.00   19.90   1
  -2  -8  -2  860.00   23.80   1
   2   8   3  109.40    3.80   1
  -2  -8  -3  110.20    3.30   1
   2   8   4  879.10   24.80   1
  -2  -8  -4  846.60   16.90   1
   2   8   5   -4.70    2.50   1
  -2  -8  -5    0.50    1.80   1
   2   8   6   47.80    3.90   1
  -2  -8  -6   44.90    2.40   1
   2   8   7    2.70    3.10   1
  -2  -8  -7    3.70    1.80   1
   2   8   8   -2.50    3.40   1
  -2  -8  -8    2.70    2.20   1
   2   8   9    5.00    4.00   1
  -2  -8  -9    1.30    2.50   1
   2   8  10   85.40    6.60   1
  -2  -8 -10   79.20    4.10   1
   2   8  11   21.30    5.80   1
  -2  -8 -11   16.90    4.20   1
   2   8  12   21.00    6.40   1
  -2  -8 -12   24.90    6.80   1
   2   9 -12   10.60   10.90   1
  -2  -9  12    0.60    7.50   1
   2   9 -11   13.90    6.50   1
  -2  -9  11   -0.80    5.20   1
   2   9 -10  299.60   13.30   1
  -2  -9  10  293.10   11.30   1
   2   9  -9    2.10    4.60   1
  -2  -9   9    5.60    4.20   1
   2   9  -8   41.50    4.80   1
  -2  -9   8   38.50    4.30   1
   2   9  -7   -1.60    3.90   1
  -2  -9   7    9.00    3.10   1
   2   9  -6   68.40    5.10   1
  -2  -9   6   65.50    5.40   1
   2   9  -5   12.90    3.30   1
  -2  -9   5   11.60    2.50   1
   2   9  -4    1.30    2.50   1
  -2  -9   4   -1.70    2.20   1
   2   9  -3    3.20    2.60   1
  -2  -9   3    5.70    1.20   1
   2   9  -2    0.10    2.00   1
  -2  -9   2    1.30    1.20   1
   2   9  -1  101.80    4.90   1
  -2  -9   1  101.50    3.70   1
   2   9   0  937.90   25.80   1
  -2  -9   0  977.70   17.70   1
   2   9   1   84.70    5.40   1
  -2  -9  -1   78.30    3.30   1
   2   9   2    3.60    1.60   1
  -2  -9  -2    3.10    2.30   1
   2   9   3   95.10    4.20   1
  -2  -9  -3   90.10    3.70   1
   2   9   4  218.20    8.00   1
  -2  -9  -4  223.00    5.80   1
   2   9   5  163.80    6.60   1
  -2  -9  -5  160.50    4.80   1
   2   9   6   23.50    3.20   1
  -2  -9  -6   21.60    2.10   1
   2   9   7    6.90    3.40   1
  -2  -9  -7    3.70    2.20   1
   2   9   8   72.80    5.80   1
  -2  -9  -8   72.60    3.70   1
   2   9   9    7.70    4.50   1
  -2  -9  -9    7.10    2.80   1
   2   9  10    7.20    5.00   1
  -2  -9 -10   -5.10    4.20   1
   2   9  11   12.70    4.70   1
  -2  -9 -11   10.50    4.60   1
  -2  -9 -12   -5.60    9.70   1
   2  10 -11   12.40    6.60   1
  -2 -10  11   -0.20    5.70   1
   2  10 -10  111.00    9.30   1
  -2 -10  10  121.00    7.90   1
   2  10  -9   23.30    5.40   1
  -2 -10   9   15.90    4.10   1
   2  10  -8    5.90    4.50   1
  -2 -10   8    2.20    3.70   1
   2  10  -7   79.80    6.40   1
  -2 -10   7   67.80    5.00   1
   2  10  -6  106.00    6.00   1
  -2 -10   6  113.00    7.00   1
   2  10  -5   28.50    3.70   1
  -2 -10   5   23.30    2.90   1
   2  10  -4  216.80    8.70   1
  -2 -10   4  227.10    7.20   1
   2  10  -3   86.40    4.90   1
  -2 -10   3   82.50    4.30   1
   2  10  -2   69.90    4.30   1
  -2 -10   2   70.60    3.60   1
   2  10  -1    4.20    2.70   1
  -2 -10   1   10.00    3.10   1
   2  10   0   14.10    2.80   1
  -2 -10   0   14.00    1.90   1
   2  10   1   18.70    2.80   1
  -2 -10  -1   15.80    2.20   1
   2  10   2   10.20    2.70   1
  -2 -10  -2   11.80    3.00   1
   2  10   3   23.60    2.20   1
  -2 -10  -3   20.80    2.70   1
   2  10   4  226.90    9.10   1
  -2 -10  -4  222.70    7.10   1
   2  10   5    0.00    2.70   1
  -2 -10  -5    0.50    1.90   1
   2  10   6   28.20    3.60   1
  -2 -10  -6   29.00    2.70   1
   2  10   7   12.90    3.60   1
  -2 -10  -7   13.30    2.40   1
   2  10   8  131.40    7.80   1
  -2 -10  -8  133.00    6.10   1
   2  10   9    7.20    5.10   1
  -2 -10  -9    3.20    3.30   1
   2  10  10   13.10    6.10   1
  -2 -10 -10   31.10    6.30   1
   2  10  11   60.40    7.70   1
  -2 -10 -11   58.10    6.80   1
   2  11 -10   92.40    7.80   1
  -2 -11  10   70.60    6.70   1
   2  11  -9    3.50    5.80   1
  -2 -11   9  -12.60    5.30   1
   2  11  -8   47.00    5.10   1
  -2 -11   8   33.80    5.00   1
   2  11  -7  145.90    8.60   1
  -2 -11   7  126.00    6.50   1
   2  11  -6   -6.90    4.00   1
  -2 -11   6    2.40    3.90   1
   2  11  -5    9.30    5.00   1
  -2 -11   5    4.30    4.30   1
   2  11  -4   14.20    3.40   1
  -2 -11   4    7.00    2.50   1
   2  11  -3   42.10    4.10   1
  -2 -11   3   45.90    3.70   1
   2  11  -2    3.20    3.20   1
  -2 -11   2   13.70    3.10   1
   2  11  -1    1.10    2.90   1
  -2 -11   1    0.70    2.30   1
   2  11   0  191.60    8.30   1
  -2 -11   0  205.40    9.10   1
   2  11   1   38.20    3.60   1
  -2 -11  -1   42.20    3.00   1
   2  11   2    6.70    2.90   1
  -2 -11  -2    7.10    2.30   1
   2  11   3   -0.80    2.70   1
  -2 -11  -3    0.20    1.90   1
   2  11   4   76.00    4.70   1
  -2 -11  -4   82.80    4.30   1
   2  11   5    2.10    2.60   1
  -2 -11  -5    2.80    3.20   1
   2  11   6   12.30    4.30   1
  -2 -11  -6   15.80    3.50   1
   2  11   7  158.40    8.80   1
  -2 -11  -7  141.20    6.40   1
   2  11   8    4.80    4.90   1
  -2 -11  -8    3.20    3.90   1
   2  11   9    2.70    5.40   1
  -2 -11  -9   -1.10    4.20   1
   2  11  10    4.00    6.20   1
  -2 -11 -10    6.80    5.50   1
   2  12  -9   13.90    6.50   1
  -2 -12   9   16.70    6.40   1
   2  12  -8   29.70    6.70   1
  -2 -12   8   27.10    5.90   1
   2  12  -7   57.90    6.60   1
  -2 -12   7   46.50    5.80   1
   2  12  -6   31.20    5.50   1
  -2 -12   6   36.80    5.10   1
   2  12  -5   69.70    5.60   1
  -2 -12   5   59.40    4.80   1
   2  12  -4    1.60    3.80   1
  -2 -12   4   -3.40    3.70   1
   2  12  -3  292.60   12.10   1
  -2 -12   3  304.20   13.50   1
   2  12  -2    5.70    3.50   1
  -2 -12   2   12.90    3.30   1
   2  12  -1    1.60    3.40   1
  -2 -12   1    1.40    3.20   1
   2  12   0    5.20    3.30   1
  -2 -12   0    0.10    2.50   1
   2  12   1   86.70    5.90   1
  -2 -12  -1   91.50    4.90   1
   2  12   2  127.50    6.40   1
  -2 -12  -2  130.00    5.70   1
   2  12   3   38.40    4.50   1
  -2 -12  -3   37.80    3.60   1
   2  12   4   42.00    4.10   1
  -2 -12  -4   53.70    3.40   1
   2  12   5    7.20    3.60   1
  -2 -12  -5    2.30    3.40   1
   2  12   6    6.50    7.10   1
  -2 -12  -6   -0.40    3.30   1
   2  12   7   25.50    8.70   1
  -2 -12  -7   26.80    4.50   1
   2  12   8   -1.60    8.70   1
  -2 -12  -8   -3.60    4.40   1
   2  12   9   43.10   11.20   1
  -2 -12  -9   28.20    5.40   1
   2  13  -8   10.00    6.30   1
  -2 -13   8   -1.60    7.20   1
   2  13  -7   15.60    6.20   1
  -2 -13   7   11.70    5.60   1
   2  13  -6   41.80    8.30   1
  -2 -13   6   48.20    7.20   1
   2  13  -5   11.90    5.10   1
  -2 -13   5    8.60    4.70   1
   2  13  -4   47.80    7.20   1
  -2 -13   4   47.70    5.30   1
   2  13  -3  229.10   11.90   1
  -2 -13   3  234.20    9.60   1
   2  13  -2   -7.50    3.80   1
  -2 -13   2    3.00    4.80   1
   2  13  -1  129.10    7.50   1
  -2 -13   1  131.30    6.80   1
   2  13   0    7.20    3.20   1
  -2 -13   0    6.10    3.30   1
   2  13   1   97.20    6.30   1
  -2 -13  -1   96.40    5.80   1
   2  13   2    7.80    4.20   1
  -2 -13  -2   10.40    2.90   1
   2  13   3    0.60    7.20   1
  -2 -13  -3    2.50    4.00   1
   2  13   4    3.80    7.10   1
  -2 -13  -4   -0.40    3.50   1
   2  13   5   45.70    7.40   1
  -2 -13  -5   37.80    4.00   1
   2  13   6   13.60    8.90   1
  -2 -13  -6    6.30    4.40   1
   2  13   7  306.90   24.40   1
  -2 -13  -7  317.70   12.90   1
  -2 -13  -8   36.10    9.40   1
   2  14  -6   17.50    5.90   1
  -2 -14   6   22.60    4.90   1
   2  14  -5   35.00    6.10   1
  -2 -14   5   31.30    5.80   1
   2  14  -4    3.40    5.20   1
  -2 -14   4   -7.80    5.00   1
   2  14  -3   68.20    6.10   1
  -2 -14   3   64.70    5.10   1
   2  14  -2   57.50    6.60   1
  -2 -14   2   60.50    5.90   1
   2  14  -1    7.40    4.40   1
  -2 -14   1    7.30    4.40   1
  -2 -14   0   49.50    5.00   1
   2  14   1   27.10    7.10   1
  -2 -14  -1   35.60    4.40   1
   2  14   2   14.80    6.40   1
  -2 -14  -2   -5.70    4.50   1
   2  14   3    8.30    8.80   1
  -2 -14  -3    1.20    5.90   1
   2  14   4   89.10   12.50   1
  -2 -14  -4   82.30    6.70   1
   2  14   5   42.70    8.30   1
  -2 -14  -5   46.50    4.80   1
   2  14   6   30.50   10.20   1
  -2 -14  -6   19.80    5.50   1
  -2 -15   3    0.70    6.50   1
   2  15  -2    5.20   10.30   1
  -2 -15   2    0.40    5.30   1
   2  15  -1   59.40   11.80   1
  -2 -15   1   67.30    6.50   1
   2  15   0   42.20   11.00   1
  -2 -15   0   42.80    5.70   1
   2  15   1   17.40   10.20   1
  -2 -15  -1   31.30    7.10   1
   2  15   2   -2.90    9.30   1
  -2 -15  -2   -0.30    6.70   1
   2  15   3   20.30    7.80   1
  -2 -15  -3   30.70    7.90   1
  -3  15   3    2.90    6.70   1
   3 -15  -2    1.80    9.50   1
  -3  15   2    5.60    9.30   1
   3 -15  -1    1.60    6.80   1
  -3  15   1  -12.30    9.10   1
   3 -15   0   54.60    7.40   1
  -3  15   0   27.40   10.50   1
   3 -15   1  170.40   11.90   1
  -3  15  -1  119.50   16.20   1
   3 -15   2    1.40    5.20   1
  -3  15  -2   -5.70   10.30   1
  -3  14   6   -6.50    9.30   1
   3 -14  -5   16.80    5.80   1
   3 -14  -4   16.70    6.90   1
  -3  14   4   34.10    9.60   1
   3 -14  -3   -5.50    6.40   1
  -3  14   3   -3.30    8.30   1
   3 -14  -2   19.20    5.70   1
   3 -14  -1    3.00    4.40   1
  -3  14   1    4.70    6.70   1
   3 -14   0    4.40    6.20   1
  -3  14   0    6.70    6.40   1
   3 -14   1    8.20    5.20   1
  -3  14  -1   -2.20    8.90   1
   3 -14   2    5.70    6.40   1
  -3  14  -2    1.10    9.10   1
   3 -14   3  137.00   11.40   1
  -3  14  -3  140.10   16.20   1
   3 -14   4   52.80    7.70   1
  -3  14  -4   53.10   10.40   1
   3 -14   5   94.00    9.30   1
  -3  14  -5  110.50   14.50   1
   3 -13  -7   98.70    8.70   1
  -3  13   7   78.00   11.40   1
   3 -13  -6   36.80    5.50   1
  -3  13   6   32.80    7.50   1
   3 -13  -5    3.80    5.80   1
  -3  13   5    2.40    7.90   1
   3 -13  -4    1.00    3.80   1
  -3  13   4   -0.10    5.40   1
   3 -13  -3   37.60    8.70   1
  -3  13   3   32.70    8.20   1
   3 -13  -2    5.00    5.20   1
  -3  13   2   11.00    7.20   1
   3 -13  -1   14.40    7.60   1
  -3  13   1   13.90    5.60   1
   3 -13   0   11.90    4.40   1
  -3  13   0    3.50    5.10   1
   3 -13   1    2.30    5.40   1
  -3  13  -1   -7.20    7.60   1
   3 -13   2    0.50    5.50   1
  -3  13  -2    6.50    8.00   1
   3 -13   3   41.50    4.40   1
  -3  13  -3   37.20    7.30   1
   3 -13   4   34.30    5.80   1
  -3  13  -4   51.20   10.90   1
   3 -13   5   39.00    8.80   1
   3 -13   6   22.80    7.10   1
  -3  13  -6   25.40    7.90   1
   3 -13   7  159.70   11.50   1
  -3  13  -7  169.80   18.90   1
   3 -12  -9   -4.00    5.00   1
  -3  12   9   -7.10    8.20   1
   3 -12  -8   18.10    6.20   1
  -3  12   8   44.20    9.90   1
   3 -12  -7   -0.40    8.60   1
  -3  12   7    0.00    7.50   1
   3 -12  -6   24.20    5.70   1
  -3  12   6   26.50    6.50   1
   3 -12  -5    1.90    5.10   1
  -3  12   5   14.40    7.10   1
   3 -12  -4   27.50    4.50   1
  -3  12   4   32.80    7.40   1
   3 -12  -3  115.90    7.10   1
  -3  12   3   99.50    9.40   1
   3 -12  -2   12.20    4.60   1
  -3  12   2   -2.60    6.60   1
   3 -12  -1   43.50    5.40   1
  -3  12   1   48.50    7.90   1
   3 -12   0   45.50    5.00   1
  -3  12   0   44.50    6.30   1
   3 -12   1   13.90    4.30   1
  -3  12  -1   14.70    6.60   1
   3 -12   2   53.00    4.80   1
  -3  12  -2   66.20    5.00   1
   3 -12   3  273.80   13.00   1
  -3  12  -3  281.90   19.10   1
   3 -12   4    7.50    4.10   1
  -3  12  -4   15.70    6.40   1
   3 -12   5   58.80    6.90   1
  -3  12  -5   50.50   10.30   1
   3 -12   6   11.30    4.30   1
  -3  12  -6   17.20    4.10   1
   3 -12   7   24.60    6.50   1
  -3  12  -7   23.80    5.00   1
   3 -12   8    2.70    4.90   1
  -3  12  -8    1.80    4.50   1
   3 -11 -10   21.70    6.50   1
  -3  11  10   30.20    7.40   1
   3 -11  -9   51.60    7.00   1
  -3  11   9   52.30    9.50   1
   3 -11  -8   12.30    4.50   1
  -3  11   8    5.40    6.90   1
   3 -11  -7  274.30   12.50   1
  -3  11   7  264.70   17.40   1
   3 -11  -6    5.00    4.50   1
  -3  11   6    2.00    6.60   1
   3 -11  -5   40.40    5.30   1
  -3  11   5   53.80    7.40   1
   3 -11  -4   36.80    4.30   1
  -3  11   4   48.40    7.50   1
   3 -11  -3   52.10    4.60   1
  -3  11   3   49.90    6.90   1
   3 -11  -2   96.70    5.70   1
  -3  11   2   84.40    7.40   1
   3 -11  -1  189.40    8.70   1
  -3  11   1  183.80   12.40   1
   3 -11   0  123.40    6.70   1
  -3  11   0  122.40    8.70   1
   3 -11   1   58.10    5.30   1
  -3  11  -1   76.20    7.80   1
   3 -11   2   32.20    4.70   1
  -3  11  -2   31.60    3.00   1
   3 -11   3   81.20    6.00   1
  -3  11  -3   69.50    3.60   1
   3 -11   4   29.90    3.40   1
  -3  11  -4   22.00    3.30   1
   3 -11   5    5.00    3.40   1
  -3  11  -5    6.90    3.20   1
   3 -11   6    3.70    4.40   1
  -3  11  -6    4.60    3.00   1
   3 -11   7   65.70    6.80   1
  -3  11  -7   72.00    6.10   1
   3 -11   8   23.60    5.30   1
  -3  11  -8   19.00    4.70   1
   3 -11   9    8.10    7.00   1
  -3  11  -9    7.90    5.30   1
   3 -11  10   10.80   10.80   1
  -3  11 -10   20.80    7.60   1
   3 -10 -11   38.70    7.20   1
  -3  10  11   53.70   10.30   1
   3 -10 -10   72.30    6.70   1
  -3  10  10   74.20   10.00   1
   3 -10  -9   21.50    4.60   1
  -3  10   9   16.50    7.20   1
   3 -10  -8   18.40    4.40   1
  -3  10   8   23.00    6.70   1
   3 -10  -7   13.50    4.60   1
  -3  10   7   16.60    6.00   1
   3 -10  -6   58.50    5.20   1
  -3  10   6   42.90    7.40   1
   3 -10  -5    2.70    3.00   1
  -3  10   5   -1.90    5.20   1
   3 -10  -4  949.20   28.80   1
  -3  10   4  940.80   39.80   1
   3 -10  -3    5.10    2.60   1
  -3  10   3    2.80    3.50   1
   3 -10  -2  263.30   10.00   1
  -3  10   2  249.30   14.40   1
   3 -10  -1    2.80    2.70   1
  -3  10   1    4.20    4.50   1
   3 -10   0   23.90    3.80   1
  -3  10   0   15.00    1.70   1
   3 -10   1   13.80    2.80   1
  -3  10  -1   13.60    2.00   1
   3 -10   2    1.10    3.10   1
  -3  10  -2    5.50    2.00   1
   3 -10   3  154.30    6.90   1
  -3  10  -3  150.40    5.10   1
   3 -10   4    3.20    3.00   1
  -3  10  -4   -1.10    2.00   1
   3 -10   5   20.40    3.30   1
  -3  10  -5   22.30    3.50   1
   3 -10   6  127.50    6.00   1
  -3  10  -6  144.80    7.20   1
   3 -10   7   41.40    3.70   1
  -3  10  -7   42.60    4.40   1
   3 -10   8    9.10    5.10   1
  -3  10  -8    7.60    4.30   1
   3 -10   9   11.30    5.30   1
  -3  10  -9   16.30    4.70   1
   3 -10  10   84.40    9.50   1
  -3  10 -10   72.30    7.50   1
   3  -9 -12    0.80    5.20   1
  -3   9  12   -5.60    6.40   1
   3  -9 -11   -3.30    5.50   1
  -3   9  11    3.60    7.90   1
   3  -9 -10    3.40    3.90   1
  -3   9  10   -8.70    7.00   1
   3  -9  -9    1.30    3.20   1
  -3   9   9    5.50    5.80   1
   3  -9  -8   74.60    4.60   1
  -3   9   8   68.60    8.30   1
   3  -9  -7   -1.30    2.40   1
  -3   9   7    2.60    4.90   1
   3  -9  -6   85.60    4.00   1
  -3   9   6   81.00    6.60   1
   3  -9  -5    2.90    2.20   1
  -3   9   5    2.10    4.40   1
   3  -9  -4   64.70    3.10   1
  -3   9   4   69.70    5.60   1
   3  -9  -3    1.00    1.20   1
  -3   9   3    3.00    4.10   1
   3  -9  -2   73.60    4.50   1
  -3   9   2   70.00    5.90   1
   3  -9  -1    6.90    2.80   1
  -3   9   1    2.80    3.90   1
   3  -9   0  886.50   25.00   1
  -3   9   0  839.60   22.60   1
   3  -9   1   14.20    3.20   1
  -3   9  -1   16.30    1.10   1
   3  -9   2   10.60    2.10   1
  -3   9  -2   10.80    2.30   1
   3  -9   3   64.60    4.00   1
  -3   9  -3   56.70    2.60   1
   3  -9   4   -1.70    3.00   1
  -3   9  -4    0.80    1.80   1
   3  -9   5   25.90    2.90   1
  -3   9  -5   30.50    3.20   1
   3  -9   6  156.40    6.30   1
  -3   9  -6  164.70    7.60   1
   3  -9   7    2.60    2.80   1
  -3   9  -7    4.00    3.30   1
   3  -9   8   24.60    3.60   1
  -3   9  -8   25.10    4.00   1
   3  -9   9   14.70    6.20   1
  -3   9  -9   15.40    4.60   1
   3  -9  10  152.60   10.60   1
  -3   9 -10  154.50    9.60   1
   3  -9  11   14.70    7.40   1
  -3   9 -11   43.10    6.40   1
   3  -8 -12    7.00    4.70   1
  -3   8  12    7.50    8.10   1
   3  -8 -11   36.30    4.40   1
  -3   8  11   37.50    6.50   1
   3  -8 -10   83.60    5.30   1
  -3   8  10   81.70    8.50   1
   3  -8  -9    8.00    2.70   1
  -3   8   9   -2.80    3.90   1
   3  -8  -8   48.80    3.70   1
  -3   8   8   59.50    6.70   1
   3  -8  -7    4.50    2.60   1
  -3   8   7   11.20    4.90   1
   3  -8  -6   14.30    2.10   1
  -3   8   6   12.40    4.40   1
   3  -8  -5    0.80    1.90   1
  -3   8   5   -2.70    3.70   1
   3  -8  -4  603.80   14.10   1
  -3   8   4  566.20   23.50   1
   3  -8  -3   89.70    3.30   1
  -3   8   3   97.40    6.90   1
   3  -8  -2   13.30    2.40   1
  -3   8   2    9.00    3.80   1
   3  -8  -1   35.70    3.00   1
  -3   8   1   32.70    3.70   1
   3  -8   0    1.90    2.50   1
  -3   8   0   -1.10    1.10   1
   3  -8   1   29.60    3.10   1
  -3   8  -1   32.30    1.40   1
   3  -8   2  172.70    6.60   1
  -3   8  -2  170.30    4.60   1
   3  -8   3  279.50    7.90   1
  -3   8  -3  272.20    7.10   1
   3  -8   4   50.80    4.00   1
  -3   8  -4   54.20    2.60   1
   3  -8   5    1.60    2.40   1
  -3   8  -5    3.30    2.80   1
   3  -8   6   39.00    3.20   1
  -3   8  -6   33.50    3.50   1
   3  -8   7    2.30    2.50   1
  -3   8  -7    4.10    3.20   1
   3  -8   8   19.40    2.90   1
  -3   8  -8   22.60    3.70   1
   3  -8   9    9.50    3.50   1
  -3   8  -9   14.80    4.40   1
   3  -8  10  238.90   12.60   1
  -3   8 -10  244.90   11.40   1
   3  -8  11   12.10    5.50   1
  -3   8 -11   10.90    5.00   1
   3  -8  12   84.10    9.80   1
  -3   8 -12   92.30    6.80   1
   3  -7 -13    0.90    5.20   1
  -3   7  13   -9.90    8.50   1
   3  -7 -12   12.10    4.40   1
  -3   7  12   24.90    8.10   1
   3  -7 -11   17.60    4.00   1
  -3   7  11    6.00    6.40   1
   3  -7 -10    0.10    3.20   1
  -3   7  10    0.60    5.50   1
   3  -7  -9    5.70    3.50   1
  -3   7   9    1.90    4.30   1
   3  -7  -8   41.80    2.90   1
  -3   7   8   39.20    5.30   1
   3  -7  -7  316.10    8.70   1
  -3   7   7  318.40   15.70   1
   3  -7  -6  162.10    4.00   1
  -3   7   6  166.10    9.50   1
   3  -7  -5  366.80    9.40   1
  -3   7   5  372.90   16.20   1
   3  -7  -4   21.40    1.70   1
  -3   7   4   23.00    3.80   1
   3  -7  -3   82.30    3.00   1
  -3   7   3   82.40    5.70   1
   3  -7  -2  226.20    5.50   1
  -3   7   2  224.40   10.80   1
   3  -7  -1    0.70    1.70   1
  -3   7   1    1.70    2.10   1
   3  -7   0  590.00   17.40   1
  -3   7   0  597.90   15.60   1
   3  -7   1   94.80    3.30   1
  -3   7  -1   94.70    2.70   1
   3  -7   2  162.10    5.20   1
  -3   7  -2  163.30    4.20   1
   3  -7   3  193.80    5.60   1
  -3   7  -3  198.00    4.40   1
   3  -7   4   16.30    3.00   1
  -3   7  -4   21.20    1.70   1
   3  -7   5   67.30    3.40   1
  -3   7  -5   72.90    4.00   1
   3  -7   6   88.00    4.00   1
  -3   7  -6   81.40    4.50   1
   3  -7   7  465.80   13.10   1
  -3   7  -7  441.70   14.10   1
   3  -7   8  156.00    6.50   1
  -3   7  -8  158.90    9.70   1
   3  -7   9    1.90    2.80   1
  -3   7  -9    1.70    3.90   1
   3  -7  10   52.40    4.60   1
  -3   7 -10   45.60    5.00   1
   3  -7  11    4.70    5.10   1
  -3   7 -11   -2.90    4.70   1
   3  -7  12   -0.50    6.90   1
  -3   7 -12   -1.60    4.60   1
   3  -6 -13    4.30    5.50   1
  -3   6  13   -9.60    7.50   1
   3  -6 -12  108.80    7.70   1
  -3   6  12  109.20   11.40   1
   3  -6 -11  305.70   12.70   1
  -3   6  11  313.20   18.40   1
   3  -6 -10    2.00    2.80   1
  -3   6  10   -5.70    4.70   1
   3  -6  -9   11.30    2.30   1
  -3   6   9   17.40    4.60   1
   3  -6  -8  124.00    4.50   1
  -3   6   8  103.80    7.50   1
   3  -6  -7    4.60    1.80   1
  -3   6   7    9.90    3.40   1
   3  -6  -6  217.20    5.80   1
  -3   6   6  213.80    6.70   1
   3  -6  -5   11.40    1.20   1
  -3   6   5   13.20    1.20   1
   3  -6  -4   46.30    2.80   1
  -3   6   4   45.10    3.80   1
   3  -6  -3  224.30    5.60   1
  -3   6   3  216.10    9.70   1
   3  -6  -2 1251.10   25.30   1
  -3   6   2 1259.10   45.50   1
   3  -6  -1  246.90    6.60   1
  -3   6   1  241.20    8.00   1
   3  -6   0   20.60    2.00   1
  -3   6   0   12.50    0.90   1
   3  -6   1   40.30    1.90   1
  -3   6  -1   37.20    1.30   1
   3  -6   2    4.70    1.50   1
  -3   6  -2    5.70    0.60   1
   3  -6   3 1127.10   24.70   1
  -3   6  -3 1065.30   19.70   1
   3  -6   4  242.60    6.90   1
  -3   6  -4  232.20    6.00   1
   3  -6   5  256.60    7.40   1
  -3   6  -5  223.90    6.10   1
   3  -6   6    3.10    2.00   1
  -3   6  -6   -1.50    1.70   1
   3  -6   7   43.30    2.80   1
  -3   6  -7   43.80    3.40   1
   3  -6   8   -5.70    2.50   1
  -3   6  -8    2.90    2.20   1
   3  -6   9    6.10    2.30   1
  -3   6  -9    6.70    3.40   1
   3  -6  10    1.70    3.30   1
  -3   6 -10    4.20    4.10   1
   3  -6  11   15.60    4.30   1
  -3   6 -11    6.40    5.20   1
   3  -6  12   80.50    8.00   1
  -3   6 -12   79.20    6.10   1
   3  -6  13   51.90   12.70   1
  -3   6 -13   60.40    7.70   1
   3  -5 -14    6.20    9.50   1
  -3   5  14    8.30    9.70   1
   3  -5 -13   14.60    5.70   1
  -3   5  13   17.40    7.70   1
   3  -5 -12   47.00    4.70   1
  -3   5  12   33.40    7.60   1
   3  -5 -11    9.70    3.10   1
  -3   5  11   26.00    5.80   1
   3  -5 -10   17.60    2.80   1
  -3   5  10   19.00    5.30   1
   3  -5  -9  593.10   14.80   1
  -3   5   9  611.60   25.50   1
   3  -5  -8   35.70    3.50   1
  -3   5   8   28.40    4.50   1
   3  -5  -7  638.50   17.30   1
  -3   5   7  618.20   17.00   1
   3  -5  -6  230.40    7.10   1
  -3   5   6  229.40    7.00   1
   3  -5  -5  381.00    8.70   1
  -3   5   5  393.00   10.50   1
   3  -5  -4   53.20    1.90   1
  -3   5   4   57.20    1.90   1
   3  -5  -3   10.90    1.70   1
  -3   5   3   13.60    1.80   1
   3  -5  -2   95.50    2.60   1
  -3   5   2   95.90    3.10   1
   3  -5  -1  685.00   15.00   1
  -3   5   1  678.90   15.10   1
   3  -5   0   19.00    1.00   1
  -3   5   0   21.40    1.10   1
   3  -5   1 1107.30   21.00   1
  -3   5  -1 1022.50   16.50   1
   3  -5   2  598.00   11.60   1
  -3   5  -2  580.90    8.90   1
   3  -5   3  314.70    7.90   1
  -3   5  -3  287.90    5.90   1
   3  -5   4    0.60    1.20   1
  -3   5  -4    1.80    1.20   1
   3  -5   5   10.60    1.60   1
  -3   5  -5   15.40    1.60   1
   3  -5   6    0.00    3.10   1
  -3   5  -6   -1.60    1.40   1
   3  -5   7  286.20    8.30   1
  -3   5  -7  286.60    7.50   1
   3  -5   8  216.90    7.30   1
  -3   5  -8  229.70    7.60   1
   3  -5   9    0.20    2.00   1
  -3   5  -9   -1.40    3.30   1
   3  -5  10   -1.10    3.20   1
  -3   5 -10   -0.80    3.90   1
   3  -5  11   20.20    3.70   1
  -3   5 -11   18.50    5.20   1
   3  -5  12   13.20    4.20   1
  -3   5 -12    4.30    4.20   1
   3  -5  13    0.30   10.30   1
  -3   5 -13    5.00    6.00   1
   3  -4 -14    8.40    8.80   1
  -3   4  14    2.30    8.70   1
   3  -4 -13   63.60    5.60   1
  -3   4  13   68.10   10.40   1
   3  -4 -12   12.00    3.50   1
  -3   4  12    8.20    6.00   1
   3  -4 -11  304.00   12.90   1
  -3   4  11  326.20   18.50   1
   3  -4 -10   62.20    4.30   1
  -3   4  10   60.20    7.20   1
   3  -4  -9  314.40   10.70   1
  -3   4   9  323.70    9.90   1
   3  -4  -8   14.40    2.70   1
  -3   4   8   17.10    3.50   1
   3  -4  -7    3.40    2.10   1
  -3   4   7    8.80    1.80   1
   3  -4  -6   64.10    3.10   1
  -3   4   6   57.70    2.60   1
   3  -4  -5  581.10   13.00   1
  -3   4   5  560.60   13.80   1
   3  -4  -4  586.90   10.70   1
  -3   4   4  577.60   11.60   1
   3  -4  -3  178.20    3.10   1
  -3   4   3  168.60    4.20   1
   3  -4  -2   57.00    1.70   1
  -3   4   2   55.40    2.00   1
   3  -4  -1  101.90    2.80   1
  -3   4   1  105.70    2.90   1
   3  -4   0   57.30    1.60   1
  -3   4   0   57.10    1.60   1
   3  -4   1   49.90    1.60   1
  -3   4  -1   46.20    1.20   1
   3  -4   2  413.00    8.10   1
  -3   4  -2  394.00    5.70   1
   3  -4   3  282.90    7.20   1
  -3   4  -3  268.10    5.60   1
   3  -4   4   48.40    1.80   1
  -3   4  -4   50.90    2.00   1
   3  -4   5 1498.70   33.40   1
  -3   4  -5 1421.90   29.90   1
   3  -4   6  255.10    7.10   1
  -3   4  -6  245.60    5.70   1
   3  -4   7   26.50    2.00   1
  -3   4  -7   26.00    1.50   1
   3  -4   8   68.50    3.00   1
  -3   4  -8   74.60    3.30   1
   3  -4   9    4.10    1.90   1
  -3   4  -9    3.20    3.20   1
   3  -4  10    5.40    2.90   1
  -3   4 -10    3.50    3.70   1
   3  -4  11   44.40    4.10   1
  -3   4 -11   42.00    4.00   1
   3  -4  12   36.50    4.60   1
  -3   4 -12   42.10    5.80   1
   3  -4  13   10.60    9.70   1
  -3   4 -13    8.10    6.20   1
  -3   4 -14    0.50    5.80   1
   3  -3 -14   68.70    7.60   1
  -3   3  14   71.60   11.00   1
   3  -3 -13  177.60   11.10   1
  -3   3  13  157.20   14.30   1
   3  -3 -12   -0.10    4.30   1
  -3   3  12  -12.60    5.70   1
   3  -3 -11    2.60    3.00   1
  -3   3  11    0.00    3.60   1
   3  -3 -10    4.90    2.50   1
  -3   3  10    4.40    3.20   1
   3  -3  -9  222.80    6.50   1
  -3   3   9  215.70    6.20   1
   3  -3  -8   47.80    2.60   1
  -3   3   8   48.60    2.40   1
   3  -3  -7  159.30    4.50   1
  -3   3   7  165.30    4.60   1
   3  -3  -6   12.10    1.40   1
  -3   3   6   13.20    1.50   1
   3  -3  -5  249.70    3.90   1
  -3   3   5  242.70    5.50   1
   3  -3  -4   33.30    1.00   1
  -3   3   4   34.30    1.20   1
   3  -3  -3   47.60    1.20   1
  -3   3   3   44.50    1.30   1
   3  -3  -2  118.40    2.00   1
  -3   3   2  115.00    3.10   1
   3  -3  -1   40.30    0.80   1
  -3   3   1   41.60    1.50   1
   3  -3   0  212.80    3.70   1
  -3   3   0  214.90    4.40   1
   3  -3   1  664.30   12.10   1
  -3   3  -1  648.60   10.40   1
   3  -3   2    0.90    0.80   1
  -3   3  -2   -0.10    0.50   1
   3  -3   3   43.00    1.30   1
  -3   3  -3   39.70    1.10   1
   3  -3   4   29.90    1.40   1
  -3   3  -4   27.50    1.30   1
   3  -3   5  796.70   15.70   1
  -3   3  -5  807.00   14.70   1
   3  -3   6   28.60    1.40   1
  -3   3  -6   31.30    1.40   1
   3  -3   7  214.40    5.20   1
  -3   3  -7  213.20    4.90   1
   3  -3   8   52.50    2.20   1
  -3   3  -8   50.00    1.90   1
   3  -3   9  264.80    8.60   1
  -3   3  -9  266.40   10.20   1
   3  -3  10   90.00    4.60   1
  -3   3 -10   82.50    4.60   1
   3  -3  11    2.60    3.10   1
  -3   3 -11    6.80    3.30   1
   3  -3  12  -12.60    4.90   1
  -3   3 -12   -6.20    4.60   1
   3  -3  13  -11.10    5.50   1
  -3   3 -13    2.60    5.70   1
   3  -3  14   47.00   12.00   1
  -3   3 -14   26.80    5.50   1
   3  -2 -14    4.90    9.00   1
  -3   2  14   23.60    8.60   1
   3  -2 -13   47.00    4.90   1
  -3   2  13   46.70    6.30   1
   3  -2 -12   26.10    4.10   1
  -3   2  12   16.20    4.60   1
   3  -2 -11   38.00    3.60   1
  -3   2  11   34.80    4.30   1
   3  -2 -10    9.20    2.50   1
  -3   2  10    7.80    3.20   1
   3  -2  -9  520.80   13.90   1
  -3   2   9  517.20   12.90   1
   3  -2  -8   25.80    2.40   1
  -3   2   8   27.30    1.50   1
   3  -2  -7   20.90    2.00   1
  -3   2   7   21.40    1.50   1
   3  -2  -6    0.00    1.00   1
  -3   2   6    0.80    0.90   1
   3  -2  -5  321.50    4.90   1
  -3   2   5  318.10    6.20   1
   3  -2  -4  441.00    6.20   1
  -3   2   4  426.80    7.70   1
   3  -2  -3  663.70    8.80   1
  -3   2   3  620.70   10.70   1
   3  -2  -2   37.00    0.80   1
  -3   2   2   37.40    1.30   1
   3  -2  -1   10.90    0.60   1
  -3   2   1   10.10    0.70   1
   3  -2   0   14.90    0.70   1
  -3   2   0   15.90    0.60   1
   3  -2   1  142.70    2.50   1
  -3   2  -1  143.30    2.60   1
   3  -2   2  854.20   13.80   1
  -3   2  -2  821.60   12.00   1
   3  -2   3   50.40    1.40   1
  -3   2  -3   53.00    1.20   1
   3  -2   4  132.10    3.50   1
  -3   2  -4  123.20    2.40   1
   3  -2   5 1224.60   18.50   1
  -3   2  -5 1192.50   17.30   1
   3  -2   6    3.20    0.80   1
  -3   2  -6    3.80    0.70   1
   3  -2   7   13.00    1.80   1
  -3   2  -7    8.60    0.70   1
   3  -2   8   65.50    2.60   1
  -3   2  -8   60.50    2.90   1
   3  -2   9   33.00    2.90   1
  -3   2  -9   35.80    2.80   1
   3  -2  10  218.00    7.90   1
  -3   2 -10  237.60    9.50   1
   3  -2  11   55.50    4.20   1
  -3   2 -11   65.40    5.50   1
   3  -2  12  245.80   11.80   1
  -3   2 -12  272.40   13.00   1
   3  -2  13   14.00    5.70   1
  -3   2 -13    5.40    3.80   1
   3  -2  14   15.60    6.30   1
  -3   2 -14    9.60    5.40   1
   3  -1 -14   10.50    6.00   1
  -3   1  14   15.40    8.40   1
   3  -1 -13    3.40    3.60   1
  -3   1  13    4.20    5.80   1
   3  -1 -12   29.00    4.10   1
  -3   1  12   33.50    4.90   1
   3  -1 -11   24.30    3.20   1
  -3   1  11   17.30    3.60   1
   3  -1 -10    4.60    2.40   1
  -3   1  10    2.20    1.90   1
   3  -1  -9  423.40   11.50   1
  -3   1   9  424.40   10.70   1
   3  -1  -8   11.70    2.00   1
  -3   1   8    9.60    1.60   1
   3  -1  -7   27.20    1.70   1
  -3   1   7   23.80    1.50   1
   3  -1  -6 1309.20   17.70   1
  -3   1   6 1284.90   19.90   1
   3  -1  -5  749.80   10.20   1
  -3   1   5  708.80   11.30   1
   3  -1  -4   23.80    0.90   1
  -3   1   4   21.00    0.90   1
   3  -1  -3   63.70    1.30   1
  -3   1   3   62.50    1.40   1
   3  -1  -2  415.10    5.70   1
  -3   1   2  412.30    6.70   1
   3  -1  -1    1.50    0.40   1
  -3   1   1    0.30    0.50   1
   3  -1   0 1214.90   14.70   1
  -3   1   0 1111.50   15.60   1
   3  -1   1 1901.90   24.00   1
  -3   1  -1 1890.20   26.00   1
   3  -1   2 1872.30   24.00   1
  -3   1  -2 1839.30   28.10   1
   3  -1   3   27.30    0.70   1
  -3   1  -3   25.60    1.10   1
   3  -1   4    1.30    1.00   1
  -3   1  -4    0.50    0.90   1
   3  -1   5   40.40    1.80   1
  -3   1  -5   36.50    1.60   1
   3  -1   6   12.30    2.30   1
  -3   1  -6   15.90    2.30   1
   3  -1   7   61.90    2.70   1
  -3   1  -7   62.90    3.40   1
   3  -1   8 1034.20   24.60   1
  -3   1  -8 1029.00   28.40   1
   3  -1   9   15.00    2.40   1
  -3   1  -9   15.20    2.80   1
   3  -1  10  127.40    5.50   1
  -3   1 -10  132.80    6.50   1
   3  -1  11   30.40    3.40   1
  -3   1 -11   35.10    4.10   1
   3  -1  12    9.90    4.40   1
  -3   1 -12   13.20    4.30   1
   3  -1  13   16.90    5.70   1
  -3   1 -13    8.70    4.30   1
   3  -1  14   -0.70    6.10   1
  -3   1 -14    5.60    5.20   1
   3   0 -14   42.30    6.30   1
  -3   0  14   54.60    7.30   1
   3   0 -13    0.10    4.20   1
  -3   0  13   -1.60    4.90   1
   3   0 -12  367.40   12.50   1
  -3   0  12  353.60   15.30   1
   3   0 -11    1.10    3.00   1
  -3   0  11   -2.50    3.50   1
   3   0 -10   -0.80    2.50   1
  -3   0  10    2.10    1.90   1
   3   0  -9    1.30    2.10   1
  -3   0   9    1.00    1.60   1
   3   0  -8  118.20    3.60   1
  -3   0   8  118.60    3.90   1
   3   0  -7   -0.20    1.30   1
  -3   0   7    1.60    1.50   1
   3   0  -6 1134.10   18.70   1
  -3   0   6 1120.30   18.60   1
   3   0  -5   -0.60    0.80   1
  -3   0   5   -0.20    0.70   1
   3   0  -4   25.40    0.90   1
  -3   0   4   28.70    0.90   1
   3   0  -3    0.00    0.50   1
  -3   0   3   -1.20    0.50   1
   3   0  -2 3826.70   43.60   1
  -3   0   2 3598.90   47.50   1
   3   0  -1    0.70    0.30   1
  -3   0   1    1.30    0.70   1
   3   0   0    1.20    0.30   1
  -3   0   0    1.10    0.70   1
   3   0   1    1.00    0.40   1
  -3   0  -1    0.90    0.40   1
   3   0   2  685.80    8.40   1
  -3   0  -2  675.40   11.00   1
   3   0   3   -0.20    0.70   1
  -3   0  -3    0.50    0.70   1
   3   0   4 1109.20   17.50   1
  -3   0  -4 1030.10   16.40   1
   3   0   5    3.40    1.20   1
  -3   0  -5   -0.90    1.00   1
   3   0   6   25.70    1.80   1
  -3   0  -6   25.70    2.40   1
   3   0   7    0.80    1.20   1
  -3   0  -7    1.40    2.20   1
   3   0   8  100.00    3.80   1
  -3   0  -8   94.70    4.60   1
   3   0   9   -2.90    2.10   1
  -3   0  -9   -0.70    2.80   1
   3   0  10   73.10    3.90   1
  -3   0 -10   81.40    5.30   1
   3   0  11    1.50    3.40   1
  -3   0 -11    2.70    2.50   1
   3   0  12  488.10   18.40   1
  -3   0 -12  484.10   15.10   1
   3   0  13    3.70    5.40   1
  -3   0 -13    0.40    4.30   1
   3   0  14    4.20    6.10   1
  -3   0 -14   13.80    5.10   1
   3   1 -14   11.00    6.30   1
  -3  -1  14   19.90    6.40   1
   3   1 -13    7.30    4.60   1
  -3  -1  13    7.10    5.00   1
   3   1 -12   32.90    4.40   1
  -3  -1  12   43.80    5.30   1
   3   1 -11   23.20    3.10   1
  -3  -1  11   25.50    2.80   1
   3   1 -10    2.60    2.60   1
  -3  -1  10    0.70    2.00   1
   3   1  -9  382.10   10.80   1
  -3  -1   9  405.40    9.60   1
   3   1  -8   14.50    1.80   1
  -3  -1   8   12.60    1.60   1
   3   1  -7   25.10    1.80   1
  -3  -1   7   27.40    1.70   1
   3   1  -6 1296.30   21.50   1
  -3  -1   6 1267.90   20.70   1
   3   1  -5  725.60   11.20   1
  -3  -1   5  722.30   11.00   1
   3   1  -4   21.30    0.80   1
  -3  -1   4   20.90    0.90   1
   3   1  -3   60.90    1.30   1
  -3  -1   3   58.70    1.40   1
   3   1  -2  431.50    5.90   1
  -3  -1   2  398.50    7.60   1
   3   1  -1    1.90    0.30   1
  -3  -1   1    1.50    0.40   1
   3   1   0 1166.90   13.50   1
  -3  -1   0 1107.80   17.00   1
   3   1   1 1966.30   23.20   1
  -3  -1  -1 1826.80   23.00   1
   3   1   2 1959.20   21.70   1
  -3  -1  -2 1850.30   25.30   1
   3   1   3   27.80    0.70   1
  -3  -1  -3   27.30    1.00   1
   3   1   4    1.10    0.70   1
  -3  -1  -4    1.80    0.90   1
   3   1   5   40.40    1.30   1
  -3  -1  -5   39.00    1.50   1
   3   1   6   16.00    1.10   1
  -3  -1  -6   12.40    1.70   1
   3   1   7   61.80    2.10   1
  -3  -1  -7   58.90    2.80   1
   3   1   8 1042.70   23.30   1
  -3  -1  -8 1017.50   22.40   1
   3   1   9   16.80    2.00   1
  -3  -1  -9   15.30    2.30   1
   3   1  10  150.50    7.20   1
  -3  -1 -10  139.30    5.50   1
   3   1  11   25.10    4.50   1
  -3  -1 -11   41.70    3.60   1
   3   1  12   16.80    5.20   1
  -3  -1 -12   24.10    4.10   1
   3   1  13    1.80    5.70   1
  -3  -1 -13    8.10    4.50   1
   3   1  14   -7.40    6.30   1
  -3  -1 -14    5.70    4.70   1
   3   2 -14   10.10    6.40   1
  -3  -2  14   10.50    6.60   1
   3   2 -13   34.70    5.10   1
  -3  -2  13   29.40    5.90   1
   3   2 -12   20.90    4.20   1
  -3  -2  12   14.70    5.20   1
   3   2 -11   31.70    3.80   1
  -3  -2  11   31.20    4.50   1
   3   2 -10    5.50    2.90   1
  -3  -2  10    8.00    2.10   1
   3   2  -9  506.00   16.30   1
  -3  -2   9  485.60   11.20   1
   3   2  -8   27.00    2.10   1
  -3  -2   8   27.50    1.90   1
   3   2  -7   18.30    1.60   1
  -3  -2   7   22.50    2.20   1
   3   2  -6    0.30    0.90   1
  -3  -2   6    0.90    1.30   1
   3   2  -5  303.20    4.80   1
  -3  -2   5  296.70    5.20   1
   3   2  -4  428.70    6.90   1
  -3  -2   4  417.30    7.00   1
   3   2  -3  669.60    8.40   1
  -3  -2   3  640.30    9.90   1
   3   2  -2   35.70    0.90   1
  -3  -2   2   37.50    1.20   1
   3   2  -1    9.40    0.50   1
  -3  -2   1    9.70    0.70   1
   3   2   0   15.70    0.50   1
  -3  -2   0   15.30    0.60   1
   3   2   1  144.80    2.10   1
  -3  -2  -1  145.50    2.30   1
   3   2   2  887.60   11.00   1
  -3  -2  -2  836.60   11.90   1
   3   2   3   55.10    1.30   1
  -3  -2  -3   55.00    1.40   1
   3   2   4  138.20    2.60   1
  -3  -2  -4  139.40    2.90   1
   3   2   5 1273.60   20.40   1
  -3  -2  -5 1249.50   19.30   1
   3   2   6    5.50    1.40   1
  -3  -2  -6    4.80    0.90   1
   3   2   7    9.90    1.70   1
  -3  -2  -7    8.80    0.90   1
   3   2   8   71.10    3.10   1
  -3  -2  -8   64.30    2.20   1
   3   2   9   35.10    3.70   1
  -3  -2  -9   34.60    1.50   1
   3   2  10  245.30    9.50   1
  -3  -2 -10  248.30    7.80   1
   3   2  11   56.40    5.20   1
  -3  -2 -11   62.40    4.40   1
   3   2  12  272.90   13.20   1
  -3  -2 -12  286.20   10.30   1
   3   2  13   13.40    5.80   1
  -3  -2 -13    9.60    4.50   1
   3   2  14    5.90    6.30   1
  -3  -2 -14   19.50    5.70   1
   3   3 -14   66.70    8.10   1
  -3  -3  14   64.50    8.20   1
   3   3 -13  152.50    8.30   1
  -3  -3  13  149.20   10.10   1
   3   3 -12    4.10    4.10   1
  -3  -3  12    2.30    4.10   1
   3   3 -11    9.40    4.20   1
  -3  -3  11    8.40    3.30   1
   3   3 -10    9.50    3.70   1
  -3  -3  10    7.90    3.00   1
   3   3  -9  201.20    7.90   1
  -3  -3   9  194.80    6.80   1
   3   3  -8   42.40    2.40   1
  -3  -3   8   46.60    2.80   1
   3   3  -7  153.40    3.90   1
  -3  -3   7  156.50    4.20   1
   3   3  -6    7.40    1.00   1
  -3  -3   6    9.40    1.30   1
   3   3  -5  243.10    4.70   1
  -3  -3   5  238.10    4.90   1
   3   3  -4   33.10    1.20   1
  -3  -3   4   33.30    1.40   1
   3   3  -3   43.50    1.30   1
  -3  -3   3   43.50    1.40   1
   3   3  -2  113.60    1.80   1
  -3  -3   2  111.40    2.80   1
   3   3  -1   42.00    0.90   1
  -3  -3   1   40.00    1.20   1
   3   3   0  229.30    3.50   1
  -3  -3   0  223.60    3.60   1
   3   3   1  669.00   10.20   1
  -3  -3  -1  641.70    9.50   1
   3   3   2    1.00    0.70   1
  -3  -3  -2    0.80    0.50   1
   3   3   3   45.70    1.30   1
  -3  -3  -3   42.60    1.10   1
   3   3   4   27.80    1.20   1
  -3  -3  -4   28.70    1.10   1
   3   3   5  838.80   17.50   1
  -3  -3  -5  788.30   14.10   1
   3   3   6   29.90    1.50   1
  -3  -3  -6   30.70    1.10   1
   3   3   7  238.80    6.30   1
  -3  -3  -7  226.20    3.70   1
   3   3   8   53.80    2.90   1
  -3  -3  -8   52.80    2.20   1
   3   3   9  300.70   10.70   1
  -3  -3  -9  273.90    6.50   1
   3   3  10   91.60    5.40   1
  -3  -3 -10   91.40    4.40   1
   3   3  11    7.50    4.00   1
  -3  -3 -11    8.70    3.30   1
   3   3  12    1.90    4.60   1
  -3  -3 -12    1.90    3.40   1
   3   3  13    8.30    5.70   1
  -3  -3 -13    3.90    4.60   1
   3   3  14   25.70    7.20   1
  -3  -3 -14   26.50    7.50   1
   3   4 -14   -6.70    6.50   1
  -3  -4  14   -1.90    7.20   1
   3   4 -13   50.10    5.10   1
  -3  -4  13   51.30    7.20   1
   3   4 -12   12.10    5.30   1
  -3  -4  12    7.60    4.30   1
   3   4 -11  262.60   12.40   1
  -3  -4  11  260.30    9.40   1
   3   4 -10   48.80    4.70   1
  -3  -4  10   61.40    4.20   1
   3   4  -9  299.40   10.90   1
  -3  -4   9  294.50    9.10   1
   3   4  -8   12.70    2.00   1
  -3  -4   8   12.50    2.30   1
   3   4  -7    7.80    1.90   1
  -3  -4   7    7.70    1.90   1
   3   4  -6   55.90    2.60   1
  -3  -4   6   54.60    2.90   1
   3   4  -5  544.80   13.00   1
  -3  -4   5  545.10   11.20   1
   3   4  -4  561.90   10.40   1
  -3  -4   4  548.10   11.10   1
   3   4  -3  161.10    3.40   1
  -3  -4   3  163.00    3.70   1
   3   4  -2   50.50    1.20   1
  -3  -4   2   51.50    3.60   1
   3   4  -1   99.20    1.80   1
  -3  -4   1  101.10    2.50   1
   3   4   0   55.70    1.50   1
  -3  -4   0   56.50    1.30   1
   3   4   1   48.30    1.30   1
  -3  -4  -1   47.30    1.10   1
   3   4   2  435.10    7.00   1
  -3  -4  -2  413.20    6.00   1
   3   4   3  299.60    5.20   1
  -3  -4  -3  279.50    4.40   1
   3   4   4   51.80    1.70   1
  -3  -4  -4   54.70    1.50   1
   3   4   5 1536.80   30.70   1
  -3  -4  -5 1443.60   24.80   1
   3   4   6  262.50    6.50   1
  -3  -4  -6  257.80    5.40   1
   3   4   7   29.90    1.80   1
  -3  -4  -7   29.40    1.60   1
   3   4   8   72.70    4.30   1
  -3  -4  -8   73.30    2.60   1
   3   4   9    6.10    3.20   1
  -3  -4  -9    1.70    1.60   1
   3   4  10    5.20    3.80   1
  -3  -4 -10   10.00    3.10   1
   3   4  11   41.10    5.00   1
  -3  -4 -11   38.30    3.90   1
   3   4  12   44.30    5.80   1
  -3  -4 -12   27.60    4.60   1
   3   4  13   12.20    6.10   1
  -3  -4 -13    9.70    4.30   1
   3   4  14   -0.20    9.40   1
  -3  -4 -14    9.90    9.10   1
   3   5 -14    3.50    9.90   1
  -3  -5  14   13.30    7.60   1
   3   5 -13    6.10    5.10   1
  -3  -5  13   -2.40    6.40   1
   3   5 -12   52.90    6.50   1
  -3  -5  12   45.10    5.20   1
   3   5 -11    1.50    4.80   1
  -3  -5  11    8.70    3.90   1
   3   5 -10   13.70    4.20   1
  -3  -5  10   17.20    3.50   1
   3   5  -9  512.50   17.40   1
  -3  -5   9  530.20   14.40   1
   3   5  -8   28.40    3.50   1
  -3  -5   8   32.80    2.90   1
   3   5  -7  590.80   14.80   1
  -3  -5   7  573.90   14.70   1
   3   5  -6  214.10    7.60   1
  -3  -5   6  215.10    6.40   1
   3   5  -5  392.10   15.00   1
  -3  -5   5  380.40   10.20   1
   3   5  -4   48.70    2.10   1
  -3  -5   4   53.90    2.20   1
   3   5  -3   10.70    1.30   1
  -3  -5   3   13.60    1.70   1
   3   5  -2   90.00    2.10   1
  -3  -5   2   89.90    2.80   1
   3   5  -1  648.80    9.50   1
  -3  -5   1  630.90    9.80   1
   3   5   0   17.30    1.00   1
  -3  -5   0   16.80    1.00   1
   3   5   1 1132.20   17.00   1
  -3  -5  -1 1059.30   15.50   1
   3   5   2  600.80    9.90   1
  -3  -5  -2  583.20    8.60   1
   3   5   3  316.90    6.10   1
  -3  -5  -3  289.20    4.20   1
   3   5   4   -0.10    1.50   1
  -3  -5  -4   -0.50    1.20   1
   3   5   5   13.30    1.70   1
  -3  -5  -5   11.50    1.40   1
   3   5   6   -2.30    1.80   1
  -3  -5  -6   -0.50    1.30   1
   3   5   7  301.30    8.20   1
  -3  -5  -7  298.50    6.60   1
   3   5   8  242.90    8.90   1
  -3  -5  -8  239.20    6.20   1
   3   5   9    1.30    3.30   1
  -3  -5  -9    0.30    1.70   1
   3   5  10   -4.10    3.90   1
  -3  -5 -10   -0.80    3.00   1
   3   5  11   29.40    5.00   1
  -3  -5 -11   22.60    3.90   1
   3   5  12   13.50    5.30   1
  -3  -5 -12    3.20    3.80   1
   3   5  13   -0.60    5.90   1
  -3  -5 -13    3.20    5.00   1
   3   6 -13   11.90    5.70   1
  -3  -6  13    5.70    6.50   1
   3   6 -12   89.80    8.30   1
  -3  -6  12   81.40    6.50   1
   3   6 -11  286.60   13.40   1
  -3  -6  11  264.10   11.00   1
   3   6 -10   -0.10    3.40   1
  -3  -6  10   -1.20    3.00   1
   3   6  -9   10.70    3.20   1
  -3  -6   9   15.10    3.00   1
   3   6  -8  101.90    5.80   1
  -3  -6   8  109.80    4.70   1
   3   6  -7    4.80    3.10   1
  -3  -6   7    0.00    2.50   1
   3   6  -6  195.20    7.20   1
  -3  -6   6  198.00    6.10   1
   3   6  -5    9.10    2.70   1
  -3  -6   5    8.00    1.90   1
   3   6  -4   42.60    2.60   1
  -3  -6   4   50.50    2.70   1
   3   6  -3  219.30    5.80   1
  -3  -6   3  223.00    6.10   1
   3   6  -2 1209.90   23.60   1
  -3  -6   2 1202.50   22.70   1
   3   6  -1  235.60    4.30   1
  -3  -6   1  233.60    4.40   1
   3   6   0   14.80    1.10   1
  -3  -6   0   16.00    1.10   1
   3   6   1   39.10    1.50   1
  -3  -6  -1   40.00    1.30   1
   3   6   2    6.20    1.30   1
  -3  -6  -2    5.30    0.80   1
   3   6   3 1117.10   21.00   1
  -3  -6  -3 1056.10   16.10   1
   3   6   4  247.90    6.40   1
  -3  -6  -4  237.90    4.60   1
   3   6   5  256.50    6.70   1
  -3  -6  -5  247.20    5.80   1
   3   6   6   -0.10    1.90   1
  -3  -6  -6   -0.20    1.40   1
   3   6   7   47.30    3.70   1
  -3  -6  -7   45.90    2.40   1
   3   6   8   -0.90    3.00   1
  -3  -6  -8    3.40    1.80   1
   3   6   9   12.30    3.80   1
  -3  -6  -9   11.70    2.10   1
   3   6  10    5.90    4.00   1
  -3  -6 -10    5.50    3.40   1
   3   6  11    7.90    3.60   1
  -3  -6 -11   10.10    4.00   1
   3   6  12   96.10    7.90   1
  -3  -6 -12   94.50    6.60   1
   3   6  13   63.10    8.50   1
  -3  -6 -13   87.10    6.80   1
   3   7 -13  -21.20    9.70   1
  -3  -7  13   -0.30    6.90   1
   3   7 -12   13.40    6.30   1
  -3  -7  12   13.60    5.20   1
   3   7 -11   10.00    5.60   1
  -3  -7  11    8.50    4.60   1
   3   7 -10    2.80    4.00   1
  -3  -7  10    2.30    3.10   1
   3   7  -9   -4.00    3.90   1
  -3  -7   9   -1.70    3.00   1
   3   7  -8   39.00    3.70   1
  -3  -7   8   33.60    3.20   1
   3   7  -7  288.00   11.00   1
  -3  -7   7  271.80    8.80   1
   3   7  -6  145.80    6.30   1
  -3  -7   6  150.60    5.30   1
   3   7  -5  318.10    8.30   1
  -3  -7   5  326.40    9.00   1
   3   7  -4   22.50    2.10   1
  -3  -7   4   26.00    2.20   1
   3   7  -3   79.40    3.20   1
  -3  -7   3   79.20    3.30   1
   3   7  -2  200.60    8.90   1
  -3  -7   2  225.20    5.80   1
   3   7  -1   -2.30    2.00   1
  -3  -7   1    0.90    1.10   1
   3   7   0  592.60   13.20   1
  -3  -7   0  601.90   10.70   1
   3   7   1   96.90    3.70   1
  -3  -7  -1   92.90    2.50   1
   3   7   2  167.80    5.50   1
  -3  -7  -2  156.90    3.30   1
   3   7   3  205.30    6.60   1
  -3  -7  -3  191.40    4.10   1
   3   7   4   25.40    2.50   1
  -3  -7  -4   19.40    1.20   1
   3   7   5   76.30    4.00   1
  -3  -7  -5   72.20    2.70   1
   3   7   6   91.50    4.70   1
  -3  -7  -6   87.10    2.90   1
   3   7   7  503.20   16.20   1
  -3  -7  -7  481.80   10.90   1
   3   7   8  180.10    8.00   1
  -3  -7  -8  175.10    5.30   1
   3   7   9    3.60    3.20   1
  -3  -7  -9    2.80    1.90   1
   3   7  10   64.30    5.80   1
  -3  -7 -10   64.90    4.70   1
   3   7  11   -1.70    4.10   1
  -3  -7 -11    3.10    4.10   1
   3   7  12    1.00    5.70   1
  -3  -7 -12    3.10    4.80   1
   3   8 -12    8.90    6.80   1
  -3  -8  12   11.20    5.40   1
   3   8 -11   21.40    6.70   1
  -3  -8  11   22.90    4.80   1
   3   8 -10   49.90    6.40   1
  -3  -8  10   71.80    5.60   1
   3   8  -9   -1.40    4.40   1
  -3  -8   9    5.30    3.80   1
   3   8  -8   51.70    4.70   1
  -3  -8   8   44.20    4.30   1
   3   8  -7    6.20    3.80   1
  -3  -8   7    8.50    2.50   1
   3   8  -6   13.20    3.60   1
  -3  -8   6   10.00    2.90   1
   3   8  -5    2.90    2.90   1
  -3  -8   5    3.20    2.60   1
   3   8  -4  553.70   14.40   1
  -3  -8   4  552.80   14.10   1
   3   8  -3   92.00    3.60   1
  -3  -8   3   87.20    3.40   1
   3   8  -2   11.50    3.10   1
  -3  -8   2    8.90    1.10   1
   3   8  -1   33.60    2.80   1
  -3  -8   1   30.50    1.50   1
   3   8   0    1.20    1.30   1
  -3  -8   0    1.10    1.10   1
   3   8   1   32.80    2.00   1
  -3  -8  -1   32.90    1.70   1
   3   8   2  176.50    5.80   1
  -3  -8  -2  163.00    3.50   1
   3   8   3  304.30    9.50   1
  -3  -8  -3  271.70    5.40   1
   3   8   4   58.70    3.60   1
  -3  -8  -4   54.50    1.80   1
   3   8   5    5.70    2.60   1
  -3  -8  -5    1.60    1.00   1
   3   8   6   41.80    3.60   1
  -3  -8  -6   40.40    2.60   1
   3   8   7    0.70    3.40   1
  -3  -8  -7    6.80    2.10   1
   3   8   8   25.50    4.10   1
  -3  -8  -8   24.30    2.50   1
   3   8   9    3.00    4.20   1
  -3  -8  -9    8.70    2.40   1
   3   8  10  266.50   11.90   1
  -3  -8 -10  237.90    9.50   1
   3   8  11    6.30    5.60   1
  -3  -8 -11    6.20    4.40   1
   3   8  12  102.60    9.60   1
  -3  -8 -12   93.80    9.20   1
   3   9 -12    0.90   10.80   1
  -3  -9  12   -0.90   10.60   1
   3   9 -11   -5.30    6.50   1
  -3  -9  11   -8.50    5.10   1
   3   9 -10    0.20    5.40   1
  -3  -9  10    8.60    5.00   1
   3   9  -9    3.10    5.10   1
  -3  -9   9   -0.90    4.50   1
   3   9  -8   74.80    6.00   1
  -3  -9   8   56.90    5.10   1
   3   9  -7    1.30    4.00   1
  -3  -9   7   -1.20    2.90   1
   3   9  -6   89.40    7.80   1
  -3  -9   6   86.30    7.60   1
   3   9  -5    7.70    2.70   1
  -3  -9   5    5.40    2.50   1
   3   9  -4   71.50    4.40   1
  -3  -9   4   62.40    3.60   1
   3   9  -3   -4.20    2.30   1
  -3  -9   3   -0.20    2.20   1
   3   9  -2   67.60    4.30   1
  -3  -9   2   68.40    2.40   1
   3   9  -1    4.90    2.10   1
  -3  -9   1   -0.30    1.50   1
   3   9   0  866.90   25.80   1
  -3  -9   0  867.20   16.30   1
   3   9   1   15.80    1.90   1
  -3  -9  -1   13.80    1.80   1
   3   9   2   12.20    1.80   1
  -3  -9  -2   10.20    1.60   1
   3   9   3   58.20    3.80   1
  -3  -9  -3   58.20    2.10   1
   3   9   4   -1.70    2.60   1
  -3  -9  -4   -1.20    1.20   1
   3   9   5   35.90    4.00   1
  -3  -9  -5   26.70    2.00   1
   3   9   6  164.10    7.60   1
  -3  -9  -6  170.80    5.40   1
   3   9   7   -0.70    3.70   1
  -3  -9  -7   -3.40    2.30   1
   3   9   8   35.40    4.90   1
  -3  -9  -8   29.50    2.50   1
   3   9   9   23.40    4.40   1
  -3  -9  -9   18.00    2.90   1
   3   9  10  180.10   11.20   1
  -3  -9 -10  150.30    7.90   1
   3   9  11   42.00    7.00   1
  -3  -9 -11   26.50    6.90   1
   3  10 -11   42.80    7.80   1
  -3 -10  11   39.70    6.10   1
   3  10 -10   70.00    7.20   1
  -3 -10  10   67.70    6.20   1
   3  10  -9   14.70    5.60   1
  -3 -10   9   13.20    3.80   1
   3  10  -8   10.90    4.40   1
  -3 -10   8    9.40    3.80   1
   3  10  -7   16.20    4.70   1
  -3 -10   7    8.00    3.80   1
   3  10  -6   45.90    5.00   1
  -3 -10   6   48.50    3.90   1
   3  10  -5   -5.50    3.50   1
  -3 -10   5   -3.50    3.10   1
   3  10  -4  875.90   25.90   1
  -3 -10   4  892.40   23.10   1
   3  10  -3    6.40    2.80   1
  -3 -10   3    7.30    2.60   1
   3  10  -2  249.60    9.30   1
  -3 -10   2  252.60    9.20   1
   3  10  -1    0.60    2.70   1
  -3 -10   1    3.90    2.40   1
   3  10   0   17.50    3.10   1
  -3 -10   0   19.20    2.00   1
   3  10   1   12.80    3.00   1
  -3 -10  -1   14.40    2.10   1
   3  10   2    2.20    2.10   1
  -3 -10  -2    1.50    1.80   1
   3  10   3  159.10    5.80   1
  -3 -10  -3  149.30    4.60   1
   3  10   4    1.50    2.50   1
  -3 -10  -4    0.30    1.30   1
   3  10   5   24.70    3.70   1
  -3 -10  -5   24.10    2.20   1
   3  10   6  145.80    7.80   1
  -3 -10  -6  146.50    4.70   1
   3  10   7   59.40    5.50   1
  -3 -10  -7   47.50    3.00   1
   3  10   8   13.90    4.60   1
  -3 -10  -8   14.70    3.10   1
   3  10   9   14.80    5.40   1
  -3 -10  -9   27.80    6.00   1
   3  10  10   70.50    8.30   1
  -3 -10 -10   80.40    8.10   1
   3  11 -10   24.80    7.00   1
  -3 -11  10   16.20    7.80   1
   3  11  -9   62.30    6.80   1
  -3 -11   9   54.30    5.90   1
   3  11  -8   13.90    5.70   1
  -3 -11   8   -3.90    4.80   1
   3  11  -7  239.80   16.00   1
  -3 -11   7  238.90    9.70   1
   3  11  -6   10.20    4.10   1
  -3 -11   6    6.10    3.00   1
   3  11  -5   40.80    4.90   1
  -3 -11   5   39.60    3.90   1
   3  11  -4   34.30    4.40   1
  -3 -11   4   32.40    3.90   1
   3  11  -3   57.10    4.80   1
  -3 -11   3   51.00    3.90   1
   3  11  -2   90.50    5.50   1
  -3 -11   2   87.40    4.50   1
   3  11  -1  175.70    8.40   1
  -3 -11   1  186.30    7.00   1
   3  11   0  108.70    6.00   1
  -3 -11   0  111.10    4.50   1
   3  11   1   66.10    4.60   1
  -3 -11  -1   59.10    3.10   1
   3  11   2   36.00    4.00   1
  -3 -11  -2   33.30    2.70   1
   3  11   3   77.80    5.20   1
  -3 -11  -3   76.80    3.20   1
   3  11   4   23.10    3.00   1
  -3 -11  -4   27.40    2.80   1
   3  11   5    0.30    3.70   1
  -3 -11  -5   -0.30    2.80   1
   3  11   6   -1.90    4.10   1
  -3 -11  -6    4.70    2.30   1
   3  11   7   85.80    6.90   1
  -3 -11  -7   82.40    4.40   1
   3  11   8   27.10    4.90   1
  -3 -11  -8   16.30    4.30   1
   3  11   9    9.30    6.00   1
  -3 -11  -9   -2.90    6.20   1
   3  11  10   22.60    7.90   1
  -3 -11 -10   11.90    8.20   1
   3  12  -9    8.10    6.80   1
  -3 -12   9    4.10    7.60   1
   3  12  -8   25.90    6.60   1
  -3 -12   8   35.80    5.40   1
   3  12  -7   -1.60    5.50   1
  -3 -12   7   -1.30    4.30   1
   3  12  -6   19.20    4.80   1
  -3 -12   6   26.80    4.30   1
   3  12  -5    2.80    4.40   1
  -3 -12   5    8.70    4.30   1
   3  12  -4   29.40    4.70   1
  -3 -12   4   17.40    4.00   1
   3  12  -3   96.50    5.80   1
  -3 -12   3  100.60    5.20   1
   3  12  -2   11.50    3.90   1
  -3 -12   2    9.50    3.50   1
   3  12  -1   43.70    4.80   1
  -3 -12   1   49.60    3.80   1
   3  12   0   47.70    4.40   1
  -3 -12   0   47.10    3.50   1
   3  12   1   12.60    3.90   1
  -3 -12  -1   17.70    2.50   1
   3  12   2   52.00    4.50   1
  -3 -12  -2   53.80    3.20   1
   3  12   3  289.20   11.50   1
  -3 -12  -3  293.50   10.20   1
   3  12   4   13.70    3.50   1
  -3 -12  -4   11.20    2.50   1
   3  12   5   55.40    5.10   1
  -3 -12  -5   54.30    4.50   1
   3  12   6    8.90    3.60   1
  -3 -12  -6   10.60    3.00   1
   3  12   7   24.30    5.70   1
  -3 -12  -7   19.10    3.90   1
   3  12   8   -0.50    6.00   1
  -3 -12  -8    4.50    4.60   1
   3  13  -7   80.50    8.40   1
  -3 -13   7   91.50    7.30   1
   3  13  -6   44.50    6.70   1
  -3 -13   6   42.20    5.90   1
   3  13  -5   -0.40    5.10   1
  -3 -13   5   14.60    4.90   1
   3  13  -4    5.20    4.10   1
  -3 -13   4   -0.50    3.70   1
   3  13  -3   20.70    4.60   1
  -3 -13   3   30.90    4.70   1
   3  13  -2    5.10    3.80   1
  -3 -13   2    0.20    3.10   1
   3  13  -1   18.30    4.40   1
  -3 -13   1   15.80    4.00   1
   3  13   0   18.20    5.10   1
  -3 -13   0   12.80    3.50   1
   3  13   1    6.60    3.70   1
  -3 -13  -1    1.10    3.80   1
   3  13   2    7.40    4.80   1
  -3 -13  -2   -5.00    3.40   1
   3  13   3   41.50    5.90   1
  -3 -13  -3   44.50    4.60   1
   3  13   4   42.20    5.20   1
  -3 -13  -4   37.00    4.40   1
   3  13   5   62.20   10.30   1
  -3 -13  -5   50.70    5.30   1
   3  13   6   14.00    6.00   1
  -3 -13  -6   20.20    3.50   1
   3  13   7  174.80   17.20   1
  -3 -13  -7  178.60    9.20   1
   3  14  -6    0.40    6.90   1
  -3 -14   6    7.50   11.40   1
   3  14  -5   27.00    5.60   1
  -3 -14   5   23.10    5.40   1
   3  14  -4   28.80    6.10   1
  -3 -14   4   40.20    5.80   1
   3  14  -3  -10.40    5.00   1
  -3 -14   3    4.40    4.30   1
   3  14  -2   11.80    4.70   1
  -3 -14   2   16.30    3.60   1
   3  14  -1    9.20    4.90   1
  -3 -14   1    2.80    4.50   1
   3  14   0   -3.50    4.50   1
  -3 -14   0    4.10    4.60   1
   3  14   1   13.30    4.60   1
  -3 -14  -1    4.60    6.30   1
   3  14   2   -2.00    8.70   1
  -3 -14  -2   12.20    5.90   1
   3  14   3  120.50   13.20   1
  -3 -14  -3  149.60   10.00   1
   3  14   4   42.10   10.70   1
  -3 -14  -4   59.90    7.10   1
   3  14   5   84.00   12.60   1
  -3 -14  -5   89.20    8.20   1
   3  15  -3   14.00    8.00   1
  -3 -15   3    1.50    7.10   1
   3  15  -2    7.10    7.00   1
  -3 -15   2    5.60    5.30   1
   3  15  -1    0.30    9.80   1
  -3 -15   1    0.20    5.00   1
   3  15   0   52.20   10.80   1
  -3 -15   0   36.10    7.60   1
   3  15   1  164.80   16.60   1
  -3 -15  -1  158.60   11.10   1
  -3 -15  -2    2.40    9.40   1
   4 -15  -1   25.60   11.00   1
  -4  15   1   14.00    9.90   1
   4 -15   0   17.70   10.40   1
  -4  15   0    4.50   10.20   1
   4 -14  -5   -8.10    8.80   1
  -4  14   5    4.10    9.30   1
   4 -14  -4   -0.50    6.30   1
  -4  14   4  -16.70    8.50   1
   4 -14  -3   78.60    8.20   1
  -4  14   3   67.80   10.40   1
   4 -14  -2   48.00    7.50   1
  -4  14   2   23.00    9.40   1
   4 -14  -1   72.20    7.30   1
   4 -14   0    4.30    6.20   1
   4 -14   1    4.80    6.20   1
  -4  14  -1   -6.00    8.40   1
   4 -14   2    8.90    6.50   1
  -4  14  -2    3.40    8.80   1
   4 -14   3   20.60    5.10   1
  -4  14  -3    3.10    9.70   1
   4 -14   4   10.00    6.80   1
   4 -14   5    6.40    6.40   1
  -4  14  -5   -1.70    8.00   1
   4 -13  -7   -0.20    6.40   1
  -4  13   7   -7.80    8.30   1
   4 -13  -6   18.80    5.50   1
  -4  13   6   13.70    6.50   1
   4 -13  -5  143.10    9.60   1
  -4  13   5  154.00   15.00   1
   4 -13  -4   22.30    5.90   1
  -4  13   4   43.80    9.10   1
   4 -13  -3   15.60    5.00   1
  -4  13   3   13.40    6.10   1
   4 -13  -2   22.90    4.90   1
  -4  13   2   15.40    5.50   1
   4 -13  -1   41.00    5.30   1
  -4  13   1   29.20    6.50   1
   4 -13   0   11.90    5.60   1
   4 -13   1   18.10    6.10   1
  -4  13  -1   16.80    4.60   1
   4 -13   2    5.70    5.80   1
  -4  13  -2    3.90    8.20   1
   4 -13   3   44.50    6.50   1
  -4  13  -3   43.20    7.80   1
   4 -13   4   17.30    5.40   1
  -4  13  -4   22.80    9.90   1
   4 -13   5  -12.70    6.40   1
  -4  13  -5   10.20   10.70   1
   4 -13   6    5.60    5.90   1
  -4  13  -6    2.40    7.60   1
   4 -12  -8   35.30   10.00   1
  -4  12   8   29.20    8.70   1
   4 -12  -7    9.40    4.10   1
  -4  12   7    2.00    5.30   1
   4 -12  -6   12.70    5.60   1
  -4  12   6    3.10    7.10   1
   4 -12  -5   14.60    5.80   1
  -4  12   5   14.60    7.10   1
   4 -12  -4   17.40    5.10   1
  -4  12   4   20.20    7.10   1
   4 -12  -3   48.70    5.70   1
  -4  12   3   33.00    7.10   1
   4 -12  -2    0.90    4.90   1
  -4  12   2   -1.20    6.10   1
   4 -12  -1  299.00   17.90   1
  -4  12   1  285.60   16.80   1
   4 -12   0  132.60    8.20   1
  -4  12   0  129.30   10.50   1
   4 -12   1    4.80    4.80   1
  -4  12  -1    6.10    4.00   1
   4 -12   2   28.40    5.40   1
  -4  12  -2   24.60    4.10   1
   4 -12   3   28.60    5.60   1
  -4  12  -3    2.10    7.30   1
   4 -12   4   -4.50    4.30   1
  -4  12  -4    1.20    5.80   1
   4 -12   5   15.30    5.80   1
  -4  12  -5   28.60   10.00   1
   4 -12   6    6.50    4.30   1
  -4  12  -6    5.00    7.00   1
   4 -12   7    2.20    6.40   1
  -4  12  -7   16.60    9.60   1
   4 -12   8    9.10   10.80   1
  -4  12  -8  -16.20    9.70   1
   4 -11  -9    4.70    4.60   1
  -4  11   9    4.80    5.40   1
   4 -11  -8   57.70   10.30   1
  -4  11   8   55.40    9.40   1
   4 -11  -7    1.80    3.60   1
  -4  11   7    8.60    5.20   1
   4 -11  -6   65.10    5.90   1
  -4  11   6   51.10    7.80   1
   4 -11  -5   81.20    4.80   1
  -4  11   5  105.60    8.40   1
   4 -11  -4   17.60    3.90   1
  -4  11   4   15.30    4.80   1
   4 -11  -3   63.20    5.30   1
  -4  11   3   73.20    7.00   1
   4 -11  -2   34.80    4.00   1
  -4  11   2   24.60    5.70   1
   4 -11  -1   84.30    8.30   1
  -4  11   1   77.90    7.80   1
   4 -11   0    3.50    4.00   1
  -4  11   0   -4.30    5.40   1
   4 -11   1   99.20    6.60   1
  -4  11  -1  112.10    5.70   1
   4 -11   2  241.50   11.00   1
  -4  11  -2  238.70   10.00   1
   4 -11   3  252.80   10.90   1
  -4  11  -3  219.60    9.90   1
   4 -11   4   28.80    4.60   1
  -4  11  -4   23.00    6.30   1
   4 -11   5   13.10    3.90   1
  -4  11  -5   20.50    3.90   1
   4 -11   6   19.90    3.70   1
  -4  11  -6   21.70    3.70   1
   4 -11   7   16.80    5.80   1
  -4  11  -7   29.90    5.40   1
   4 -11   8    8.30    7.50   1
  -4  11  -8    3.20    4.20   1
   4 -11   9  122.90   11.20   1
  -4  11  -9  120.50    8.80   1
   4 -10 -10   11.80    6.10   1
  -4  10  10    6.50    7.70   1
   4 -10  -9   14.90    5.40   1
  -4  10   9    8.00    7.10   1
   4 -10  -8  250.60   11.90   1
  -4  10   8  245.40   16.90   1
   4 -10  -7   10.30    3.70   1
  -4  10   7   14.50    4.70   1
   4 -10  -6   88.10    5.60   1
  -4  10   6   86.30    8.40   1
   4 -10  -5   50.80    4.90   1
  -4  10   5   49.90    6.60   1
   4 -10  -4  322.70   12.40   1
  -4  10   4  330.60   17.00   1
   4 -10  -3   21.60    3.90   1
  -4  10   3   14.30    5.00   1
   4 -10  -2    4.90    3.00   1
  -4  10   2   -1.00    3.30   1
   4 -10  -1  151.30    7.20   1
  -4  10   1  138.70    9.90   1
   4 -10   0   12.40    3.70   1
  -4  10   0   23.80    5.90   1
   4 -10   1   -4.30    3.40   1
  -4  10  -1    6.90    3.00   1
   4 -10   2    2.50    2.90   1
  -4  10  -2    0.70    1.50   1
   4 -10   3    3.30    4.00   1
  -4  10  -3    3.90    1.40   1
   4 -10   4  127.30    6.80   1
  -4  10  -4  123.90    4.20   1
   4 -10   5   17.20    3.50   1
  -4  10  -5   21.90    2.50   1
   4 -10   6  370.10   11.80   1
  -4  10  -6  387.80   11.70   1
   4 -10   7    4.60    3.30   1
  -4  10  -7    8.20    2.70   1
   4 -10   8    1.00    9.00   1
  -4  10  -8    3.10    3.10   1
   4 -10   9    4.20    6.70   1
  -4  10  -9   -1.00    3.80   1
   4 -10  10   -9.50    6.10   1
  -4  10 -10    4.80    4.10   1
   4  -9 -11   27.30    6.40   1
  -4   9  11   29.60    8.50   1
   4  -9 -10    5.20    5.00   1
  -4   9  10   13.00    6.90   1
   4  -9  -9   63.10    6.30   1
  -4   9   9   62.40    8.50   1
   4  -9  -8  211.70   10.20   1
  -4   9   8  213.00   14.60   1
   4  -9  -7  106.70    5.00   1
  -4   9   7  109.70    9.10   1
   4  -9  -6  172.10    7.90   1
  -4   9   6  185.10   10.70   1
   4  -9  -5    8.80    3.60   1
  -4   9   5    1.20    4.80   1
   4  -9  -4  260.60    9.70   1
  -4   9   4  264.10   13.00   1
   4  -9  -3   46.30    3.70   1
  -4   9   3   46.10    5.30   1
   4  -9  -2   20.20    3.50   1
  -4   9   2   24.50    4.70   1
   4  -9  -1   -3.50    3.10   1
  -4   9   1    6.70    4.40   1
   4  -9   0   -0.60    4.10   1
  -4   9   0    4.30    3.30   1
   4  -9   1    0.30    2.70   1
  -4   9  -1    2.50    1.20   1
   4  -9   2  759.10   23.10   1
  -4   9  -2  740.50   15.20   1
   4  -9   3   35.00    3.90   1
  -4   9  -3   32.20    1.90   1
   4  -9   4    9.60    3.60   1
  -4   9  -4   11.70    1.60   1
   4  -9   5   26.60    4.40   1
  -4   9  -5   19.90    2.20   1
   4  -9   6   10.90    3.00   1
  -4   9  -6   12.80    2.30   1
   4  -9   7    1.50    4.00   1
  -4   9  -7    1.00    2.60   1
   4  -9   8   24.50    3.40   1
  -4   9  -8   25.10    3.20   1
   4  -9   9    7.00    9.80   1
  -4   9  -9   19.70    3.80   1
   4  -9  10   78.70    8.80   1
  -4   9 -10   81.60    6.20   1
   4  -9  11  -12.60    7.20   1
  -4   9 -11   -2.50    4.70   1
   4  -8 -12   37.60    6.80   1
  -4   8  12   53.80   10.20   1
   4  -8 -11   19.60    4.50   1
  -4   8  11   24.70    7.70   1
   4  -8 -10  169.30    7.80   1
  -4   8  10  166.90   14.30   1
   4  -8  -9   46.70    3.90   1
  -4   8   9   41.40    6.30   1
   4  -8  -8  456.10   13.70   1
  -4   8   8  454.90   22.50   1
   4  -8  -7    6.00    2.40   1
  -4   8   7    8.50    4.40   1
   4  -8  -6   14.20    2.40   1
  -4   8   6   18.80    4.40   1
   4  -8  -5   -0.20    2.00   1
  -4   8   5    0.60    3.70   1
   4  -8  -4   54.70    3.00   1
  -4   8   4   52.30    5.40   1
   4  -8  -3   13.30    2.80   1
  -4   8   3    3.50    3.60   1
   4  -8  -2   67.90    4.00   1
  -4   8   2   69.40    5.30   1
   4  -8  -1  204.30    7.40   1
  -4   8   1  198.30   10.30   1
   4  -8   0   41.00    3.50   1
  -4   8   0   33.40    4.90   1
   4  -8   1   50.10    4.80   1
  -4   8  -1   48.90    2.30   1
   4  -8   2   18.30    2.10   1
  -4   8  -2   18.40    1.40   1
   4  -8   3  107.70    4.30   1
  -4   8  -3  109.20    3.20   1
   4  -8   4  110.60    5.40   1
  -4   8  -4  103.30    2.60   1
   4  -8   5    0.70    3.80   1
  -4   8  -5   -0.30    1.30   1
   4  -8   6  419.30   12.10   1
  -4   8  -6  426.60    9.80   1
   4  -8   7    1.00    2.70   1
  -4   8  -7    2.10    1.80   1
   4  -8   8    4.90    2.70   1
  -4   8  -8    3.90    2.10   1
   4  -8   9   21.50    5.10   1
  -4   8  -9   13.30    3.40   1
   4  -8  10   38.40    6.70   1
  -4   8 -10   35.50    4.30   1
   4  -8  11    5.10    6.70   1
  -4   8 -11    3.90    3.60   1
   4  -7 -12   30.70    6.20   1
  -4   7  12   35.20    8.70   1
   4  -7 -11   33.40    5.60   1
  -4   7  11   25.40    7.20   1
   4  -7 -10   -2.40    4.20   1
  -4   7  10   -4.00    5.40   1
   4  -7  -9   -1.10    3.40   1
  -4   7   9   -1.00    4.60   1
   4  -7  -8   67.00    4.90   1
  -4   7   8   72.10    6.70   1
   4  -7  -7   -2.80    3.10   1
  -4   7   7   -1.20    3.90   1
   4  -7  -6  341.10   11.10   1
  -4   7   6  366.50   16.30   1
   4  -7  -5  509.30   15.40   1
  -4   7   5  543.00   22.50   1
   4  -7  -4   36.30    2.00   1
  -4   7   4   38.30    4.20   1
   4  -7  -3   53.70    2.10   1
  -4   7   3   57.40    5.00   1
   4  -7  -2    1.60    1.80   1
  -4   7   2    0.70    2.20   1
   4  -7  -1   10.40    3.90   1
  -4   7   1    6.80    2.40   1
   4  -7   0   47.00    4.50   1
  -4   7   0   55.80    4.20   1
   4  -7   1    2.00    1.40   1
  -4   7  -1    1.00    1.10   1
   4  -7   2   99.30    3.50   1
  -4   7  -2   96.10    2.60   1
   4  -7   3  144.60    4.80   1
  -4   7  -3  145.80    3.60   1
   4  -7   4  131.70    7.40   1
  -4   7  -4  132.20    3.00   1
   4  -7   5   66.00    3.30   1
  -4   7  -5   64.70    2.30   1
   4  -7   6    5.50    2.20   1
  -4   7  -6    9.70    1.40   1
   4  -7   7   86.40    4.30   1
  -4   7  -7   92.80    3.90   1
   4  -7   8   46.70    5.90   1
  -4   7  -8   47.30    2.90   1
   4  -7   9  194.40    7.90   1
  -4   7  -9  181.70    7.30   1
   4  -7  10    7.90    4.00   1
  -4   7 -10   13.80    3.80   1
   4  -7  11   -1.90    5.80   1
  -4   7 -11    1.40    2.60   1
   4  -7  12   -8.70    7.00   1
  -4   7 -12    3.10    5.60   1
   4  -6 -13   16.80    6.30   1
  -4   6  13   20.40    8.70   1
   4  -6 -12   11.90    5.40   1
  -4   6  12   12.10    7.50   1
   4  -6 -11  112.20    7.60   1
  -4   6  11  122.20    9.70   1
   4  -6 -10   98.50    6.50   1
  -4   6  10  100.20    9.00   1
   4  -6  -9    4.90    2.40   1
  -4   6   9    5.20    4.30   1
   4  -6  -8    5.10    2.00   1
  -4   6   8    0.70    3.80   1
   4  -6  -7    3.10    2.70   1
  -4   6   7    6.20    3.50   1
   4  -6  -6    6.30    1.10   1
  -4   6   6    5.80    1.10   1
   4  -6  -5    7.00    2.30   1
  -4   6   5    7.10    2.90   1
   4  -6  -4  108.10    4.60   1
  -4   6   4   99.30    5.60   1
   4  -6  -3   89.90    3.80   1
  -4   6   3   95.60    5.40   1
   4  -6  -2  196.90    6.70   1
  -4   6   2  206.30    9.70   1
   4  -6  -1  910.60   24.00   1
  -4   6   1  897.90   34.00   1
   4  -6   0   62.50    2.10   1
  -4   6   0   64.60    2.50   1
   4  -6   1    0.20    1.30   1
  -4   6  -1    0.30    1.10   1
   4  -6   2  130.20    3.90   1
  -4   6  -2  129.70    3.00   1
   4  -6   3  274.70    7.70   1
  -4   6  -3  259.20    4.50   1
   4  -6   4  808.20   24.80   1
  -4   6  -4  781.60   13.20   1
   4  -6   5   54.00    3.90   1
  -4   6  -5   59.40    2.00   1
   4  -6   6  267.00    8.20   1
  -4   6  -6  251.90    6.10   1
   4  -6   7    8.00    2.20   1
  -4   6  -7   13.10    2.00   1
   4  -6   8  156.10    6.10   1
  -4   6  -8  167.00    5.30   1
   4  -6   9   24.40    3.60   1
  -4   6  -9   28.30    3.30   1
   4  -6  10   58.40    4.50   1
  -4   6 -10   55.70    4.20   1
   4  -6  11   21.60    4.20   1
  -4   6 -11   14.10    3.40   1
   4  -6  12   -0.50    5.70   1
  -4   6 -12    1.30    3.70   1
   4  -5 -13   59.40    7.20   1
  -4   5  13   74.90   10.00   1
   4  -5 -12    0.50    3.80   1
  -4   5  12   -0.20    6.10   1
   4  -5 -11   21.80    3.50   1
  -4   5  11   28.20    6.70   1
   4  -5 -10   13.30    3.80   1
  -4   5  10   10.40    4.60   1
   4  -5  -9   32.80    3.70   1
  -4   5   9   31.50    3.20   1
   4  -5  -8    2.40    2.70   1
  -4   5   8    0.00    3.50   1
   4  -5  -7    1.50    2.40   1
  -4   5   7    1.80    1.50   1
   4  -5  -6  196.80    6.50   1
  -4   5   6  192.80    6.10   1
   4  -5  -5  245.30    5.80   1
  -4   5   5  242.70    6.70   1
   4  -5  -4   28.80    1.30   1
  -4   5   4   28.00    2.80   1
   4  -5  -3   22.70    1.80   1
  -4   5   3   25.00    2.10   1
   4  -5  -2   40.60    1.50   1
  -4   5   2   44.40    2.50   1
   4  -5  -1  555.60   12.90   1
  -4   5   1  545.30   12.70   1
   4  -5   0  321.30    7.50   1
  -4   5   0  327.70    6.10   1
   4  -5   1 1543.70   27.80   1
  -4   5  -1 1491.30   24.10   1
   4  -5   2  326.10    6.90   1
  -4   5  -2  321.30    5.90   1
   4  -5   3  607.10   14.40   1
  -4   5  -3  581.30    9.10   1
   4  -5   4  110.10    3.30   1
  -4   5  -4  107.80    2.30   1
   4  -5   5    2.70    2.70   1
  -4   5  -5   -0.20    1.00   1
   4  -5   6   -0.20    1.60   1
  -4   5  -6    0.50    1.20   1
   4  -5   7  157.00    7.00   1
  -4   5  -7  147.20    4.20   1
   4  -5   8  119.10    5.00   1
  -4   5  -8  133.70    4.20   1
   4  -5   9  374.80   11.40   1
  -4   5  -9  365.90   10.60   1
   4  -5  10   29.30    3.80   1
  -4   5 -10   27.30    4.70   1
   4  -5  11  187.50    8.30   1
  -4   5 -11  180.90    7.70   1
   4  -5  12   32.00    6.20   1
  -4   5 -12   21.20    4.30   1
   4  -5  13    7.20   11.60   1
  -4   5 -13   11.80    4.10   1
   4  -4 -14   14.80    6.50   1
  -4   4  14    3.20    8.80   1
   4  -4 -13   12.70    4.80   1
  -4   4  13    6.20    7.50   1
   4  -4 -12    9.70    4.70   1
  -4   4  12   10.40    6.10   1
   4  -4 -11  118.70    7.00   1
  -4   4  11  120.00    9.50   1
   4  -4 -10   57.70    4.90   1
  -4   4  10   68.50    6.10   1
   4  -4  -9   86.10    3.80   1
  -4   4   9   99.40    4.80   1
   4  -4  -8  104.90    4.10   1
  -4   4   8  105.20    4.50   1
   4  -4  -7   43.40    2.50   1
  -4   4   7   45.20    2.50   1
   4  -4  -6  180.00    4.90   1
  -4   4   6  176.10    5.40   1
   4  -4  -5   34.70    1.50   1
  -4   4   5   36.90    1.60   1
   4  -4  -4  268.80    4.70   1
  -4   4   4  275.50    8.20   1
   4  -4  -3 1482.50   25.00   1
  -4   4   3 1489.80   35.80   1
   4  -4  -2   45.90    1.20   1
  -4   4   2   47.40    1.90   1
   4  -4  -1 1260.70   21.80   1
  -4   4   1 1267.20   25.50   1
   4  -4   0  396.30    7.90   1
  -4   4   0  394.40    7.00   1
   4  -4   1  168.50    4.30   1
  -4   4  -1  168.30    3.10   1
   4  -4   2   44.60    1.60   1
  -4   4  -2   44.40    1.30   1
   4  -4   3    7.00    1.20   1
  -4   4  -3    8.80    0.90   1
   4  -4   4   23.50    1.50   1
  -4   4  -4   24.60    1.20   1
   4  -4   5   33.40    2.80   1
  -4   4  -5   39.00    1.30   1
   4  -4   6  225.10    6.60   1
  -4   4  -6  228.00    4.10   1
   4  -4   7  135.00    6.50   1
  -4   4  -7  134.70    3.30   1
   4  -4   8   12.00    1.80   1
  -4   4  -8   16.60    1.90   1
   4  -4   9   -0.80    2.80   1
  -4   4  -9   -0.50    2.20   1
   4  -4  10    1.30    3.00   1
  -4   4 -10    2.80    3.90   1
   4  -4  11  152.70    7.30   1
  -4   4 -11  151.70    6.80   1
   4  -4  12   31.70    6.20   1
  -4   4 -12   39.60    4.40   1
   4  -4  13   64.60    8.50   1
  -4   4 -13   64.70    6.00   1
   4  -3 -14    7.20    6.00   1
  -4   3  14    4.10    8.80   1
   4  -3 -13  399.70   20.20   1
  -4   3  13  406.60   30.70   1
   4  -3 -12   48.90    4.60   1
  -4   3  12   60.50    7.80   1
   4  -3 -11   23.60    3.40   1
  -4   3  11   26.20    4.10   1
   4  -3 -10    6.60    2.50   1
  -4   3  10   10.80    3.30   1
   4  -3  -9   37.70    2.90   1
  -4   3   9   33.80    2.40   1
   4  -3  -8   65.20    3.10   1
  -4   3   8   70.10    3.00   1
   4  -3  -7  503.00   11.60   1
  -4   3   7  497.50    9.50   1
   4  -3  -6   43.20    2.10   1
  -4   3   6   42.70    1.70   1
   4  -3  -5   42.50    1.70   1
  -4   3   5   45.20    1.70   1
   4  -3  -4  327.50    5.20   1
  -4   3   4  315.50    6.90   1
   4  -3  -3 1233.40   15.00   1
  -4   3   3 1197.20   28.20   1
   4  -3  -2   43.70    1.00   1
  -4   3   2   43.50    1.60   1
   4  -3  -1  264.30    4.30   1
  -4   3   1  264.20    4.90   1
   4  -3   0   16.30    0.70   1
  -4   3   0   16.90    0.90   1
   4  -3   1 1509.80   26.20   1
  -4   3  -1 1502.60   23.20   1
   4  -3   2  413.20    9.10   1
  -4   3  -2  405.40    6.50   1
   4  -3   3  301.60    5.40   1
  -4   3  -3  310.20    4.80   1
   4  -3   4   60.50    1.90   1
  -4   3  -4   62.00    1.60   1
   4  -3   5    2.10    1.00   1
  -4   3  -5    2.40    0.80   1
   4  -3   6   40.50    1.90   1
  -4   3  -6   45.10    1.50   1
   4  -3   7    3.40    1.10   1
  -4   3  -7    3.30    1.30   1
   4  -3   8   57.10    3.30   1
  -4   3  -8   50.70    2.80   1
   4  -3   9   17.30    3.00   1
  -4   3  -9   15.70    3.60   1
   4  -3  10   17.60    3.00   1
  -4   3 -10   24.10    2.80   1
   4  -3  11  129.00    6.50   1
  -4   3 -11  141.20    6.30   1
   4  -3  12    5.30    5.40   1
  -4   3 -12    1.80    3.70   1
   4  -3  13    9.90    6.50   1
  -4   3 -13   14.40    4.10   1
   4  -2 -14    1.10    6.00   1
  -4   2  14   -1.50    8.20   1
   4  -2 -13   -1.00    4.10   1
  -4   2  13    5.70    5.20   1
   4  -2 -12   71.90    5.20   1
  -4   2  12   46.50    5.60   1
   4  -2 -11   23.60    3.20   1
  -4   2  11   33.30    4.20   1
   4  -2 -10  477.20   14.10   1
  -4   2  10  524.70   17.70   1
   4  -2  -9  349.60   10.10   1
  -4   2   9  366.70    9.20   1
   4  -2  -8   95.80    3.80   1
  -4   2   8   97.20    3.30   1
   4  -2  -7  185.80    5.10   1
  -4   2   7  189.90    4.40   1
   4  -2  -6  144.00    3.70   1
  -4   2   6  141.30    3.00   1
   4  -2  -5   51.50    1.60   1
  -4   2   5   53.40    1.50   1
   4  -2  -4   58.90    1.40   1
  -4   2   4   58.10    1.50   1
   4  -2  -3 1081.70   14.20   1
  -4   2   3 1031.60   17.50   1
   4  -2  -2   50.00    1.00   1
  -4   2   2   48.30    1.50   1
   4  -2  -1   81.60    1.50   1
  -4   2   1   84.40    1.90   1
   4  -2   0  731.10   10.70   1
  -4   2   0  698.80   11.40   1
   4  -2   1  275.70    4.20   1
  -4   2  -1  273.00    4.30   1
   4  -2   2    2.00    0.70   1
  -4   2  -2    1.20    0.70   1
   4  -2   3   -0.60    0.70   1
  -4   2  -3   -0.90    0.70   1
   4  -2   4  109.90    3.10   1
  -4   2  -4  106.70    2.60   1
   4  -2   5   15.40    0.80   1
  -4   2  -5   13.50    1.30   1
   4  -2   6  442.70   11.10   1
  -4   2  -6  457.50    9.50   1
   4  -2   7  177.30    6.00   1
  -4   2  -7  182.80    4.70   1
   4  -2   8    5.60    2.20   1
  -4   2  -8    5.00    2.10   1
   4  -2   9    0.50    2.10   1
  -4   2  -9    0.40    2.30   1
   4  -2  10   36.30    3.30   1
  -4   2 -10   37.50    3.10   1
   4  -2  11  125.60    8.40   1
  -4   2 -11  145.40    6.30   1
   4  -2  12   -1.60    5.00   1
  -4   2 -12    5.30    3.70   1
   4  -2  13   11.70    6.20   1
  -4   2 -13    3.00    4.50   1
   4  -2  14   -2.20    7.10   1
  -4   2 -14   17.10    6.50   1
   4  -1 -14   39.30    6.00   1
  -4   1  14   41.90    7.40   1
   4  -1 -13   11.70    4.30   1
  -4   1  13   18.80    5.30   1
   4  -1 -12   19.20    3.90   1
  -4   1  12   24.00    3.70   1
   4  -1 -11    3.70    3.00   1
  -4   1  11    0.60    2.60   1
   4  -1 -10   17.90    2.80   1
  -4   1  10   25.90    3.60   1
   4  -1  -9   11.00    2.20   1
  -4   1   9   16.90    3.00   1
   4  -1  -8  148.90    5.00   1
  -4   1   8  152.30    6.00   1
   4  -1  -7    5.20    1.60   1
  -4   1   7    8.30    1.50   1
   4  -1  -6 1390.90   22.30   1
  -4   1   6 1331.50   20.80   1
   4  -1  -5    2.40    0.90   1
  -4   1   5    1.70    0.80   1
   4  -1  -4    0.60    0.60   1
  -4   1   4    0.50    0.60   1
   4  -1  -3   45.10    1.00   1
  -4   1   3   43.10    1.20   1
   4  -1  -2    0.50    0.40   1
  -4   1   2    1.70    0.50   1
   4  -1  -1   55.70    1.10   1
  -4   1   1   53.00    1.30   1
   4  -1   0   30.70    0.80   1
  -4   1   0   30.00    1.10   1
   4  -1   1 2202.30   27.30   1
  -4   1  -1 2061.10   28.60   1
   4  -1   2    9.50    0.60   1
  -4   1  -2   12.40    0.90   1
   4  -1   3   24.70    0.80   1
  -4   1  -3   26.00    1.20   1
   4  -1   4 1114.20   16.50   1
  -4   1  -4 1073.40   17.80   1
   4  -1   5   72.10    2.50   1
  -4   1  -5   69.20    2.00   1
   4  -1   6   32.30    2.20   1
  -4   1  -6   29.60    2.10   1
   4  -1   7  310.10    8.30   1
  -4   1  -7  291.60    7.20   1
   4  -1   8  557.70   14.40   1
  -4   1  -8  541.10   13.20   1
   4  -1   9    1.60    2.30   1
  -4   1  -9    2.20    2.60   1
   4  -1  10    8.10    2.50   1
  -4   1 -10    6.80    2.20   1
   4  -1  11  120.20    7.70   1
  -4   1 -11  123.40    5.90   1
   4  -1  12    4.60    5.30   1
  -4   1 -12    0.50    3.80   1
   4  -1  13    7.80    5.20   1
  -4   1 -13    2.70    3.40   1
   4  -1  14    9.70    7.70   1
  -4   1 -14   23.30    6.70   1
   4   0 -14   41.30    5.60   1
  -4   0  14   31.20    6.60   1
   4   0 -13   -2.30    4.10   1
  -4   0  13   -6.60    4.90   1
   4   0 -12   32.40    4.10   1
  -4   0  12   36.10    5.40   1
   4   0 -11    2.70    3.20   1
  -4   0  11   -0.50    2.50   1
   4   0 -10  416.00   12.00   1
  -4   0  10  424.20   12.20   1
   4   0  -9   -2.40    2.70   1
  -4   0   9    2.90    2.10   1
   4   0  -8   12.90    2.10   1
  -4   0   8   18.30    2.00   1
   4   0  -7   -0.10    1.30   1
  -4   0   7   -0.50    1.50   1
   4   0  -6    5.60    1.10   1
  -4   0   6    6.80    0.80   1
   4   0  -5    1.10    0.90   1
  -4   0   5    1.70    0.70   1
   4   0  -4  143.40    2.70   1
  -4   0   4  132.60    2.40   1
   4   0  -3    0.50    0.50   1
  -4   0   3    0.00    0.60   1
   4   0  -2 1191.90   14.60   1
  -4   0   2 1135.50   17.30   1
   4   0  -1   -1.10    0.60   1
  -4   0   1   -0.30    0.80   1
   4   0   0   64.70    1.50   1
  -4   0   0   65.70    1.60   1
   4   0   1    0.50    0.40   1
  -4   0  -1    0.60    0.50   1
   4   0   2   96.30    1.50   1
  -4   0  -2   96.00    2.20   1
   4   0   3   -1.00    0.40   1
  -4   0  -3    0.20    0.80   1
   4   0   4 5119.90   69.00   1
  -4   0  -4 4775.50   64.10   1
   4   0   5    0.10    1.10   1
  -4   0  -5    0.00    1.20   1
   4   0   6 1181.10   32.50   1
  -4   0  -6 1089.00   22.50   1
   4   0   7   -0.80    1.50   1
  -4   0  -7   -1.20    1.50   1
   4   0   8  494.40   12.90   1
  -4   0  -8  498.20   12.60   1
   4   0   9    1.20    1.90   1
  -4   0  -9    0.50    2.50   1
   4   0  10    6.90    3.80   1
  -4   0 -10    6.40    2.90   1
   4   0  11   -9.10    4.10   1
  -4   0 -11   -3.70    3.20   1
   4   0  12   21.50    5.60   1
  -4   0 -12   13.70    4.00   1
   4   0  13    1.70    5.80   1
  -4   0 -13    2.40    3.40   1
   4   0  14  138.30   10.70   1
  -4   0 -14  142.30    8.90   1
   4   1 -14   38.50    5.60   1
  -4  -1  14   28.80    6.80   1
   4   1 -13   18.40    4.70   1
  -4  -1  13   16.10    5.30   1
   4   1 -12   17.50    4.20   1
  -4  -1  12   21.60    5.10   1
   4   1 -11    2.60    3.20   1
  -4  -1  11    3.50    3.80   1
   4   1 -10   12.70    3.10   1
  -4  -1  10   15.50    2.70   1
   4   1  -9    8.70    2.50   1
  -4  -1   9   10.40    1.90   1
   4   1  -8  135.80    4.60   1
  -4  -1   8  143.30    4.30   1
   4   1  -7    7.20    1.40   1
  -4  -1   7    5.80    1.50   1
   4   1  -6 1351.60   24.70   1
  -4  -1   6 1314.30   24.10   1
   4   1  -5    2.00    0.90   1
  -4  -1   5    2.30    0.90   1
   4   1  -4    1.90    0.60   1
  -4  -1   4   -0.50    0.80   1
   4   1  -3   42.30    1.00   1
  -4  -1   3   43.10    1.30   1
   4   1  -2    0.90    0.40   1
  -4  -1   2    2.40    0.50   1
   4   1  -1   55.80    1.60   1
  -4  -1   1   57.80    1.60   1
   4   1   0   29.40    0.70   1
  -4  -1   0   30.20    0.90   1
   4   1   1 2152.30   25.70   1
  -4  -1  -1 2022.80   27.30   1
   4   1   2   11.40    0.60   1
  -4  -1  -2   10.10    0.60   1
   4   1   3   25.70    0.80   1
  -4  -1  -3   26.30    0.90   1
   4   1   4 1111.20   16.40   1
  -4  -1  -4 1096.10   17.50   1
   4   1   5   69.90    1.80   1
  -4  -1  -5   73.60    2.40   1
   4   1   6   27.30    1.40   1
  -4  -1  -6   31.70    2.20   1
   4   1   7  302.20    7.60   1
  -4  -1  -7  310.50    7.90   1
   4   1   8  559.60   12.90   1
  -4  -1  -8  513.20   12.40   1
   4   1   9   -3.30    3.20   1
  -4  -1  -9   -4.00    2.60   1
   4   1  10    5.00    3.80   1
  -4  -1 -10    6.10    2.80   1
   4   1  11  119.50    7.10   1
  -4  -1 -11  129.20    6.00   1
   4   1  12    5.10    4.20   1
  -4  -1 -12   -9.90    3.40   1
   4   1  13    5.70    5.00   1
  -4  -1 -13   -4.50    3.90   1
   4   1  14   17.10    7.10   1
  -4  -1 -14   22.40    7.00   1
   4   2 -14    7.40    5.20   1
  -4  -2  14   -3.80    5.90   1
   4   2 -13    5.80    4.80   1
  -4  -2  13    0.30    5.30   1
   4   2 -12   61.00    5.10   1
  -4  -2  12   68.40    6.30   1
   4   2 -11   31.40    3.90   1
  -4  -2  11   26.60    4.50   1
   4   2 -10  466.90   13.60   1
  -4  -2  10  493.10   11.50   1
   4   2  -9  329.50   11.70   1
  -4  -2   9  340.00    8.70   1
   4   2  -8   92.40    3.40   1
  -4  -2   8   89.00    3.20   1
   4   2  -7  181.00    5.20   1
  -4  -2   7  181.70    5.50   1
   4   2  -6  134.80    3.20   1
  -4  -2   6  133.90    3.40   1
   4   2  -5   50.10    1.60   1
  -4  -2   5   49.30    1.80   1
   4   2  -4   55.10    1.30   1
  -4  -2   4   54.20    1.50   1
   4   2  -3 1076.50   14.10   1
  -4  -2   3 1030.30   19.10   1
   4   2  -2   46.40    1.10   1
  -4  -2   2   48.70    1.60   1
   4   2  -1   80.40    1.40   1
  -4  -2   1   81.10    1.70   1
   4   2   0  738.00    9.20   1
  -4  -2   0  694.80   10.10   1
   4   2   1  280.30    4.10   1
  -4  -2  -1  268.80    4.10   1
   4   2   2    0.20    0.40   1
  -4  -2  -2    0.70    0.60   1
   4   2   3    0.00    0.50   1
  -4  -2  -3    0.10    0.60   1
   4   2   4  110.50    2.40   1
  -4  -2  -4  108.50    2.40   1
   4   2   5   15.70    0.90   1
  -4  -2  -5   16.00    1.40   1
   4   2   6  475.20   11.10   1
  -4  -2  -6  444.80   10.30   1
   4   2   7  179.90    5.60   1
  -4  -2  -7  185.20    5.40   1
   4   2   8    3.30    2.70   1
  -4  -2  -8    4.90    2.20   1
   4   2   9    3.60    2.70   1
  -4  -2  -9    1.00    2.60   1
   4   2  10   47.10    4.90   1
  -4  -2 -10   41.60    3.60   1
   4   2  11  138.90    8.20   1
  -4  -2 -11  151.80    6.60   1
   4   2  12   13.40    5.50   1
  -4  -2 -12    6.60    4.10   1
   4   2  13   -8.10    5.70   1
  -4  -2 -13    4.60    4.70   1
   4   2  14    2.10    9.10   1
   4   3 -14    4.50    6.30   1
  -4  -3  14   -2.90    6.70   1
   4   3 -13  367.40   14.80   1
  -4  -3  13  385.40   20.10   1
   4   3 -12   47.50    4.90   1
  -4  -3  12   43.90    6.00   1
   4   3 -11   22.10    4.50   1
  -4  -3  11   25.30    3.90   1
   4   3 -10    3.50    3.60   1
  -4  -3  10    1.00    3.10   1
   4   3  -9   27.80    3.70   1
  -4  -3   9   33.50    2.40   1
   4   3  -8   66.40    2.80   1
  -4  -3   8   63.80    2.80   1
   4   3  -7  468.30   10.30   1
  -4  -3   7  473.80   10.60   1
   4   3  -6   37.10    1.50   1
  -4  -3   6   38.70    1.80   1
   4   3  -5   41.90    1.40   1
  -4  -3   5   47.50    2.10   1
   4   3  -4  317.60    5.30   1
  -4  -3   4  321.70    6.80   1
   4   3  -3 1227.60   14.50   1
  -4  -3   3 1183.10   21.80   1
   4   3  -2   41.60    1.00   1
  -4  -3   2   41.00    1.50   1
   4   3  -1  271.80    4.20   1
  -4  -3   1  263.80    5.50   1
   4   3   0   17.00    0.70   1
  -4  -3   0   16.30    0.70   1
   4   3   1 1566.60   18.60   1
  -4  -3  -1 1468.20   19.20   1
   4   3   2  429.70    5.90   1
  -4  -3  -2  392.60    5.70   1
   4   3   3  331.00    5.20   1
  -4  -3  -3  317.80    5.30   1
   4   3   4   66.80    1.80   1
  -4  -3  -4   63.20    1.80   1
   4   3   5    2.60    1.00   1
  -4  -3  -5    0.60    1.00   1
   4   3   6   46.00    1.90   1
  -4  -3  -6   46.40    1.60   1
   4   3   7    6.30    1.90   1
  -4  -3  -7    1.00    2.00   1
   4   3   8   60.60    4.10   1
  -4  -3  -8   59.10    4.00   1
   4   3   9   12.20    3.50   1
  -4  -3  -9   16.00    2.90   1
   4   3  10   23.30    4.30   1
  -4  -3 -10   27.40    3.00   1
   4   3  11  136.40    7.60   1
  -4  -3 -11  140.70    6.40   1
   4   3  12    0.20    5.10   1
  -4  -3 -12    4.00    4.10   1
   4   3  13    0.70    6.10   1
  -4  -3 -13    7.50    4.70   1
   4   4 -14   -0.30    9.60   1
  -4  -4  14    1.50    7.50   1
   4   4 -13   -2.30    5.30   1
  -4  -4  13   11.10    6.10   1
   4   4 -12    9.40    5.20   1
  -4  -4  12   11.30    4.40   1
   4   4 -11  110.60    7.20   1
  -4  -4  11  103.70    5.80   1
   4   4 -10   57.20    5.30   1
  -4  -4  10   53.00    3.90   1
   4   4  -9   73.90    5.00   1
  -4  -4   9   73.10    4.30   1
   4   4  -8   97.50    5.40   1
  -4  -4   8   99.90    4.50   1
   4   4  -7   41.90    2.70   1
  -4  -4   7   42.10    2.90   1
   4   4  -6  167.10    5.30   1
  -4  -4   6  166.40    5.60   1
   4   4  -5   32.20    1.80   1
  -4  -4   5   35.50    2.00   1
   4   4  -4  258.80    5.40   1
  -4  -4   4  262.70    6.10   1
   4   4  -3 1389.80   25.60   1
  -4  -4   3 1412.40   26.50   1
   4   4  -2   46.20    1.20   1
  -4  -4   2   43.50    1.60   1
   4   4  -1 1267.30   16.90   1
  -4  -4   1 1210.70   21.80   1
   4   4   0  397.30    6.90   1
  -4  -4   0  378.60    6.20   1
   4   4   1  169.90    3.30   1
  -4  -4  -1  172.30    3.20   1
   4   4   2   41.80    1.40   1
  -4  -4  -2   42.60    1.10   1
   4   4   3    7.30    1.10   1
  -4  -4  -3    6.10    0.90   1
   4   4   4   23.40    1.50   1
  -4  -4  -4   22.60    1.20   1
   4   4   5   39.60    2.10   1
  -4  -4  -5   37.50    2.20   1
   4   4   6  247.90    6.30   1
  -4  -4  -6  234.10    5.20   1
   4   4   7  138.10    4.50   1
  -4  -4  -7  142.90    4.80   1
   4   4   8   10.20    3.10   1
  -4  -4  -8   16.00    2.50   1
   4   4   9    4.40    3.50   1
  -4  -4  -9    3.20    2.70   1
   4   4  10   10.70    4.10   1
  -4  -4 -10   -3.80    3.20   1
   4   4  11  173.20    9.70   1
  -4  -4 -11  165.20    7.40   1
   4   4  12   40.70    6.40   1
  -4  -4 -12   30.80    4.30   1
   4   4  13   60.30    8.20   1
  -4  -4 -13   61.60    6.00   1
   4   5 -13   65.40    6.50   1
  -4  -5  13   60.50    6.50   1
   4   5 -12    7.50    5.50   1
  -4  -5  12    5.10    4.70   1
   4   5 -11   20.60    5.20   1
  -4  -5  11   31.10    4.60   1
   4   5 -10   20.70    4.50   1
  -4  -5  10   14.30    3.60   1
   4   5  -9   27.70    3.40   1
  -4  -5   9   33.60    3.30   1
   4   5  -8    5.10    3.20   1
  -4  -5   8    4.50    2.60   1
   4   5  -7    6.20    2.40   1
  -4  -5   7    2.80    2.20   1
   4   5  -6  183.00    5.70   1
  -4  -5   6  182.90    5.70   1
   4   5  -5  238.40    6.70   1
  -4  -5   5  213.50    6.10   1
   4   5  -4   23.80    1.70   1
  -4  -5   4   24.90    1.70   1
   4   5  -3   23.20    1.70   1
  -4  -5   3   20.70    1.50   1
   4   5  -2   37.40    1.30   1
  -4  -5   2   42.70    1.60   1
   4   5  -1  511.30    9.90   1
  -4  -5   1  525.10    8.80   1
   4   5   0  325.30    6.40   1
  -4  -5   0  321.90    5.50   1
   4   5   1 1528.90   24.90   1
  -4  -5  -1 1360.50   21.90   1
   4   5   2  323.40    6.90   1
  -4  -5  -2  320.30    5.20   1
   4   5   3  628.60   12.50   1
  -4  -5  -3  598.10    9.40   1
   4   5   4  117.60    3.70   1
  -4  -5  -4  112.50    3.10   1
   4   5   5    3.50    1.70   1
  -4  -5  -5    0.30    1.10   1
   4   5   6    1.80    1.80   1
  -4  -5  -6   -0.20    1.00   1
   4   5   7  160.60    6.20   1
  -4  -5  -7  146.80    3.40   1
   4   5   8  132.20    6.40   1
  -4  -5  -8  125.10    3.80   1
   4   5   9  365.80   13.70   1
  -4  -5  -9  382.80   11.00   1
   4   5  10   23.60    4.70   1
  -4  -5 -10   26.50    3.20   1
   4   5  11  190.50   10.30   1
  -4  -5 -11  186.80    7.90   1
   4   5  12   22.80    6.00   1
  -4  -5 -12   18.60    4.30   1
   4   5  13    7.30    6.30   1
  -4  -5 -13    6.60    5.20   1
   4   6 -13   16.50    7.10   1
  -4  -6  13   13.00    6.00   1
   4   6 -12    6.90    6.00   1
  -4  -6  12    8.00    4.20   1
   4   6 -11   98.50    7.80   1
  -4  -6  11   91.00    6.30   1
   4   6 -10   94.40    6.60   1
  -4  -6  10   93.70    5.50   1
   4   6  -9   10.90    2.90   1
  -4  -6   9    8.20    2.90   1
   4   6  -8   -0.70    3.50   1
  -4  -6   8    7.10    3.00   1
   4   6  -7    0.20    4.40   1
  -4  -6   7    9.00    3.50   1
   4   6  -6    7.80    2.80   1
  -4  -6   6    7.30    2.30   1
   4   6  -5    8.60    2.30   1
  -4  -6   5    6.10    2.60   1
   4   6  -4  105.20    6.90   1
  -4  -6   4  103.30    4.80   1
   4   6  -3   88.40    3.30   1
  -4  -6   3   89.40    3.10   1
   4   6  -2  193.20    4.50   1
  -4  -6   2  193.50    5.20   1
   4   6  -1  934.10   20.00   1
  -4  -6   1  900.10   14.30   1
   4   6   0   65.40    2.20   1
  -4  -6   0   63.70    1.80   1
   4   6   1    0.70    1.20   1
  -4  -6  -1   -0.70    0.90   1
   4   6   2  125.70    4.50   1
  -4  -6  -2  128.00    2.60   1
   4   6   3  267.10    7.30   1
  -4  -6  -3  254.20    5.10   1
   4   6   4  818.00   18.80   1
  -4  -6  -4  791.80   15.80   1
   4   6   5   62.90    3.00   1
  -4  -6  -5   57.20    2.40   1
   4   6   6  296.50    9.80   1
  -4  -6  -6  266.90    5.80   1
   4   6   7    8.50    2.50   1
  -4  -6  -7   10.40    1.40   1
   4   6   8  174.10    7.90   1
  -4  -6  -8  164.70    4.30   1
   4   6   9   30.40    4.30   1
  -4  -6  -9   27.20    3.40   1
   4   6  10   53.60    5.60   1
  -4  -6 -10   56.80    4.50   1
   4   6  11   29.10    5.50   1
  -4  -6 -11   23.60    4.50   1
   4   6  12    3.20    4.60   1
  -4  -6 -12   -2.30    4.90   1
  -4  -6 -13  129.60   12.80   1
   4   7 -12   38.90    7.00   1
  -4  -7  12   36.70    5.20   1
   4   7 -11   32.10    6.10   1
  -4  -7  11   31.40    5.50   1
   4   7 -10   -2.80    4.90   1
  -4  -7  10   -2.50    4.20   1
   4   7  -9    4.20    4.20   1
  -4  -7   9    4.50    3.60   1
   4   7  -8   67.00    5.30   1
  -4  -7   8   66.40    4.20   1
   4   7  -7    3.20    2.90   1
  -4  -7   7    0.50    2.20   1
   4   7  -6  297.50   10.30   1
  -4  -7   6  307.30   11.10   1
   4   7  -5  481.10   12.40   1
  -4  -7   5  508.70   15.90   1
   4   7  -4   35.60    2.40   1
  -4  -7   4   36.80    3.30   1
   4   7  -3   47.60    3.30   1
  -4  -7   3   54.20    2.80   1
   4   7  -2   -0.60    1.50   1
  -4  -7   2    0.60    2.10   1
   4   7  -1    9.50    1.40   1
  -4  -7   1   11.20    1.20   1
   4   7   0   46.20    2.20   1
  -4  -7   0   45.20    1.70   1
   4   7   1   -1.20    1.90   1
  -4  -7  -1    0.00    1.00   1
   4   7   2  103.00    4.40   1
  -4  -7  -2   96.00    2.60   1
   4   7   3  137.30    5.40   1
  -4  -7  -3  138.70    3.30   1
   4   7   4  142.40    5.90   1
  -4  -7  -4  135.80    3.10   1
   4   7   5   63.70    3.90   1
  -4  -7  -5   64.00    2.40   1
   4   7   6    5.50    2.90   1
  -4  -7  -6    7.50    1.50   1
   4   7   7   96.80    5.50   1
  -4  -7  -7   86.70    3.00   1
   4   7   8   49.50    4.70   1
  -4  -7  -8   41.10    2.20   1
   4   7   9  203.30   10.00   1
  -4  -7  -9  204.90    7.80   1
   4   7  10    9.60    5.10   1
  -4  -7 -10    3.30    3.70   1
   4   7  11    3.40    4.40   1
  -4  -7 -11   -2.60    3.60   1
   4   7  12    9.20    5.20   1
  -4  -7 -12    4.10    4.20   1
   4   8 -12   33.60    7.30   1
  -4  -8  12   16.80    6.10   1
   4   8 -11   15.50    5.40   1
  -4  -8  11   12.90    4.70   1
   4   8 -10  152.30    8.90   1
  -4  -8  10  154.40    8.00   1
   4   8  -9   39.10    5.70   1
  -4  -8   9   35.80    4.10   1
   4   8  -8  409.50   15.60   1
  -4  -8   8  415.40   12.60   1
   4   8  -7    2.90    3.80   1
  -4  -8   7    3.80    3.10   1
   4   8  -6   15.80    3.70   1
  -4  -8   6   13.60    3.00   1
   4   8  -5   -1.70    3.20   1
  -4  -8   5    1.50    2.60   1
   4   8  -4   47.30    3.80   1
  -4  -8   4   52.60    4.00   1
   4   8  -3    7.00    2.60   1
  -4  -8   3    8.00    2.30   1
   4   8  -2   60.60    3.50   1
  -4  -8   2   61.70    2.60   1
   4   8  -1  202.50    7.00   1
  -4  -8   1  186.30    5.00   1
   4   8   0   37.10    2.10   1
  -4  -8   0   37.80    1.90   1
   4   8   1   52.10    2.50   1
  -4  -8  -1   48.30    2.20   1
   4   8   2   19.50    2.70   1
  -4  -8  -2   16.90    1.50   1
   4   8   3  111.30    5.10   1
  -4  -8  -3  103.00    3.00   1
   4   8   4  110.70    5.10   1
  -4  -8  -4  104.30    2.80   1
   4   8   5    4.20    2.70   1
  -4  -8  -5    2.60    2.00   1
   4   8   6  485.70   14.90   1
  -4  -8  -6  430.90    9.30   1
   4   8   7    2.60    3.40   1
  -4  -8  -7   -0.30    1.60   1
   4   8   8    0.80    3.80   1
  -4  -8  -8    3.80    2.30   1
   4   8   9   19.50    4.20   1
  -4  -8  -9   17.50    3.40   1
   4   8  10   43.00    6.10   1
  -4  -8 -10   35.80    4.90   1
   4   8  11   -6.70    5.50   1
  -4  -8 -11    3.30    4.10   1
   4   9 -11   23.80    5.90   1
  -4  -9  11    8.10    4.80   1
   4   9 -10   12.80    5.90   1
  -4  -9  10    6.50    5.10   1
   4   9  -9   47.80    5.70   1
  -4  -9   9   39.50    4.80   1
   4   9  -8  191.40   10.00   1
  -4  -9   8  195.50    8.00   1
   4   9  -7   82.80    5.90   1
  -4  -9   7   85.40    4.90   1
   4   9  -6  165.80    8.50   1
  -4  -9   6  153.70    6.60   1
   4   9  -5    8.20    3.50   1
  -4  -9   5    9.90    2.40   1
   4   9  -4  244.20    9.90   1
  -4  -9   4  240.30    7.60   1
   4   9  -3   38.30    3.70   1
  -4  -9   3   43.80    3.20   1
   4   9  -2   24.40    3.90   1
  -4  -9   2   23.10    3.20   1
   4   9  -1   -2.00    2.10   1
  -4  -9   1    0.30    1.80   1
   4   9   0    1.10    1.50   1
  -4  -9   0    2.70    1.60   1
   4   9   1    3.20    1.80   1
  -4  -9  -1   -1.00    1.90   1
   4   9   2  753.20   18.70   1
  -4  -9  -2  741.90   15.70   1
   4   9   3   36.70    3.40   1
  -4  -9  -3   33.30    1.80   1
   4   9   4   15.20    3.00   1
  -4  -9  -4   11.10    1.40   1
   4   9   5   26.40    4.00   1
  -4  -9  -5   22.60    2.40   1
   4   9   6   17.30    3.80   1
  -4  -9  -6   11.90    2.10   1
   4   9   7    2.70    3.90   1
  -4  -9  -7    2.60    2.00   1
   4   9   8   33.40    4.80   1
  -4  -9  -8   26.90    3.00   1
   4   9   9   17.30    5.60   1
  -4  -9  -9   21.40    4.40   1
   4   9  10  110.40    8.50   1
  -4  -9 -10   87.30    5.90   1
   4   9  11    4.20    5.20   1
  -4  -9 -11    2.30    6.50   1
   4  10 -10    0.80    6.50   1
  -4 -10  10   19.70    5.70   1
   4  10  -9   -1.10    5.40   1
  -4 -10   9    8.20    5.00   1
   4  10  -8  208.00   10.80   1
  -4 -10   8  207.20    9.20   1
   4  10  -7   11.30    4.20   1
  -4 -10   7   10.20    3.70   1
   4  10  -6   85.90    5.80   1
  -4 -10   6   72.70    5.00   1
   4  10  -5   37.50    3.60   1
  -4 -10   5   36.70    3.60   1
   4  10  -4  300.70   12.10   1
  -4 -10   4  298.90   11.40   1
   4  10  -3   12.50    3.60   1
  -4 -10   3   13.10    3.00   1
   4  10  -2    1.30    3.10   1
  -4 -10   2    2.50    2.60   1
   4  10  -1  152.70    7.20   1
  -4 -10   1  140.90    5.30   1
   4  10   0   14.70    4.50   1
  -4 -10   0   10.70    1.90   1
   4  10   1    5.90    2.50   1
  -4 -10  -1    2.50    1.90   1
   4  10   2    4.20    2.10   1
  -4 -10  -2    3.10    1.80   1
   4  10   3    3.70    2.40   1
  -4 -10  -3    2.00    1.90   1
   4  10   4  141.80    7.00   1
  -4 -10  -4  135.30    5.00   1
   4  10   5   19.70    3.80   1
  -4 -10  -5   20.20    2.60   1
   4  10   6  408.90   15.00   1
  -4 -10  -6  391.60   10.20   1
   4  10   7   12.80    4.60   1
  -4 -10  -7   10.90    2.90   1
   4  10   8    8.10    4.70   1
  -4 -10  -8    1.50    4.20   1
   4  10   9    7.80    5.50   1
  -4 -10  -9    7.20    4.40   1
   4  10  10    2.30    5.90   1
  -4 -10 -10    2.40    6.60   1
   4  11 -10   12.10   11.00   1
  -4 -11  10   -3.50    6.00   1
   4  11  -9    2.20    6.20   1
  -4 -11   9    3.50    4.40   1
   4  11  -8   43.00    6.60   1
  -4 -11   8   42.20    7.00   1
   4  11  -7    5.60    5.20   1
  -4 -11   7    8.40    4.00   1
   4  11  -6   52.50    5.70   1
  -4 -11   6   53.10    4.70   1
   4  11  -5   73.00    5.70   1
  -4 -11   5   82.00    5.10   1
   4  11  -4   16.90    3.80   1
  -4 -11   4   20.40    3.40   1
   4  11  -3   72.10    4.90   1
  -4 -11   3   65.50    4.10   1
   4  11  -2   29.40    5.40   1
  -4 -11   2   36.00    3.40   1
   4  11  -1   75.60    5.20   1
  -4 -11   1   73.90    4.40   1
   4  11   0   -4.60    3.50   1
  -4 -11   0   -0.70    2.30   1
   4  11   1  103.70    6.10   1
  -4 -11  -1  100.90    4.10   1
   4  11   2  252.20    8.40   1
  -4 -11  -2  233.60    6.80   1
   4  11   3  250.60    8.60   1
  -4 -11  -3  245.90    8.90   1
   4  11   4   17.70    3.40   1
  -4 -11  -4   20.60    3.60   1
   4  11   5   19.80    4.40   1
  -4 -11  -5   15.80    3.10   1
   4  11   6   32.20    4.90   1
  -4 -11  -6   18.30    2.80   1
   4  11   7   32.90    5.60   1
  -4 -11  -7   26.50    3.50   1
   4  11   8   16.20    5.70   1
  -4 -11  -8    6.60    5.80   1
   4  11   9  138.90    9.60   1
  -4 -11  -9  136.50    9.40   1
   4  12  -8   18.10    5.80   1
  -4 -12   8   20.10    5.30   1
   4  12  -7    8.40    5.90   1
  -4 -12   7    7.30    4.90   1
   4  12  -6   11.50    5.30   1
  -4 -12   6    5.80    4.00   1
   4  12  -5   11.60    3.70   1
  -4 -12   5   10.70    4.10   1
   4  12  -4    7.60    4.60   1
  -4 -12   4   11.50    3.50   1
   4  12  -3   53.20    5.80   1
  -4 -12   3   41.40    4.30   1
   4  12  -2    6.90    4.20   1
  -4 -12   2    6.10    4.10   1
   4  12  -1  303.70   12.70   1
  -4 -12   1  283.60   10.50   1
   4  12   0  123.30    7.60   1
  -4 -12   0  127.00    6.10   1
   4  12   1   -1.50    3.30   1
  -4 -12  -1    0.60    2.40   1
   4  12   2   29.50    4.60   1
  -4 -12  -2   26.60    4.70   1
   4  12   3   24.40    4.30   1
  -4 -12  -3   20.30    4.80   1
   4  12   4    4.30    3.10   1
  -4 -12  -4   -5.20    3.70   1
   4  12   5   15.40    3.70   1
  -4 -12  -5   13.80    4.10   1
   4  12   6   -0.30    4.00   1
  -4 -12  -6   -1.70    4.10   1
   4  12   7   -0.30    4.60   1
  -4 -12  -7    3.10    6.00   1
   4  12   8   12.90    5.30   1
  -4 -12  -8   13.50    5.50   1
   4  13  -7   -1.40    6.80   1
  -4 -13   7    6.20    5.00   1
   4  13  -6   29.30    8.10   1
  -4 -13   6   13.60    4.70   1
   4  13  -5  139.90    9.60   1
  -4 -13   5  121.80    7.40   1
   4  13  -4   31.60    5.90   1
  -4 -13   4   24.70    4.40   1
   4  13  -3   12.40    7.80   1
  -4 -13   3   19.00    4.40   1
   4  13  -2   22.70    5.30   1
  -4 -13   2   17.90    4.40   1
   4  13  -1   39.40    4.90   1
  -4 -13   1   33.80    3.90   1
   4  13   0    9.10    4.50   1
  -4 -13   0   -1.10    3.50   1
   4  13   1    9.70    4.60   1
  -4 -13  -1   18.90    3.70   1
   4  13   2    3.50    4.40   1
  -4 -13  -2    3.00    3.90   1
   4  13   3   53.60    5.90   1
  -4 -13  -3   64.40    6.70   1
   4  13   4   11.60    5.90   1
  -4 -13  -4   13.00    5.40   1
   4  13   5   12.30    5.50   1
  -4 -13  -5    7.20    5.40   1
   4  13   6  -15.90    9.00   1
  -4 -13  -6   -0.70    4.70   1
   4  13   7   -1.50   10.40   1
  -4 -13  -7    1.60   10.00   1
   4  14  -5   -4.20    6.10   1
  -4 -14   5   -3.50    6.70   1
   4  14  -4   15.90    9.80   1
  -4 -14   4    1.20    4.60   1
   4  14  -3   67.60    9.40   1
  -4 -14   3   62.90    6.50   1
   4  14  -2   43.30    6.30   1
  -4 -14   2   38.70    4.90   1
   4  14  -1   59.80    9.10   1
  -4 -14   1   62.30    5.90   1
   4  14   0   12.20    4.60   1
  -4 -14   0   23.00    8.70   1
   4  14   1   -4.20    4.90   1
  -4 -14  -1    6.60    9.20   1
   4  14   2    6.00    5.80   1
  -4 -14  -2   13.20    6.40   1
   4  14   3    7.90    6.90   1
  -4 -14  -3   20.00    5.40   1
   4  14   4    8.80    9.40   1
  -4 -14  -4   10.80    6.40   1
   4  14   5   -3.80    8.90   1
  -4 -14  -5   12.10    6.70   1
   4  15  -1   29.60   10.80   1
  -4 -15   1   29.10   10.80   1
  -4 -15   0   32.70   11.20   1
   5 -14  -4   37.60    7.60   1
  -5  14   4   47.10    8.20   1
   5 -14  -3   36.60    7.40   1
  -5  14   3   35.60    9.20   1
   5 -14  -2   89.50    8.70   1
  -5  14   2   73.20   11.30   1
   5 -14  -1    5.00    6.90   1
  -5  14   1   14.20    5.90   1
   5 -14   0    1.10    7.00   1
  -5  14   0    5.80    8.50   1
   5 -14   1   -8.50    5.10   1
  -5  14  -1   -4.20    9.30   1
   5 -14   2   63.30    8.20   1
  -5  14  -2   72.80   11.50   1
   5 -14   3   -0.90    6.50   1
  -5  14  -3    2.30   10.20   1
   5 -13  -6    6.70    6.60   1
  -5  13   6    5.70    8.00   1
   5 -13  -5  184.40   11.20   1
  -5  13   5  173.20   15.00   1
   5 -13  -4   44.10    6.90   1
  -5  13   4   40.40    9.40   1
   5 -13  -3   16.90    5.70   1
  -5  13   3   21.40    7.80   1
   5 -13  -2    0.70    5.30   1
  -5  13   2    4.40    6.90   1
   5 -13  -1   13.10    4.80   1
  -5  13   1   25.00    5.30   1
   5 -13   0   -2.90    5.50   1
  -5  13   0    4.70    4.50   1
   5 -13   1   41.70    6.70   1
  -5  13  -1   35.50    9.20   1
   5 -13   2    7.80    4.90   1
  -5  13  -2    1.10    5.70   1
   5 -13   3   24.80    6.90   1
  -5  13  -3   37.50   10.00   1
   5 -13   4   13.10    4.00   1
  -5  13  -4    7.90    9.60   1
   5 -13   5  123.00    9.40   1
  -5  13  -5  139.30   13.70   1
   5 -13   6   24.50    6.10   1
  -5  13  -6   46.30    9.60   1
   5 -12  -8   21.20    6.40   1
  -5  12   8   19.30    8.70   1
   5 -12  -7    3.70    5.40   1
  -5  12   7    8.80    7.90   1
   5 -12  -6    1.50    5.50   1
  -5  12   6   -5.80    7.30   1
   5 -12  -5    7.30    4.60   1
  -5  12   5   17.10    7.30   1
   5 -12  -4    0.90    4.00   1
  -5  12   4    3.90    5.10   1
   5 -12  -3   11.10    4.40   1
  -5  12   3   14.40    5.40   1
   5 -12  -2   45.30    5.30   1
  -5  12   2   35.00    5.50   1
   5 -12  -1   54.10    6.10   1
  -5  12   1   63.10    8.70   1
   5 -12   0   70.40    6.90   1
  -5  12   0   71.70    5.90   1
   5 -12   1   17.40    4.30   1
  -5  12  -1   24.00    3.90   1
   5 -12   2    9.80    5.30   1
  -5  12  -2   -3.60    4.00   1
   5 -12   3    6.80    4.30   1
  -5  12  -3    0.50    5.10   1
   5 -12   4    9.80    5.70   1
  -5  12  -4   10.70    8.40   1
   5 -12   5   69.90    5.90   1
  -5  12  -5   73.40   12.20   1
   5 -12   6    2.70    5.90   1
  -5  12  -6    2.10    7.40   1
   5 -12   7   62.20   12.50   1
  -5  12  -7   37.30   10.70   1
   5 -11  -9   38.40    6.80   1
  -5  11   9   31.10    8.40   1
   5 -11  -8    9.70    5.80   1
  -5  11   8    5.20    7.40   1
   5 -11  -7   10.80    5.30   1
  -5  11   7    8.10    6.90   1
   5 -11  -6    1.30    3.10   1
  -5  11   6   -0.50    4.70   1
   5 -11  -5  153.00    8.80   1
  -5  11   5  146.40   12.40   1
   5 -11  -4   22.90    4.80   1
  -5  11   4   28.80    6.80   1
   5 -11  -3   10.70    4.60   1
  -5  11   3    4.70    5.90   1
   5 -11  -2  124.50   11.20   1
  -5  11   2  103.70    8.80   1
   5 -11  -1   16.60    4.30   1
  -5  11   1   16.90    6.10   1
   5 -11   0   23.80    5.40   1
  -5  11   0   25.80    3.80   1
   5 -11   1   18.70    4.10   1
  -5  11  -1   20.60    4.00   1
   5 -11   2  116.30    7.40   1
  -5  11  -2  124.70    6.80   1
   5 -11   3    1.70    4.50   1
  -5  11  -3    2.10    3.70   1
   5 -11   4    2.90    4.70   1
  -5  11  -4   -6.00    7.00   1
   5 -11   5   61.90    5.90   1
  -5  11  -5   70.30   10.20   1
   5 -11   6    5.40    4.00   1
  -5  11  -6   10.20    8.30   1
   5 -11   7   -3.40    9.40   1
  -5  11  -7    8.30    9.90   1
   5 -11   8    0.80    6.90   1
  -5  11  -8    3.00    6.30   1
   5 -11   9   82.40   14.50   1
  -5  11  -9   86.70   13.30   1
   5 -10 -10   11.70    6.00   1
  -5  10  10   12.00    8.20   1
   5 -10  -9    8.70    5.40   1
  -5  10   9   16.10    7.10   1
   5 -10  -8   71.80    6.90   1
  -5  10   8   77.10    8.60   1
   5 -10  -7    9.20    4.80   1
  -5  10   7    8.90    6.20   1
   5 -10  -6  114.50    6.90   1
  -5  10   6  122.70    8.70   1
   5 -10  -5   16.80    6.50   1
  -5  10   5   14.90    5.50   1
   5 -10  -4    6.00    3.10   1
  -5  10   4    7.70    3.80   1
   5 -10  -3    5.30    3.60   1
  -5  10   3    1.10    4.80   1
   5 -10  -2  306.50   12.30   1
  -5  10   2  285.10   16.10   1
   5 -10  -1    8.00    3.60   1
  -5  10   1   11.20    5.20   1
   5 -10   0   27.00    3.70   1
  -5  10   0   32.10    3.30   1
   5 -10   1    9.60    3.30   1
  -5  10  -1    3.60    2.90   1
   5 -10   2   22.60    3.60   1
  -5  10  -2   20.10    3.20   1
   5 -10   3   11.10    4.10   1
  -5  10  -3   11.70    3.60   1
   5 -10   4   50.20    5.40   1
  -5  10  -4   42.50    4.20   1
   5 -10   5   63.50    4.40   1
  -5  10  -5   60.30    4.70   1
   5 -10   6   85.90    5.40   1
  -5  10  -6   83.50    6.00   1
   5 -10   7    5.50    4.20   1
  -5  10  -7    6.00    3.80   1
   5 -10   8   64.90   11.40   1
  -5  10  -8   57.70    6.30   1
   5 -10   9    7.00   10.70   1
  -5  10  -9   25.00    5.20   1
   5 -10  10    0.90    6.30   1
  -5  10 -10    6.10    5.20   1
   5  -9 -11   12.40    5.20   1
  -5   9  11    6.90    7.90   1
   5  -9 -10   -1.90    5.20   1
  -5   9  10    2.20    7.00   1
   5  -9  -9   29.70    5.50   1
  -5   9   9   34.20    7.20   1
   5  -9  -8    1.40    4.50   1
  -5   9   8   -5.00    5.80   1
   5  -9  -7   61.30    5.30   1
  -5   9   7   44.20    6.60   1
   5  -9  -6   14.50    3.90   1
  -5   9   6   11.80    5.20   1
   5  -9  -5   18.80    3.90   1
  -5   9   5   21.10    3.90   1
   5  -9  -4   21.70    3.30   1
  -5   9   4   22.40    5.00   1
   5  -9  -3   74.10    6.90   1
  -5   9   3   98.90    7.50   1
   5  -9  -2  200.10    8.50   1
  -5   9   2  200.80   11.80   1
   5  -9  -1  103.70    5.40   1
  -5   9   1  115.30    8.40   1
   5  -9   0   40.90    3.60   1
  -5   9   0   48.90    3.60   1
   5  -9   1   25.30    3.80   1
  -5   9  -1   23.70    3.40   1
   5  -9   2  650.80   21.10   1
  -5   9  -2  665.50   16.30   1
   5  -9   3   99.40    5.80   1
  -5   9  -3   99.90    3.90   1
   5  -9   4   -2.90    3.60   1
  -5   9  -4   -0.90    1.80   1
   5  -9   5    8.40    2.80   1
  -5   9  -5   11.50    3.00   1
   5  -9   6   10.30    3.30   1
  -5   9  -6    7.50    3.20   1
   5  -9   7   23.10    4.10   1
  -5   9  -7   20.10    4.00   1
   5  -9   8    1.80    4.90   1
  -5   9  -8    6.80    3.60   1
   5  -9   9   42.80    6.20   1
  -5   9  -9   51.90    6.00   1
   5  -9  10   15.30    7.50   1
  -5   9 -10   10.20    5.40   1
   5  -8 -12   -3.50    5.90   1
  -5   8  12   -8.20    8.20   1
   5  -8 -11    3.90    5.50   1
  -5   8  11    3.10    7.20   1
   5  -8 -10  127.50    8.40   1
  -5   8  10  138.40   12.30   1
   5  -8  -9   52.20    4.30   1
  -5   8   9   72.40    8.10   1
   5  -8  -8  150.70    6.10   1
  -5   8   8  148.90   10.90   1
   5  -8  -7   14.50    2.80   1
  -5   8   7   11.00    4.50   1
   5  -8  -6   10.60    2.20   1
  -5   8   6   10.50    3.30   1
   5  -8  -5   -0.40    1.70   1
  -5   8   5    1.70    4.00   1
   5  -8  -4  164.90    5.10   1
  -5   8   4  171.90   10.10   1
   5  -8  -3   16.80    3.20   1
  -5   8   3   21.80    4.20   1
   5  -8  -2  595.80   18.00   1
  -5   8   2  583.60   24.80   1
   5  -8  -1  126.80    8.20   1
  -5   8   1  139.40    7.90   1
   5  -8   0  573.10   17.50   1
  -5   8   0  597.90   17.60   1
   5  -8   1  139.40    4.50   1
  -5   8  -1  150.30    4.50   1
   5  -8   2  263.50    9.50   1
  -5   8  -2  267.30    9.50   1
   5  -8   3   10.40    2.90   1
  -5   8  -3    8.60    2.00   1
   5  -8   4    1.30    3.10   1
  -5   8  -4   -3.70    1.80   1
   5  -8   5   41.80    3.40   1
  -5   8  -5   46.30    3.50   1
   5  -8   6    1.40    3.20   1
  -5   8  -6    1.10    2.60   1
   5  -8   7   -3.10    2.80   1
  -5   8  -7    0.40    2.90   1
   5  -8   8   64.70    8.10   1
  -5   8  -8   78.10    4.60   1
   5  -8   9   30.40    5.90   1
  -5   8  -9   29.00    5.00   1
   5  -8  10   19.50    4.90   1
  -5   8 -10   23.70    5.60   1
   5  -8  11    9.20    7.00   1
  -5   8 -11   13.50    5.90   1
   5  -7 -12  130.50    9.20   1
  -5   7  12  112.80   12.00   1
   5  -7 -11   17.90    5.20   1
  -5   7  11   13.50    6.60   1
   5  -7 -10   67.80    6.10   1
  -5   7  10   60.40    8.10   1
   5  -7  -9   56.90    5.20   1
  -5   7   9   43.30    6.30   1
   5  -7  -8    4.30    3.40   1
  -5   7   8   -3.20    4.20   1
   5  -7  -7  145.90    6.80   1
  -5   7   7  137.30    9.00   1
   5  -7  -6   34.90    3.50   1
  -5   7   6   31.30    4.30   1
   5  -7  -5  541.60   23.70   1
  -5   7   5  521.80   22.20   1
   5  -7  -4   68.20    2.90   1
  -5   7   4   74.80    5.40   1
   5  -7  -3    3.30    0.70   1
  -5   7   3    4.00    3.30   1
   5  -7  -2   22.50    2.90   1
  -5   7   2   20.90    3.70   1
   5  -7  -1   57.80    3.30   1
  -5   7   1   61.50    5.10   1
   5  -7   0   96.70    4.70   1
  -5   7   0   99.90    4.20   1
   5  -7   1    7.20    1.40   1
  -5   7  -1    6.70    1.40   1
   5  -7   2  219.40    6.40   1
  -5   7  -2  222.40    6.30   1
   5  -7   3   54.50    2.90   1
  -5   7  -3   54.50    2.70   1
   5  -7   4  143.00    6.60   1
  -5   7  -4  136.80    3.90   1
   5  -7   5  330.20    9.80   1
  -5   7  -5  358.90    9.40   1
   5  -7   6   15.90    2.70   1
  -5   7  -6   22.10    2.20   1
   5  -7   7    0.60    2.20   1
  -5   7  -7    0.80    1.90   1
   5  -7   8   -0.90    4.20   1
  -5   7  -8    5.10    2.10   1
   5  -7   9   47.50    6.10   1
  -5   7  -9   61.50    4.20   1
   5  -7  10   87.20    6.30   1
  -5   7 -10  101.10    7.60   1
   5  -7  11    8.90    6.60   1
  -5   7 -11   12.60    5.60   1
   5  -7  12   45.30   12.60   1
  -5   7 -12   53.10    7.30   1
   5  -6 -13   10.60    6.40   1
  -5   6  13   15.00    8.20   1
   5  -6 -12    1.30    5.50   1
  -5   6  12    7.20    7.20   1
   5  -6 -11    7.80    3.30   1
  -5   6  11    7.70    6.60   1
   5  -6 -10    2.80    3.80   1
  -5   6  10    1.50    4.60   1
   5  -6  -9  294.50   11.70   1
  -5   6   9  284.00   10.80   1
   5  -6  -8  129.50    6.50   1
  -5   6   8  125.50    9.00   1
   5  -6  -7   92.10    3.60   1
  -5   6   7   94.90    6.50   1
   5  -6  -6    3.60    1.30   1
  -5   6   6    0.90    3.20   1
   5  -6  -5   41.30    2.80   1
  -5   6   5   41.30    4.10   1
   5  -6  -4   10.60    1.50   1
  -5   6   4   13.00    3.00   1
   5  -6  -3   72.80    2.60   1
  -5   6   3   78.30    5.00   1
   5  -6  -2   35.90    2.70   1
  -5   6   2   34.90    3.60   1
   5  -6  -1  241.80    7.90   1
  -5   6   1  255.50    7.90   1
   5  -6   0  337.70    7.90   1
  -5   6   0  317.90    7.70   1
   5  -6   1  205.80    5.70   1
  -5   6  -1  212.70    5.60   1
   5  -6   2    5.80    1.60   1
  -5   6  -2    7.50    1.70   1
   5  -6   3    6.60    1.80   1
  -5   6  -3    6.50    1.00   1
   5  -6   4    0.10    1.80   1
  -5   6  -4    2.20    1.10   1
   5  -6   5  338.90   11.50   1
  -5   6  -5  346.20    7.70   1
   5  -6   6   44.60    3.10   1
  -5   6  -6   41.30    2.30   1
   5  -6   7  143.90    5.50   1
  -5   6  -7  143.80    4.50   1
   5  -6   8   34.50    4.90   1
  -5   6  -8   40.40    2.70   1
   5  -6   9   72.70    5.70   1
  -5   6  -9   71.80    4.00   1
   5  -6  10    1.80    3.80   1
  -5   6 -10   -3.70    2.80   1
   5  -6  11    4.70    3.90   1
  -5   6 -11   -0.90    3.10   1
   5  -6  12   25.40    8.50   1
  -5   6 -12   25.10    5.50   1
   5  -5 -13   17.50    6.10   1
  -5   5  13    0.80    7.30   1
   5  -5 -12    3.40    5.00   1
  -5   5  12    1.80    5.90   1
   5  -5 -11   69.10    6.10   1
  -5   5  11   79.90    7.90   1
   5  -5 -10   62.30    5.50   1
  -5   5  10   72.10    7.70   1
   5  -5  -9   42.70    4.20   1
  -5   5   9   49.70    3.80   1
   5  -5  -8    8.10    3.00   1
  -5   5   8    3.90    2.30   1
   5  -5  -7   30.70    3.20   1
  -5   5   7   30.10    4.00   1
   5  -5  -6    8.80    1.50   1
  -5   5   6    4.20    2.80   1
   5  -5  -5  659.60   14.30   1
  -5   5   5  621.00   23.90   1
   5  -5  -4   53.60    1.90   1
  -5   5   4   54.80    3.70   1
   5  -5  -3   49.80    1.70   1
  -5   5   3   57.40    2.80   1
   5  -5  -2  309.80    6.20   1
  -5   5   2  311.20    9.50   1
   5  -5  -1  106.10    3.30   1
  -5   5   1  101.40    3.30   1
   5  -5   0   14.10    1.10   1
  -5   5   0   14.00    1.10   1
   5  -5   1   26.70    1.40   1
  -5   5  -1   26.10    1.30   1
   5  -5   2   97.10    2.90   1
  -5   5  -2   99.00    2.60   1
   5  -5   3   79.50    3.10   1
  -5   5  -3   81.50    2.20   1
   5  -5   4  256.20    7.20   1
  -5   5  -4  253.80    5.00   1
   5  -5   5  271.70   12.00   1
  -5   5  -5  289.00    5.90   1
   5  -5   6    0.80    1.90   1
  -5   5  -6   -1.90    1.50   1
   5  -5   7   56.00    4.20   1
  -5   5  -7   58.10    2.80   1
   5  -5   8    1.70    4.00   1
  -5   5  -8    2.70    1.90   1
   5  -5   9  271.00   12.50   1
  -5   5  -9  287.70    9.20   1
   5  -5  10   94.60    5.70   1
  -5   5 -10   87.60    5.00   1
   5  -5  11   33.40    4.70   1
  -5   5 -11   31.50    4.10   1
   5  -5  12   -6.40    6.20   1
  -5   5 -12    3.00    4.10   1
   5  -4 -13   10.10    6.00   1
  -5   4  13    7.60    5.00   1
   5  -4 -12   12.40    5.10   1
  -5   4  12    9.60    6.30   1
   5  -4 -11   13.00    4.20   1
  -5   4  11   16.30    5.30   1
   5  -4 -10   14.40    2.90   1
  -5   4  10   16.50    4.80   1
   5  -4  -9  139.70    5.20   1
  -5   4   9  134.00    5.90   1
   5  -4  -8   77.20    3.60   1
  -5   4   8   83.90    4.10   1
   5  -4  -7  583.60   13.90   1
  -5   4   7  597.40   17.00   1
   5  -4  -6  180.30    4.30   1
  -5   4   6  194.80    4.90   1
   5  -4  -5    4.10    0.90   1
  -5   4   5    3.80    1.60   1
   5  -4  -4  145.40    2.90   1
  -5   4   4  147.30    5.10   1
   5  -4  -3  572.30    9.50   1
  -5   4   3  609.00   15.70   1
   5  -4  -2   78.30    1.90   1
  -5   4   2   77.10    2.60   1
   5  -4  -1    1.00    0.50   1
  -5   4   1    1.50    0.90   1
   5  -4   0  269.70    4.80   1
  -5   4   0  264.70    5.00   1
   5  -4   1   -0.20    1.00   1
  -5   4  -1    1.30    0.70   1
   5  -4   2    8.80    1.20   1
  -5   4  -2    7.80    0.90   1
   5  -4   3   13.70    1.40   1
  -5   4  -3   15.00    1.00   1
   5  -4   4   51.70    2.40   1
  -5   4  -4   52.50    1.70   1
   5  -4   5  282.40   10.30   1
  -5   4  -5  277.10    5.60   1
   5  -4   6  204.20    5.40   1
  -5   4  -6  226.20    4.60   1
   5  -4   7  589.50   14.90   1
  -5   4  -7  612.20   12.80   1
   5  -4   8   88.10    5.90   1
  -5   4  -8   88.00    3.50   1
   5  -4   9    5.00    2.90   1
  -5   4  -9    4.00    2.00   1
   5  -4  10   43.40    4.10   1
  -5   4 -10   42.10    3.70   1
   5  -4  11    0.00    5.10   1
  -5   4 -11   -1.80    3.30   1
   5  -4  12   18.20    6.50   1
  -5   4 -12   20.70    4.10   1
   5  -4  13   -4.60    7.10   1
  -5   4 -13   -0.50    4.60   1
   5  -3 -13   11.60    5.80   1
  -5   3  13   12.20    4.90   1
   5  -3 -12   91.90    6.10   1
  -5   3  12  101.30    7.10   1
   5  -3 -11   84.80    5.20   1
  -5   3  11   96.70    7.70   1
   5  -3 -10   -0.80    2.60   1
  -5   3  10   -1.20    3.10   1
   5  -3  -9   38.50    3.00   1
  -5   3   9   40.50    2.70   1
   5  -3  -8    1.10    1.80   1
  -5   3   8    0.70    1.80   1
   5  -3  -7  422.20   10.40   1
  -5   3   7  431.50    8.90   1
   5  -3  -6    0.50    1.50   1
  -5   3   6    4.10    1.30   1
   5  -3  -5  829.70   13.90   1
  -5   3   5  820.30   17.40   1
   5  -3  -4   -0.20    0.70   1
  -5   3   4   -0.30    0.90   1
   5  -3  -3 1744.00   23.90   1
  -5   3   3 1708.40   29.10   1
   5  -3  -2  283.80    4.50   1
  -5   3   2  273.60    5.50   1
   5  -3  -1   50.10    1.40   1
  -5   3   1   46.60    1.50   1
   5  -3   0  112.20    2.10   1
  -5   3   0  116.30    2.10   1
   5  -3   1   66.90    1.80   1
  -5   3  -1   72.20    1.60   1
   5  -3   2  325.30    6.60   1
  -5   3  -2  324.40    4.90   1
   5  -3   3 2643.70   38.20   1
  -5   3  -3 2617.20   36.60   1
   5  -3   4    4.30    1.00   1
  -5   3  -4    5.80    1.20   1
   5  -3   5  275.20    8.20   1
  -5   3  -5  284.80    6.50   1
   5  -3   6    9.20    0.90   1
  -5   3  -6   10.30    1.50   1
   5  -3   7    2.80    3.00   1
  -5   3  -7    3.80    1.70   1
   5  -3   8    4.80    3.60   1
  -5   3  -8    3.50    1.80   1
   5  -3   9    3.70    2.70   1
  -5   3  -9    3.10    2.60   1
   5  -3  10    9.90    3.50   1
  -5   3 -10   11.70    3.10   1
   5  -3  11  104.40    7.80   1
  -5   3 -11  114.10    5.70   1
   5  -3  12   44.60    6.70   1
  -5   3 -12   40.60    4.60   1
   5  -3  13   11.80    6.90   1
  -5   3 -13   11.10    4.70   1
   5  -2 -14   11.10    6.60   1
  -5   2  14    1.60    8.70   1
   5  -2 -13    9.00    4.50   1
  -5   2  13   10.00    5.50   1
   5  -2 -12    2.90    3.70   1
  -5   2  12    7.30    3.50   1
   5  -2 -11    4.40    3.50   1
  -5   2  11    4.60    3.20   1
   5  -2 -10  185.40    7.20   1
  -5   2  10  196.90    6.90   1
   5  -2  -9    4.60    2.30   1
  -5   2   9    4.00    1.70   1
   5  -2  -8    8.90    2.00   1
  -5   2   8   12.10    1.80   1
   5  -2  -7 1013.30   22.60   1
  -5   2   7  979.90   18.10   1
   5  -2  -6   26.90    1.70   1
  -5   2   6   24.20    1.30   1
   5  -2  -5    7.00    1.00   1
  -5   2   5    6.30    1.00   1
   5  -2  -4   92.60    1.80   1
  -5   2   4   92.00    2.10   1
   5  -2  -3  139.70    2.50   1
  -5   2   3  133.00    3.00   1
   5  -2  -2  842.90   10.70   1
  -5   2   2  817.90   14.70   1
   5  -2  -1   94.90    1.90   1
  -5   2   1   98.70    2.20   1
   5  -2   0 2552.20   32.30   1
  -5   2   0 2382.00   33.00   1
   5  -2   1  131.60    2.30   1
  -5   2  -1  127.20    2.50   1
   5  -2   2  295.50    4.40   1
  -5   2  -2  299.10    5.60   1
   5  -2   3    4.50    0.80   1
  -5   2  -3    4.60    1.00   1
   5  -2   4   13.30    0.90   1
  -5   2  -4   15.70    1.30   1
   5  -2   5  145.20    3.80   1
  -5   2  -5  155.00    3.90   1
   5  -2   6   63.30    4.00   1
  -5   2  -6   65.10    2.40   1
   5  -2   7  610.10   18.90   1
  -5   2  -7  552.50   11.50   1
   5  -2   8   23.00    3.80   1
  -5   2  -8   28.80    2.70   1
   5  -2   9    7.40    2.60   1
  -5   2  -9    8.40    2.30   1
   5  -2  10   38.20    3.80   1
  -5   2 -10   40.30    3.60   1
   5  -2  11    7.40    4.00   1
  -5   2 -11    1.00    2.80   1
   5  -2  12   -2.90    5.50   1
  -5   2 -12    7.90    3.90   1
   5  -2  13    3.30    7.00   1
  -5   2 -13   19.10    5.00   1
   5  -1 -14   88.10    6.90   1
  -5   1  14   94.60    8.90   1
   5  -1 -13    4.40    4.50   1
  -5   1  13   -3.50    5.20   1
   5  -1 -12  108.60    6.10   1
  -5   1  12  107.30    5.90   1
   5  -1 -11   51.50    4.30   1
  -5   1  11   53.30    4.20   1
   5  -1 -10  239.80    8.30   1
  -5   1  10  248.80    8.10   1
   5  -1  -9    5.00    2.40   1
  -5   1   9    2.90    2.20   1
   5  -1  -8   36.50    2.60   1
  -5   1   8   36.10    2.00   1
   5  -1  -7   -1.40    1.70   1
  -5   1   7    0.30    1.40   1
   5  -1  -6    2.20    1.10   1
  -5   1   6    1.70    1.00   1
   5  -1  -5   15.20    1.00   1
  -5   1   5   15.20    1.00   1
   5  -1  -4  586.60    8.60   1
  -5   1   4  554.30    8.90   1
   5  -1  -3   62.40    1.40   1
  -5   1   3   63.10    1.70   1
   5  -1  -2    0.60    0.40   1
  -5   1   2    1.20    0.70   1
   5  -1  -1  284.50    4.10   1
  -5   1   1  275.50    5.10   1
   5  -1   0  236.70    3.50   1
  -5   1   0  233.30    4.50   1
   5  -1   1   91.80    1.70   1
  -5   1  -1   89.00    1.90   1
   5  -1   2  617.90    8.10   1
  -5   1  -2  625.20   10.70   1
   5  -1   3  106.90    2.30   1
  -5   1  -3  113.50    2.70   1
   5  -1   4  621.10   11.30   1
  -5   1  -4  600.70   10.30   1
   5  -1   5    7.10    1.60   1
  -5   1  -5    9.30    1.40   1
   5  -1   6    7.20    2.50   1
  -5   1  -6    4.20    1.60   1
   5  -1   7    8.50    3.00   1
  -5   1  -7    8.00    2.00   1
   5  -1   8   -0.50    1.90   1
  -5   1  -8    1.70    2.00   1
   5  -1   9   11.20    2.50   1
  -5   1  -9   18.10    2.90   1
   5  -1  10  388.30   16.40   1
  -5   1 -10  413.30   12.20   1
   5  -1  11   45.90    6.00   1
  -5   1 -11   59.80    4.20   1
   5  -1  12   51.90    6.90   1
  -5   1 -12   47.90    5.10   1
   5  -1  13    8.70    7.00   1
  -5   1 -13    7.40    4.20   1
   5   0 -14  209.10   10.70   1
  -5   0  14  207.00   13.30   1
   5   0 -13   -2.50    4.40   1
  -5   0  13   -1.00    5.10   1
   5   0 -12   11.30    3.90   1
  -5   0  12   12.70    4.70   1
   5   0 -11    6.40    3.50   1
  -5   0  11    1.70    2.80   1
   5   0 -10   74.80    4.50   1
  -5   0  10   77.10    4.10   1
   5   0  -9   -3.70    2.50   1
  -5   0   9    0.30    2.00   1
   5   0  -8   69.10    3.40   1
  -5   0   8   70.50    3.30   1
   5   0  -7   -0.70    1.30   1
  -5   0   7   -0.20    1.60   1
   5   0  -6   -0.60    1.10   1
  -5   0   6    0.00    1.00   1
   5   0  -5   -0.90    1.00   1
  -5   0   5   -0.70    0.80   1
   5   0  -4   44.60    1.30   1
  -5   0   4   45.40    1.40   1
   5   0  -3    0.30    0.50   1
  -5   0   3   -0.90    0.60   1
   5   0  -2   59.90    1.70   1
  -5   0   2   58.20    2.00   1
   5   0  -1    0.20    0.80   1
  -5   0   1   -0.10    1.00   1
   5   0   0 2922.60   41.30   1
  -5   0   0 2665.40   41.20   1
   5   0   1   -0.20    0.50   1
  -5   0  -1   -0.60    0.70   1
   5   0   2  104.90    1.70   1
  -5   0  -2  102.80    2.40   1
   5   0   3    0.20    0.50   1
  -5   0  -3    0.20    0.90   1
   5   0   4  210.70    4.00   1
  -5   0  -4  213.60    4.20   1
   5   0   5   -0.40    1.60   1
  -5   0  -5    0.90    1.50   1
   5   0   6    3.80    2.20   1
  -5   0  -6    6.00    1.80   1
   5   0   7   -0.40    1.80   1
  -5   0  -7    0.10    2.00   1
   5   0   8   21.60    2.00   1
  -5   0  -8   18.90    2.70   1
   5   0   9   -9.60    3.20   1
  -5   0  -9    4.00    2.40   1
   5   0  10    7.90    3.90   1
  -5   0 -10   11.80    2.90   1
   5   0  11   -5.80    4.80   1
  -5   0 -11   -1.80    3.50   1
   5   0  12   88.20    8.30   1
  -5   0 -12   70.70    5.80   1
   5   0  13   -0.80    6.40   1
  -5   0 -13    2.20    4.70   1
   5   1 -14   75.00    7.00   1
  -5  -1  14   80.50    8.60   1
   5   1 -13    5.50    4.60   1
  -5  -1  13    7.00    5.30   1
   5   1 -12  105.00    6.30   1
  -5  -1  12  100.00    7.50   1
   5   1 -11   56.60    4.40   1
  -5  -1  11   50.60    4.00   1
   5   1 -10  238.30    8.80   1
  -5  -1  10  240.40    8.00   1
   5   1  -9    4.00    2.50   1
  -5  -1   9    0.10    2.30   1
   5   1  -8   29.00    2.40   1
  -5  -1   8   33.60    2.30   1
   5   1  -7    0.00    1.40   1
  -5  -1   7   -1.10    1.50   1
   5   1  -6    1.40    1.20   1
  -5  -1   6    2.40    1.20   1
   5   1  -5   14.50    1.20   1
  -5  -1   5   15.90    1.30   1
   5   1  -4  566.60    9.30   1
  -5  -1   4  558.70    9.50   1
   5   1  -3   56.50    1.40   1
  -5  -1   3   59.60    1.80   1
   5   1  -2    1.50    0.80   1
  -5  -1   2    1.20    0.40   1
   5   1  -1  284.00    6.20   1
  -5  -1   1  281.90    5.00   1
   5   1   0  236.80    4.30   1
  -5  -1   0  242.20    4.60   1
   5   1   1   90.30    1.70   1
  -5  -1  -1   84.10    2.00   1
   5   1   2  630.80    8.50   1
  -5  -1  -2  587.30    9.50   1
   5   1   3  110.10    1.90   1
  -5  -1  -3  115.00    2.50   1
   5   1   4  659.60   11.20   1
  -5  -1  -4  624.00   11.50   1
   5   1   5   10.40    1.10   1
  -5  -1  -5   11.40    1.40   1
   5   1   6    4.90    0.90   1
  -5  -1  -6    5.90    1.60   1
   5   1   7    8.20    0.90   1
  -5  -1  -7    8.80    2.10   1
   5   1   8    2.90    3.00   1
  -5  -1  -8   -0.20    2.00   1
   5   1   9   24.60    4.00   1
  -5  -1  -9   13.40    2.90   1
   5   1  10  413.10   16.60   1
  -5  -1 -10  425.80   12.50   1
   5   1  11   47.10    5.90   1
  -5  -1 -11   52.90    4.50   1
   5   1  12   51.40    6.90   1
  -5  -1 -12   41.70    4.80   1
   5   1  13   -2.00    6.60   1
  -5  -1 -13    9.50    4.30   1
   5   2 -14    7.60    5.80   1
  -5  -2  14   19.30    7.00   1
   5   2 -13   20.00    5.00   1
  -5  -2  13   21.90    5.00   1
   5   2 -12   -2.20    4.10   1
  -5  -2  12    3.50    5.00   1
   5   2 -11    4.30    3.40   1
  -5  -2  11    7.90    4.10   1
   5   2 -10  175.30    7.00   1
  -5  -2  10  186.80    6.00   1
   5   2  -9    2.90    3.00   1
  -5  -2   9    2.00    2.70   1
   5   2  -8    8.20    2.50   1
  -5  -2   8    8.90    1.90   1
   5   2  -7  996.30   22.50   1
  -5  -2   7  986.30   20.10   1
   5   2  -6   23.20    1.40   1
  -5  -2   6   22.60    1.60   1
   5   2  -5    8.00    1.00   1
  -5  -2   5    6.60    1.10   1
   5   2  -4   86.30    2.50   1
  -5  -2   4   90.00    2.70   1
   5   2  -3  134.80    2.60   1
  -5  -2   3  135.50    2.90   1
   5   2  -2  827.40   10.10   1
  -5  -2   2  811.00   13.20   1
   5   2  -1   92.00    1.60   1
  -5  -2   1   96.60    1.90   1
   5   2   0 2721.10   31.40   1
  -5  -2   0 2424.30   40.40   1
   5   2   1  133.90    2.20   1
  -5  -2  -1  129.80    2.40   1
   5   2   2  305.30    4.10   1
  -5  -2  -2  287.10    5.10   1
   5   2   3    3.60    0.80   1
  -5  -2  -3    3.20    0.90   1
   5   2   4   16.10    0.80   1
  -5  -2  -4   12.80    1.00   1
   5   2   5  159.40    4.70   1
  -5  -2  -5  157.80    4.40   1
   5   2   6   66.10    3.40   1
  -5  -2  -6   63.20    2.80   1
   5   2   7  664.40   19.20   1
  -5  -2  -7  614.30   14.80   1
   5   2   8   22.80    3.40   1
  -5  -2  -8   25.60    2.80   1
   5   2   9   10.90    3.60   1
  -5  -2  -9   10.20    2.60   1
   5   2  10   36.70    4.80   1
  -5  -2 -10   42.90    3.80   1
   5   2  11    9.00    4.20   1
  -5  -2 -11    6.60    3.40   1
   5   2  12   10.00    5.80   1
  -5  -2 -12    3.00    4.20   1
   5   2  13   13.00    6.70   1
  -5  -2 -13    6.60    4.40   1
  -5  -3  14   22.40   10.30   1
   5   3 -13   12.30    4.70   1
  -5  -3  13   16.80    6.10   1
   5   3 -12  105.40    6.50   1
  -5  -3  12   98.60    7.60   1
   5   3 -11   87.30    6.60   1
  -5  -3  11   76.50    4.90   1
   5   3 -10    2.10    3.00   1
  -5  -3  10    3.80    3.30   1
   5   3  -9   31.90    3.70   1
  -5  -3   9   41.10    2.70   1
   5   3  -8   -3.30    2.60   1
  -5  -3   8   -1.10    1.80   1
   5   3  -7  402.20    9.10   1
  -5  -3   7  420.40    9.40   1
   5   3  -6    3.70    1.00   1
  -5  -3   6    0.90    1.30   1
   5   3  -5  822.40   15.60   1
  -5  -3   5  816.60   14.50   1
   5   3  -4   -0.40    0.70   1
  -5  -3   4    0.20    1.30   1
   5   3  -3 1670.00   24.80   1
  -5  -3   3 1617.10   29.20   1
   5   3  -2  269.10    4.80   1
  -5  -3   2  269.70    5.30   1
   5   3  -1   45.10    1.20   1
  -5  -3   1   47.30    1.30   1
   5   3   0  113.80    2.00   1
  -5  -3   0  111.20    2.20   1
   5   3   1   68.70    1.60   1
  -5  -3  -1   67.80    1.50   1
   5   3   2  327.70    5.90   1
  -5  -3  -2  325.20    4.90   1
   5   3   3 2759.00   41.30   1
  -5  -3  -3 2585.30   39.30   1
   5   3   4    3.60    1.10   1
  -5  -3  -4    3.80    1.00   1
   5   3   5  289.20    6.80   1
  -5  -3  -5  276.60    5.80   1
   5   3   6    9.80    1.10   1
  -5  -3  -6    8.70    2.00   1
   5   3   7    5.00    2.50   1
  -5  -3  -7    4.40    2.20   1
   5   3   8    0.70    3.10   1
  -5  -3  -8    9.10    2.60   1
   5   3   9    1.70    3.50   1
  -5  -3  -9    7.40    2.60   1
   5   3  10   15.20    3.80   1
  -5  -3 -10   12.40    3.40   1
   5   3  11  117.70    8.20   1
  -5  -3 -11  115.90    6.50   1
   5   3  12   40.40    6.60   1
  -5  -3 -12   43.80    5.30   1
   5   3  13    3.90    6.50   1
  -5  -3 -13    9.90    4.60   1
   5   4 -13    1.70    5.20   1
  -5  -4  13    1.30    6.30   1
   5   4 -12    6.40    4.00   1
  -5  -4  12   10.90    4.90   1
   5   4 -11   11.90    4.90   1
  -5  -4  11   16.40    4.30   1
   5   4 -10    9.50    4.10   1
  -5  -4  10   10.70    3.10   1
   5   4  -9  132.50    6.90   1
  -5  -4   9  138.50    5.90   1
   5   4  -8   86.30    5.10   1
  -5  -4   8   74.60    3.50   1
   5   4  -7  565.60   17.20   1
  -5  -4   7  562.90   14.70   1
   5   4  -6  186.50    7.00   1
  -5  -4   6  177.70    6.00   1
   5   4  -5    1.50    1.70   1
  -5  -4   5    4.30    1.50   1
   5   4  -4  130.60    3.70   1
  -5  -4   4  140.10    3.60   1
   5   4  -3  542.40   10.00   1
  -5  -4   3  548.00   11.80   1
   5   4  -2   76.10    2.10   1
  -5  -4   2   74.80    2.10   1
   5   4  -1   -0.70    0.80   1
  -5  -4   1    0.90    1.10   1
   5   4   0  270.70    4.90   1
  -5  -4   0  261.00    4.50   1
   5   4   1    1.10    0.90   1
  -5  -4  -1    1.90    0.70   1
   5   4   2    4.90    1.00   1
  -5  -4  -2    6.10    0.80   1
   5   4   3   16.30    1.50   1
  -5  -4  -3   16.20    1.20   1
   5   4   4   55.30    2.50   1
  -5  -4  -4   49.10    2.00   1
   5   4   5  282.80    7.50   1
  -5  -4  -5  281.60    6.20   1
   5   4   6  216.90    6.20   1
  -5  -4  -6  216.70    5.20   1
   5   4   7  692.10   20.30   1
  -5  -4  -7  647.90   18.70   1
   5   4   8   90.80    5.40   1
  -5  -4  -8   90.30    4.10   1
   5   4   9    5.10    3.60   1
  -5  -4  -9    8.20    2.90   1
   5   4  10   43.80    5.30   1
  -5  -4 -10   41.40    3.80   1
   5   4  11    6.00    5.00   1
  -5  -4 -11    3.90    3.80   1
   5   4  12   25.20    6.10   1
  -5  -4 -12   18.50    4.80   1
   5   4  13   10.00    6.60   1
  -5  -4 -13    1.60    4.50   1
   5   5 -13    8.00    5.30   1
  -5  -5  13    3.40    5.60   1
   5   5 -12    9.30    5.70   1
  -5  -5  12    4.80    4.10   1
   5   5 -11   76.40    6.50   1
  -5  -5  11   62.40    5.10   1
   5   5 -10   71.70    6.00   1
  -5  -5  10   54.40    4.80   1
   5   5  -9   47.20    4.60   1
  -5  -5   9   38.50    3.70   1
   5   5  -8    3.60    3.20   1
  -5  -5   8    5.30    2.50   1
   5   5  -7   34.30    3.50   1
  -5  -5   7   27.20    3.50   1
   5   5  -6    6.90    2.70   1
  -5  -5   6    5.30    2.20   1
   5   5  -5  612.00   15.50   1
  -5  -5   5  618.00   15.30   1
   5   5  -4   49.80    2.60   1
  -5  -5   4   52.20    2.30   1
   5   5  -3   49.30    1.40   1
  -5  -5   3   49.70    2.10   1
   5   5  -2  292.50    6.20   1
  -5  -5   2  298.00    6.00   1
   5   5  -1   97.90    3.10   1
  -5  -5   1   96.60    2.50   1
   5   5   0   11.80    1.40   1
  -5  -5   0   15.20    1.00   1
   5   5   1   22.20    1.50   1
  -5  -5  -1   25.30    1.20   1
   5   5   2   91.10    2.90   1
  -5  -5  -2   94.00    2.20   1
   5   5   3   81.50    2.80   1
  -5  -5  -3   81.60    2.00   1
   5   5   4  265.60    6.90   1
  -5  -5  -4  255.90    5.90   1
   5   5   5  297.40    7.90   1
  -5  -5  -5  294.00    6.60   1
   5   5   6   -0.10    2.60   1
  -5  -5  -6    0.70    1.30   1
   5   5   7   69.90    4.50   1
  -5  -5  -7   54.20    2.40   1
   5   5   8   -3.50    2.90   1
  -5  -5  -8    4.20    2.80   1
   5   5   9  307.90   12.70   1
  -5  -5  -9  303.90    9.80   1
   5   5  10   95.10    7.00   1
  -5  -5 -10  103.90    5.80   1
   5   5  11   41.20    6.10   1
  -5  -5 -11   40.10    4.90   1
   5   5  12    2.40    6.40   1
  -5  -5 -12    5.00    4.00   1
   5   6 -13   17.00    9.90   1
  -5  -6  13   14.00    7.80   1
   5   6 -12    7.50    6.10   1
  -5  -6  12    5.20    5.00   1
   5   6 -11   13.60    4.30   1
  -5  -6  11    6.40    4.40   1
   5   6 -10    0.10    3.90   1
  -5  -6  10    5.20    4.00   1
   5   6  -9  261.00   11.60   1
  -5  -6   9  261.60    9.10   1
   5   6  -8  118.70    6.20   1
  -5  -6   8  126.70    5.70   1
   5   6  -7   79.70    5.00   1
  -5  -6   7   86.60    4.20   1
   5   6  -6   -4.00    2.90   1
  -5  -6   6    3.80    3.00   1
   5   6  -5   34.40    2.80   1
  -5  -6   5   44.20    2.80   1
   5   6  -4    7.60    2.10   1
  -5  -6   4    9.80    1.90   1
   5   6  -3   60.90    3.00   1
  -5  -6   3   67.60    2.90   1
   5   6  -2   35.80    1.70   1
  -5  -6   2   34.10    1.90   1
   5   6  -1  241.90    5.50   1
  -5  -6   1  238.60    5.20   1
   5   6   0  319.20    7.20   1
  -5  -6   0  324.60    5.90   1
   5   6   1  204.90    5.60   1
  -5  -6  -1  204.70    4.20   1
   5   6   2    3.70    1.80   1
  -5  -6  -2    6.00    1.00   1
   5   6   3    5.30    2.00   1
  -5  -6  -3    6.80    1.00   1
   5   6   4    3.80    2.30   1
  -5  -6  -4    3.20    1.80   1
   5   6   5  386.40   11.80   1
  -5  -6  -5  364.50    9.40   1
   5   6   6   43.20    3.70   1
  -5  -6  -6   47.60    2.50   1
   5   6   7  146.90    6.80   1
  -5  -6  -7  150.20    4.50   1
   5   6   8   42.90    4.60   1
  -5  -6  -8   40.20    3.20   1
   5   6   9   95.70    6.40   1
  -5  -6  -9   97.40    5.20   1
   5   6  10    7.20    4.80   1
  -5  -6 -10    1.40    3.70   1
   5   6  11    3.40    5.50   1
  -5  -6 -11   14.90    4.40   1
   5   6  12   12.40    6.50   1
  -5  -6 -12   17.70    5.10   1
   5   7 -12   98.50    8.90   1
  -5  -7  12   95.60    7.60   1
   5   7 -11    8.90    4.70   1
  -5  -7  11   13.40    4.90   1
   5   7 -10   46.50    6.40   1
  -5  -7  10   55.80    5.20   1
   5   7  -9   41.40    5.70   1
  -5  -7   9   36.80    4.40   1
   5   7  -8   -2.00    3.80   1
  -5  -7   8    3.80    2.80   1
   5   7  -7  141.50    7.00   1
  -5  -7   7  121.30    5.40   1
   5   7  -6   27.50    3.60   1
  -5  -7   6   26.70    2.70   1
   5   7  -5  491.70   16.30   1
  -5  -7   5  482.70   13.30   1
   5   7  -4   72.50    6.00   1
  -5  -7   4   64.60    3.30   1
   5   7  -3    6.40    2.60   1
  -5  -7   3    2.00    1.90   1
   5   7  -2   22.30    1.40   1
  -5  -7   2   27.90    2.30   1
   5   7  -1   53.10    2.40   1
  -5  -7   1   56.70    2.00   1
   5   7   0   98.20    3.20   1
  -5  -7   0   95.10    2.60   1
   5   7   1    5.50    1.90   1
  -5  -7  -1    5.40    1.20   1
   5   7   2  221.70    7.80   1
  -5  -7  -2  216.80    4.70   1
   5   7   3   57.80    3.30   1
  -5  -7  -3   56.60    2.00   1
   5   7   4  146.30    5.80   1
  -5  -7  -4  132.30    4.10   1
   5   7   5  373.40   12.40   1
  -5  -7  -5  351.50    8.20   1
   5   7   6   21.20    3.50   1
  -5  -7  -6   19.10    2.00   1
   5   7   7    3.50    3.20   1
  -5  -7  -7    1.50    2.00   1
   5   7   8    7.60    4.00   1
  -5  -7  -8    9.40    3.50   1
   5   7   9   56.10    5.70   1
  -5  -7  -9   63.80    4.50   1
   5   7  10  111.70    8.50   1
  -5  -7 -10  111.50    6.50   1
   5   7  11    9.40    5.50   1
  -5  -7 -11    6.80    4.20   1
   5   7  12   33.80   10.30   1
  -5  -7 -12   51.00    8.00   1
   5   8 -12   -2.90    9.70   1
  -5  -8  12  -15.70    5.90   1
   5   8 -11   -1.90    5.10   1
  -5  -8  11    1.90    5.20   1
   5   8 -10  116.70    9.20   1
  -5  -8  10  100.50    7.10   1
   5   8  -9   47.10    5.80   1
  -5  -8   9   43.80    4.90   1
   5   8  -8  130.20    7.40   1
  -5  -8   8  140.40    7.00   1
   5   8  -7   10.80    4.00   1
  -5  -8   7   15.60    3.30   1
   5   8  -6    9.20    3.50   1
  -5  -8   6    5.30    3.40   1
   5   8  -5   -5.30    3.30   1
  -5  -8   5   -2.50    2.40   1
   5   8  -4  173.50   10.90   1
  -5  -8   4  166.40    5.60   1
   5   8  -3    5.20    4.00   1
  -5  -8   3   14.70    2.80   1
   5   8  -2  592.00   28.20   1
  -5  -8   2  577.10   14.40   1
   5   8  -1  125.00    4.10   1
  -5  -8   1  119.80    3.20   1
   5   8   0  595.30   14.50   1
  -5  -8   0  559.00   11.10   1
   5   8   1  153.70    5.10   1
  -5  -8  -1  143.40    4.30   1
   5   8   2  278.20    9.70   1
  -5  -8  -2  268.70    6.90   1
   5   8   3    9.40    2.70   1
  -5  -8  -3   12.20    1.40   1
   5   8   4   -1.90    2.50   1
  -5  -8  -4   -0.20    1.90   1
   5   8   5   46.80    4.30   1
  -5  -8  -5   50.30    2.90   1
   5   8   6    0.30    3.30   1
  -5  -8  -6   -4.80    2.90   1
   5   8   7    3.00    3.80   1
  -5  -8  -7    2.70    2.30   1
   5   8   8   84.10    6.40   1
  -5  -8  -8   82.60    5.00   1
   5   8   9   36.10    5.60   1
  -5  -8  -9   33.50    4.50   1
   5   8  10   21.70    5.90   1
  -5  -8 -10   26.50    4.50   1
   5   8  11    6.60    4.30   1
  -5  -8 -11   15.50    4.70   1
   5   9 -11    7.10    5.80   1
  -5  -9  11    6.40    7.20   1
   5   9 -10   -1.30    6.10   1
  -5  -9  10    3.20    5.00   1
   5   9  -9   27.20    5.80   1
  -5  -9   9   31.10    5.20   1
   5   9  -8   -0.10    4.90   1
  -5  -9   8   -3.60    4.10   1
   5   9  -7   47.30    5.20   1
  -5  -9   7   52.30    4.60   1
   5   9  -6   11.10    4.00   1
  -5  -9   6    9.20    3.00   1
   5   9  -5   20.10    3.90   1
  -5  -9   5   24.70    3.10   1
   5   9  -4   17.80    3.70   1
  -5  -9   4   17.40    3.10   1
   5   9  -3   81.90    5.10   1
  -5  -9   3   85.50    3.80   1
   5   9  -2  218.50    8.80   1
  -5  -9   2  218.40    6.90   1
   5   9  -1  103.80    5.30   1
  -5  -9   1  105.60    3.90   1
   5   9   0   43.70    2.60   1
  -5  -9   0   47.10    2.50   1
   5   9   1   27.20    2.50   1
  -5  -9  -1   26.20    2.20   1
   5   9   2  655.00   16.40   1
  -5  -9  -2  643.90   14.10   1
   5   9   3  100.90    5.60   1
  -5  -9  -3   96.80    3.20   1
   5   9   4    1.00    3.20   1
  -5  -9  -4   -0.80    2.10   1
   5   9   5   13.00    3.60   1
  -5  -9  -5   11.80    2.40   1
   5   9   6   12.90    4.10   1
  -5  -9  -6    9.70    2.50   1
   5   9   7   25.40    4.00   1
  -5  -9  -7   26.30    3.60   1
   5   9   8    4.60    4.50   1
  -5  -9  -8    7.60    3.40   1
   5   9   9   56.30    6.70   1
  -5  -9  -9   48.20    5.20   1
   5   9  10    1.90    6.30   1
  -5  -9 -10   -2.80    4.50   1
   5  10 -10    6.20    6.80   1
  -5 -10  10    8.00    4.90   1
   5  10  -9    5.80    4.90   1
  -5 -10   9   14.80    5.00   1
   5  10  -8   53.50    6.80   1
  -5 -10   8   61.10    5.60   1
   5  10  -7   12.70    4.20   1
  -5 -10   7    7.40    3.50   1
   5  10  -6  113.90    7.50   1
  -5 -10   6  115.50    6.10   1
   5  10  -5   19.90    4.30   1
  -5 -10   5    8.00    3.40   1
   5  10  -4   12.80    3.30   1
  -5 -10   4    6.80    2.40   1
   5  10  -3    1.10    3.40   1
  -5 -10   3    0.70    2.90   1
   5  10  -2  293.80   11.70   1
  -5 -10   2  283.60    9.20   1
   5  10  -1   10.10    3.50   1
  -5 -10   1    8.20    2.40   1
   5  10   0   27.80    3.20   1
  -5 -10   0   27.40    2.30   1
   5  10   1    1.30    2.00   1
  -5 -10  -1    5.90    1.70   1
   5  10   2   25.30    2.70   1
  -5 -10  -2   20.50    2.50   1
   5  10   3    9.60    2.30   1
  -5 -10  -3   13.10    3.00   1
   5  10   4   49.20    4.30   1
  -5 -10  -4   50.60    3.30   1
   5  10   5   80.20    6.00   1
  -5 -10  -5   76.10    3.90   1
   5  10   6  105.50    7.20   1
  -5 -10  -6   99.70    4.60   1
   5  10   7    8.10    4.80   1
  -5 -10  -7    6.40    4.00   1
   5  10   8   71.30    6.80   1
  -5 -10  -8   59.10    5.40   1
   5  10   9    8.30    6.10   1
  -5 -10  -9   15.20    4.90   1
   5  10  10   13.40    9.20   1
  -5 -10 -10    1.70    5.80   1
   5  11  -9   33.70    7.10   1
  -5 -11   9   25.80    5.90   1
   5  11  -8    3.70    6.10   1
  -5 -11   8   -1.20    4.50   1
   5  11  -7    8.60    5.50   1
  -5 -11   7   -2.80    4.50   1
   5  11  -6    1.30    4.80   1
  -5 -11   6    2.90    3.90   1
   5  11  -5  151.90   13.00   1
  -5 -11   5  128.70    8.60   1
   5  11  -4   21.10    4.40   1
  -5 -11   4   30.90    3.50   1
   5  11  -3    9.80    3.50   1
  -5 -11   3    8.50    3.10   1
   5  11  -2  125.60    7.10   1
  -5 -11   2  122.30    5.80   1
   5  11  -1   19.80    3.70   1
  -5 -11   1   17.80    2.70   1
   5  11   0   29.20    4.20   1
  -5 -11   0   26.00    2.60   1
   5  11   1   22.30    4.30   1
  -5 -11  -1   17.70    2.80   1
   5  11   2  131.20    5.60   1
  -5 -11  -2  117.10    5.70   1
   5  11   3    5.20    2.70   1
  -5 -11  -3    5.60    4.30   1
   5  11   4    1.20    3.10   1
  -5 -11  -4    1.60    3.40   1
   5  11   5   66.90    6.10   1
  -5 -11  -5   63.50    4.20   1
   5  11   6   13.60    4.20   1
  -5 -11  -6    7.40    3.00   1
   5  11   7   15.10    5.50   1
  -5 -11  -7    5.70    4.30   1
   5  11   8    5.60    5.70   1
  -5 -11  -8    0.90    6.00   1
   5  11   9   77.30    8.80   1
  -5 -11  -9   82.80    8.90   1
   5  12  -8   11.20    9.00   1
  -5 -12   8   15.80    4.70   1
   5  12  -7    9.10    4.90   1
  -5 -12   7   -1.20    5.20   1
   5  12  -6    4.40    5.50   1
  -5 -12   6    4.90    5.40   1
   5  12  -5   11.00    4.70   1
  -5 -12   5   10.70    4.00   1
   5  12  -4   -4.10    4.70   1
  -5 -12   4   -0.90    3.80   1
   5  12  -3   13.80    5.00   1
  -5 -12   3   12.50    4.00   1
   5  12  -2   30.10    5.10   1
  -5 -12   2   41.50    4.30   1
   5  12  -1   59.60    5.30   1
  -5 -12   1   59.40    5.40   1
   5  12   0   75.20    6.60   1
  -5 -12   0   58.50    4.50   1
   5  12   1   35.60    5.00   1
  -5 -12  -1   23.80    3.10   1
   5  12   2   -1.00    4.30   1
  -5 -12  -2   -5.00    3.60   1
   5  12   3   12.80    3.30   1
  -5 -12  -3    7.60    3.90   1
   5  12   4    3.70    3.70   1
  -5 -12  -4    4.80    3.30   1
   5  12   5   87.00    5.60   1
  -5 -12  -5   76.00    7.20   1
   5  12   6    7.70    4.70   1
  -5 -12  -6    6.80    4.60   1
   5  12   7   48.50    7.30   1
  -5 -12  -7   50.80    7.40   1
   5  13  -6   23.10    6.50   1
  -5 -13   6   21.00    5.60   1
   5  13  -5  145.30   10.30   1
  -5 -13   5  162.10    8.80   1
   5  13  -4   28.90    6.20   1
  -5 -13   4   35.70    5.00   1
   5  13  -3   14.40    4.90   1
  -5 -13   3   16.90    4.10   1
   5  13  -2    4.60    5.10   1
  -5 -13   2    3.40    4.00   1
   5  13  -1    9.80    4.40   1
  -5 -13   1    9.90    4.50   1
   5  13   0   -0.10    4.90   1
  -5 -13   0    1.10    3.70   1
   5  13   1   39.50    8.00   1
  -5 -13  -1   31.50    5.70   1
   5  13   2    2.30    3.90   1
  -5 -13  -2    3.90    4.00   1
   5  13   3   35.70    5.30   1
  -5 -13  -3   31.60    4.60   1
   5  13   4    9.70    4.40   1
  -5 -13  -4    9.50    3.90   1
   5  13   5  129.80   10.00   1
  -5 -13  -5  120.50    7.70   1
   5  13   6   37.90    4.90   1
  -5 -13  -6   34.50    4.40   1
   5  14  -4   45.70    7.60   1
  -5 -14   4   21.40    7.10   1
   5  14  -3   32.60    6.30   1
  -5 -14   3   29.40    4.90   1
   5  14  -2   56.20    7.70   1
  -5 -14   2   82.70    7.70   1
   5  14  -1   15.60    5.30   1
  -5 -14   1   11.90    6.40   1
   5  14   0    9.90    5.60   1
  -5 -14   0    2.90    5.00   1
   5  14   1    3.10    5.60   1
  -5 -14  -1    7.50    6.30   1
   5  14   2   43.80    7.90   1
  -5 -14  -2   59.80    6.40   1
   5  14   3   -5.50    5.30   1
  -5 -14  -3   -2.10    6.50   1
   6 -14  -2    8.80    5.10   1
  -6  14   2   -4.70    4.70   1
   6 -14  -1    3.70    5.80   1
  -6  14   1   22.00    5.50   1
   6 -14   0    1.60    5.70   1
  -6  14   0   -2.30    6.60   1
   6 -14   1   64.10    7.50   1
  -6  14  -1   59.40    9.40   1
   6 -13  -5    4.80    8.60   1
  -6  13   5    8.40    8.40   1
   6 -13  -4   -3.00    5.20   1
  -6  13   4    4.80    8.10   1
   6 -13  -3   46.80    6.60   1
  -6  13   3   48.40    5.30   1
   6 -13  -2   15.60    7.00   1
  -6  13   2   22.30    5.10   1
   6 -13  -1    4.60    4.70   1
  -6  13   1   -3.40    4.10   1
   6 -13   0   14.10    5.00   1
  -6  13   0    8.20    6.20   1
   6 -13   1   30.30    6.50   1
  -6  13  -1   29.80    8.50   1
   6 -13   2   15.90    6.60   1
  -6  13  -2    3.60    8.30   1
   6 -13   3   60.10    6.90   1
  -6  13  -3   80.70   11.50   1
   6 -13   4    5.60    5.10   1
  -6  13  -4    7.30    7.20   1
   6 -13   5  148.40   11.00   1
  -6  13  -5  142.90   14.70   1
   6 -12  -7    3.80    5.90   1
  -6  12   7    3.00    5.80   1
   6 -12  -6   -1.80    6.10   1
  -6  12   6   -2.10    7.70   1
   6 -12  -5   35.60    5.20   1
  -6  12   5   31.20    6.60   1
   6 -12  -4   -1.60    5.20   1
  -6  12   4    3.00    6.60   1
   6 -12  -3   -1.80    5.00   1
  -6  12   3    0.60    6.50   1
   6 -12  -2   89.40    9.40   1
  -6  12   2   84.60    6.20   1
   6 -12  -1   56.70    5.80   1
  -6  12   1   58.50    5.40   1
   6 -12   0   26.00    4.80   1
  -6  12   0   20.00    4.90   1
   6 -12   1  270.80   13.70   1
  -6  12  -1  255.90   12.60   1
   6 -12   2    8.40    4.50   1
  -6  12  -2    4.60    5.00   1
   6 -12   3   16.50    6.20   1
  -6  12  -3    9.60    8.90   1
   6 -12   4    9.00    7.60   1
  -6  12  -4   30.10    9.40   1
   6 -12   5   -0.70    4.70   1
  -6  12  -5   -3.70    9.50   1
   6 -12   6   12.10    9.90   1
  -6  12  -6    4.80    9.50   1
   6 -11  -8    0.80    4.60   1
  -6  11   8    1.60    5.40   1
   6 -11  -7    3.70    4.80   1
  -6  11   7    5.90    6.30   1
   6 -11  -6    6.10    5.20   1
  -6  11   6    3.90    6.60   1
   6 -11  -5   13.80    5.40   1
  -6  11   5   23.20    7.90   1
   6 -11  -4   83.70    7.00   1
  -6  11   4  106.00    9.10   1
   6 -11  -3  127.10    7.80   1
  -6  11   3  128.40   10.60   1
   6 -11  -2  120.30    7.90   1
  -6  11   2  133.90    7.50   1
   6 -11  -1   16.40    4.60   1
  -6  11   1    5.20    4.10   1
   6 -11   0   24.70    4.30   1
  -6  11   0   24.10    4.60   1
   6 -11   1    6.30    4.60   1
  -6  11  -1    2.00    4.00   1
   6 -11   2    0.10    4.30   1
  -6  11  -2   -1.90    4.00   1
   6 -11   3   -3.80    3.60   1
  -6  11  -3   -5.20    7.20   1
   6 -11   4   46.30    8.10   1
   6 -11   5   52.60    6.70   1
  -6  11  -5   53.70   10.10   1
   6 -11   6   20.00    4.50   1
  -6  11  -6   28.10    9.10   1
   6 -11   7   -2.40    5.10   1
  -6  11  -7    1.20    4.70   1
   6 -11   8  -16.80   11.20   1
  -6  11  -8   -3.10    9.90   1
   6 -10  -9    3.70    4.60   1
  -6  10   9    2.90    5.00   1
   6 -10  -8   53.10    6.90   1
  -6  10   8   51.80    7.10   1
   6 -10  -7    8.70    4.70   1
  -6  10   7   -3.70    6.30   1
   6 -10  -6  360.80   11.50   1
  -6  10   6  334.50   18.80   1
   6 -10  -5   27.30    7.70   1
  -6  10   5   36.10    6.30   1
   6 -10  -4    6.30    3.40   1
  -6  10   4    3.90    3.90   1
   6 -10  -3   41.10    4.90   1
  -6  10   3   44.10    6.20   1
   6 -10  -2   25.60    4.40   1
  -6  10   2   27.70    4.00   1
   6 -10  -1   16.20    3.90   1
  -6  10   1   14.30    3.10   1
   6 -10   0    8.30    3.30   1
  -6  10   0    9.40    3.10   1
   6 -10   1  128.40    7.00   1
  -6  10  -1  121.50    6.40   1
   6 -10   2   26.90    4.40   1
  -6  10  -2   20.40    6.10   1
   6 -10   3   13.00    4.20   1
  -6  10  -3    1.70    6.30   1
   6 -10   4   86.00    6.70   1
  -6  10  -4  104.00    9.20   1
   6 -10   5    1.50    3.80   1
  -6  10  -5    1.60    7.20   1
   6 -10   6    1.80    4.00   1
   6 -10   7    8.40    6.00   1
  -6  10  -7    3.00    5.10   1
   6 -10   8  125.30    9.80   1
  -6  10  -8  109.00   13.60   1
   6 -10   9    2.60    7.70   1
  -6  10  -9    5.10    7.00   1
   6  -9 -10   71.00    7.20   1
  -6   9  10   48.50    9.30   1
   6  -9  -9    1.20    3.70   1
  -6   9   9    9.30    6.50   1
   6  -9  -8    2.90    4.30   1
  -6   9   8   -2.80    4.00   1
   6  -9  -7    3.20    4.40   1
  -6   9   7    7.30    5.40   1
   6  -9  -6   60.90    5.40   1
  -6   9   6   62.70    6.40   1
   6  -9  -5   -3.10    3.60   1
  -6   9   5    0.20    4.80   1
   6  -9  -4  157.40    7.40   1
  -6   9   4  162.50   10.10   1
   6  -9  -3   28.40    3.40   1
   6  -9  -2  402.00   20.50   1
  -6   9   2  421.00   14.50   1
   6  -9  -1    0.90    2.80   1
  -6   9   1    4.50    3.10   1
   6  -9   0    1.20    5.10   1
  -6   9   0    7.50    3.00   1
   6  -9   1    4.70    4.70   1
  -6   9  -1    1.00    4.40   1
   6  -9   2   10.10    4.40   1
  -6   9  -2   -2.50    4.20   1
   6  -9   3   23.90    3.90   1
  -6   9  -3   26.40    3.90   1
   6  -9   4  364.50   14.40   1
  -6   9  -4  373.30   11.50   1
   6  -9   5   11.80    3.40   1
  -6   9  -5   15.40    3.40   1
   6  -9   6   26.70    4.30   1
  -6   9  -6   26.60    4.40   1
   6  -9   7   49.80    5.30   1
  -6   9  -7   51.10    4.30   1
   6  -9   8    0.20    5.60   1
  -6   9  -8   10.60    4.50   1
   6  -9   9   25.90    6.50   1
  -6   9  -9   13.30    5.40   1
   6  -9  10    2.40    7.50   1
  -6   9 -10   13.70    5.80   1
   6  -8 -11    7.60    5.90   1
  -6   8  11    5.60    7.00   1
   6  -8 -10    1.40    4.00   1
  -6   8  10   -8.20    6.00   1
   6  -8  -9    8.90    4.40   1
  -6   8   9   18.10    4.20   1
   6  -8  -8   26.30    4.10   1
  -6   8   8   27.10    5.50   1
   6  -8  -7   11.40    3.50   1
  -6   8   7   16.40    4.80   1
   6  -8  -6  430.30   14.90   1
  -6   8   6  426.20   19.60   1
   6  -8  -5   17.50    3.60   1
  -6   8   5   14.00    4.60   1
   6  -8  -4   15.50    2.90   1
  -6   8   4   13.10    3.10   1
   6  -8  -3   38.10    6.20   1
  -6   8   3   42.30    5.10   1
   6  -8  -2   54.10    3.80   1
  -6   8   2   58.10    3.80   1
   6  -8  -1   17.80    3.20   1
  -6   8   1   13.90    2.90   1
   6  -8   0   41.10    3.90   1
  -6   8   0   43.00    3.80   1
   6  -8   1  115.10    5.80   1
  -6   8  -1  111.40    3.90   1
   6  -8   2   59.70    4.20   1
  -6   8  -2   72.90    3.40   1
   6  -8   3   25.90    3.70   1
  -6   8  -3   28.30    2.70   1
   6  -8   4   -3.70    3.30   1
  -6   8  -4   -3.30    2.40   1
   6  -8   5    4.30    3.10   1
  -6   8  -5    7.50    3.40   1
   6  -8   6  170.80    7.10   1
  -6   8  -6  184.60    7.60   1
   6  -8   7    8.40    5.10   1
  -6   8  -7    4.10    3.60   1
   6  -8   8  370.60   15.40   1
  -6   8  -8  377.20   12.80   1
   6  -8   9    5.00    5.70   1
  -6   8  -9    5.50    4.70   1
   6  -8  10   26.60    5.70   1
  -6   8 -10   47.20    6.10   1
   6  -7 -12   -7.10    5.90   1
  -6   7  12   11.10    7.50   1
   6  -7 -11    6.50    5.40   1
  -6   7  11   -0.90    6.10   1
   6  -7 -10    7.90    4.20   1
  -6   7  10    6.80    5.90   1
   6  -7  -9  103.80    6.80   1
  -6   7   9   96.80    6.00   1
   6  -7  -8   -4.40    3.60   1
  -6   7   8    0.70    3.20   1
   6  -7  -7  182.40    8.20   1
  -6   7   7  185.20   10.80   1
   6  -7  -6   76.00    4.90   1
  -6   7   6   79.90    6.10   1
   6  -7  -5   43.70    3.60   1
  -6   7   5   57.40    5.10   1
   6  -7  -4  317.20   10.40   1
  -6   7   4  330.20   15.10   1
   6  -7  -3  270.20    9.60   1
  -6   7   3  249.40    8.40   1
   6  -7  -2   99.10    4.90   1
  -6   7   2   95.10    4.40   1
   6  -7  -1   95.50    4.50   1
   6  -7   0   27.20    3.00   1
  -6   7   0   26.20    1.60   1
   6  -7   1   26.10    1.90   1
  -6   7  -1   32.20    2.10   1
   6  -7   2    8.90    2.80   1
  -6   7  -2   14.60    2.00   1
   6  -7   3  176.50    7.30   1
  -6   7  -3  178.10    7.00   1
   6  -7   4   84.90    4.30   1
  -6   7  -4   85.50    3.80   1
   6  -7   5  400.70   11.10   1
  -6   7  -5  387.00   11.10   1
   6  -7   6  117.20    5.20   1
  -6   7  -6  120.20    4.90   1
   6  -7   7   -1.10    4.30   1
  -6   7  -7    5.70    2.70   1
   6  -7   8    0.40    4.00   1
  -6   7  -8    6.20    3.30   1
   6  -7   9    6.60    4.20   1
  -6   7  -9   -6.20    4.40   1
   6  -7  10   36.90    5.30   1
  -6   7 -10   43.50    5.50   1
   6  -7  11   85.40    8.40   1
  -6   7 -11   76.30    7.10   1
   6  -6 -12    3.40    5.60   1
  -6   6  12    6.40    4.30   1
   6  -6 -11   18.60    5.10   1
  -6   6  11    7.30    6.10   1
   6  -6 -10   46.50    5.20   1
  -6   6  10   43.90    6.60   1
   6  -6  -9  125.40    7.10   1
  -6   6   9  135.40    6.80   1
   6  -6  -8  327.60   12.50   1
  -6   6   8  335.10   11.70   1
   6  -6  -7    3.40    3.20   1
  -6   6   7    6.60    2.70   1
   6  -6  -6   40.00    3.50   1
  -6   6   6   38.10    4.70   1
   6  -6  -5   21.00    2.90   1
  -6   6   5   24.70    3.60   1
   6  -6  -4  242.90    8.20   1
  -6   6   4  247.30   11.20   1
   6  -6  -3   21.10    1.70   1
  -6   6   3   16.70    2.50   1
   6  -6  -2    0.00    2.10   1
  -6   6   2    1.20    2.20   1
   6  -6  -1  151.70    8.10   1
  -6   6   1  167.60    7.80   1
   6  -6   0    8.90    1.10   1
  -6   6   0   10.50    1.70   1
   6  -6   1  769.70   17.80   1
  -6   6  -1  796.10   18.10   1
   6  -6   2   86.20    3.40   1
  -6   6  -2   93.90    3.60   1
   6  -6   3   -1.10    1.50   1
  -6   6  -3    0.10    1.20   1
   6  -6   4    2.90    2.00   1
  -6   6  -4    3.20    1.30   1
   6  -6   5   21.70    2.60   1
  -6   6  -5   22.90    1.90   1
   6  -6   6   11.70    4.20   1
  -6   6  -6    4.90    1.90   1
   6  -6   7   -0.10    3.40   1
  -6   6  -7    0.00    1.80   1
   6  -6   8    3.90    4.50   1
  -6   6  -8    6.30    2.30   1
   6  -6   9   13.30    5.10   1
  -6   6  -9   -0.80    2.90   1
   6  -6  10   43.30    5.10   1
  -6   6 -10   40.40    4.10   1
   6  -6  11   39.90    6.90   1
  -6   6 -11   37.30    6.00   1
   6  -6  12   18.90   10.10   1
  -6   6 -12    1.80    5.40   1
   6  -5 -13   39.70    6.90   1
  -6   5  13   57.00    9.20   1
   6  -5 -12   19.20    5.80   1
  -6   5  12   14.80    5.00   1
   6  -5 -11  413.80   18.90   1
  -6   5  11  384.90   17.00   1
   6  -5 -10   10.00    3.80   1
  -6   5  10   11.00    4.80   1
   6  -5  -9  120.30    6.70   1
  -6   5   9  125.50    6.40   1
   6  -5  -8   57.10    4.40   1
  -6   5   8   60.20    4.00   1
   6  -5  -7    6.90    2.60   1
  -6   5   7    9.40    2.50   1
   6  -5  -6   19.70    3.20   1
  -6   5   6   19.40    2.50   1
   6  -5  -5   13.20    1.40   1
  -6   5   5   14.90    2.90   1
   6  -5  -4   66.30    2.10   1
  -6   5   4   69.40    3.00   1
   6  -5  -3  394.40    7.90   1
  -6   5   3  399.50    9.40   1
   6  -5  -2   93.60    2.30   1
  -6   5   2   90.50    3.10   1
   6  -5  -1  627.30   10.20   1
  -6   5   1  653.00   14.70   1
   6  -5   0  239.10    5.30   1
  -6   5   0  249.20    5.80   1
   6  -5   1    5.30    1.30   1
  -6   5  -1    4.50    1.50   1
   6  -5   2   48.80    2.30   1
  -6   5  -2   48.70    1.70   1
   6  -5   3  103.00    3.60   1
  -6   5  -3   94.70    2.40   1
   6  -5   4   46.80    2.80   1
  -6   5  -4   50.10    1.90   1
   6  -5   5   56.20    3.10   1
  -6   5  -5   57.00    2.70   1
   6  -5   6  130.80    5.10   1
  -6   5  -6  131.30    4.30   1
   6  -5   7   14.80    4.20   1
  -6   5  -7   15.50    2.10   1
   6  -5   8    9.50    3.60   1
  -6   5  -8    7.70    2.00   1
   6  -5   9    1.50    4.00   1
  -6   5  -9    9.60    2.80   1
   6  -5  10   50.90    4.90   1
  -6   5 -10   39.90    4.00   1
   6  -5  11   52.10    7.40   1
  -6   5 -11   54.40    4.90   1
   6  -5  12    1.70    7.00   1
  -6   5 -12    0.10    4.40   1
   6  -4 -13   30.60    6.50   1
  -6   4  13   29.20    5.80   1
   6  -4 -12   29.90    6.40   1
  -6   4  12   40.20    5.60   1
   6  -4 -11   11.30    4.90   1
  -6   4  11   11.40    3.80   1
   6  -4 -10   -3.50    3.40   1
  -6   4  10    1.80    3.20   1
   6  -4  -9   90.10    4.80   1
  -6   4   9  101.90    4.30   1
   6  -4  -8    6.00    2.20   1
  -6   4   8    6.70    2.60   1
   6  -4  -7  138.60    4.50   1
  -6   4   7  153.00    4.70   1
   6  -4  -6  196.90    4.80   1
  -6   4   6  205.20    5.80   1
   6  -4  -5    2.00    0.90   1
  -6   4   5    2.70    1.20   1
   6  -4  -4    7.70    0.90   1
  -6   4   4    8.20    1.20   1
   6  -4  -3   37.40    1.20   1
  -6   4   3   41.80    2.00   1
   6  -4  -2    8.40    0.70   1
  -6   4   2    7.90    1.20   1
   6  -4  -1 1203.30   15.90   1
  -6   4   1 1217.40   19.40   1
   6  -4   0  229.80    4.40   1
  -6   4   0  228.60    4.70   1
   6  -4   1 1026.30   19.10   1
  -6   4  -1 1037.50   14.40   1
   6  -4   2   12.60    1.30   1
  -6   4  -2   15.10    1.00   1
   6  -4   3  262.20    5.80   1
  -6   4  -3  261.20    4.70   1
   6  -4   4  101.40    3.80   1
  -6   4  -4  114.10    3.70   1
   6  -4   5   12.30    1.60   1
  -6   4  -5   17.20    1.70   1
   6  -4   6   34.10    2.80   1
  -6   4  -6   35.60    2.10   1
   6  -4   7   76.60    5.30   1
  -6   4  -7   79.30    3.30   1
   6  -4   8   23.90    4.20   1
  -6   4  -8   17.90    2.20   1
   6  -4   9   78.80    6.30   1
  -6   4  -9   77.20    4.10   1
   6  -4  10   48.00    4.70   1
  -6   4 -10   49.80    4.00   1
   6  -4  11    6.90    5.90   1
  -6   4 -11    0.90    3.70   1
   6  -4  12   13.60    6.10   1
  -6   4 -12    3.40    4.00   1
   6  -3 -13   35.10    7.30   1
  -6   3  13   32.90    5.90   1
   6  -3 -12    4.50    5.00   1
  -6   3  12    3.90    4.40   1
   6  -3 -11  226.10   10.80   1
  -6   3  11  220.80    9.90   1
   6  -3 -10   46.90    3.80   1
  -6   3  10   44.80    4.00   1
   6  -3  -9   -0.40    2.60   1
  -6   3   9    2.60    2.10   1
   6  -3  -8    1.10    2.00   1
  -6   3   8    5.10    1.90   1
   6  -3  -7    2.30    1.60   1
  -6   3   7    4.00    1.80   1
   6  -3  -6    7.50    1.20   1
  -6   3   6   13.80    1.50   1
   6  -3  -5   18.50    1.20   1
  -6   3   5   17.40    1.40   1
   6  -3  -4  149.20    3.20   1
  -6   3   4  151.50    3.70   1
   6  -3  -3   11.30    0.90   1
  -6   3   3   12.60    1.10   1
   6  -3  -2  282.20    4.60   1
  -6   3   2  280.10    5.50   1
   6  -3  -1  575.50    9.70   1
  -6   3   1  588.30    9.90   1
   6  -3   0   39.10    1.20   1
  -6   3   0   40.20    1.40   1
   6  -3   1  136.60    2.60   1
  -6   3  -1  141.00    2.80   1
   6  -3   2   13.20    1.30   1
  -6   3  -2   13.70    1.10   1
   6  -3   3  937.90   14.80   1
  -6   3  -3  963.90   16.20   1
   6  -3   4  170.00    4.10   1
  -6   3  -4  185.20    3.90   1
   6  -3   5   39.00    2.30   1
  -6   3  -5   44.80    2.10   1
   6  -3   6   10.80    1.20   1
  -6   3  -6   14.50    1.70   1
   6  -3   7   83.90    5.50   1
  -6   3  -7   84.50    3.40   1
   6  -3   8    2.90    3.20   1
  -6   3  -8    2.10    1.90   1
   6  -3   9   44.40    3.80   1
  -6   3  -9   48.70    3.50   1
   6  -3  10   16.60    5.40   1
  -6   3 -10    5.70    3.30   1
   6  -3  11   50.50    6.90   1
  -6   3 -11   47.60    4.70   1
   6  -3  12   25.70    6.90   1
  -6   3 -12   23.20    5.00   1
   6  -2 -13   -2.10    5.70   1
  -6   2  13    2.80    5.60   1
   6  -2 -12    8.00    4.00   1
  -6   2  12   11.10    4.00   1
   6  -2 -11   23.40    3.60   1
  -6   2  11   18.00    3.20   1
   6  -2 -10   -4.90    2.70   1
  -6   2  10   -3.00    2.70   1
   6  -2  -9   41.90    3.40   1
  -6   2   9   48.30    3.20   1
   6  -2  -8   64.00    3.30   1
  -6   2   8   62.40    2.60   1
   6  -2  -7  389.10   10.20   1
  -6   2   7  389.50    8.50   1
   6  -2  -6  237.60    5.70   1
  -6   2   6  228.80    4.70   1
   6  -2  -5   27.60    1.40   1
  -6   2   5   31.50    1.50   1
   6  -2  -4   16.20    1.00   1
  -6   2   4   15.00    1.10   1
   6  -2  -3  145.30    2.80   1
  -6   2   3  148.40    3.70   1
   6  -2  -2  395.20    6.30   1
  -6   2   2  389.40    8.80   1
   6  -2  -1  859.90   12.60   1
  -6   2   1  827.00   13.30   1
   6  -2   0  262.50    4.50   1
  -6   2   0  250.50    4.90   1
   6  -2   1  194.30    3.50   1
  -6   2  -1  205.50    3.90   1
   6  -2   2    1.10    0.70   1
  -6   2  -2   -0.70    1.00   1
   6  -2   3  289.20    5.60   1
  -6   2  -3  300.60    5.70   1
   6  -2   4    5.30    1.00   1
  -6   2  -4    7.60    1.30   1
   6  -2   5   14.80    1.40   1
  -6   2  -5   19.00    1.60   1
   6  -2   6  261.10   10.00   1
  -6   2  -6  275.30    6.50   1
   6  -2   7   60.40    4.50   1
  -6   2  -7   56.60    2.80   1
   6  -2   8  263.50   10.40   1
  -6   2  -8  265.20    8.20   1
   6  -2   9  116.00    5.60   1
  -6   2  -9  110.00    5.20   1
   6  -2  10  108.80    7.80   1
  -6   2 -10  120.70    5.60   1
   6  -2  11    4.60    5.40   1
  -6   2 -11    3.00    3.80   1
   6  -2  12   15.70    5.70   1
  -6   2 -12   20.50    4.20   1
   6  -2  13   25.90    7.60   1
  -6   2 -13   35.90    6.10   1
   6  -1 -13   14.60    4.50   1
  -6   1  13   15.00    5.90   1
   6  -1 -12    2.60    3.90   1
  -6   1  12    6.20    4.40   1
   6  -1 -11  142.60    6.50   1
  -6   1  11  137.70    6.60   1
   6  -1 -10    0.20    2.70   1
  -6   1  10    0.50    2.60   1
   6  -1  -9    2.80    2.50   1
  -6   1   9   -0.20    2.30   1
   6  -1  -8  187.70    6.20   1
  -6   1   8  194.70    6.30   1
   6  -1  -7   95.10    3.80   1
  -6   1   7   97.60    3.10   1
   6  -1  -6  249.70    5.80   1
  -6   1   6  247.60    4.90   1
   6  -1  -5   94.70    2.70   1
  -6   1   5   95.40    2.30   1
   6  -1  -4 1481.70   23.50   1
  -6   1   4 1459.00   22.80   1
   6  -1  -3   18.80    0.80   1
  -6   1   3   19.00    1.10   1
   6  -1  -2    2.60    1.20   1
  -6   1   2    7.60    2.10   1
   6  -1  -1 1084.20   17.90   1
  -6   1   1  962.60   18.20   1
   6  -1   0   82.80    2.30   1
  -6   1   0   87.80    2.80   1
   6  -1   1    9.50    0.70   1
  -6   1  -1   10.30    0.80   1
   6  -1   2   25.50    1.00   1
  -6   1  -2   25.70    1.20   1
   6  -1   3   58.30    1.60   1
  -6   1  -3   63.40    2.00   1
   6  -1   4   92.50    2.10   1
  -6   1  -4  103.40    2.70   1
   6  -1   5   86.90    4.60   1
  -6   1  -5   90.10    3.00   1
   6  -1   6  510.60   16.80   1
  -6   1  -6  510.60   12.40   1
   6  -1   7   15.40    3.40   1
  -6   1  -7    7.20    2.20   1
   6  -1   8    1.50    2.10   1
  -6   1  -8    6.50    2.50   1
   6  -1   9   14.20    4.20   1
  -6   1  -9   10.80    2.60   1
   6  -1  10  151.40    8.90   1
  -6   1 -10  152.40    6.40   1
   6  -1  11    8.20    5.40   1
  -6   1 -11    3.40    3.80   1
   6  -1  12   28.70    6.90   1
  -6   1 -12   19.80    4.70   1
   6  -1  13    1.10    6.90   1
  -6   1 -13    6.70    6.20   1
   6   0 -13   -1.00    4.60   1
  -6   0  13   -4.70    6.30   1
   6   0 -12   31.50    4.60   1
  -6   0  12   38.90    5.40   1
   6   0 -11    1.00    3.30   1
  -6   0  11   -0.50    3.10   1
   6   0 -10   40.90    3.70   1
  -6   0  10   45.40    3.60   1
   6   0  -9   -0.80    2.40   1
  -6   0   9    1.80    2.20   1
   6   0  -8  870.30   21.70   1
  -6   0   8  853.20   19.70   1
   6   0  -7   -2.30    1.60   1
  -6   0   7   -0.80    1.50   1
   6   0  -6  532.30    9.90   1
  -6   0   6  533.40    9.50   1
   6   0  -5    1.00    1.10   1
  -6   0   5   -0.30    0.90   1
   6   0  -4  674.90   14.10   1
  -6   0   4  685.20   10.50   1
   6   0  -3    1.30    0.60   1
  -6   0   3    0.50    1.20   1
   6   0  -2   10.60    1.60   1
  -6   0   2   12.50    1.40   1
   6   0  -1    0.10    1.20   1
  -6   0   1    3.80    1.20   1
   6   0   0  199.50    4.10   1
  -6   0   0  191.50    4.70   1
   6   0   1   -0.20    0.50   1
  -6   0  -1    2.30    0.60   1
   6   0   2  622.00    9.20   1
  -6   0  -2  628.50   10.50   1
   6   0   3   -0.30    0.70   1
  -6   0  -3   -0.10    1.00   1
   6   0   4    0.90    1.00   1
  -6   0  -4    2.20    1.20   1
   6   0   5    0.00    1.40   1
  -6   0  -5   -0.10    1.40   1
   6   0   6  259.40    7.40   1
  -6   0  -6  263.40    7.50   1
   6   0   7   -1.50    3.00   1
  -6   0  -7   -2.80    2.20   1
   6   0   8   15.60    2.20   1
  -6   0  -8   25.80    2.70   1
   6   0   9    5.30    3.50   1
  -6   0  -9    3.60    2.90   1
   6   0  10  237.00   11.90   1
  -6   0 -10  253.10    9.00   1
   6   0  11   -2.70    5.10   1
  -6   0 -11   -4.10    3.80   1
   6   0  12    6.40    6.10   1
  -6   0 -12   17.30    4.70   1
   6   0  13   -5.30    6.70   1
  -6   0 -13   -1.80    6.10   1
   6   1 -13    3.00    5.10   1
  -6  -1  13   -1.60    5.50   1
   6   1 -12    2.60    4.00   1
  -6  -1  12    3.80    4.70   1
   6   1 -11  127.20    6.50   1
  -6  -1  11  138.40    6.30   1
   6   1 -10   -5.20    3.00   1
  -6  -1  10   -1.40    2.90   1
   6   1  -9    0.00    2.80   1
  -6  -1   9    3.10    2.20   1
   6   1  -8  188.90    6.40   1
  -6  -1   8  183.60    5.50   1
   6   1  -7   87.60    3.70   1
  -6  -1   7   86.60    3.30   1
   6   1  -6  239.50    5.80   1
  -6  -1   6  236.80    5.90   1
   6   1  -5   98.20    3.10   1
  -6  -1   5   92.10    2.90   1
   6   1  -4 1446.00   29.40   1
  -6  -1   4 1459.20   23.00   1
   6   1  -3   19.00    1.00   1
  -6  -1   3   18.80    1.00   1
   6   1  -2    0.40    2.40   1
  -6  -1   2    0.90    1.30   1
   6   1  -1 1029.20   18.00   1
  -6  -1   1  961.90   14.70   1
   6   1   0   82.80    2.60   1
  -6  -1   0   88.70    2.40   1
   6   1   1    7.70    0.60   1
  -6  -1  -1    9.40    0.70   1
   6   1   2   21.70    1.00   1
  -6  -1  -2   25.70    1.10   1
   6   1   3   58.60    1.40   1
  -6  -1  -3   64.90    2.10   1
   6   1   4   96.40    2.00   1
  -6  -1  -4   96.90    3.30   1
   6   1   5   90.90    3.10   1
  -6  -1  -5   87.10    3.10   1
   6   1   6  520.10   12.10   1
  -6  -1  -6  526.30   12.70   1
   6   1   7    7.40    2.90   1
  -6  -1  -7    6.20    2.20   1
   6   1   8    7.10    3.40   1
  -6  -1  -8    3.00    2.20   1
   6   1   9    9.30    3.90   1
  -6  -1  -9    6.30    2.50   1
   6   1  10  165.90    9.20   1
  -6  -1 -10  166.10    6.80   1
   6   1  11    7.80    5.10   1
  -6  -1 -11   14.70    3.60   1
   6   1  12   37.90    6.90   1
  -6  -1 -12   33.30    4.50   1
   6   1  13    0.60    7.20   1
  -6  -1 -13    4.20    6.20   1
   6   2 -13    6.40    4.70   1
  -6  -2  13   -9.50    5.70   1
   6   2 -12    9.90    4.30   1
  -6  -2  12   20.10    5.00   1
   6   2 -11   19.40    4.10   1
  -6  -2  11   27.10    4.70   1
   6   2 -10   -1.30    3.20   1
  -6  -2  10   -0.90    2.50   1
   6   2  -9   52.10    4.50   1
  -6  -2   9   50.20    3.70   1
   6   2  -8   59.90    4.20   1
  -6  -2   8   56.20    2.80   1
   6   2  -7  366.30   12.10   1
  -6  -2   7  367.70    8.90   1
   6   2  -6  229.20    6.00   1
  -6  -2   6  223.80    5.50   1
   6   2  -5   24.60    1.40   1
  -6  -2   5   25.90    1.40   1
   6   2  -4   14.90    1.20   1
  -6  -2   4   15.10    1.10   1
   6   2  -3  137.60    3.50   1
  -6  -2   3  141.90    3.00   1
   6   2  -2  373.30   11.40   1
  -6  -2   2  380.60   11.20   1
   6   2  -1  832.10   19.70   1
  -6  -2   1  785.60   15.10   1
   6   2   0  247.80    5.30   1
  -6  -2   0  245.30    4.70   1
   6   2   1  186.80    3.70   1
  -6  -2  -1  196.50    3.40   1
   6   2   2   -1.20    0.80   1
  -6  -2  -2    1.20    0.80   1
   6   2   3  294.30    5.10   1
  -6  -2  -3  296.60    5.40   1
   6   2   4    8.60    0.90   1
  -6  -2  -4   10.00    1.00   1
   6   2   5   18.30    2.40   1
  -6  -2  -5   18.60    1.90   1
   6   2   6  294.40    9.70   1
  -6  -2  -6  275.30    7.40   1
   6   2   7   64.80    4.40   1
  -6  -2  -7   58.00    3.00   1
   6   2   8  291.00   11.30   1
  -6  -2  -8  276.00    8.10   1
   6   2   9  136.50    7.50   1
  -6  -2  -9  114.80    5.20   1
   6   2  10  115.80    7.70   1
  -6  -2 -10  117.20    5.50   1
   6   2  11   -0.90    4.50   1
  -6  -2 -11   -1.70    3.30   1
   6   2  12   14.50    6.40   1
  -6  -2 -12   18.20    4.30   1
   6   2  13   27.80    7.80   1
  -6  -2 -13   36.80    9.80   1
   6   3 -13   28.90    5.20   1
  -6  -3  13   21.70    6.20   1
   6   3 -12    3.10    4.60   1
  -6  -3  12    6.30    5.30   1
   6   3 -11  221.40    9.00   1
  -6  -3  11  220.00    9.60   1
   6   3 -10   45.60    4.80   1
  -6  -3  10   47.40    4.40   1
   6   3  -9    1.00    3.10   1
  -6  -3   9   -4.40    2.20   1
   6   3  -8    4.50    3.10   1
  -6  -3   8    4.10    2.10   1
   6   3  -7    3.80    2.40   1
  -6  -3   7   -0.70    1.80   1
   6   3  -6    8.70    1.20   1
  -6  -3   6   10.50    1.50   1
   6   3  -5   17.90    1.20   1
  -6  -3   5   16.80    1.40   1
   6   3  -4  142.90    3.50   1
  -6  -3   4  151.40    3.90   1
   6   3  -3   12.60    1.20   1
  -6  -3   3   11.00    1.20   1
   6   3  -2  267.30    5.60   1
  -6  -3   2  269.40    5.10   1
   6   3  -1  570.20    9.50   1
  -6  -3   1  578.70    9.00   1
   6   3   0   36.90    1.20   1
  -6  -3   0   40.10    1.20   1
   6   3   1  138.20    3.20   1
  -6  -3  -1  143.20    2.80   1
   6   3   2   12.80    1.00   1
  -6  -3  -2   12.80    1.00   1
   6   3   3  996.00   16.50   1
  -6  -3  -3  932.10   15.40   1
   6   3   4  177.60    4.30   1
  -6  -3  -4  182.40    4.00   1
   6   3   5   42.90    2.20   1
  -6  -3  -5   47.10    1.90   1
   6   3   6   14.00    2.60   1
  -6  -3  -6   15.70    2.40   1
   6   3   7   95.50    5.20   1
  -6  -3  -7   92.30    4.20   1
   6   3   8    3.10    3.40   1
  -6  -3  -8    2.30    2.70   1
   6   3   9   54.00    5.00   1
  -6  -3  -9   55.40    3.80   1
   6   3  10   12.90    4.70   1
  -6  -3 -10   14.30    3.70   1
   6   3  11   55.80    6.90   1
  -6  -3 -11   52.20    4.80   1
   6   3  12   16.60    6.40   1
  -6  -3 -12   26.00    4.60   1
   6   4 -13   26.90    6.30   1
  -6  -4  13   26.00    6.70   1
   6   4 -12   38.90    5.20   1
  -6  -4  12   29.30    5.20   1
   6   4 -11   10.10    4.90   1
  -6  -4  11   15.60    3.80   1
   6   4 -10   -2.80    3.80   1
  -6  -4  10   -0.80    3.00   1
   6   4  -9   89.10    6.00   1
  -6  -4   9   97.10    4.80   1
   6   4  -8   -1.10    3.40   1
  -6  -4   8   -1.90    2.90   1
   6   4  -7  134.50    6.40   1
  -6  -4   7  141.00    5.30   1
   6   4  -6  206.30    7.90   1
  -6  -4   6  197.70    6.20   1
   6   4  -5    3.80    0.60   1
  -6  -4   5    4.00    1.50   1
   6   4  -4    7.40    0.80   1
  -6  -4   4    7.80    1.40   1
   6   4  -3   35.20    1.80   1
  -6  -4   3   36.70    1.70   1
   6   4  -2    9.40    1.10   1
  -6  -4   2    7.90    1.10   1
   6   4  -1 1178.80   19.00   1
  -6  -4   1 1196.40   19.40   1
   6   4   0  243.30    5.30   1
  -6  -4   0  230.80    4.70   1
   6   4   1 1017.90   15.90   1
  -6  -4  -1 1006.30   15.40   1
   6   4   2   12.60    1.20   1
  -6  -4  -2   13.90    0.90   1
   6   4   3  257.70    6.10   1
  -6  -4  -3  245.90    5.20   1
   6   4   4  118.50    3.80   1
  -6  -4  -4  113.90    3.40   1
   6   4   5   18.20    1.90   1
  -6  -4  -5   13.50    1.50   1
   6   4   6   36.10    3.30   1
  -6  -4  -6   37.40    1.90   1
   6   4   7   82.10    4.80   1
  -6  -4  -7   82.90    4.10   1
   6   4   8   20.50    3.90   1
  -6  -4  -8   19.10    3.00   1
   6   4   9   82.70    6.10   1
  -6  -4  -9   72.10    4.40   1
   6   4  10   54.30    6.00   1
  -6  -4 -10   46.90    4.50   1
   6   4  11    0.70    4.40   1
  -6  -4 -11    6.20    3.90   1
   6   4  12    7.30    6.50   1
  -6  -4 -12   13.90    4.50   1
   6   5 -13   47.30   12.60   1
  -6  -5  13   55.60    9.50   1
   6   5 -12    6.20    5.80   1
  -6  -5  12    7.40    5.10   1
   6   5 -11  359.30   17.40   1
  -6  -5  11  354.00   14.10   1
   6   5 -10   17.10    4.70   1
  -6  -5  10   12.10    3.40   1
   6   5  -9  112.40    6.80   1
  -6  -5   9  118.50    5.80   1
   6   5  -8   55.60    4.20   1
  -6  -5   8   54.70    3.90   1
   6   5  -7    1.00    3.10   1
  -6  -5   7   -1.10    2.50   1
   6   5  -6   15.40    3.20   1
  -6  -5   6   19.10    2.60   1
   6   5  -5   13.80    2.20   1
  -6  -5   5   11.30    2.00   1
   6   5  -4   61.70    2.90   1
  -6  -5   4   66.80    2.70   1
   6   5  -3  362.70    8.10   1
  -6  -5   3  382.00    8.50   1
   6   5  -2   92.50    3.10   1
  -6  -5   2   94.60    3.00   1
   6   5  -1  594.70   13.80   1
  -6  -5   1  619.80   11.40   1
   6   5   0  248.10    7.70   1
  -6  -5   0  246.50    4.60   1
   6   5   1    9.10    1.40   1
  -6  -5  -1    7.10    0.90   1
   6   5   2   49.70    2.30   1
  -6  -5  -2   47.90    1.60   1
   6   5   3   88.20    3.40   1
  -6  -5  -3   89.40    3.00   1
   6   5   4   46.70    2.60   1
  -6  -5  -4   45.30    2.20   1
   6   5   5   60.30    3.70   1
  -6  -5  -5   58.40    2.50   1
   6   5   6  136.10    6.10   1
  -6  -5  -6  131.90    4.10   1
   6   5   7   17.30    3.40   1
  -6  -5  -7   12.40    2.90   1
   6   5   8    8.40    3.60   1
  -6  -5  -8    5.90    2.90   1
   6   5   9    4.00    3.60   1
  -6  -5  -9    6.10    3.00   1
   6   5  10   41.80    5.70   1
  -6  -5 -10   48.80    4.80   1
   6   5  11   65.40    7.30   1
  -6  -5 -11   46.00    5.30   1
   6   5  12   -3.10    6.30   1
  -6  -5 -12   -1.90    4.90   1
   6   6 -12   -8.50    6.00   1
  -6  -6  12    6.50    5.40   1
   6   6 -11   18.00    5.90   1
  -6  -6  11   11.10    4.80   1
   6   6 -10   37.30    5.40   1
  -6  -6  10   44.60    4.70   1
   6   6  -9  111.70    7.10   1
  -6  -6   9  115.90    6.20   1
   6   6  -8  318.30   12.80   1
  -6  -6   8  313.60   10.40   1
   6   6  -7    4.20    3.00   1
  -6  -6   7    9.00    2.80   1
   6   6  -6   30.60    3.80   1
  -6  -6   6   36.60    3.20   1
   6   6  -5   13.10    2.90   1
  -6  -6   5   15.70    2.00   1
   6   6  -4  245.40    9.10   1
  -6  -6   4  238.40    7.30   1
   6   6  -3   17.90    1.00   1
  -6  -6   3   19.00    1.70   1
   6   6  -2    4.60    1.20   1
  -6  -6   2    5.10    1.30   1
   6   6  -1  153.10    4.30   1
  -6  -6   1  153.80    3.80   1
   6   6   0   11.60    1.50   1
  -6  -6   0   10.80    1.70   1
   6   6   1  755.20   17.40   1
  -6  -6  -1  751.00   12.50   1
   6   6   2   84.60    4.10   1
  -6  -6  -2   87.60    2.50   1
   6   6   3    2.00    2.00   1
  -6  -6  -3    0.90    1.00   1
   6   6   4    0.10    2.50   1
  -6  -6  -4    1.50    1.60   1
   6   6   5   26.10    3.30   1
  -6  -6  -5   24.10    2.60   1
   6   6   6    6.80    2.60   1
  -6  -6  -6    6.60    1.60   1
   6   6   7    0.30    3.10   1
  -6  -6  -7    1.50    2.80   1
   6   6   8   -1.50    3.40   1
  -6  -6  -8    7.30    3.30   1
   6   6   9    1.20    4.30   1
  -6  -6  -9    3.10    3.70   1
   6   6  10   45.30    6.00   1
  -6  -6 -10   47.10    4.60   1
   6   6  11   37.70    6.50   1
  -6  -6 -11   36.30    5.20   1
  -6  -6 -12   -3.00    9.00   1
  -6  -7  12   -6.00   11.50   1
   6   7 -11   -8.30    4.90   1
  -6  -7  11   -0.40    5.50   1
   6   7 -10    6.60    5.30   1
  -6  -7  10    8.70    4.50   1
   6   7  -9   86.60    6.60   1
  -6  -7   9   86.50    5.30   1
   6   7  -8    8.10    4.20   1
  -6  -7   8   -2.50    3.40   1
   6   7  -7  165.20    8.50   1
  -6  -7   7  176.40    6.80   1
   6   7  -6   73.30    5.10   1
  -6  -7   6   65.50    3.80   1
   6   7  -5   45.80    4.00   1
  -6  -7   5   45.80    3.30   1
   6   7  -4  315.00   11.10   1
  -6  -7   4  304.80    8.90   1
   6   7  -3  244.70    9.10   1
  -6  -7   3  252.10    7.40   1
   6   7  -2   88.80    3.20   1
  -6  -7   2   94.20    3.70   1
   6   7  -1   98.90    3.60   1
  -6  -7   1   95.90    3.40   1
   6   7   0   25.90    2.20   1
  -6  -7   0   26.60    1.90   1
   6   7   1   29.50    2.80   1
  -6  -7  -1   28.90    1.80   1
   6   7   2   13.10    2.40   1
  -6  -7  -2   12.60    1.60   1
   6   7   3  180.60    7.60   1
  -6  -7  -3  178.30    4.40   1
   6   7   4   90.40    5.10   1
  -6  -7  -4   81.80    3.30   1
   6   7   5  406.70   13.50   1
  -6  -7  -5  387.70    9.50   1
   6   7   6  128.20    6.70   1
  -6  -7  -6  120.50    4.30   1
   6   7   7    2.40    3.60   1
  -6  -7  -7    3.70    3.10   1
   6   7   8    3.20    4.20   1
  -6  -7  -8    7.00    3.40   1
   6   7   9    4.10    4.70   1
  -6  -7  -9    4.70    3.50   1
   6   7  10   47.10    6.50   1
  -6  -7 -10   47.40    5.50   1
   6   7  11   88.90    8.80   1
  -6  -7 -11   79.40    6.50   1
   6   8 -11   10.00    5.40   1
  -6  -8  11   -8.80    5.60   1
   6   8 -10    2.40    5.60   1
  -6  -8  10    1.00    4.20   1
   6   8  -9   22.60    5.20   1
  -6  -8   9   18.00    4.40   1
   6   8  -8   16.10    4.70   1
  -6  -8   8   20.90    4.20   1
   6   8  -7   17.70    4.20   1
  -6  -8   7    8.80    3.10   1
   6   8  -6  412.80   15.00   1
  -6  -8   6  400.10   12.00   1
   6   8  -5   11.60    3.60   1
  -6  -8   5   10.20    2.80   1
   6   8  -4   17.40    3.40   1
  -6  -8   4   14.60    2.50   1
   6   8  -3   31.80    3.70   1
  -6  -8   3   41.00    3.10   1
   6   8  -2   51.40    2.40   1
  -6  -8   2   54.00    3.20   1
   6   8  -1   17.50    1.90   1
  -6  -8   1   16.00    2.20   1
   6   8   0   46.50    2.70   1
  -6  -8   0   41.50    2.60   1
   6   8   1  106.90    4.30   1
  -6  -8  -1  108.00    3.80   1
   6   8   2   73.90    4.20   1
  -6  -8  -2   68.40    2.90   1
   6   8   3   31.50    3.70   1
  -6  -8  -3   31.50    1.90   1
   6   8   4   -0.90    2.90   1
  -6  -8  -4   -0.60    2.00   1
   6   8   5    7.10    3.30   1
  -6  -8  -5   11.70    2.40   1
   6   8   6  193.80    8.80   1
  -6  -8  -6  187.50    5.90   1
   6   8   7    0.50    4.00   1
  -6  -8  -7    6.00    3.50   1
   6   8   8  397.40   16.40   1
  -6  -8  -8  397.80   13.70   1
   6   8   9   13.60    5.70   1
  -6  -8  -9   10.80    4.40   1
   6   8  10   41.60    6.80   1
  -6  -8 -10   45.50    5.20   1
   6   9 -10   55.60    7.70   1
  -6  -9  10   64.50    5.60   1
   6   9  -9    3.20    5.60   1
  -6  -9   9   10.20    4.20   1
   6   9  -8    7.40    5.10   1
  -6  -9   8   -4.20    4.40   1
   6   9  -7    4.30    4.50   1
  -6  -9   7    4.70    3.90   1
   6   9  -6   43.70    5.20   1
  -6  -9   6   52.70    4.00   1
   6   9  -5    1.70    3.70   1
  -6  -9   5    2.10    3.00   1
   6   9  -4  156.30    8.00   1
  -6  -9   4  151.40    6.40   1
   6   9  -3   22.80    3.80   1
  -6  -9   3   25.10    2.90   1
   6   9  -2  389.30   13.70   1
  -6  -9   2  387.30   11.80   1
   6   9  -1    3.30    1.70   1
  -6  -9   1    6.10    2.70   1
   6   9   0    9.60    2.10   1
  -6  -9   0    8.60    2.10   1
   6   9   1    2.80    2.10   1
  -6  -9  -1    2.40    1.80   1
   6   9   2    6.60    2.60   1
  -6  -9  -2    5.90    1.80   1
   6   9   3   28.80    3.50   1
  -6  -9  -3   24.30    2.60   1
   6   9   4  376.10   14.10   1
  -6  -9  -4  354.40    9.60   1
   6   9   5   23.00    4.10   1
  -6  -9  -5   12.40    2.70   1
   6   9   6   30.10    4.70   1
  -6  -9  -6   30.70    3.10   1
   6   9   7   47.70    4.90   1
  -6  -9  -7   48.50    4.00   1
   6   9   8   -8.30    5.00   1
  -6  -9  -8    4.80    3.90   1
   6   9   9   28.60    6.40   1
  -6  -9  -9   22.70    4.60   1
   6   9  10   27.80    9.30   1
  -6  -9 -10   29.50    5.80   1
   6  10  -9   -0.10    5.00   1
  -6 -10   9    0.50    5.30   1
   6  10  -8   45.10    6.70   1
  -6 -10   8   55.30    5.80   1
   6  10  -7   -1.80    5.00   1
  -6 -10   7    5.90    3.90   1
   6  10  -6  311.00   14.10   1
  -6 -10   6  338.00   11.90   1
   6  10  -5   35.60    5.20   1
  -6 -10   5   24.40    3.70   1
   6  10  -4   11.60    6.30   1
  -6 -10   4    6.70    3.20   1
   6  10  -3   42.40    5.00   1
  -6 -10   3   35.60    3.70   1
   6  10  -2   24.50    5.80   1
  -6 -10   2   20.70    2.80   1
   6  10  -1   16.60    3.30   1
  -6 -10   1   20.80    2.70   1
   6  10   0    7.00    3.60   1
  -6 -10   0    4.90    2.10   1
   6  10   1  118.10    5.20   1
  -6 -10  -1  126.90    4.70   1
   6  10   2   15.30    3.10   1
  -6 -10  -2   19.70    3.40   1
   6  10   3    4.60    2.60   1
  -6 -10  -3    4.10    3.00   1
   6  10   4  111.40    6.90   1
  -6 -10  -4  103.20    4.50   1
   6  10   5    2.00    4.30   1
  -6 -10  -5    7.00    2.80   1
   6  10   6   10.00    4.70   1
  -6 -10  -6   -7.10    3.60   1
   6  10   7   -7.00    4.90   1
  -6 -10  -7   -1.40    4.30   1
   6  10   8  158.00   10.40   1
  -6 -10  -8  155.80    8.20   1
   6  10   9    4.80    6.70   1
  -6 -10  -9    4.30    4.70   1
   6  11  -8    7.20    6.00   1
  -6 -11   8    5.90    5.30   1
   6  11  -7    3.60    7.60   1
  -6 -11   7    7.80    4.20   1
   6  11  -6    1.80    5.20   1
  -6 -11   6    6.60    4.00   1
   6  11  -5   12.30    5.00   1
  -6 -11   5   13.90    4.20   1
   6  11  -4   80.70    7.10   1
  -6 -11   4   89.60    4.90   1
   6  11  -3  115.80    7.10   1
  -6 -11   3  115.70    5.70   1
   6  11  -2  126.00    7.50   1
  -6 -11   2  125.30    5.90   1
   6  11  -1    6.30    4.00   1
  -6 -11   1   12.20    3.20   1
   6  11   0   38.90    4.80   1
  -6 -11   0   20.10    3.30   1
   6  11   1   -2.20    4.00   1
  -6 -11  -1    7.10    3.70   1
   6  11   2    1.70    3.00   1
  -6 -11  -2    4.60    4.60   1
   6  11   3   -0.20    3.30   1
  -6 -11  -3    0.10    3.10   1
   6  11   4   66.80    5.00   1
  -6 -11  -4   55.50    4.60   1
   6  11   5   59.90    6.10   1
  -6 -11  -5   49.90    4.10   1
   6  11   6   35.20    5.70   1
  -6 -11  -6   21.90    4.80   1
   6  11   7    8.60    5.70   1
  -6 -11  -7    8.80    4.80   1
   6  11   8    1.60    6.30   1
  -6 -11  -8    9.90    6.60   1
   6  12  -7   -3.00    5.90   1
  -6 -12   7    0.90    5.40   1
   6  12  -6   -6.10    8.10   1
  -6 -12   6   -7.60    4.20   1
   6  12  -5   24.10    6.00   1
  -6 -12   5   39.00    5.30   1
   6  12  -4    5.40    5.40   1
  -6 -12   4    4.20    3.60   1
   6  12  -3    0.50    5.00   1
  -6 -12   3    0.20    4.00   1
   6  12  -2   86.20    6.90   1
  -6 -12   2   74.60    6.10   1
   6  12  -1   64.40    8.90   1
  -6 -12   1   62.00    5.20   1
   6  12   0   22.80    4.70   1
  -6 -12   0   27.10    3.50   1
   6  12   1  271.20   12.20   1
  -6 -12  -1  245.00   12.00   1
   6  12   2    5.10    4.80   1
  -6 -12  -2   -1.10    3.50   1
   6  12   3    5.20    5.20   1
  -6 -12  -3    0.40    4.70   1
   6  12   4    3.20    3.90   1
  -6 -12  -4   -5.30    3.50   1
   6  12   5    4.30    4.10   1
  -6 -12  -5    3.70    4.30   1
   6  12   6   22.50    5.30   1
  -6 -12  -6   32.10    5.80   1
   6  13  -5   10.20    6.10   1
  -6 -13   5    2.80    6.20   1
   6  13  -4    1.60    5.90   1
  -6 -13   4    8.40    4.30   1
   6  13  -3   41.10    6.40   1
  -6 -13   3   38.70    6.30   1
   6  13  -2   17.20    5.90   1
  -6 -13   2   19.00    4.80   1
   6  13  -1    5.70    4.50   1
  -6 -13   1    2.70    3.80   1
   6  13   0    6.70    5.30   1
  -6 -13   0   12.40    5.00   1
   6  13   1   28.60    6.10   1
  -6 -13  -1   25.00    4.50   1
   6  13   2    7.40    4.80   1
  -6 -13  -2   14.00    4.70   1
   6  13   3   49.10    9.70   1
  -6 -13  -3   59.50    7.40   1
   6  13   4    5.40    5.20   1
  -6 -13  -4   12.00    5.00   1
   6  13   5  147.10   10.40   1
  -6 -13  -5  160.80   11.00   1
   6  14  -2    0.10    6.60   1
  -6 -14   2   -8.30    9.50   1
   6  14  -1   13.00    5.60   1
  -6 -14   1   11.40    5.90   1
   6  14   0   -3.60    5.80   1
  -6 -14   0    5.20    6.90   1
   6  14   1   40.70    7.20   1
  -6 -14  -1   51.90   11.60   1
   7 -13  -4   -6.00    8.70   1
  -7  13   4    8.90    6.80   1
   7 -13  -3   79.00   12.00   1
  -7  13   3   82.60    6.50   1
   7 -13  -2   -5.60    9.60   1
  -7  13   2   11.40    5.70   1
   7 -13  -1  -10.10    9.00   1
  -7  13   1   -3.80    5.50   1
   7 -13   0    2.00    5.40   1
  -7  13   0    9.00    5.00   1
   7 -13   1   12.40    6.60   1
  -7  13  -1    2.20    6.10   1
   7 -13   2   -6.80    6.60   1
  -7  13  -2    6.30    9.50   1
   7 -13   3   17.40    6.50   1
  -7  13  -3    2.70    9.60   1
   7 -12  -6    6.90    7.50   1
  -7  12   6    3.70    6.10   1
   7 -12  -5   15.60    5.20   1
  -7  12   5   20.50    4.40   1
   7 -12  -4   13.50    9.50   1
  -7  12   4    6.90    5.30   1
   7 -12  -3   48.70    6.60   1
  -7  12   3   63.90    6.50   1
   7 -12  -2   69.40   10.40   1
  -7  12   2   60.90    6.50   1
   7 -12  -1    5.90    4.30   1
  -7  12   1    8.80    3.90   1
   7 -12   0    5.20    5.40   1
  -7  12   0   -7.90    4.80   1
   7 -12   1   52.10    6.50   1
  -7  12  -1   41.80    6.00   1
   7 -12   2   16.50    5.20   1
  -7  12  -2   23.00    6.20   1
   7 -12   3   36.50    5.60   1
  -7  12  -3   31.30    8.70   1
   7 -12   4   -2.10    6.40   1
  -7  12  -4  -10.80    8.60   1
   7 -12   5   10.60    5.90   1
  -7  12  -5   14.00    9.30   1
   7 -11  -7   18.90    6.10   1
  -7  11   7   23.90    5.00   1
   7 -11  -6   -3.80    9.00   1
  -7  11   6    2.40    5.20   1
   7 -11  -5   71.10    6.90   1
  -7  11   5   69.30    6.60   1
   7 -11  -4   13.50    4.40   1
  -7  11   4   13.40    4.80   1
   7 -11  -3  138.30    8.70   1
  -7  11   3  153.50    8.50   1
   7 -11  -2    0.40    7.40   1
  -7  11   2   -0.20    3.50   1
   7 -11  -1   47.20    5.70   1
  -7  11   1   37.30    4.60   1
   7 -11   0   91.40    7.10   1
  -7  11   0   84.20    5.90   1
   7 -11   1  133.30    8.50   1
  -7  11  -1  135.40    8.20   1
   7 -11   2    4.20    4.90   1
  -7  11  -2   -3.80    6.80   1
   7 -11   3   12.00    5.40   1
  -7  11  -3   -5.20    7.40   1
   7 -11   4   74.20    5.90   1
  -7  11  -4   63.30   10.20   1
   7 -11   5   41.80    9.40   1
  -7  11  -5   13.90    6.30   1
   7 -11   6    7.00    6.40   1
  -7  11  -6  -10.40    5.50   1
   7 -11   7   86.70    9.00   1
  -7  11  -7   85.00    8.40   1
   7 -10  -9   10.20    7.00   1
  -7  10   9   25.40    8.10   1
   7 -10  -8   80.80    6.80   1
  -7  10   8   68.40    9.00   1
   7 -10  -7   28.10    5.50   1
  -7  10   7   29.30    7.10   1
   7 -10  -6  180.20    9.80   1
  -7  10   6  163.10    9.20   1
   7 -10  -5   37.60    4.80   1
  -7  10   5   36.50    5.10   1
   7 -10  -4   15.10    4.70   1
  -7  10   4   14.10    4.20   1
   7 -10  -3   35.70    4.80   1
  -7  10   3   40.70    4.80   1
   7 -10  -2   34.50    4.30   1
  -7  10   2   27.70    4.40   1
   7 -10  -1    0.00    3.90   1
  -7  10   1    0.60    2.90   1
   7 -10   0  153.50    8.20   1
  -7  10   0  162.90    7.80   1
   7 -10   1   12.60    4.30   1
  -7  10  -1   13.50    4.30   1
   7 -10   2  233.90   11.10   1
  -7  10  -2  250.10   11.30   1
   7 -10   3    3.00    4.50   1
  -7  10  -3   -5.90    4.00   1
   7 -10   4  246.40    9.20   1
  -7  10  -4  267.30   17.00   1
   7 -10   5   -3.40    7.70   1
  -7  10  -5    7.10    3.80   1
   7 -10   6   -2.30    4.90   1
  -7  10  -6    8.30    5.30   1
   7 -10   7   16.90    5.60   1
  -7  10  -7   23.00    7.40   1
   7 -10   8   10.00    5.70   1
  -7  10  -8   -8.00    9.80   1
   7  -9  -9   -7.00    5.20   1
  -7   9   9    0.00    4.60   1
   7  -9  -8   15.40    5.00   1
  -7   9   8   13.30    4.70   1
   7  -9  -7    3.10    4.40   1
  -7   9   7    4.90    5.20   1
   7  -9  -6   36.60    4.90   1
  -7   9   6   34.30    4.30   1
   7  -9  -5   16.00    4.20   1
  -7   9   5    8.90    3.70   1
   7  -9  -4    1.90    3.60   1
  -7   9   4    2.30    5.30   1
   7  -9  -3    6.80    3.60   1
  -7   9   3   16.40    3.70   1
   7  -9  -2   13.50    3.60   1
  -7   9   2    3.70    3.30   1
   7  -9  -1    8.90    3.70   1
  -7   9   1    0.90    3.30   1
   7  -9   0  344.90   13.40   1
  -7   9   0  365.70   17.80   1
   7  -9   1   -5.20    3.30   1
  -7   9  -1   -0.70    3.60   1
   7  -9   2    2.70    3.70   1
  -7   9  -2    8.20    3.70   1
   7  -9   3    3.70    3.30   1
  -7   9  -3    0.10    3.10   1
   7  -9   4  260.70    9.50   1
  -7   9  -4  270.60   11.80   1
   7  -9   5   -3.10    4.80   1
  -7   9  -5   -7.60    4.20   1
   7  -9   6   18.30    5.90   1
  -7   9  -6   14.30    5.00   1
   7  -9   7   21.00    8.50   1
  -7   9  -7   12.90    3.80   1
   7  -9   8   34.80   10.20   1
  -7   9  -8   14.20    8.40   1
   7  -9   9    3.40    9.90   1
  -7   9  -9   -6.90    9.30   1
   7  -8 -10   25.30    5.70   1
  -7   8  10   21.80    5.50   1
   7  -8  -9   -3.10    4.60   1
  -7   8   9    2.50    3.40   1
   7  -8  -8   23.90    4.70   1
  -7   8   8   15.60    3.10   1
   7  -8  -7   19.70    8.00   1
  -7   8   7   14.30    3.00   1
   7  -8  -6   87.80    5.60   1
  -7   8   6   87.00    5.50   1
   7  -8  -5    4.60    3.40   1
  -7   8   5   -3.70    3.10   1
   7  -8  -4   13.60    3.50   1
  -7   8   4   16.40    3.20   1
   7  -8  -3   21.30    3.60   1
  -7   8   3   18.90    3.40   1
   7  -8  -2   14.60    5.60   1
  -7   8   2    7.80    2.70   1
   7  -8  -1   37.70    3.80   1
  -7   8   1   36.80    3.80   1
   7  -8   0   73.40    4.80   1
  -7   8   0   76.30    4.70   1
   7  -8   1   18.00    3.40   1
  -7   8  -1   13.90    3.00   1
   7  -8   2   61.00    4.80   1
  -7   8  -2   57.50    3.40   1
   7  -8   3   40.20    4.30   1
  -7   8  -3   44.50    3.20   1
   7  -8   4   63.40    4.50   1
  -7   8  -4   71.50    3.50   1
   7  -8   5    6.90    3.00   1
  -7   8  -5    3.70    3.00   1
   7  -8   6   32.80    5.70   1
  -7   8  -6   34.70    3.60   1
   7  -8   7   -2.40    5.50   1
  -7   8  -7    1.30    4.10   1
   7  -8   8   57.60    7.20   1
  -7   8  -8   47.70    5.80   1
   7  -8   9   -2.30    6.20   1
  -7   8  -9    0.70    5.10   1
   7  -8  10   10.60    7.60   1
  -7   8 -10   12.70    5.70   1
   7  -7 -11   -6.40   10.00   1
   7  -7 -10   97.20    7.60   1
  -7   7  10  109.00    8.30   1
   7  -7  -9    8.40    4.60   1
  -7   7   9    6.90    3.60   1
   7  -7  -8   56.30    5.10   1
  -7   7   8   71.50    4.40   1
   7  -7  -7  207.30    9.50   1
  -7   7   7  213.80    7.40   1
   7  -7  -6    9.70    3.30   1
  -7   7   6    8.40    2.60   1
   7  -7  -5    8.30    3.10   1
  -7   7   5    8.90    3.00   1
   7  -7  -4    7.30    2.80   1
  -7   7   4    7.20    2.50   1
   7  -7  -3  203.90   11.50   1
  -7   7   3  196.50    7.40   1
   7  -7  -2  111.00    5.60   1
  -7   7   2  107.20    5.20   1
   7  -7  -1  115.20    5.50   1
  -7   7   1   94.70    4.90   1
   7  -7   0  142.10    9.30   1
  -7   7   0  135.60    6.30   1
   7  -7   1    4.70    2.70   1
  -7   7  -1    6.00    2.00   1
   7  -7   2    3.30    2.90   1
  -7   7  -2    4.40    2.10   1
   7  -7   3   30.10    3.20   1
  -7   7  -3   36.10    2.50   1
   7  -7   4  129.50    5.40   1
  -7   7  -4  135.10    5.40   1
   7  -7   5   45.10    3.50   1
  -7   7  -5   48.60    3.50   1
   7  -7   6  140.40    8.00   1
  -7   7  -6  146.10    5.80   1
   7  -7   7   90.10    6.80   1
  -7   7  -7  103.70    5.00   1
   7  -7   8   12.60    5.70   1
  -7   7  -8   17.40    3.90   1
   7  -7   9    6.40    6.40   1
  -7   7  -9    2.40    4.90   1
   7  -7  10   12.80    6.70   1
  -7   7 -10    1.00    5.50   1
   7  -6 -12   54.70   13.60   1
  -7   6  12   62.30   10.90   1
   7  -6 -11   19.20    5.50   1
  -7   6  11   19.30    5.00   1
   7  -6 -10   -0.50    4.10   1
  -7   6  10    0.20    4.10   1
   7  -6  -9    1.00    3.70   1
  -7   6   9    1.00    2.70   1
   7  -6  -8   57.30    4.90   1
  -7   6   8   52.20    3.50   1
   7  -6  -7  167.50    8.10   1
  -7   6   7  167.20    6.10   1
   7  -6  -6    6.70    2.80   1
  -7   6   6    7.10    2.40   1
   7  -6  -5  168.10   10.60   1
  -7   6   5  157.50    5.20   1
   7  -6  -4  172.60    6.60   1
  -7   6   4  159.90    5.20   1
   7  -6  -3  126.20    5.50   1
  -7   6   3  120.40    5.00   1
   7  -6  -2   18.10    2.80   1
  -7   6   2   17.60    2.60   1
   7  -6  -1   38.40    3.20   1
  -7   6   1   45.00    3.10   1
   7  -6   0   90.50    3.70   1
  -7   6   0  102.60    4.60   1
   7  -6   1  146.90    6.30   1
  -7   6  -1  152.50    5.10   1
   7  -6   2  466.40   15.50   1
  -7   6  -2  463.30   10.20   1
   7  -6   3   89.10    4.70   1
  -7   6  -3   88.90    2.80   1
   7  -6   4   15.80    2.50   1
  -7   6  -4   18.30    1.80   1
   7  -6   5    3.70    2.30   1
  -7   6  -5    5.60    1.90   1
   7  -6   6    8.90    4.40   1
  -7   6  -6   16.40    2.30   1
   7  -6   7   52.00    5.60   1
  -7   6  -7   54.70    3.20   1
   7  -6   8   11.80    5.20   1
  -7   6  -8    9.90    3.20   1
   7  -6   9   58.50    6.80   1
  -7   6  -9   54.70    5.80   1
   7  -6  10   -5.40    6.40   1
  -7   6 -10    4.00    5.30   1
   7  -6  11   96.90    9.50   1
  -7   6 -11   92.40    8.60   1
   7  -5 -12   -5.00   10.10   1
  -7   5  12    0.00    8.00   1
   7  -5 -11   26.30    5.50   1
  -7   5  11   27.60    5.20   1
   7  -5 -10   10.30    4.10   1
  -7   5  10    4.50    3.30   1
   7  -5  -9    1.20    3.70   1
  -7   5   9   -1.80    2.80   1
   7  -5  -8   89.90    6.00   1
  -7   5   8   84.00    4.40   1
   7  -5  -7   50.80    4.10   1
  -7   5   7   55.70    3.30   1
   7  -5  -6    1.70    2.70   1
  -7   5   6   -1.50    2.30   1
   7  -5  -5  249.30    8.80   1
  -7   5   5  249.70    7.10   1
   7  -5  -4   10.10    4.80   1
  -7   5   4    2.10    2.00   1
   7  -5  -3  660.80   13.10   1
  -7   5   3  647.40   13.30   1
   7  -5  -2  199.10    4.20   1
  -7   5   2  195.80    5.70   1
   7  -5  -1  450.10    7.30   1
  -7   5   1  446.60   11.00   1
   7  -5   0   41.70    1.90   1
  -7   5   0   40.80    1.90   1
   7  -5   1  109.30    3.30   1
  -7   5  -1  116.30    3.20   1
   7  -5   2    0.80    2.00   1
  -7   5  -2    4.70    1.30   1
   7  -5   3   13.20    2.00   1
  -7   5  -3   14.50    1.50   1
   7  -5   4    8.60    2.00   1
  -7   5  -4    7.30    1.60   1
   7  -5   5  266.20    7.90   1
  -7   5  -5  268.20    7.10   1
   7  -5   6  188.00    8.70   1
  -7   5  -6  191.50    5.80   1
   7  -5   7  249.80   11.00   1
  -7   5  -7  261.90    7.60   1
   7  -5   8    7.90    4.80   1
  -7   5  -8    2.90    2.40   1
   7  -5   9   21.20    4.80   1
  -7   5  -9   18.80    3.30   1
   7  -5  10   -0.10    5.90   1
  -7   5 -10   17.50    3.80   1
   7  -5  11   20.60    6.70   1
  -7   5 -11   19.50    6.10   1
   7  -4 -12   62.10   11.30   1
  -7   4  12   58.20    9.70   1
   7  -4 -11   16.20    4.80   1
  -7   4  11   23.10    4.50   1
   7  -4 -10    8.90    4.50   1
  -7   4  10    1.80    3.40   1
   7  -4  -9    5.60    3.10   1
  -7   4   9    5.40    2.40   1
   7  -4  -8   68.50    4.80   1
  -7   4   8   82.00    3.90   1
   7  -4  -7  220.10    6.80   1
  -7   4   7  231.70    7.20   1
   7  -4  -6  150.10    4.80   1
  -7   4   6  144.40    4.80   1
   7  -4  -5  798.20   18.00   1
  -7   4   5  826.80   18.40   1
   7  -4  -4   62.10    1.80   1
  -7   4   4   64.10    2.20   1
   7  -4  -3   41.70    1.30   1
  -7   4   3   42.30    1.90   1
   7  -4  -2  168.70    3.40   1
  -7   4   2  178.90    4.20   1
   7  -4  -1   86.90    2.00   1
  -7   4   1   85.70    2.60   1
   7  -4   0   50.90    1.60   1
  -7   4   0   53.90    1.90   1
   7  -4   1   19.00    1.50   1
  -7   4  -1   22.10    1.20   1
   7  -4   2   24.20    1.70   1
  -7   4  -2   26.80    1.30   1
   7  -4   3    0.50    1.50   1
  -7   4  -3    1.00    1.10   1
   7  -4   4  213.80    6.70   1
  -7   4  -4  228.20    5.80   1
   7  -4   5   72.60    3.10   1
  -7   4  -5   77.40    3.00   1
   7  -4   6    0.30    3.00   1
  -7   4  -6    1.00    1.90   1
   7  -4   7   44.00    4.90   1
  -7   4  -7   55.40    3.20   1
   7  -4   8    0.10    4.40   1
  -7   4  -8    3.00    2.30   1
   7  -4   9  324.30   14.20   1
  -7   4  -9  330.00   11.00   1
   7  -4  10   61.30    6.80   1
  -7   4 -10   54.00    4.70   1
   7  -4  11   56.00    8.10   1
  -7   4 -11   57.60    4.90   1
   7  -4  12   13.80    7.30   1
  -7   4 -12    3.90    5.70   1
   7  -3 -13   15.00   11.90   1
   7  -3 -12   12.10    7.30   1
  -7   3  12   14.10    7.30   1
   7  -3 -11    1.30    4.50   1
  -7   3  11   -3.10    3.40   1
   7  -3 -10  145.70    7.30   1
  -7   3  10  133.00    7.30   1
   7  -3  -9  142.80    6.20   1
  -7   3   9  170.40    6.20   1
   7  -3  -8    2.40    2.00   1
  -7   3   8    1.00    2.10   1
   7  -3  -7    1.80    1.90   1
  -7   3   7    1.30    2.00   1
   7  -3  -6    7.40    1.70   1
  -7   3   6    6.30    1.80   1
   7  -3  -5   12.30    1.30   1
  -7   3   5   13.50    1.60   1
   7  -3  -4    7.50    1.10   1
  -7   3   4    9.60    1.10   1
   7  -3  -3  185.50    3.70   1
  -7   3   3  192.60    4.30   1
   7  -3  -2    7.30    0.80   1
  -7   3   2    8.00    1.00   1
   7  -3  -1  666.60   12.60   1
  -7   3   1  662.50   12.60   1
   7  -3   0  153.00    3.00   1
  -7   3   0  164.50    3.60   1
   7  -3   1   68.70    1.90   1
  -7   3  -1   71.80    2.30   1
   7  -3   2   17.30    1.30   1
  -7   3  -2   17.30    1.40   1
   7  -3   3    2.50    1.20   1
  -7   3  -3    3.50    1.30   1
   7  -3   4   39.10    1.90   1
  -7   3  -4   47.60    2.20   1
   7  -3   5  176.00    7.70   1
  -7   3  -5  172.60    5.00   1
   7  -3   6    6.60    3.10   1
  -7   3  -6   13.00    2.00   1
   7  -3   7    5.40    3.10   1
  -7   3  -7    3.80    2.00   1
   7  -3   8    2.80    3.70   1
  -7   3  -8    3.80    2.60   1
   7  -3   9   -1.30    3.90   1
  -7   3  -9    0.60    3.10   1
   7  -3  10   -3.70    5.40   1
  -7   3 -10   -1.90    4.30   1
   7  -3  11   47.10    6.70   1
  -7   3 -11   53.90    5.30   1
   7  -3  12    4.40    6.90   1
  -7   3 -12    5.00    4.60   1
   7  -2 -13    3.90   10.40   1
   7  -2 -12  225.40   19.50   1
  -7   2  12  221.70   12.00   1
   7  -2 -11   52.70    5.50   1
  -7   2  11   60.40    4.60   1
   7  -2 -10   -0.20    2.80   1
  -7   2  10    5.20    2.80   1
   7  -2  -9   -1.50    2.70   1
  -7   2   9   -1.70    2.00   1
   7  -2  -8   17.90    2.50   1
  -7   2   8   19.80    2.10   1
   7  -2  -7   51.60    2.90   1
  -7   2   7   53.00    2.50   1
   7  -2  -6    1.60    1.60   1
  -7   2   6    0.20    1.30   1
   7  -2  -5  966.70   18.60   1
  -7   2   5  961.50   17.70   1
   7  -2  -4    2.50    0.90   1
  -7   2   4    1.90    1.20   1
   7  -2  -3    6.10    0.80   1
  -7   2   3    5.40    0.80   1
   7  -2  -2  199.40    4.80   1
  -7   2   2  203.10   10.00   1
   7  -2  -1    3.10    1.60   1
  -7   2   1    5.70    1.80   1
   7  -2   0  212.40    4.10   1
  -7   2   0  230.40    3.90   1
   7  -2   1    5.00    0.90   1
  -7   2  -1    6.70    0.90   1
   7  -2   2   96.90    2.40   1
  -7   2  -2   99.60    2.70   1
   7  -2   3   45.60    1.70   1
  -7   2  -3   48.10    1.80   1
   7  -2   4    4.50    1.10   1
  -7   2  -4    6.20    1.60   1
   7  -2   5   70.40    4.10   1
  -7   2  -5   74.40    2.80   1
   7  -2   6   24.80    3.10   1
  -7   2  -6   24.80    2.20   1
   7  -2   7   36.80    4.30   1
  -7   2  -7   42.30    3.00   1
   7  -2   8   71.90    5.50   1
  -7   2  -8   75.90    4.30   1
   7  -2   9  267.70   11.70   1
  -7   2  -9  261.90    8.80   1
   7  -2  10    1.60    5.10   1
  -7   2 -10   -1.40    3.50   1
   7  -2  11    8.80    5.20   1
  -7   2 -11    5.40    4.10   1
   7  -2  12   10.50    6.90   1
  -7   2 -12   -6.30    4.40   1
   7  -1 -13    9.80    8.10   1
  -7   1  13  -11.00   12.10   1
   7  -1 -12   27.00    6.00   1
  -7   1  12   33.40    6.00   1
   7  -1 -11    2.70    3.50   1
  -7   1  11    7.90    3.20   1
   7  -1 -10  194.00    8.10   1
  -7   1  10  215.20    7.90   1
   7  -1  -9    3.60    2.60   1
  -7   1   9    6.40    2.40   1
   7  -1  -8  375.90   10.60   1
  -7   1   8  380.40    9.90   1
   7  -1  -7   20.20    2.20   1
  -7   1   7   25.10    2.10   1
   7  -1  -6   41.70    2.30   1
  -7   1   6   42.50    2.10   1
   7  -1  -5  158.40    3.80   1
  -7   1   5  167.00    3.60   1
   7  -1  -4    6.50    0.90   1
  -7   1   4    5.90    0.80   1
   7  -1  -3   63.30    3.50   1
  -7   1   3   59.20    2.80   1
   7  -1  -2  959.20   25.70   1
  -7   1   2  913.60   25.20   1
   7  -1  -1  607.50   17.70   1
  -7   1   1  562.70   11.60   1
   7  -1   0   49.30    3.00   1
  -7   1   0   57.30    2.50   1
   7  -1   1   25.00    0.90   1
  -7   1  -1   25.60    0.90   1
   7  -1   2    0.90    0.90   1
  -7   1  -2    0.70    0.90   1
   7  -1   3    1.80    1.10   1
  -7   1  -3   -0.50    1.00   1
   7  -1   4  166.50    3.50   1
  -7   1  -4  178.00    4.20   1
   7  -1   5  426.40   11.50   1
  -7   1  -5  437.00    9.80   1
   7  -1   6  640.60   20.30   1
  -7   1  -6  632.00   15.80   1
   7  -1   7    4.90    2.80   1
  -7   1  -7    5.00    2.10   1
   7  -1   8    4.70    3.80   1
  -7   1  -8    1.60    2.60   1
   7  -1   9   45.30    5.60   1
  -7   1  -9   54.70    4.00   1
   7  -1  10    1.80    4.10   1
  -7   1 -10    1.40    3.10   1
   7  -1  11    3.60    5.50   1
  -7   1 -11    4.30    3.50   1
   7  -1  12   67.60    8.40   1
  -7   1 -12   74.40    6.10   1
   7   0 -13    5.80    5.90   1
  -7   0  13  -10.30   10.60   1
   7   0 -12  274.10   14.10   1
  -7   0  12  254.70   23.00   1
   7   0 -11   -3.00    3.70   1
  -7   0  11    5.80    3.50   1
   7   0 -10    7.20    3.20   1
  -7   0  10   12.80    3.00   1
   7   0  -9    1.30    2.30   1
  -7   0   9   -0.80    2.10   1
   7   0  -8  339.00   10.10   1
  -7   0   8  343.80   10.10   1
   7   0  -7   -0.20    1.90   1
  -7   0   7   -1.80    1.60   1
   7   0  -6  103.40    3.70   1
  -7   0   6  110.00    3.80   1
   7   0  -5   -1.10    1.10   1
  -7   0   5   -0.20    1.10   1
   7   0  -4  167.90    4.40   1
  -7   0   4  166.90    3.90   1
   7   0  -3    0.60    2.20   1
  -7   0   3    1.00    2.30   1
   7   0  -2   21.60    2.40   1
  -7   0   2   20.20    2.10   1
   7   0  -1    3.00    2.90   1
  -7   0   1   -0.50    1.40   1
   7   0   0  185.00    5.70   1
  -7   0   0  207.70    6.00   1
   7   0   1    1.30    1.20   1
  -7   0  -1   -1.00    1.80   1
   7   0   2 1677.40   24.10   1
  -7   0  -2 1697.20   26.90   1
   7   0   3    1.60    0.80   1
  -7   0  -3   -0.10    1.00   1
   7   0   4    8.00    0.70   1
  -7   0  -4   11.80    1.50   1
   7   0   5    3.70    1.90   1
  -7   0  -5    0.00    1.70   1
   7   0   6   24.90    4.50   1
  -7   0  -6   17.80    2.50   1
   7   0   7    3.80    2.70   1
  -7   0  -7   -0.10    2.40   1
   7   0   8   27.50    3.80   1
  -7   0  -8   20.90    2.90   1
   7   0   9   -5.00    4.10   1
  -7   0  -9    1.00    3.00   1
   7   0  10   -7.60    4.90   1
  -7   0 -10    0.50    3.00   1
   7   0  11   -0.70    5.40   1
  -7   0 -11   -3.40    3.30   1
   7   0  12  129.80   10.10   1
  -7   0 -12  120.10    7.10   1
   7   1 -13   14.40    7.50   1
  -7  -1  13   13.90   11.20   1
   7   1 -12   27.90    6.50   1
  -7  -1  12   22.50    9.50   1
   7   1 -11    4.60    3.40   1
  -7  -1  11    8.60    3.40   1
   7   1 -10  210.90    8.20   1
  -7  -1  10  207.40    8.10   1
   7   1  -9    2.30    2.80   1
  -7  -1   9    5.10    2.60   1
   7   1  -8  359.10   11.30   1
  -7  -1   8  344.20   10.40   1
   7   1  -7   19.90    2.20   1
  -7  -1   7   18.50    2.20   1
   7   1  -6   38.80    2.60   1
  -7  -1   6   37.20    2.10   1
   7   1  -5  155.70    3.70   1
  -7  -1   5  152.90    3.50   1
   7   1  -4    5.10    0.80   1
  -7  -1   4    4.70    0.80   1
   7   1  -3   55.00    4.70   1
  -7  -1   3   54.90    2.80   1
   7   1  -2  900.60   36.30   1
  -7  -1   2  956.50   21.60   1
   7   1  -1  528.90   23.00   1
  -7  -1   1  548.90   10.20   1
   7   1   0   55.00    3.00   1
  -7  -1   0   54.20    2.80   1
   7   1   1   21.20    2.10   1
  -7  -1  -1   23.80    2.00   1
   7   1   2    1.50    0.80   1
  -7  -1  -2    0.30    0.80   1
   7   1   3    1.10    0.90   1
  -7  -1  -3    3.00    1.20   1
   7   1   4  168.00    3.30   1
  -7  -1  -4  182.20    4.60   1
   7   1   5  422.00   10.30   1
  -7  -1  -5  437.40   11.00   1
   7   1   6  626.60   20.00   1
  -7  -1  -6  639.90   16.10   1
   7   1   7    0.30    3.00   1
  -7  -1  -7    6.70    2.20   1
   7   1   8   11.40    3.60   1
  -7  -1  -8   10.80    2.30   1
   7   1   9   57.60    5.40   1
  -7  -1  -9   51.80    4.10   1
   7   1  10   -0.70    4.90   1
  -7  -1 -10    4.10    3.10   1
   7   1  11   -3.90    5.60   1
  -7  -1 -11   -0.10    4.10   1
   7   1  12   69.60    8.60   1
  -7  -1 -12   89.70    6.50   1
   7   2 -13    8.20    7.30   1
  -7  -2  13   -9.30   10.20   1
   7   2 -12  204.90   13.00   1
  -7  -2  12  226.70   18.80   1
   7   2 -11   59.60    5.10   1
  -7  -2  11   65.10    5.40   1
   7   2 -10    5.80    3.20   1
  -7  -2  10   -0.60    2.80   1
   7   2  -9   -1.60    2.60   1
  -7  -2   9    0.70    2.90   1
   7   2  -8   17.50    3.10   1
  -7  -2   8   17.00    2.20   1
   7   2  -7   53.90    3.60   1
  -7  -2   7   51.90    2.70   1
   7   2  -6    0.40    2.00   1
  -7  -2   6    0.80    1.50   1
   7   2  -5  932.40   17.70   1
  -7  -2   5  912.70   18.00   1
   7   2  -4    2.10    0.70   1
  -7  -2   4    2.20    0.70   1
   7   2  -3    5.30    2.10   1
  -7  -2   3    7.40    2.10   1
   7   2  -2  185.30    6.90   1
  -7  -2   2  206.00    6.90   1
   7   2  -1    7.00    3.10   1
  -7  -2   1    3.50    1.50   1
   7   2   0  210.90    7.60   1
  -7  -2   0  218.80    5.90   1
   7   2   1    6.00    1.70   1
  -7  -2  -1    4.90    0.90   1
   7   2   2   95.40    2.50   1
  -7  -2  -2  103.20    2.90   1
   7   2   3   44.90    1.70   1
  -7  -2  -3   46.70    1.60   1
   7   2   4    3.20    1.10   1
  -7  -2  -4    5.90    1.40   1
   7   2   5   74.40    2.90   1
  -7  -2  -5   72.30    3.20   1
   7   2   6   22.30    2.70   1
  -7  -2  -6   25.70    2.60   1
   7   2   7   40.90    4.00   1
  -7  -2  -7   44.50    3.10   1
   7   2   8   82.80    5.80   1
  -7  -2  -8   87.00    4.50   1
   7   2   9  262.30   12.20   1
  -7  -2  -9  273.40    9.30   1
   7   2  10    0.50    5.00   1
  -7  -2 -10    2.20    3.70   1
   7   2  11   -3.00    5.80   1
  -7  -2 -11    0.90    4.00   1
   7   2  12    9.70    6.90   1
  -7  -2 -12   11.90    5.00   1
   7   3 -13   19.40    7.50   1
  -7  -3  13   13.30   10.40   1
   7   3 -12   14.10    6.70   1
  -7  -3  12   17.90    9.00   1
   7   3 -11   -5.40    3.50   1
  -7  -3  11   10.60    4.60   1
   7   3 -10  133.80    7.70   1
  -7  -3  10  128.50    6.80   1
   7   3  -9  142.60    7.10   1
  -7  -3   9  147.10    6.00   1
   7   3  -8    3.10    2.70   1
  -7  -3   8    4.60    2.50   1
   7   3  -7    2.70    2.50   1
  -7  -3   7   -2.40    2.00   1
   7   3  -6    3.90    1.50   1
  -7  -3   6    6.70    1.80   1
   7   3  -5   11.00    1.10   1
  -7  -3   5   13.00    1.40   1
   7   3  -4   10.00    1.10   1
  -7  -3   4    9.50    1.10   1
   7   3  -3  183.40    3.90   1
  -7  -3   3  190.50    4.10   1
   7   3  -2   10.00    1.90   1
  -7  -3   2    8.10    2.10   1
   7   3  -1  624.90   19.10   1
  -7  -3   1  630.50   13.30   1
   7   3   0  151.20    3.50   1
  -7  -3   0  158.00    3.20   1
   7   3   1   65.00    2.10   1
  -7  -3  -1   75.10    2.20   1
   7   3   2   17.40    1.10   1
  -7  -3  -2   16.40    1.20   1
   7   3   3    2.50    1.10   1
  -7  -3  -3    1.80    1.10   1
   7   3   4   45.70    1.70   1
  -7  -3  -4   42.90    1.70   1
   7   3   5  170.20    6.80   1
  -7  -3  -5  176.80    5.90   1
   7   3   6   13.30    2.80   1
  -7  -3  -6   12.00    2.10   1
   7   3   7   -0.50    2.70   1
  -7  -3  -7    4.60    2.60   1
   7   3   8    7.80    4.20   1
  -7  -3  -8    4.60    2.80   1
   7   3   9    1.90    4.20   1
  -7  -3  -9   -0.40    2.80   1
   7   3  10   -1.60    4.20   1
  -7  -3 -10    5.80    3.40   1
   7   3  11   61.80    7.40   1
  -7  -3 -11   54.00    5.40   1
   7   3  12   14.40    6.70   1
  -7  -3 -12   -1.20    5.00   1
   7   4 -12   49.60    7.80   1
  -7  -4  12   47.30   10.80   1
   7   4 -11   15.20    8.10   1
  -7  -4  11   15.50    6.30   1
   7   4 -10    3.70    4.00   1
  -7  -4  10    4.60    3.10   1
   7   4  -9    9.00    3.40   1
  -7  -4   9    3.60    3.10   1
   7   4  -8   71.80    5.20   1
  -7  -4   8   77.10    4.40   1
   7   4  -7  210.90    9.00   1
  -7  -4   7  226.90    7.70   1
   7   4  -6  139.80    6.60   1
  -7  -4   6  146.20    5.00   1
   7   4  -5  765.70   17.20   1
  -7  -4   5  782.50   17.80   1
   7   4  -4   56.50    2.10   1
  -7  -4   4   58.50    2.30   1
   7   4  -3   47.50    1.70   1
  -7  -4   3   45.40    1.80   1
   7   4  -2  169.00    3.90   1
  -7  -4   2  176.70    3.80   1
   7   4  -1   84.60    2.40   1
  -7  -4   1   84.40    2.20   1
   7   4   0   45.10    2.20   1
  -7  -4   0   49.00    1.50   1
   7   4   1   19.90    1.40   1
  -7  -4  -1   21.80    1.30   1
   7   4   2   25.30    1.50   1
  -7  -4  -2   23.60    1.40   1
   7   4   3    1.90    1.40   1
  -7  -4  -3    2.80    1.10   1
   7   4   4  231.70    8.00   1
  -7  -4  -4  220.70    5.70   1
   7   4   5   86.30    4.60   1
  -7  -4  -5   87.80    3.10   1
   7   4   6   -0.20    3.30   1
  -7  -4  -6    1.90    2.60   1
   7   4   7   56.30    4.70   1
  -7  -4  -7   61.50    3.80   1
   7   4   8    0.30    4.20   1
  -7  -4  -8    5.30    2.90   1
   7   4   9  352.70   14.90   1
  -7  -4  -9  346.30   11.60   1
   7   4  10   53.80    6.30   1
  -7  -4 -10   58.20    5.20   1
   7   4  11   58.50    7.20   1
  -7  -4 -11   66.70    6.00   1
   7   4  12    1.40    8.70   1
  -7  -4 -12    4.30    8.10   1
   7   5 -12  -16.10    9.60   1
  -7  -5  12    9.00    7.30   1
   7   5 -11   22.20    9.20   1
  -7  -5  11   22.50    5.70   1
   7   5 -10    7.40    5.00   1
  -7  -5  10    7.10    4.20   1
   7   5  -9   -0.60    4.10   1
  -7  -5   9   -1.80    3.30   1
   7   5  -8   80.70    5.60   1
  -7  -5   8   83.70    4.70   1
   7   5  -7   49.60    3.90   1
  -7  -5   7   54.60    3.50   1
   7   5  -6    1.50    2.90   1
  -7  -5   6    2.20    2.50   1
   7   5  -5  247.40    9.00   1
  -7  -5   5  246.20    7.60   1
   7   5  -4   -0.90    1.00   1
  -7  -5   4    3.10    1.70   1
   7   5  -3  632.20   12.80   1
  -7  -5   3  654.80   13.30   1
   7   5  -2  192.40    5.70   1
  -7  -5   2  196.40    4.30   1
   7   5  -1  451.80    9.40   1
  -7  -5   1  454.40    8.40   1
   7   5   0   38.40    2.00   1
  -7  -5   0   37.70    1.60   1
   7   5   1  115.20    3.90   1
  -7  -5  -1  112.80    2.80   1
   7   5   2    2.00    1.50   1
  -7  -5  -2    3.40    1.10   1
   7   5   3   10.20    2.30   1
  -7  -5  -3   10.20    1.50   1
   7   5   4    6.80    2.80   1
  -7  -5  -4    6.00    1.70   1
   7   5   5  256.80    9.40   1
  -7  -5  -5  256.90    6.50   1
   7   5   6  193.40    7.90   1
  -7  -5  -6  190.20    6.30   1
   7   5   7  280.90   11.50   1
  -7  -5  -7  281.10    9.10   1
   7   5   8   10.00    3.90   1
  -7  -5  -8    4.00    2.90   1
   7   5   9   13.40    5.20   1
  -7  -5  -9   24.10    4.10   1
   7   5  10    8.20    5.70   1
  -7  -5 -10   10.60    4.50   1
   7   5  11   27.60    6.80   1
  -7  -5 -11   10.90    4.50   1
  -7  -6  12   54.50   12.20   1
   7   6 -11   11.60    9.00   1
  -7  -6  11   26.70    7.60   1
   7   6 -10    1.50    3.90   1
  -7  -6  10    0.50    4.10   1
   7   6  -9   -4.70    4.10   1
  -7  -6   9   -1.50    3.30   1
   7   6  -8   45.10    4.60   1
  -7  -6   8   47.90    3.70   1
   7   6  -7  150.50    7.50   1
  -7  -6   7  150.40    6.50   1
   7   6  -6    7.40    3.50   1
  -7  -6   6    6.70    2.90   1
   7   6  -5  136.20    6.70   1
  -7  -6   5  146.80    5.40   1
   7   6  -4  161.30    7.30   1
  -7  -6   4  160.10    5.60   1
   7   6  -3  108.20    3.70   1
  -7  -6   3  120.20    4.20   1
   7   6  -2   14.10    1.70   1
  -7  -6   2   11.70    1.80   1
   7   6  -1   35.50    2.20   1
  -7  -6   1   38.60    2.10   1
   7   6   0   95.10    5.20   1
  -7  -6   0   98.50    3.20   1
   7   6   1  149.40    6.30   1
  -7  -6  -1  150.10    3.70   1
   7   6   2  451.40   15.20   1
  -7  -6  -2  451.90    9.20   1
   7   6   3   96.40    4.90   1
  -7  -6  -3   92.80    3.90   1
   7   6   4   22.80    3.10   1
  -7  -6  -4   17.90    1.90   1
   7   6   5    7.50    2.60   1
  -7  -6  -5    8.20    1.70   1
   7   6   6   20.50    3.70   1
  -7  -6  -6   25.90    3.10   1
   7   6   7   47.20    4.70   1
  -7  -6  -7   53.80    4.20   1
   7   6   8    9.40    4.00   1
  -7  -6  -8   19.00    3.80   1
   7   6   9   54.60    6.20   1
  -7  -6  -9   60.60    5.10   1
   7   6  10  -11.90    5.70   1
  -7  -6 -10    7.80    4.00   1
   7   6  11   86.60    8.90   1
  -7  -6 -11  105.60    7.60   1
   7   7 -11    7.20    9.30   1
  -7  -7  11   -4.60    7.20   1
   7   7 -10   98.80   12.00   1
  -7  -7  10   88.90    8.80   1
   7   7  -9    2.00    4.50   1
  -7  -7   9   -2.90    3.90   1
   7   7  -8   57.00    5.50   1
  -7  -7   8   61.70    4.40   1
   7   7  -7  195.10    8.90   1
  -7  -7   7  199.30    7.70   1
   7   7  -6    6.90    3.20   1
  -7  -7   6    9.30    2.50   1
   7   7  -5   12.90    3.10   1
  -7  -7   5    3.90    2.50   1
   7   7  -4    8.20    2.60   1
  -7  -7   4    7.60    2.30   1
   7   7  -3  180.80    7.20   1
  -7  -7   3  176.10    5.80   1
   7   7  -2   94.90    3.70   1
  -7  -7   2  104.40    4.30   1
   7   7  -1   98.10    4.00   1
  -7  -7   1  102.70    4.10   1
   7   7   0  123.00    6.00   1
  -7  -7   0  130.50    4.60   1
   7   7   1    7.50    2.30   1
  -7  -7  -1    7.50    1.60   1
   7   7   2    4.30    2.40   1
  -7  -7  -2    1.80    1.40   1
   7   7   3   38.10    3.80   1
  -7  -7  -3   32.30    2.40   1
   7   7   4  133.20    6.70   1
  -7  -7  -4  127.50    4.50   1
   7   7   5   56.00    4.50   1
  -7  -7  -5   49.30    2.90   1
   7   7   6  142.20    7.70   1
  -7  -7  -6  141.00    6.10   1
   7   7   7  103.60    6.60   1
  -7  -7  -7  100.20    5.50   1
   7   7   8   18.90    4.80   1
  -7  -7  -8    9.90    3.80   1
   7   7   9    4.80    5.30   1
  -7  -7  -9    9.10    3.80   1
   7   7  10    8.30    5.70   1
  -7  -7 -10    2.90    4.30   1
   7   8 -10   27.30   10.20   1
  -7  -8  10   25.80    7.40   1
   7   8  -9    8.20    8.10   1
  -7  -8   9    8.90    5.80   1
   7   8  -8   15.00    4.80   1
  -7  -8   8   18.10    3.80   1
   7   8  -7   10.90    4.20   1
  -7  -8   7    8.60    3.60   1
   7   8  -6   70.70    5.70   1
  -7  -8   6   73.90    4.60   1
   7   8  -5    1.50    3.50   1
  -7  -8   5   -4.50    2.70   1
   7   8  -4   19.20    3.80   1
  -7  -8   4   19.50    2.80   1
   7   8  -3   24.40    5.60   1
  -7  -8   3   21.60    3.50   1
   7   8  -2    8.10    5.10   1
  -7  -8   2    6.70    2.40   1
   7   8  -1   31.90    2.50   1
  -7  -8   1   37.10    2.60   1
   7   8   0   72.10    3.70   1
  -7  -8   0   72.80    3.70   1
   7   8   1   14.20    2.30   1
  -7  -8  -1   15.40    1.90   1
   7   8   2   56.60    4.20   1
  -7  -8  -2   61.20    2.80   1
   7   8   3   45.10    3.80   1
  -7  -8  -3   36.90    2.70   1
   7   8   4   76.10    5.20   1
  -7  -8  -4   65.80    3.50   1
   7   8   5    5.10    3.70   1
  -7  -8  -5   -0.50    2.40   1
   7   8   6   35.00    4.70   1
  -7  -8  -6   35.70    4.10   1
   7   8   7   -0.60    4.30   1
  -7  -8  -7    4.20    3.40   1
   7   8   8   47.00    6.00   1
  -7  -8  -8   49.60    4.90   1
   7   8   9   -0.80    5.20   1
  -7  -8  -9   -5.20    4.40   1
   7   8  10   14.70    9.00   1
  -7  -8 -10   15.20    6.20   1
  -7  -9  10  129.10   16.10   1
   7   9  -9    8.70    8.80   1
  -7  -9   9   -2.30    6.40   1
   7   9  -8   18.40    8.00   1
  -7  -9   8   18.70    5.90   1
   7   9  -7    9.20    3.90   1
  -7  -9   7    5.10    4.00   1
   7   9  -6   37.40    4.90   1
  -7  -9   6   30.70    4.00   1
   7   9  -5   21.70    4.30   1
  -7  -9   5   11.40    3.30   1
   7   9  -4   -3.90    3.60   1
  -7  -9   4   -0.90    3.00   1
   7   9  -3   17.90    4.00   1
  -7  -9   3   14.90    3.00   1
   7   9  -2   14.80    3.70   1
  -7  -9   2   12.30    2.70   1
   7   9  -1    0.90    3.30   1
  -7  -9   1   -0.40    2.60   1
   7   9   0  333.10   10.30   1
  -7  -9   0  346.00    9.10   1
   7   9   1   -2.70    2.50   1
  -7  -9  -1    2.50    2.00   1
   7   9   2    8.60    2.60   1
  -7  -9  -2    6.20    2.90   1
   7   9   3    2.00    3.50   1
  -7  -9  -3    2.80    2.30   1
   7   9   4  241.40   11.10   1
  -7  -9  -4  251.30    7.80   1
   7   9   5    1.70    4.00   1
  -7  -9  -5    0.50    2.80   1
   7   9   6   12.80    4.70   1
  -7  -9  -6   17.40    3.40   1
   7   9   7   11.40    5.20   1
  -7  -9  -7    3.20    4.30   1
   7   9   8   19.20    5.90   1
  -7  -9  -8   17.90    4.60   1
   7   9   9   -4.30    6.20   1
  -7  -9  -9   -3.60    5.10   1
  -7 -10   9   28.00    8.30   1
   7  10  -8   80.70   11.70   1
  -7 -10   8   68.00    8.00   1
   7  10  -7   28.40    8.10   1
  -7 -10   7   27.40    5.60   1
   7  10  -6  149.30    9.10   1
  -7 -10   6  168.50    8.10   1
   7  10  -5   27.60    4.60   1
  -7 -10   5   29.10    4.00   1
   7  10  -4    6.60    4.30   1
  -7 -10   4   11.50    4.00   1
   7  10  -3   45.80    5.30   1
  -7 -10   3   41.20    4.90   1
   7  10  -2   32.60    4.60   1
  -7 -10   2   38.40    3.70   1
   7  10  -1    2.70    4.00   1
  -7 -10   1    0.80    3.00   1
   7  10   0  144.90   11.20   1
  -7 -10   0  147.20    6.00   1
   7  10   1    6.80    3.80   1
  -7 -10  -1    4.20    3.30   1
   7  10   2  243.30    8.70   1
  -7 -10  -2  258.40    9.70   1
   7  10   3   -1.00    3.10   1
  -7 -10  -3   -4.70    2.90   1
   7  10   4  265.90   12.50   1
  -7 -10  -4  248.00    8.10   1
   7  10   5    2.60    4.50   1
  -7 -10  -5    6.30    3.50   1
   7  10   6   15.90    4.60   1
  -7 -10  -6    0.20    3.40   1
   7  10   7   30.30    6.30   1
  -7 -10  -7   32.10    5.20   1
   7  10   8    4.30    6.10   1
  -7 -10  -8   -1.80    4.90   1
   7  11  -7   13.70    9.20   1
  -7 -11   7   26.90    6.60   1
   7  11  -6    6.30    7.30   1
  -7 -11   6    8.80    4.40   1
   7  11  -5   62.30    6.90   1
  -7 -11   5   65.60    5.70   1
   7  11  -4   10.50    5.10   1
  -7 -11   4   19.60    4.00   1
   7  11  -3  154.50    8.80   1
  -7 -11   3  145.40    8.60   1
   7  11  -2   -5.40    6.30   1
  -7 -11   2    1.80    4.20   1
   7  11  -1   26.60    5.00   1
  -7 -11   1   32.40    4.10   1
   7  11   0   82.50    6.10   1
  -7 -11   0   83.60    7.10   1
   7  11   1  152.00   11.30   1
  -7 -11  -1  136.70    6.60   1
   7  11   2    1.40    3.50   1
  -7 -11  -2    4.90    3.40   1
   7  11   3   11.20    3.50   1
  -7 -11  -3   13.00    3.70   1
   7  11   4   66.20    5.40   1
  -7 -11  -4   69.50    5.00   1
   7  11   5   26.30    5.60   1
  -7 -11  -5   26.60    5.90   1
   7  11   6    7.20    5.50   1
  -7 -11  -6   -3.90    4.20   1
   7  11   7   73.20    8.20   1
  -7 -11  -7   68.40    6.70   1
  -7 -12   6   16.80    8.50   1
   7  12  -5   20.20    6.60   1
  -7 -12   5   15.50    5.70   1
   7  12  -4   14.30    6.00   1
  -7 -12   4   11.60    5.50   1
   7  12  -3   42.10    6.50   1
  -7 -12   3   57.10    5.00   1
   7  12  -2   51.20    6.40   1
  -7 -12   2   58.00    5.10   1
   7  12  -1    4.70    5.00   1
  -7 -12   1   14.10    5.30   1
   7  12   0   -1.10    4.90   1
  -7 -12   0    1.00    7.60   1
   7  12   1   47.70    6.30   1
  -7 -12  -1   52.60    5.40   1
   7  12   2   11.40    4.50   1
  -7 -12  -2   12.30    4.80   1
   7  12   3   29.20    5.80   1
  -7 -12  -3   22.70    4.80   1
   7  12   4   11.90    5.70   1
  -7 -12  -4   -7.20    5.30   1
   7  12   5   -0.10    6.20   1
  -7 -12  -5   15.20    6.50   1
  -7 -13   4   -4.50    8.90   1
   7  13  -3   83.80   11.60   1
  -7 -13   3   76.80    7.20   1
   7  13  -2    7.50    5.00   1
  -7 -13   2   10.00    5.30   1
   7  13  -1   -0.40    5.70   1
  -7 -13   1   -3.60    6.00   1
   7  13   0   11.10    4.90   1
  -7 -13   0   -7.00    8.70   1
   7  13   1    4.90    5.90   1
  -7 -13  -1    2.70    6.00   1
   7  13   2    2.80    6.10   1
  -7 -13  -2    2.60    6.40   1
   7  13   3    2.70    6.20   1
  -7 -13  -3   -6.40    5.20   1
   8 -12  -4   33.70   10.90   1
  -8  12   4   30.50    8.70   1
   8 -12  -3   13.20    5.90   1
  -8  12   3   25.20    6.00   1
   8 -12  -2   36.70    5.80   1
  -8  12   2   30.50    6.30   1
   8 -12  -1   18.30    6.00   1
  -8  12   1   14.90    4.50   1
   8 -12   0   11.20    4.90   1
  -8  12   0    3.60    5.00   1
   8 -12   1   56.10   10.00   1
  -8  12  -1   27.10    9.20   1
   8 -12   2    5.40    5.90   1
  -8  12  -2    0.80    8.00   1
   8 -12   3  116.20   12.90   1
  -8  12  -3  134.90   13.40   1
   8 -12   4    4.60    7.30   1
  -8  12  -4    9.20    6.10   1
   8 -11  -6  -14.10   10.00   1
  -8  11   6    9.30    8.50   1
   8 -11  -5   -7.50    9.50   1
  -8  11   5    8.50    8.40   1
   8 -11  -4   -2.60    5.30   1
  -8  11   4    8.20    5.60   1
   8 -11  -3    1.70    4.90   1
  -8  11   3   -2.20    3.70   1
   8 -11  -2   58.30    6.80   1
  -8  11   2   56.10    5.80   1
   8 -11  -1   28.80    5.70   1
  -8  11   1   40.20    5.80   1
   8 -11   0   65.10    6.10   1
  -8  11   0   73.60    6.70   1
   8 -11   1   19.00    4.50   1
  -8  11  -1   19.70    5.10   1
   8 -11   2    5.30    5.20   1
  -8  11  -2    4.30    7.00   1
   8 -11   3   -1.50    5.40   1
  -8  11  -3    3.60    7.80   1
   8 -11   4    9.80    6.00   1
  -8  11  -4    3.60    5.50   1
   8 -11   5   34.30    6.40   1
  -8  11  -5   40.20    8.80   1
   8 -11   6   14.90    7.20   1
  -8  11  -6   10.80    6.50   1
  -8  10   8   17.50    8.90   1
   8 -10  -7   -4.00    9.70   1
  -8  10   7   -1.00    5.40   1
   8 -10  -6    2.60    8.40   1
  -8  10   6    0.00    3.30   1
   8 -10  -5   14.40    5.20   1
  -8  10   5   15.00    4.80   1
   8 -10  -4  190.50   10.30   1
  -8  10   4  184.80   13.80   1
   8 -10  -3    9.70    4.30   1
  -8  10   3   17.30    3.90   1
   8 -10  -2    4.10    7.70   1
  -8  10   2    9.70    4.10   1
   8 -10  -1    3.30    4.40   1
  -8  10   1    1.60    4.10   1
   8 -10   0   30.80    5.00   1
  -8  10   0   36.50    7.90   1
   8 -10   1    9.30    4.80   1
  -8  10  -1   11.00    4.60   1
   8 -10   2   43.10    5.60   1
  -8  10  -2   39.90    5.40   1
   8 -10   3   46.50    5.80   1
  -8  10  -3   56.70    4.80   1
   8 -10   4   39.40    6.40   1
  -8  10  -4   36.10    5.60   1
   8 -10   5    1.50    4.70   1
  -8  10  -5    6.60    5.20   1
   8 -10   6   33.20    6.90   1
  -8  10  -6   34.90    6.20   1
   8 -10   7   11.90    7.10   1
  -8  10  -7   22.20    5.70   1
   8  -9  -8   24.90   10.80   1
  -8   9   8   33.00    6.10   1
   8  -9  -7   15.20    8.70   1
  -8   9   7   11.70    5.30   1
   8  -9  -6   -1.80    4.20   1
  -8   9   6   -0.30    3.30   1
   8  -9  -5   75.40    6.20   1
  -8   9   5   89.90    4.70   1
   8  -9  -4    7.70    3.40   1
  -8   9   4   -0.70    3.20   1
   8  -9  -3   60.10    4.90   1
  -8   9   3   68.60    5.10   1
   8  -9  -2  129.20    7.20   1
  -8   9   2  109.00    6.10   1
   8  -9  -1    6.30    3.90   1
  -8   9   1    9.00    3.40   1
   8  -9   0  398.70   15.90   1
  -8   9   0  401.40   15.10   1
   8  -9   1   28.30    4.50   1
  -8   9  -1   24.30    4.00   1
   8  -9   2    6.30    4.00   1
  -8   9  -2   10.30    3.00   1
   8  -9   3    0.50    4.00   1
  -8   9  -3    1.40    3.50   1
   8  -9   4   -5.20    4.20   1
  -8   9  -4    6.10    2.80   1
   8  -9   5    8.10    4.50   1
  -8   9  -5    5.30    4.50   1
   8  -9   6  106.70    9.00   1
  -8   9  -6  106.70    7.70   1
   8  -9   7    8.70    6.30   1
  -8   9  -7   -0.80    5.50   1
   8  -9   8   21.00    7.00   1
  -8   9  -8    5.60    8.60   1
   8  -8  -9   21.60   10.40   1
  -8   8   9    3.80    5.40   1
   8  -8  -8   -9.00    8.70   1
  -8   8   8    3.80    4.90   1
   8  -8  -7   18.20    8.20   1
  -8   8   7   10.30    4.80   1
   8  -8  -6  179.90   13.80   1
  -8   8   6  167.70    6.90   1
   8  -8  -5    4.70    3.40   1
  -8   8   5   -0.30    2.90   1
   8  -8  -4  520.10   18.50   1
  -8   8   4  496.00   13.60   1
   8  -8  -3    7.00    3.30   1
  -8   8   3    4.80    3.20   1
   8  -8  -2   93.80    5.60   1
  -8   8   2   83.80    5.30   1
   8  -8  -1   25.70    3.70   1
  -8   8   1   34.60    3.90   1
   8  -8   0   12.00    3.50   1
  -8   8   0   13.30    2.60   1
   8  -8   1   -1.90    3.30   1
  -8   8  -1    5.80    2.80   1
   8  -8   2   14.70    3.70   1
  -8   8  -2   12.10    2.80   1
   8  -8   3   77.40    5.70   1
  -8   8  -3   88.20    4.70   1
   8  -8   4    2.10    3.60   1
  -8   8  -4    8.90    3.20   1
   8  -8   5   33.80    5.50   1
  -8   8  -5   33.70    3.80   1
   8  -8   6   22.70    5.00   1
  -8   8  -6   15.70    3.10   1
   8  -8   7   10.70    6.20   1
  -8   8  -7   -3.40    3.30   1
   8  -8   8   -0.20    9.20   1
  -8   8  -8    0.70    4.40   1
   8  -8   9    9.20    7.20   1
  -8   8  -9    4.50    4.60   1
   8  -7 -10  -11.80    9.80   1
  -8   7  10   -9.00    8.50   1
   8  -7  -9   89.00   12.40   1
  -8   7   9   71.10    6.00   1
   8  -7  -8   -0.60    8.50   1
  -8   7   8   13.00    4.00   1
   8  -7  -7  241.60   10.90   1
  -8   7   7  249.30    8.20   1
   8  -7  -6   63.40    5.00   1
  -8   7   6   61.70    4.00   1
   8  -7  -5   34.30    3.80   1
  -8   7   5   44.00    3.20   1
   8  -7  -4    0.50    2.60   1
  -8   7   4    2.50    2.20   1
   8  -7  -3   19.80    3.40   1
  -8   7   3   18.80    2.50   1
   8  -7  -2  160.10    7.00   1
  -8   7   2  150.00    5.70   1
   8  -7  -1  170.70   11.30   1
  -8   7   1  144.40    6.70   1
   8  -7   0  112.20    6.00   1
  -8   7   0  113.30    4.60   1
   8  -7   1   26.50    3.30   1
  -8   7  -1   33.80    2.70   1
   8  -7   2   15.80    4.50   1
  -8   7  -2    8.10    2.40   1
   8  -7   3   75.00    5.00   1
  -8   7  -3   72.90    3.40   1
   8  -7   4   -3.80    2.60   1
  -8   7  -4    2.50    2.50   1
   8  -7   5   11.40    3.90   1
  -8   7  -5    6.40    2.70   1
   8  -7   6   29.80    5.50   1
  -8   7  -6   37.40    3.80   1
   8  -7   7   39.10    6.00   1
  -8   7  -7   38.20    4.30   1
   8  -7   8   53.60    6.10   1
  -8   7  -8   42.60    4.30   1
   8  -7   9   19.50    6.70   1
  -8   7  -9   19.00    5.30   1
   8  -6 -11  136.90   18.00   1
  -8   6  11  149.10   14.80   1
   8  -6 -10   -1.80    6.70   1
  -8   6  10    0.10    7.90   1
   8  -6  -9   -1.20    8.50   1
  -8   6   9    9.60    5.00   1
   8  -6  -8   10.60    3.70   1
  -8   6   8   15.50    3.10   1
   8  -6  -7   37.00    4.10   1
  -8   6   7   33.20    3.20   1
   8  -6  -6   29.70    3.80   1
  -8   6   6   31.30    3.80   1
   8  -6  -5   37.50    7.00   1
  -8   6   5   17.80    2.70   1
   8  -6  -4    2.00    2.40   1
  -8   6   4    8.30    2.20   1
   8  -6  -3   17.80    2.80   1
  -8   6   3   18.80    2.40   1
   8  -6  -2   34.00    3.40   1
  -8   6   2   40.90    3.50   1
   8  -6  -1   71.60    7.00   1
  -8   6   1   63.80    4.30   1
   8  -6   0  121.10    9.10   1
  -8   6   0  122.40    4.10   1
   8  -6   1   30.40    3.20   1
  -8   6  -1   37.20    2.50   1
   8  -6   2   59.40    4.50   1
  -8   6  -2   54.40    3.20   1
   8  -6   3  324.00    9.80   1
  -8   6  -3  331.60    8.50   1
   8  -6   4   -1.30    2.40   1
  -8   6  -4   -1.30    2.40   1
   8  -6   5   28.20    4.60   1
  -8   6  -5   29.50    3.10   1
   8  -6   6   30.10    8.30   1
  -8   6  -6   47.00    4.00   1
   8  -6   7    3.90    4.40   1
  -8   6  -7    7.30    3.00   1
   8  -6   8   57.60    6.90   1
  -8   6  -8   49.40    4.60   1
   8  -6   9   14.40    6.30   1
  -8   6  -9    4.50    5.20   1
   8  -6  10   28.10    7.40   1
  -8   6 -10   35.90    6.10   1
   8  -5 -11    5.90   11.00   1
   8  -5 -10   -4.30    8.90   1
  -8   5  10    2.90    7.30   1
   8  -5  -9  135.00   12.70   1
  -8   5   9  130.30    7.60   1
   8  -5  -8    8.80    3.40   1
  -8   5   8    4.70    2.60   1
   8  -5  -7  104.80    6.00   1
  -8   5   7  117.10    4.90   1
   8  -5  -6  159.70    7.10   1
  -8   5   6  163.00    5.70   1
   8  -5  -5   -2.10    2.40   1
  -8   5   5   -1.50    2.30   1
   8  -5  -4   14.20    5.20   1
  -8   5   4   12.30    2.00   1
   8  -5  -3   59.20    6.50   1
  -8   5   3   65.20    3.10   1
   8  -5  -2   40.20    5.30   1
  -8   5   2   38.40    2.50   1
   8  -5  -1   66.30    3.40   1
  -8   5   1   65.20    4.20   1
   8  -5   0    3.80    4.50   1
  -8   5   0   10.50    1.90   1
   8  -5   1    9.60    2.20   1
  -8   5  -1   14.30    1.80   1
   8  -5   2   77.40    6.10   1
  -8   5  -2   78.50    2.80   1
   8  -5   3   10.70    2.20   1
  -8   5  -3    8.80    1.70   1
   8  -5   4    7.20    2.00   1
  -8   5  -4    7.90    2.10   1
   8  -5   5  238.80   10.00   1
  -8   5  -5  246.50    6.50   1
   8  -5   6    3.50    4.10   1
  -8   5  -6    2.60    2.10   1
   8  -5   7  372.40   15.60   1
  -8   5  -7  371.80   10.30   1
   8  -5   8   10.30    5.20   1
  -8   5  -8   15.20    3.50   1
   8  -5   9   -0.30    4.60   1
  -8   5  -9    5.40    4.50   1
   8  -5  10   -1.40    6.60   1
  -8   5 -10    5.60    5.20   1
  -8   4  12   23.70    8.70   1
   8  -4 -11   79.40   13.20   1
  -8   4  11   91.50   10.70   1
   8  -4 -10   -2.60    8.10   1
  -8   4  10   -0.50    6.90   1
   8  -4  -9   30.10    9.00   1
  -8   4   9   23.70    4.20   1
   8  -4  -8   48.00    4.40   1
  -8   4   8   52.50    3.60   1
   8  -4  -7   54.10    3.90   1
  -8   4   7   54.40    3.50   1
   8  -4  -6   28.30    2.90   1
  -8   4   6   32.70    2.50   1
   8  -4  -5  153.80    6.30   1
  -8   4   5  176.90    5.40   1
   8  -4  -4   29.20    1.90   1
  -8   4   4   36.40    2.30   1
   8  -4  -3    0.70    1.90   1
  -8   4   3    5.30    2.70   1
   8  -4  -2  120.60    3.80   1
  -8   4   2  122.20    4.10   1
   8  -4  -1   -3.40    1.70   1
  -8   4   1    4.50    2.50   1
   8  -4   0   16.90    1.50   1
  -8   4   0   20.40    1.80   1
   8  -4   1  172.80    5.40   1
  -8   4  -1  184.50    4.30   1
   8  -4   2   -3.80    2.10   1
  -8   4  -2    1.00    1.50   1
   8  -4   3  366.40   10.00   1
  -8   4  -3  360.60    8.80   1
   8  -4   4  241.80    7.50   1
  -8   4  -4  250.30    6.70   1
   8  -4   5  457.70   17.20   1
  -8   4  -5  471.00   11.40   1
   8  -4   6   29.40    4.10   1
  -8   4  -6   47.70    3.00   1
   8  -4   7    5.60    4.00   1
  -8   4  -7    2.90    2.30   1
   8  -4   8   10.90    4.90   1
  -8   4  -8   10.50    2.90   1
   8  -4   9   20.10    5.50   1
  -8   4  -9   18.60    3.70   1
   8  -4  10   57.70    7.90   1
  -8   4 -10   57.50    5.50   1
   8  -4  11   20.80    7.60   1
  -8   4 -11   25.50    6.30   1
   8  -3 -12   14.80    8.10   1
  -8   3  12    6.70    9.50   1
   8  -3 -11   84.30   11.00   1
  -8   3  11   77.40   11.20   1
   8  -3 -10    3.10    8.20   1
  -8   3  10    3.20    7.20   1
   8  -3  -9  393.60   23.80   1
  -8   3   9  408.70   14.20   1
   8  -3  -8   46.30    3.80   1
  -8   3   8   45.40    3.10   1
   8  -3  -7   65.60    3.40   1
  -8   3   7   65.70    3.50   1
   8  -3  -6   -2.10    1.60   1
  -8   3   6    1.00    1.80   1
   8  -3  -5  288.10    7.80   1
  -8   3   5  299.30    8.10   1
   8  -3  -4    0.10    1.10   1
  -8   3   4    1.00    1.20   1
   8  -3  -3   41.70    1.60   1
  -8   3   3   48.50    2.20   1
   8  -3  -2   54.80    1.60   1
  -8   3   2   60.80    2.30   1
   8  -3  -1   14.30    0.90   1
  -8   3   1   16.30    0.90   1
   8  -3   0  213.40    4.40   1
  -8   3   0  224.30    4.50   1
   8  -3   1  788.00   15.20   1
  -8   3  -1  846.60   13.30   1
   8  -3   2    0.60    1.30   1
  -8   3  -2    1.10    1.10   1
   8  -3   3   -0.60    1.60   1
  -8   3  -3   -0.80    1.60   1
   8  -3   4    3.10    1.70   1
  -8   3  -4   -0.50    1.70   1
   8  -3   5  141.20    6.70   1
  -8   3  -5  155.70    4.70   1
   8  -3   6   16.50    3.50   1
  -8   3  -6   18.60    2.20   1
   8  -3   7   13.00    3.80   1
  -8   3  -7    5.30    2.60   1
   8  -3   8   20.30    5.10   1
  -8   3  -8   19.10    3.40   1
   8  -3   9   12.80    5.50   1
  -8   3  -9   25.30    3.80   1
   8  -3  10   13.10    5.90   1
  -8   3 -10    7.60    3.80   1
   8  -3  11   15.80    7.20   1
  -8   3 -11   31.10    4.90   1
   8  -2 -12  113.70   14.90   1
   8  -2 -11   10.30    9.50   1
  -8   2  11    7.90    7.10   1
   8  -2 -10   11.40    8.00   1
  -8   2  10   22.90    7.40   1
   8  -2  -9   43.60    4.80   1
  -8   2   9   42.10    4.70   1
   8  -2  -8    9.80    2.10   1
  -8   2   8   18.10    2.10   1
   8  -2  -7   43.30    2.80   1
  -8   2   7   57.30    2.90   1
   8  -2  -6  343.80    9.30   1
  -8   2   6  350.00    9.00   1
   8  -2  -5  254.50    6.70   1
  -8   2   5  253.10    6.90   1
   8  -2  -4  270.10    9.50   1
  -8   2   4  267.40    9.40   1
   8  -2  -3   52.90    3.20   1
  -8   2   3   60.80    4.10   1
   8  -2  -2  248.90    8.90   1
  -8   2   2  258.70   12.20   1
   8  -2  -1   45.30    4.40   1
  -8   2   1   44.20    2.60   1
   8  -2   0    0.00    3.40   1
  -8   2   0    0.60    1.90   1
   8  -2   1   42.00    1.50   1
  -8   2  -1   43.30    1.40   1
   8  -2   2   46.80    1.80   1
  -8   2  -2   44.70    1.70   1
   8  -2   3   43.30    2.30   1
  -8   2  -3   45.20    2.10   1
   8  -2   4  110.90    3.90   1
  -8   2  -4  113.50    3.80   1
   8  -2   5  466.20   15.30   1
  -8   2  -5  491.20   11.40   1
   8  -2   6   14.70    3.40   1
  -8   2  -6   16.40    2.20   1
   8  -2   7    3.20    4.10   1
  -8   2  -7    1.70    2.80   1
   8  -2   8    3.10    5.10   1
  -8   2  -8   -0.10    3.10   1
   8  -2   9   -1.00    4.60   1
  -8   2  -9    4.10    3.30   1
   8  -2  10   34.80    6.30   1
  -8   2 -10   37.90    4.60   1
   8  -2  11   61.20    7.70   1
  -8   2 -11   57.40    5.50   1
   8  -1 -12   26.10   10.80   1
  -8   1  12    1.40    6.90   1
   8  -1 -11  -12.00    8.90   1
  -8   1  11    8.70    5.10   1
   8  -1 -10    3.70    4.50   1
  -8   1  10    4.80    3.90   1
   8  -1  -9    2.50    4.70   1
  -8   1   9   11.00    4.50   1
   8  -1  -8    9.90    2.30   1
  -8   1   8   10.90    2.30   1
   8  -1  -7    5.00    1.60   1
  -8   1   7    4.90    1.70   1
   8  -1  -6  433.30   11.40   1
  -8   1   6  444.40    9.70   1
   8  -1  -5   21.50    1.40   1
  -8   1   5   25.60    1.50   1
   8  -1  -4   71.70    4.30   1
  -8   1   4   84.70    3.80   1
   8  -1  -3   35.90    3.10   1
  -8   1   3   28.60    3.50   1
   8  -1  -2  455.60   14.20   1
  -8   1   2  426.40   13.10   1
   8  -1  -1    4.30    3.20   1
  -8   1   1    0.30    1.80   1
   8  -1   0   77.30    4.10   1
  -8   1   0   86.00    3.10   1
   8  -1   1   10.10    2.50   1
  -8   1  -1   12.40    2.10   1
   8  -1   2  119.00    2.90   1
  -8   1  -2  132.00    3.60   1
   8  -1   3   53.50    2.00   1
  -8   1  -3   59.00    2.10   1
   8  -1   4    6.90    1.30   1
  -8   1  -4    6.10    1.70   1
   8  -1   5  165.30    6.90   1
  -8   1  -5  177.80    5.70   1
   8  -1   6   14.40    3.40   1
  -8   1  -6   12.40    2.40   1
   8  -1   7   51.50    4.40   1
  -8   1  -7   68.60    3.70   1
   8  -1   8  244.00   11.30   1
  -8   1  -8  255.80    8.80   1
   8  -1   9   35.10    5.30   1
  -8   1  -9   42.40    4.00   1
   8  -1  10    7.60    5.10   1
  -8   1 -10    8.10    3.70   1
   8  -1  11    4.20    6.60   1
  -8   1 -11    0.00    4.30   1
   8   0 -12   94.20    9.20   1
  -8   0  12  113.20   13.80   1
   8   0 -11   -6.50    6.30   1
  -8   0  11    3.30    4.80   1
   8   0 -10   18.70    5.30   1
  -8   0  10   27.50    5.10   1
   8   0  -9    7.70    4.20   1
  -8   0   9   -1.10    3.30   1
   8   0  -8    3.40    3.70   1
  -8   0   8    5.90    3.30   1
   8   0  -7   -0.60    1.60   1
  -8   0   7    0.90    1.80   1
   8   0  -6  152.60    4.90   1
  -8   0   6  146.90    4.60   1
   8   0  -5   -0.30    2.80   1
  -8   0   5    2.40    2.30   1
   8   0  -4  188.40    7.30   1
  -8   0   4  200.00    7.30   1
   8   0  -3   -1.90    2.50   1
  -8   0   3    0.10    2.60   1
   8   0  -2  224.40    7.70   1
  -8   0   2  253.40   12.10   1
   8   0  -1   -1.40    2.40   1
  -8   0   1    3.10    1.80   1
   8   0   0  202.20    7.40   1
  -8   0   0  213.00    6.30   1
   8   0   1   -2.50    1.90   1
  -8   0  -1    2.40    2.10   1
   8   0   2  349.70    6.70   1
  -8   0  -2  372.70    7.30   1
   8   0   3    0.80    1.00   1
  -8   0  -3    1.70    1.20   1
   8   0   4    2.00    1.20   1
  -8   0  -4    2.20    1.70   1
   8   0   5   -3.60    2.50   1
  -8   0  -5   -0.50    2.10   1
   8   0   6   64.80    4.50   1
  -8   0  -6   69.70    3.50   1
   8   0   7    3.90    3.30   1
  -8   0  -7    1.80    2.30   1
   8   0   8  136.60    7.90   1
  -8   0  -8  147.50    6.20   1
   8   0   9    1.70    4.40   1
  -8   0  -9    2.90    3.40   1
   8   0  10  152.90   10.70   1
  -8   0 -10  174.30    8.60   1
   8   0  11    4.10    6.40   1
  -8   0 -11    2.00    3.80   1
   8   1 -12    2.20    6.60   1
  -8  -1  12    7.80   10.00   1
   8   1 -11    8.50    6.00   1
  -8  -1  11   10.40    7.50   1
   8   1 -10    6.80    5.20   1
  -8  -1  10   -0.80    5.30   1
   8   1  -9    1.50    4.50   1
  -8  -1   9   -3.80    4.10   1
   8   1  -8   16.20    3.80   1
  -8  -1   8   14.60    4.30   1
   8   1  -7    2.50    1.60   1
  -8  -1   7    6.20    1.70   1
   8   1  -6  413.60   10.70   1
  -8  -1   6  434.60    9.90   1
   8   1  -5   19.10    4.00   1
  -8  -1   5   16.20    2.80   1
   8   1  -4   85.70    6.40   1
  -8  -1   4   83.20    3.80   1
   8   1  -3   33.10    4.40   1
  -8  -1   3   35.20    2.60   1
   8   1  -2  420.90   13.50   1
  -8  -1   2  429.70   11.40   1
   8   1  -1    1.20    3.60   1
  -8  -1   1    1.00    1.40   1
   8   1   0   67.50    6.00   1
  -8  -1   0   88.50    3.50   1
   8   1   1   13.40    2.20   1
  -8  -1  -1   11.90    2.40   1
   8   1   2  118.20    2.70   1
  -8  -1  -2  124.00    3.90   1
   8   1   3   51.30    1.70   1
  -8  -1  -3   53.10    2.00   1
   8   1   4    9.00    1.40   1
  -8  -1  -4    7.90    1.80   1
   8   1   5  166.50    6.90   1
  -8  -1  -5  176.00    5.60   1
   8   1   6    4.70    2.70   1
  -8  -1  -6   10.60    2.40   1
   8   1   7   59.20    5.30   1
  -8  -1  -7   72.70    4.00   1
   8   1   8  244.50   10.90   1
  -8  -1  -8  251.70    8.70   1
   8   1   9   40.60    5.80   1
  -8  -1  -9   37.80    4.30   1
   8   1  10    7.70    5.20   1
  -8  -1 -10   15.50    3.90   1
   8   1  11    4.80    6.40   1
  -8  -1 -11    8.20    4.60   1
   8   2 -12   95.40    9.10   1
  -8  -2  12  102.40   14.00   1
   8   2 -11   13.90    6.10   1
  -8  -2  11   12.90    8.50   1
   8   2 -10    2.60    5.40   1
  -8  -2  10   12.10    4.60   1
   8   2  -9   44.40    5.20   1
  -8  -2   9   46.90    5.20   1
   8   2  -8   20.10    6.30   1
  -8  -2   8   15.30    3.50   1
   8   2  -7   56.70    6.10   1
  -8  -2   7   54.00    3.10   1
   8   2  -6  348.40   10.60   1
  -8  -2   6  333.90    8.10   1
   8   2  -5  243.10   13.20   1
  -8  -2   5  245.50    8.10   1
   8   2  -4  250.20    9.40   1
  -8  -2   4  262.00    8.00   1
   8   2  -3   57.20    3.60   1
  -8  -2   3   56.50    3.80   1
   8   2  -2  256.20   11.60   1
  -8  -2   2  257.80    9.20   1
   8   2  -1   45.50    3.50   1
  -8  -2   1   42.40    2.40   1
   8   2   0   -3.40    3.20   1
  -8  -2   0   -1.70    2.10   1
   8   2   1   36.20    5.00   1
  -8  -2  -1   41.90    2.60   1
   8   2   2   42.80    2.20   1
  -8  -2  -2   49.00    1.70   1
   8   2   3   41.40    2.00   1
  -8  -2  -3   47.10    2.30   1
   8   2   4  104.50    3.60   1
  -8  -2  -4  115.80    4.10   1
   8   2   5  477.80   16.80   1
  -8  -2  -5  491.10   12.90   1
   8   2   6   14.60    3.30   1
  -8  -2  -6   14.90    2.40   1
   8   2   7    5.00    3.40   1
  -8  -2  -7    3.00    2.60   1
   8   2   8    9.00    4.40   1
  -8  -2  -8    5.10    3.00   1
   8   2   9   12.40    4.00   1
  -8  -2  -9    4.40    3.10   1
   8   2  10   41.80    7.00   1
  -8  -2 -10   44.50    4.80   1
   8   2  11   64.10    7.90   1
  -8  -2 -11   55.90    5.30   1
   8   3 -12   14.60    7.60   1
  -8  -3  12   12.40    7.30   1
   8   3 -11   85.90    9.10   1
  -8  -3  11   85.90   11.60   1
   8   3 -10    6.10    5.40   1
  -8  -3  10    4.40    5.40   1
   8   3  -9  406.90   22.40   1
  -8  -3   9  371.90   15.60   1
   8   3  -8   46.70    7.60   1
  -8  -3   8   47.60    5.70   1
   8   3  -7   60.80    7.30   1
  -8  -3   7   65.90    5.00   1
   8   3  -6    2.20    2.10   1
  -8  -3   6    5.90    1.70   1
   8   3  -5  266.40    7.00   1
  -8  -3   5  282.50    7.60   1
   8   3  -4    2.90    2.10   1
  -8  -3   4   -3.20    2.70   1
   8   3  -3   43.00    3.40   1
  -8  -3   3   44.80    3.40   1
   8   3  -2   54.70    3.60   1
  -8  -3   2   52.80    3.60   1
   8   3  -1   14.50    2.50   1
  -8  -3   1   17.20    2.20   1
   8   3   0  206.60   11.00   1
  -8  -3   0  229.40    6.10   1
   8   3   1  813.20   17.00   1
  -8  -3  -1  824.80   16.60   1
   8   3   2   -0.70    1.30   1
  -8  -3  -2    1.00    1.10   1
   8   3   3    0.90    1.70   1
  -8  -3  -3   -0.30    1.40   1
   8   3   4   -2.10    2.20   1
  -8  -3  -4    3.40    1.60   1
   8   3   5  156.90    6.90   1
  -8  -3  -5  157.00    5.60   1
   8   3   6   24.80    3.40   1
  -8  -3  -6   22.10    3.00   1
   8   3   7   13.20    3.80   1
  -8  -3  -7    8.70    2.60   1
   8   3   8   14.50    5.00   1
  -8  -3  -8   17.70    3.20   1
   8   3   9   16.40    4.90   1
  -8  -3  -9   14.90    3.90   1
   8   3  10    9.60    5.40   1
  -8  -3 -10    3.20    3.60   1
   8   3  11   12.40    5.60   1
  -8  -3 -11   16.20    5.00   1
   8   4 -12   11.60    7.60   1
   8   4 -11   63.80    8.20   1
  -8  -4  11   66.80    8.40   1
   8   4 -10   12.80    8.20   1
  -8  -4  10   -2.60    4.70   1
   8   4  -9   21.50    7.50   1
  -8  -4   9   21.70    5.40   1
   8   4  -8   37.90    7.00   1
  -8  -4   8   48.50    5.50   1
   8   4  -7   60.80    7.30   1
  -8  -4   7   59.80    5.10   1
   8   4  -6   33.70    5.70   1
  -8  -4   6   31.90    4.00   1
   8   4  -5  154.50    4.90   1
  -8  -4   5  167.80    5.10   1
   8   4  -4   34.80    1.80   1
  -8  -4   4   34.50    2.00   1
   8   4  -3    4.40    2.50   1
  -8  -4   3    0.50    2.60   1
   8   4  -2  118.20    5.40   1
  -8  -4   2  114.10    5.30   1
   8   4  -1   -0.70    2.60   1
  -8  -4   1    2.20    2.10   1
   8   4   0   16.70    1.10   1
  -8  -4   0   21.00    1.00   1
   8   4   1  175.00    6.70   1
  -8  -4  -1  186.30    4.30   1
   8   4   2   -0.40    1.80   1
  -8  -4  -2   -2.40    1.50   1
   8   4   3  350.00   12.40   1
  -8  -4  -3  336.70    8.40   1
   8   4   4  239.40    9.20   1
  -8  -4  -4  250.80    6.30   1
   8   4   5  453.30   15.30   1
  -8  -4  -5  450.70   12.30   1
   8   4   6   48.80    4.50   1
  -8  -4  -6   45.00    3.40   1
   8   4   7    5.70    3.60   1
  -8  -4  -7   -0.20    2.90   1
   8   4   8    2.20    4.10   1
  -8  -4  -8   12.20    3.50   1
   8   4   9   19.30    5.30   1
  -8  -4  -9   24.20    3.80   1
   8   4  10   54.10    7.90   1
  -8  -4 -10   66.80    5.50   1
   8   4  11   16.50    7.50   1
  -8  -4 -11   18.40    5.40   1
   8   5 -11    8.70    9.90   1
  -8  -5  11   20.70    6.10   1
   8   5 -10   -7.10    7.80   1
  -8  -5  10   -4.10    5.80   1
   8   5  -9  138.60   12.70   1
  -8  -5   9  137.60    8.90   1
   8   5  -8   -7.80    6.30   1
  -8  -5   8    0.90    4.80   1
   8   5  -7  100.30    9.60   1
  -8  -5   7  103.10    6.80   1
   8   5  -6  154.60   11.70   1
  -8  -5   6  155.30    5.70   1
   8   5  -5    2.00    2.30   1
  -8  -5   5    2.80    2.00   1
   8   5  -4   11.30    2.30   1
  -8  -5   4   10.50    1.80   1
   8   5  -3   56.10    2.60   1
  -8  -5   3   60.80    2.90   1
   8   5  -2   37.80    3.30   1
  -8  -5   2   37.00    2.20   1
   8   5  -1   63.40    2.90   1
  -8  -5   1   66.70    2.60   1
   8   5   0   12.00    2.00   1
  -8  -5   0    9.30    1.50   1
   8   5   1   11.00    2.10   1
  -8  -5  -1   10.70    1.50   1
   8   5   2   64.70    6.40   1
  -8  -5  -2   76.40    3.90   1
   8   5   3    7.70    2.40   1
  -8  -5  -3    9.20    1.70   1
   8   5   4    4.90    2.40   1
  -8  -5  -4    8.90    1.70   1
   8   5   5  229.50    9.80   1
  -8  -5  -5  241.30    7.80   1
   8   5   6    2.70    3.30   1
  -8  -5  -6   -0.60    3.20   1
   8   5   7  394.60   15.90   1
  -8  -5  -7  405.00   12.90   1
   8   5   8   12.60    4.60   1
  -8  -5  -8   14.20    3.80   1
   8   5   9    0.90    4.90   1
  -8  -5  -9    1.10    3.90   1
   8   5  10    4.30    5.50   1
  -8  -5 -10    8.80    4.10   1
   8   6 -11  173.10   16.00   1
  -8  -6  11  144.30   11.40   1
   8   6 -10    4.40    8.00   1
  -8  -6  10    2.80    5.40   1
   8   6  -9    0.20    7.70   1
  -8  -6   9   -1.00    4.00   1
   8   6  -8   11.00    7.00   1
  -8  -6   8    1.70    5.00   1
   8   6  -7   35.60    7.30   1
  -8  -6   7   25.70    4.80   1
   8   6  -6   28.90    6.40   1
  -8  -6   6   19.40    4.30   1
   8   6  -5   17.80    2.80   1
  -8  -6   5   26.50    2.60   1
   8   6  -4    9.60    5.00   1
  -8  -6   4    7.50    2.20   1
   8   6  -3   13.00    2.60   1
  -8  -6   3   19.90    2.30   1
   8   6  -2   25.70    2.10   1
  -8  -6   2   32.80    2.50   1
   8   6  -1   65.80    3.40   1
  -8  -6   1   68.90    2.80   1
   8   6   0  121.00    5.90   1
  -8  -6   0  123.50    4.70   1
   8   6   1   35.60    2.90   1
  -8  -6  -1   40.40    2.10   1
   8   6   2   43.60    3.60   1
  -8  -6  -2   54.20    2.30   1
   8   6   3  317.20   12.20   1
  -8  -6  -3  320.70    9.90   1
   8   6   4    3.10    3.10   1
  -8  -6  -4   -0.20    1.90   1
   8   6   5   23.80    3.80   1
  -8  -6  -5   28.70    3.00   1
   8   6   6   46.30    5.10   1
  -8  -6  -6   50.20    4.20   1
   8   6   7    2.30    4.20   1
  -8  -6  -7    0.80    3.10   1
   8   6   8   62.70    6.20   1
  -8  -6  -8   61.10    4.60   1
   8   6   9   -4.10    5.20   1
  -8  -6  -9    1.50    4.20   1
   8   6  10   34.60    7.80   1
  -8  -6 -10   39.60    5.20   1
   8   7 -10   18.30    9.50   1
  -8  -7  10    2.80    6.80   1
   8   7  -9  101.50   11.90   1
  -8  -7   9   83.20    7.10   1
   8   7  -8   22.10    7.50   1
  -8  -7   8   16.50    5.60   1
   8   7  -7  232.20   17.70   1
  -8  -7   7  215.90   10.70   1
   8   7  -6   40.60    7.80   1
  -8  -7   6   47.00    5.00   1
   8   7  -5   36.20    6.90   1
  -8  -7   5   41.80    4.30   1
   8   7  -4   -1.40    5.00   1
  -8  -7   4    4.50    2.30   1
   8   7  -3   19.40    2.90   1
  -8  -7   3   20.30    2.50   1
   8   7  -2  138.80    6.40   1
  -8  -7   2  152.60    5.50   1
   8   7  -1  137.40    5.20   1
  -8  -7   1  150.70    5.10   1
   8   7   0  109.10    4.60   1
  -8  -7   0  111.50    4.80   1
   8   7   1   23.90    2.90   1
  -8  -7  -1   32.40    2.30   1
   8   7   2    5.90    2.70   1
  -8  -7  -2   10.00    1.70   1
   8   7   3   76.90    5.10   1
  -8  -7  -3   74.90    3.90   1
   8   7   4   -3.30    3.10   1
  -8  -7  -4    3.40    2.10   1
   8   7   5    7.80    3.20   1
  -8  -7  -5   10.30    3.20   1
   8   7   6   31.40    4.90   1
  -8  -7  -6   36.40    3.90   1
   8   7   7   41.00    5.20   1
  -8  -7  -7   48.20    4.60   1
   8   7   8   55.20    6.40   1
  -8  -7  -8   53.00    5.10   1
   8   7   9   10.50    6.70   1
  -8  -7  -9   12.50    4.50   1
   8   8  -9   15.40    9.30   1
  -8  -8   9    3.90    6.30   1
   8   8  -8    3.30    7.50   1
  -8  -8   8   -0.20    5.80   1
   8   8  -7    7.70    5.40   1
  -8  -8   7    8.60    5.30   1
   8   8  -6  158.50   14.10   1
  -8  -8   6  153.10    8.50   1
   8   8  -5    0.70    4.50   1
  -8  -8   5    1.70    3.70   1
   8   8  -4  455.90   27.30   1
  -8  -8   4  463.00   17.00   1
   8   8  -3    0.90    3.80   1
  -8  -8   3    6.20    3.70   1
   8   8  -2   84.40    5.80   1
  -8  -8   2   86.10    4.20   1
   8   8  -1   21.10    3.10   1
  -8  -8   1   33.00    2.60   1
   8   8   0    9.70    2.50   1
  -8  -8   0   12.30    2.30   1
   8   8   1    3.60    2.70   1
  -8  -8  -1   -1.80    2.50   1
   8   8   2   13.80    3.10   1
  -8  -8  -2   13.80    2.40   1
   8   8   3   84.60    5.40   1
  -8  -8  -3   83.30    3.90   1
   8   8   4   10.60    3.70   1
  -8  -8  -4   10.40    2.50   1
   8   8   5   33.30    4.70   1
  -8  -8  -5   36.30    4.10   1
   8   8   6   19.20    4.70   1
  -8  -8  -6   25.60    3.80   1
   8   8   7   -4.20    4.60   1
  -8  -8  -7    3.70    3.80   1
   8   8   8   14.70    5.50   1
  -8  -8  -8   10.50    4.20   1
   8   8   9    5.30    6.00   1
  -8  -8  -9   -2.10    5.80   1
   8   9  -8   18.80    8.70   1
  -8  -9   8   18.30    5.50   1
   8   9  -7    9.50    7.90   1
  -8  -9   7   11.80    5.50   1
   8   9  -6   -0.80    7.40   1
  -8  -9   6    5.60    4.80   1
   8   9  -5   85.90   10.20   1
  -8  -9   5   92.20    6.60   1
   8   9  -4   -1.40    6.60   1
  -8  -9   4    1.40    3.50   1
   8   9  -3   76.40    8.80   1
  -8  -9   3   65.80    5.10   1
   8   9  -2  105.70    6.60   1
  -8  -9   2  115.90    5.10   1
   8   9  -1   -0.50    3.50   1
  -8  -9   1   10.30    2.30   1
   8   9   0  393.00   14.60   1
  -8  -9   0  413.00   11.30   1
   8   9   1   29.50    4.00   1
  -8  -9  -1   26.20    3.70   1
   8   9   2    8.30    2.90   1
  -8  -9  -2    8.60    3.00   1
   8   9   3    4.60    3.50   1
  -8  -9  -3    3.30    2.80   1
   8   9   4   -3.20    3.90   1
  -8  -9  -4   -2.00    2.90   1
   8   9   5    3.80    4.30   1
  -8  -9  -5   -3.80    3.90   1
   8   9   6  104.80    8.20   1
  -8  -9  -6  107.10    6.60   1
   8   9   7    2.90    5.60   1
  -8  -9  -7    9.80    4.50   1
   8   9   8    6.90    6.00   1
  -8  -9  -8   13.50    4.90   1
  -8 -10   8   11.10    9.40   1
   8  10  -7   11.90    8.50   1
  -8 -10   7   -1.00    6.00   1
   8  10  -6   -8.20    8.40   1
  -8 -10   6    0.20    5.60   1
   8  10  -5   15.50    8.50   1
  -8 -10   5   12.60    5.30   1
   8  10  -4  165.20   13.40   1
  -8 -10   4  170.00    9.70   1
   8  10  -3   14.60    5.90   1
  -8 -10   3   17.00    4.70   1
   8  10  -2    6.20    6.70   1
  -8 -10   2   -2.60    3.80   1
   8  10  -1    0.50    4.20   1
  -8 -10   1    6.50    3.00   1
   8  10   0   27.20    4.60   1
  -8 -10   0   36.10    4.10   1
   8  10   1    4.70    4.30   1
  -8 -10  -1    7.60    4.90   1
   8  10   2   31.40    4.80   1
  -8 -10  -2   42.40    4.30   1
   8  10   3   50.90    4.40   1
  -8 -10  -3   52.40    4.60   1
   8  10   4   44.40    5.60   1
  -8 -10  -4   44.70    5.10   1
   8  10   5   14.40    4.90   1
  -8 -10  -5    2.10    4.20   1
   8  10   6   32.90    6.00   1
  -8 -10  -6   35.10    4.90   1
   8  10   7    9.20    9.70   1
  -8 -10  -7   11.30    5.80   1
   8  11  -6   -3.40    8.80   1
  -8 -11   6   -0.70    5.10   1
   8  11  -5    9.90    8.10   1
  -8 -11   5    0.30    5.70   1
   8  11  -4   -5.70    7.70   1
  -8 -11   4    9.60    5.40   1
   8  11  -3   -1.20    7.80   1
  -8 -11   3    1.30    4.90   1
   8  11  -2   59.10    8.00   1
  -8 -11   2   58.90    5.60   1
   8  11  -1   39.90    7.10   1
  -8 -11   1   29.30    8.30   1
   8  11   0   83.40    9.20   1
  -8 -11   0   85.10    7.00   1
   8  11   1    7.50    5.70   1
  -8 -11  -1   24.20    6.00   1
   8  11   2   -1.30    7.50   1
  -8 -11  -2    8.30    5.40   1
   8  11   3   -8.50    7.50   1
  -8 -11  -3   -3.10    4.70   1
   8  11   4   -3.60    7.80   1
  -8 -11  -4   -4.50    9.10   1
   8  11   5   35.90    9.60   1
  -8 -11  -5   51.40   11.20   1
   8  11   6   20.70    9.50   1
  -8 -11  -6   15.30    7.00   1
   8  12  -4   17.50    9.30   1
  -8 -12   4   19.60    6.20   1
   8  12  -3    5.70    8.60   1
  -8 -12   3    7.30    5.90   1
   8  12  -2   42.20    9.20   1
  -8 -12   2   40.50   10.10   1
   8  12  -1   18.80    8.80   1
  -8 -12   1   16.80    6.70   1
   8  12   0    6.60    8.40   1
  -8 -12   0   15.40    8.40   1
   8  12   1   47.80   10.40   1
  -8 -12  -1   39.90    5.70   1
   8  12   2    7.50    8.00   1
  -8 -12  -2    6.90    6.40   1
   8  12   3  150.30   15.00   1
  -8 -12  -3  126.80    9.70   1
   8  12   4    5.40    9.70   1
   9 -12  -1   98.50   13.50   1
  -9  12   1   70.30   11.70   1
   9 -12   0    2.00    9.30   1
  -9  12   0    4.80    6.60   1
  -9  11   5   86.00   10.80   1
   9 -11  -4   -1.60    9.20   1
  -9  11   4   -9.40    5.80   1
   9 -11  -3   13.50    9.20   1
  -9  11   3   -1.00    5.70   1
   9 -11  -2    0.30    8.80   1
  -9  11   2   14.80    5.90   1
   9 -11  -1   20.50    7.20   1
  -9  11   1   16.10    5.70   1
   9 -11   0   -3.10    7.70   1
  -9  11   0    6.80    4.30   1
   9 -11   1    8.50    8.10   1
  -9  11  -1    6.20    5.30   1
   9 -11   2   59.40   10.00   1
  -9  11  -2   61.00   11.00   1
   9 -11   3   29.50   10.80   1
  -9  11  -3   27.60    8.80   1
   9 -11   4    1.40    9.50   1
  -9  11  -4    4.40    8.60   1
   9 -10  -6    9.10    7.50   1
  -9  10   6   13.30    5.90   1
   9 -10  -5   23.50    9.40   1
  -9  10   5    6.10    5.60   1
   9 -10  -4   32.00    8.90   1
  -9  10   4   32.10    6.10   1
   9 -10  -3   -5.70    7.70   1
  -9  10   3    9.60    5.00   1
   9 -10  -2   47.90    9.40   1
  -9  10   2    6.40    5.40   1
   9 -10  -1   38.50    8.70   1
  -9  10   1   26.40    5.70   1
   9 -10   0    3.30    7.20   1
  -9  10   0   -2.70    3.50   1
   9 -10   1   10.50    6.70   1
  -9  10  -1    0.00    5.00   1
   9 -10   2    5.10    6.50   1
  -9  10  -2   -0.30    4.20   1
   9 -10   3    6.30    8.50   1
  -9  10  -3    0.30    6.90   1
   9 -10   4   26.30   10.00   1
  -9  10  -4   27.30    8.60   1
   9 -10   5   -6.70    6.50   1
  -9  10  -5    3.30    6.00   1
  -9   9   8   94.60   12.20   1
   9  -9  -7   -4.20    9.50   1
  -9   9   7   -1.30    4.70   1
   9  -9  -6   39.10   10.50   1
  -9   9   6   32.20    6.00   1
   9  -9  -5   35.50    9.20   1
  -9   9   5   27.30    4.90   1
   9  -9  -4   34.00    9.30   1
  -9   9   4   27.60    5.40   1
   9  -9  -3   26.80    8.50   1
  -9   9   3   35.20    5.60   1
   9  -9  -2    9.10    6.90   1
  -9   9   2   13.00    4.20   1
   9  -9  -1   17.60    7.20   1
  -9   9   1   17.00    4.80   1
   9  -9   0    4.90    6.40   1
  -9   9   0    1.20    4.60   1
   9  -9   1   30.20    5.10   1
  -9   9  -1   34.80    3.60   1
   9  -9   2  157.00    8.80   1
  -9   9  -2  176.00    9.30   1
   9  -9   3   22.40    5.60   1
  -9   9  -3   29.80    4.10   1
   9  -9   4   -5.10    5.30   1
  -9   9  -4    8.90    4.90   1
   9  -9   5   27.90    7.90   1
  -9   9  -5   31.60    5.80   1
   9  -9   6   39.20   11.20   1
  -9   9  -6   59.70    9.80   1
   9  -9   7   28.00    8.40   1
  -9   9  -7   12.50    9.80   1
   9  -8  -8   44.90    9.30   1
  -9   8   8   41.20    5.90   1
   9  -8  -7    2.00    9.50   1
  -9   8   7    2.60    5.00   1
   9  -8  -6   84.90   10.40   1
  -9   8   6   78.70    6.90   1
   9  -8  -5    2.70    7.70   1
  -9   8   5   -4.30    4.80   1
   9  -8  -4  195.90   15.70   1
  -9   8   4  167.70    9.20   1
   9  -8  -3    5.90    6.50   1
  -9   8   3    2.10    3.40   1
   9  -8  -2   -1.10    6.40   1
  -9   8   2   -0.80    4.20   1
   9  -8  -1   41.30    7.50   1
  -9   8   1   48.60    4.70   1
   9  -8   0   39.10    4.50   1
  -9   8   0   55.30    4.00   1
   9  -8   1   31.40    4.30   1
  -9   8  -1   30.70    3.80   1
   9  -8   2   41.70    5.00   1
  -9   8  -2   58.00    4.60   1
   9  -8   3   33.30    4.00   1
  -9   8  -3   26.80    4.00   1
   9  -8   4  184.10   10.10   1
  -9   8  -4  197.90   10.00   1
   9  -8   5   19.90    5.80   1
  -9   8  -5   18.60    5.00   1
   9  -8   6  234.80   13.10   1
  -9   8  -6  243.40   12.80   1
   9  -8   7    2.20   10.10   1
  -9   8  -7    6.10    7.80   1
   9  -8   8   -5.50    7.90   1
   9  -7  -9   46.60   12.30   1
  -9   7   9   32.20    9.90   1
   9  -7  -8   94.80   14.10   1
  -9   7   8   88.50    7.50   1
   9  -7  -7   45.20   10.20   1
  -9   7   7   42.10    6.10   1
   9  -7  -6  206.60   16.30   1
  -9   7   6  184.90    9.10   1
   9  -7  -5  126.50   11.90   1
  -9   7   5  114.00    7.40   1
   9  -7  -4   12.60    5.50   1
  -9   7   4   12.80    4.20   1
   9  -7  -3   69.40    8.50   1
  -9   7   3   62.80    5.60   1
   9  -7  -2   -2.90    5.80   1
  -9   7   2   -5.70    3.10   1
   9  -7  -1  127.70    6.60   1
  -9   7   1  124.60    5.50   1
   9  -7   0   44.60    4.50   1
  -9   7   0   37.30    4.80   1
   9  -7   1    5.10    3.50   1
  -9   7  -1   15.20    3.80   1
   9  -7   2   28.70    3.80   1
  -9   7  -2   28.00    3.20   1
   9  -7   3   79.70    4.60   1
  -9   7  -3   82.50    4.00   1
   9  -7   4    7.50    4.40   1
  -9   7  -4    1.30    2.80   1
   9  -7   5    9.60    5.00   1
  -9   7  -5   13.40    3.30   1
   9  -7   6   47.00    6.20   1
  -9   7  -6   32.40    4.00   1
   9  -7   7    9.60    5.80   1
  -9   7  -7   12.40    3.80   1
   9  -7   8   45.40    7.10   1
  -9   7  -8   36.50    5.70   1
   9  -6 -10  159.60   16.10   1
  -9   6  10  142.50   13.50   1
   9  -6  -9   -5.60    9.90   1
  -9   6   9   11.70    5.30   1
   9  -6  -8   12.70    8.50   1
  -9   6   8    5.10    4.80   1
   9  -6  -7    0.00    7.40   1
  -9   6   7    7.20    3.90   1
   9  -6  -6   15.30    7.10   1
  -9   6   6   26.80    4.60   1
   9  -6  -5   44.50    7.50   1
  -9   6   5   32.20    4.30   1
   9  -6  -4    0.70    5.90   1
  -9   6   4    4.70    4.20   1
   9  -6  -3  138.10   10.20   1
  -9   6   3  132.80    6.70   1
   9  -6  -2   -0.20    5.30   1
  -9   6   2   -3.60    3.70   1
   9  -6  -1  258.30   10.10   1
  -9   6   1  262.10    8.00   1
   9  -6   0   74.80    4.90   1
  -9   6   0   79.90    4.10   1
   9  -6   1   26.00    3.20   1
  -9   6  -1   23.90    2.20   1
   9  -6   2   22.10    3.40   1
  -9   6  -2   34.60    2.60   1
   9  -6   3   70.60    4.20   1
  -9   6  -3   87.30    3.80   1
   9  -6   4   73.00    5.50   1
  -9   6  -4   69.90    4.40   1
   9  -6   5   14.30    4.50   1
  -9   6  -5   14.30    3.10   1
   9  -6   6    1.60    3.90   1
  -9   6  -6    2.60    3.20   1
   9  -6   7   -1.40    5.10   1
  -9   6  -7   -2.10    3.30   1
   9  -6   8    6.70    5.10   1
  -9   6  -8    6.50    4.30   1
   9  -6   9    7.60    6.50   1
  -9   6  -9    0.10    4.90   1
   9  -5 -10    4.40   10.70   1
  -9   5  10    9.20    8.40   1
   9  -5  -9  -16.60    9.00   1
  -9   5   9    4.20    4.00   1
   9  -5  -8   22.20    6.70   1
  -9   5   8   15.80    4.00   1
   9  -5  -7   87.80   10.30   1
  -9   5   7   73.30    6.00   1
   9  -5  -6  128.10   11.30   1
  -9   5   6  132.50    7.60   1
   9  -5  -5  120.30   10.60   1
  -9   5   5  115.40    6.80   1
   9  -5  -4   13.70    6.00   1
  -9   5   4   27.00    3.80   1
   9  -5  -3   13.90    5.40   1
  -9   5   3   15.80    4.10   1
   9  -5  -2    4.40    4.80   1
  -9   5   2   -0.10    5.30   1
   9  -5  -1  145.50   10.00   1
  -9   5   1  133.60    7.10   1
   9  -5   0   47.00    3.40   1
  -9   5   0   46.40    2.50   1
   9  -5   1  186.20    7.90   1
  -9   5  -1  200.00    5.90   1
   9  -5   2   65.50    3.50   1
  -9   5  -2   68.00    3.10   1
   9  -5   3   -2.50    2.10   1
  -9   5  -3    1.60    2.20   1
   9  -5   4   11.50    3.30   1
  -9   5  -4   13.60    2.50   1
   9  -5   5    8.60    4.00   1
  -9   5  -5   10.00    2.80   1
   9  -5   6   11.00    5.10   1
  -9   5  -6    1.30    2.40   1
   9  -5   7   -1.50    4.90   1
  -9   5  -7    1.30    2.80   1
   9  -5   8   11.60    5.40   1
  -9   5  -8   13.30    3.30   1
   9  -5   9   50.40    6.50   1
  -9   5  -9   51.80    6.20   1
   9  -5  10   15.10   11.90   1
  -9   5 -10    9.00    7.70   1
   9  -4 -11   57.70   13.10   1
  -9   4  11   56.00   11.50   1
   9  -4 -10    2.30   10.20   1
  -9   4  10   -7.90    8.40   1
   9  -4  -9   18.10    6.70   1
  -9   4   9   21.40    6.20   1
   9  -4  -8   43.80    9.30   1
  -9   4   8   37.20    4.90   1
   9  -4  -7    5.10    6.40   1
  -9   4   7   12.10    4.20   1
   9  -4  -6   -1.00    5.80   1
  -9   4   6    2.80    3.30   1
   9  -4  -5   67.80    7.70   1
  -9   4   5   59.90    5.20   1
   9  -4  -4    3.30    5.20   1
  -9   4   4    1.90    2.90   1
   9  -4  -3  245.50    9.40   1
  -9   4   3  250.60   10.20   1
   9  -4  -2   45.70    3.20   1
  -9   4   2   44.20    3.70   1
   9  -4  -1   88.60    4.60   1
  -9   4   1  105.90    6.00   1
   9  -4   0    5.30    4.80   1
  -9   4   0    3.60    2.70   1
   9  -4   1    6.80    2.00   1
  -9   4  -1    6.80    1.60   1
   9  -4   2   32.80    2.60   1
  -9   4  -2   39.20    2.20   1
   9  -4   3   31.90    2.70   1
  -9   4  -3   41.00    2.40   1
   9  -4   4   28.40    3.60   1
  -9   4  -4   28.20    2.50   1
   9  -4   5   19.00    3.70   1
  -9   4  -5   14.50    2.40   1
   9  -4   6   12.30    4.10   1
  -9   4  -6   12.30    2.30   1
   9  -4   7   47.70    7.70   1
  -9   4  -7   47.30    3.30   1
   9  -4   8   34.60    5.90   1
  -9   4  -8   33.50    4.70   1
   9  -4   9    7.60    5.40   1
  -9   4  -9    6.50    4.80   1
   9  -4  10   26.20   10.90   1
  -9   4 -10   27.40    5.80   1
   9  -3 -11   21.90   11.20   1
  -9   3  11   12.20    7.00   1
   9  -3 -10   23.60    9.90   1
  -9   3  10    0.60    8.10   1
   9  -3  -9    3.10    8.50   1
  -9   3   9    2.80    4.30   1
   9  -3  -8   71.30   10.30   1
  -9   3   8   70.20    5.90   1
   9  -3  -7   50.80    8.00   1
  -9   3   7   45.20    4.80   1
   9  -3  -6    1.30    5.90   1
  -9   3   6    2.90    3.80   1
   9  -3  -5   16.60    3.10   1
  -9   3   5   20.00    3.40   1
   9  -3  -4   23.40    2.80   1
  -9   3   4   27.40    3.70   1
   9  -3  -3    3.90    2.40   1
  -9   3   3    7.90    2.90   1
   9  -3  -2   32.00    3.00   1
  -9   3   2   30.60    4.00   1
   9  -3  -1  394.90   12.70   1
  -9   3   1  389.30   14.40   1
   9  -3   0    2.80    3.30   1
  -9   3   0    1.00    2.40   1
   9  -3   1 1174.90   33.60   1
  -9   3  -1 1160.30   23.50   1
   9  -3   2   89.00    3.50   1
  -9   3  -2  102.50    3.50   1
   9  -3   3   38.70    2.50   1
  -9   3  -3   46.60    2.50   1
   9  -3   4    5.90    3.10   1
  -9   3  -4    3.80    1.90   1
   9  -3   5   45.40    4.70   1
  -9   3  -5   41.30    2.70   1
   9  -3   6   12.60    3.80   1
  -9   3  -6   15.70    2.70   1
   9  -3   7  137.00    8.40   1
  -9   3  -7  144.20    6.40   1
   9  -3   8   11.90    5.10   1
  -9   3  -8   15.10    3.50   1
   9  -3   9   73.60    7.60   1
  -9   3  -9   66.40    4.90   1
   9  -3  10   -9.00   10.50   1
  -9   3 -10    3.50    4.90   1
   9  -2 -11    0.20   10.90   1
  -9   2  11    6.50    8.50   1
   9  -2 -10   56.40   10.90   1
  -9   2  10   59.50    9.10   1
   9  -2  -9   57.50    9.70   1
  -9   2   9   45.40    6.40   1
   9  -2  -8    9.70    7.10   1
  -9   2   8    7.90    5.60   1
   9  -2  -7   19.60    3.90   1
  -9   2   7   33.50    4.70   1
   9  -2  -6   32.90    3.60   1
  -9   2   6   40.70    4.30   1
   9  -2  -5   27.30    3.60   1
  -9   2   5   41.60    4.40   1
   9  -2  -4  116.50    5.90   1
  -9   2   4  113.30    6.30   1
   9  -2  -3  317.20   11.40   1
  -9   2   3  315.80   11.80   1
   9  -2  -2   39.00    3.50   1
  -9   2   2   38.60    4.30   1
   9  -2  -1    4.40    2.50   1
  -9   2   1    7.40    2.20   1
   9  -2   0    0.70    3.50   1
  -9   2   0    3.50    1.90   1
   9  -2   1   41.30    3.30   1
  -9   2  -1   41.20    2.70   1
   9  -2   2  124.10    5.80   1
  -9   2  -2  131.60    5.00   1
   9  -2   3   16.60    2.00   1
  -9   2  -3   17.80    1.70   1
   9  -2   4  449.70   14.50   1
  -9   2  -4  475.00   11.20   1
   9  -2   5   44.60    3.90   1
  -9   2  -5   48.80    2.90   1
   9  -2   6  270.30   11.20   1
  -9   2  -6  274.30    8.60   1
   9  -2   7   40.20    5.20   1
  -9   2  -7   37.40    3.40   1
   9  -2   8    1.90    4.70   1
  -9   2  -8    7.20    3.30   1
   9  -2   9    6.60    4.50   1
  -9   2  -9    9.70    3.70   1
   9  -2  10   -9.00    6.10   1
  -9   2 -10    2.30    4.10   1
   9  -1 -11   -1.90   10.30   1
  -9   1  11    8.30    6.20   1
   9  -1 -10   13.40    9.20   1
  -9   1  10   14.10    5.30   1
   9  -1  -9   16.70    5.00   1
  -9   1   9   17.70    4.40   1
   9  -1  -8  154.90    8.60   1
  -9   1   8  157.60    8.40   1
   9  -1  -7   54.30    5.10   1
  -9   1   7   53.20    5.30   1
   9  -1  -6  600.40   21.40   1
  -9   1   6  606.00   15.40   1
   9  -1  -5    3.70    3.00   1
  -9   1   5   -0.80    3.60   1
   9  -1  -4   -1.20    2.90   1
  -9   1   4    6.80    3.70   1
   9  -1  -3   34.10    3.60   1
  -9   1   3   32.40    3.60   1
   9  -1  -2    2.70    2.60   1
  -9   1   2    3.40    3.70   1
   9  -1  -1    0.10    2.50   1
  -9   1   1    3.20    2.40   1
   9  -1   0  100.10    5.30   1
  -9   1   0  120.50    4.10   1
   9  -1   1   88.90    4.50   1
  -9   1  -1  104.60    4.40   1
   9  -1   2   15.60    2.70   1
  -9   1  -2   20.60    2.50   1
   9  -1   3   62.50    2.70   1
  -9   1  -3   73.20    2.70   1
   9  -1   4   63.60    4.00   1
  -9   1  -4   70.80    3.00   1
   9  -1   5    2.70    2.80   1
  -9   1  -5    0.30    2.00   1
   9  -1   6  110.10    6.20   1
  -9   1  -6  122.30    5.00   1
   9  -1   7    2.90    3.80   1
  -9   1  -7    6.90    3.30   1
   9  -1   8  166.90    9.10   1
  -9   1  -8  182.30    7.00   1
   9  -1   9    5.80    4.80   1
  -9   1  -9    6.30    3.60   1
   9  -1  10    4.50    6.10   1
  -9   1 -10    1.20    3.70   1
  -9   1 -11   21.30    9.00   1
   9   0 -11    7.30   10.70   1
  -9   0  11   -3.80    5.80   1
   9   0 -10  405.10   20.00   1
  -9   0  10  382.30   18.10   1
   9   0  -9   -4.20    5.70   1
  -9   0   9   -1.40    4.70   1
   9   0  -8   11.80    4.30   1
  -9   0   8   17.90    4.50   1
   9   0  -7   -1.80    3.80   1
  -9   0   7    4.40    4.20   1
   9   0  -6    1.60    3.40   1
  -9   0   6    5.90    3.20   1
   9   0  -5    1.50    3.60   1
  -9   0   5    8.80    4.70   1
   9   0  -4   26.30    3.90   1
  -9   0   4   22.40    4.60   1
   9   0  -3    0.50    2.70   1
  -9   0   3   -1.80    3.00   1
   9   0  -2   23.90    3.10   1
  -9   0   2   19.10    3.90   1
   9   0  -1   -0.10    2.00   1
  -9   0   1   -0.40    2.40   1
   9   0   0  313.00   11.00   1
  -9   0   0  316.30    9.40   1
   9   0   1   -2.20    3.00   1
  -9   0  -1   -3.20    2.20   1
   9   0   2   10.20    2.60   1
  -9   0  -2    6.20    3.00   1
   9   0   3   -0.40    1.40   1
  -9   0  -3    0.90    1.40   1
   9   0   4  533.30   16.80   1
  -9   0  -4  539.40   13.90   1
   9   0   5   -0.20    2.60   1
  -9   0  -5   -0.10    2.30   1
   9   0   6    7.90    3.40   1
  -9   0  -6    9.20    2.40   1
   9   0   7    2.60    4.00   1
  -9   0  -7   -1.70    3.00   1
   9   0   8    9.40    4.70   1
  -9   0  -8    2.70    3.10   1
   9   0   9   -4.80    4.80   1
  -9   0  -9    1.20    3.60   1
   9   0  10   19.40    6.90   1
  -9   0 -10   22.50    4.90   1
  -9   0 -11   -7.00    8.50   1
   9   1 -11   -3.30    6.40   1
  -9  -1  11   -3.90    8.70   1
   9   1 -10   -0.80    6.40   1
  -9  -1  10    1.00    7.90   1
   9   1  -9   14.40    4.70   1
  -9  -1   9   15.70    4.90   1
   9   1  -8  159.50    8.60   1
  -9  -1   8  150.50    8.10   1
   9   1  -7   56.40    5.20   1
  -9  -1   7   60.60    4.80   1
   9   1  -6  583.50   21.50   1
  -9  -1   6  619.10   20.20   1
   9   1  -5    4.50    3.60   1
  -9  -1   5    6.20    3.70   1
   9   1  -4    2.80    3.00   1
  -9  -1   4    8.80    3.70   1
   9   1  -3   34.30    2.70   1
  -9  -1   3   32.20    3.70   1
   9   1  -2    1.40    2.30   1
  -9  -1   2   -0.30    2.40   1
   9   1  -1    0.80    2.80   1
  -9  -1   1    2.10    4.80   1
   9   1   0  110.20    5.40   1
  -9  -1   0  111.50    5.30   1
   9   1   1   95.90    5.40   1
  -9  -1  -1   98.80    4.80   1
   9   1   2    9.30    2.80   1
  -9  -1  -2   17.20    2.90   1
   9   1   3   68.00    2.80   1
  -9  -1  -3   73.60    3.00   1
   9   1   4   63.00    3.80   1
  -9  -1  -4   64.20    3.20   1
   9   1   5    1.80    2.60   1
  -9  -1  -5    2.30    2.00   1
   9   1   6  101.10    6.00   1
  -9  -1  -6  122.80    5.20   1
   9   1   7    4.60    3.50   1
  -9  -1  -7   -2.40    2.70   1
   9   1   8  185.70    9.70   1
  -9  -1  -8  187.30    7.50   1
   9   1   9    2.30    4.90   1
  -9  -1  -9    1.80    3.20   1
   9   1  10    3.20    5.30   1
  -9  -1 -10    2.00    5.60   1
  -9  -1 -11   25.90    9.70   1
   9   2 -11   10.90    7.10   1
  -9  -2  11    2.80    8.80   1
   9   2 -10   57.20    7.50   1
  -9  -2  10   65.90    8.30   1
   9   2  -9   49.30    5.70   1
  -9  -2   9   46.70    5.80   1
   9   2  -8   -1.30    4.00   1
  -9  -2   8    2.70    4.20   1
   9   2  -7   38.00    4.40   1
  -9  -2   7   31.20    4.00   1
   9   2  -6   29.60    3.50   1
  -9  -2   6   36.20    3.90   1
   9   2  -5   22.60    3.20   1
  -9  -2   5   32.30    3.20   1
   9   2  -4  110.40    5.60   1
  -9  -2   4  118.00    6.10   1
   9   2  -3  312.90   10.60   1
  -9  -2   3  307.00   11.50   1
   9   2  -2   38.60    3.60   1
  -9  -2   2   37.70    3.40   1
   9   2  -1    3.30    2.40   1
  -9  -2   1    0.20    2.30   1
   9   2   0    0.70    2.90   1
  -9  -2   0    1.10    2.40   1
   9   2   1   37.90    5.90   1
  -9  -2  -1   41.40    3.10   1
   9   2   2  124.00    5.90   1
  -9  -2  -2  130.80    6.20   1
   9   2   3   12.30    2.50   1
  -9  -2  -3   17.00    1.80   1
   9   2   4  448.20   14.70   1
  -9  -2  -4  461.20   11.80   1
   9   2   5   38.60    3.70   1
  -9  -2  -5   43.90    3.20   1
   9   2   6  260.30   10.70   1
  -9  -2  -6  271.10    8.70   1
   9   2   7   31.20    4.80   1
  -9  -2  -7   35.40    3.80   1
   9   2   8    0.00    4.30   1
  -9  -2  -8    7.20    3.20   1
   9   2   9    6.00    5.60   1
  -9  -2  -9   11.60    4.20   1
   9   2  10    7.60    9.80   1
  -9  -2 -10    0.00    4.10   1
   9   3 -11   -2.50    6.90   1
  -9  -3  11   11.60    7.20   1
   9   3 -10   13.30    6.20   1
  -9  -3  10   -2.60    7.80   1
   9   3  -9    4.80    5.60   1
  -9  -3   9    5.20    5.90   1
   9   3  -8   74.70    8.80   1
  -9  -3   8   68.20    6.50   1
   9   3  -7   36.60    8.20   1
  -9  -3   7   43.40    5.50   1
   9   3  -6   13.70    5.20   1
  -9  -3   6    0.70    3.30   1
   9   3  -5   16.10    3.30   1
  -9  -3   5   17.40    3.40   1
   9   3  -4   26.50    3.50   1
  -9  -3   4   28.60    3.90   1
   9   3  -3    7.90    2.90   1
  -9  -3   3    9.30    2.60   1
   9   3  -2   29.90    3.50   1
  -9  -3   2   25.10    3.30   1
   9   3  -1  384.70   13.70   1
  -9  -3   1  393.10   11.10   1
   9   3   0   -0.50    4.30   1
  -9  -3   0    3.00    2.50   1
   9   3   1  992.10   42.90   1
  -9  -3  -1 1075.50   24.90   1
   9   3   2   86.50    7.80   1
  -9  -3  -2   92.80    4.20   1
   9   3   3   31.50    5.20   1
  -9  -3  -3   37.50    3.10   1
   9   3   4    5.30    2.60   1
  -9  -3  -4    1.30    2.00   1
   9   3   5   42.70    3.90   1
  -9  -3  -5   50.40    3.30   1
   9   3   6   13.50    3.20   1
  -9  -3  -6   11.90    2.70   1
   9   3   7  133.90    7.90   1
  -9  -3  -7  147.60    6.10   1
   9   3   8   17.90    5.30   1
  -9  -3  -8   14.50    3.40   1
   9   3   9   79.50    7.40   1
  -9  -3  -9   83.80    6.00   1
   9   3  10    7.30    7.80   1
  -9  -3 -10    1.40    5.10   1
   9   4 -11   55.30    8.50   1
  -9  -4  11   65.00   12.00   1
   9   4 -10    2.00    8.20   1
  -9  -4  10    4.90    5.80   1
   9   4  -9    8.40    7.80   1
  -9  -4   9   24.80    5.30   1
   9   4  -8   36.70    8.10   1
  -9  -4   8   33.10    5.60   1
   9   4  -7    5.70    6.30   1
  -9  -4   7    7.90    4.50   1
   9   4  -6    6.30    5.70   1
  -9  -4   6   -0.90    3.90   1
   9   4  -5   45.70    6.70   1
  -9  -4   5   69.70    4.90   1
   9   4  -4    1.20    2.70   1
  -9  -4   4   -0.40    3.40   1
   9   4  -3  262.90    9.90   1
  -9  -4   3  263.00   10.10   1
   9   4  -2   42.80    3.70   1
  -9  -4   2   43.10    3.80   1
   9   4  -1   97.30    5.40   1
  -9  -4   1   93.20    4.30   1
   9   4   0   -0.20    4.30   1
  -9  -4   0   -0.40    2.10   1
   9   4   1    0.90    4.30   1
  -9  -4  -1    8.60    2.20   1
   9   4   2   32.50    5.70   1
  -9  -4  -2   37.40    3.30   1
   9   4   3   31.10    6.20   1
  -9  -4  -3   43.10    3.10   1
   9   4   4   31.40    3.50   1
  -9  -4  -4   34.80    2.60   1
   9   4   5   11.10    3.00   1
  -9  -4  -5   12.00    2.40   1
   9   4   6    7.00    3.50   1
  -9  -4  -6   14.80    2.90   1
   9   4   7   53.10    5.60   1
  -9  -4  -7   51.90    4.10   1
   9   4   8   26.80   10.20   1
  -9  -4  -8   38.40    6.30   1
   9   4   9   22.20   10.20   1
  -9  -4  -9   -4.30    4.30   1
   9   4  10   50.00   12.50   1
  -9  -4 -10   28.20    7.10   1
   9   5 -10   -0.30    9.50   1
  -9  -5  10   -5.70    6.60   1
   9   5  -9   15.40    7.70   1
  -9  -5   9    4.40    5.60   1
   9   5  -8   13.20    7.50   1
  -9  -5   8   12.50    4.30   1
   9   5  -7   56.30    8.30   1
  -9  -5   7   66.20    5.50   1
   9   5  -6  120.90   11.40   1
  -9  -5   6  117.90    7.30   1
   9   5  -5  108.80    9.50   1
  -9  -5   5  139.30    7.60   1
   9   5  -4   12.10    5.60   1
  -9  -5   4   17.40    3.70   1
   9   5  -3    8.20    2.80   1
  -9  -5   3   12.70    3.40   1
   9   5  -2    4.30    2.30   1
  -9  -5   2    2.70    3.00   1
   9   5  -1  125.50    6.90   1
  -9  -5   1  122.90    5.10   1
   9   5   0   46.60    4.30   1
  -9  -5   0   50.10    3.40   1
   9   5   1  185.90   12.80   1
  -9  -5  -1  209.60    6.30   1
   9   5   2   56.90    7.00   1
  -9  -5  -2   65.70    4.00   1
   9   5   3    1.70    5.50   1
  -9  -5  -3   -0.10    2.90   1
   9   5   4    6.20    4.20   1
  -9  -5  -4    9.80    2.60   1
   9   5   5    3.70    3.20   1
  -9  -5  -5   12.80    3.20   1
   9   5   6    5.90    7.30   1
  -9  -5  -6   -0.70    4.00   1
   9   5   7  -11.90    7.40   1
  -9  -5  -7   12.10    4.50   1
   9   5   8   14.60    8.80   1
  -9  -5  -8   26.20    5.40   1
   9   5   9   63.80   13.30   1
  -9  -5  -9   69.40    7.90   1
   9   6 -10  117.80   13.70   1
  -9  -6  10  122.90   10.40   1
   9   6  -9   -0.30    8.60   1
  -9  -6   9   -3.80    5.30   1
   9   6  -8   13.90    7.80   1
  -9  -6   8   -3.40    5.40   1
   9   6  -7   10.90    7.20   1
  -9  -6   7    2.50    5.00   1
   9   6  -6   20.40    7.00   1
  -9  -6   6   30.10    4.90   1
   9   6  -5   29.20    7.20   1
  -9  -6   5   23.60    4.40   1
   9   6  -4    0.20    5.40   1
  -9  -6   4    4.50    3.70   1
   9   6  -3  114.40   10.10   1
  -9  -6   3  121.40    6.70   1
   9   6  -2    1.90    2.80   1
  -9  -6   2    2.50    2.80   1
   9   6  -1  248.60   10.20   1
  -9  -6   1  254.90    8.40   1
   9   6   0   70.00    5.20   1
  -9  -6   0   76.70    4.00   1
   9   6   1   23.80    5.60   1
  -9  -6  -1   26.60    2.50   1
   9   6   2   27.50    5.50   1
  -9  -6  -2   28.20    3.50   1
   9   6   3   65.10    8.00   1
  -9  -6  -3   87.50    4.80   1
   9   6   4   63.00    8.60   1
  -9  -6  -4   83.10    6.70   1
   9   6   5   26.60    7.70   1
  -9  -6  -5   16.90    3.90   1
   9   6   6   -5.20    7.50   1
  -9  -6  -6   -3.30    5.20   1
   9   6   7    6.60    8.50   1
  -9  -6  -7   -0.60    5.60   1
   9   6   8    1.80    9.00   1
  -9  -6  -8    0.10    6.00   1
   9   6   9   11.20    8.00   1
  -9  -6  -9    2.10    5.00   1
   9   7  -9   16.60    9.00   1
  -9  -7   9   32.00    6.90   1
   9   7  -8  100.20   11.80   1
  -9  -7   8   77.20    7.90   1
   9   7  -7   44.80    9.00   1
  -9  -7   7   51.40    6.30   1
   9   7  -6  184.70   14.70   1
  -9  -7   6  168.20   10.00   1
   9   7  -5  133.90   11.30   1
  -9  -7   5  113.60    7.60   1
   9   7  -4   15.10    6.90   1
  -9  -7   4    7.20    4.10   1
   9   7  -3   69.50    8.00   1
  -9  -7   3   64.40    5.20   1
   9   7  -2   -2.30    5.70   1
  -9  -7   2    3.40    3.00   1
   9   7  -1  132.30   10.50   1
  -9  -7   1  122.20    5.60   1
   9   7   0   41.20    4.20   1
  -9  -7   0   42.10    3.30   1
   9   7   1    7.90    3.90   1
  -9  -7  -1   12.20    2.90   1
   9   7   2   31.70    6.90   1
  -9  -7  -2   26.50    3.50   1
   9   7   3   91.90    8.40   1
  -9  -7  -3   81.30    5.00   1
   9   7   4    4.20    6.60   1
  -9  -7  -4    6.20    5.10   1
   9   7   5   10.70    7.00   1
  -9  -7  -5   18.90    4.70   1
   9   7   6   40.50    9.40   1
  -9  -7  -6   39.30    6.00   1
   9   7   7    6.90    8.60   1
  -9  -7  -7   12.10    6.00   1
   9   7   8   45.90    9.40   1
  -9  -7  -8   44.90    7.50   1
   9   8  -8   27.80    9.50   1
  -9  -8   8   30.60    6.90   1
   9   8  -7   -2.90    8.10   1
  -9  -8   7    1.90    5.50   1
   9   8  -6   81.80   10.70   1
  -9  -8   6   76.00    6.90   1
   9   8  -5  -12.00    7.50   1
  -9  -8   5    1.90    4.90   1
   9   8  -4  163.00   13.30   1
  -9  -8   4  169.10    9.20   1
   9   8  -3    0.90    4.50   1
  -9  -8   3    3.80    4.00   1
   9   8  -2   -2.30    6.60   1
  -9  -8   2   -3.00    3.40   1
   9   8  -1   43.00    7.60   1
  -9  -8   1   37.50    3.60   1
   9   8   0   45.60    6.20   1
  -9  -8   0   41.90    3.90   1
   9   8   1   31.30    4.70   1
  -9  -8  -1   35.50    4.90   1
   9   8   2   49.60    4.80   1
  -9  -8  -2   49.20    5.40   1
   9   8   3   25.00    6.60   1
  -9  -8  -3   22.90    3.90   1
   9   8   4  169.10   15.10   1
  -9  -8  -4  193.10   10.70   1
   9   8   5   25.80    7.90   1
  -9  -8  -5   14.30    5.10   1
   9   8   6  265.20   21.40   1
  -9  -8  -6  278.50   14.60   1
   9   8   7    1.00    9.60   1
  -9  -8  -7    3.30    6.30   1
   9   8   8  -13.30   10.30   1
  -9  -8  -8    8.70   10.30   1
  -9  -9   8   75.30   12.20   1
   9   9  -7   -6.10    8.80   1
  -9  -9   7   10.40    6.10   1
   9   9  -6   24.90    9.00   1
  -9  -9   6   27.80    5.30   1
   9   9  -5   23.30    8.60   1
  -9  -9   5   30.80    6.00   1
   9   9  -4   26.50    8.20   1
  -9  -9   4   26.20    5.10   1
   9   9  -3   26.20    7.70   1
  -9  -9   3   31.40    5.00   1
   9   9  -2    1.90    7.50   1
  -9  -9   2    4.20    4.00   1
   9   9  -1    8.40    6.90   1
  -9  -9   1   14.20    4.30   1
   9   9   0   -0.20    6.90   1
  -9  -9   0    0.10    4.80   1
   9   9   1   43.40    8.30   1
  -9  -9  -1   43.50    5.80   1
   9   9   2  171.70   14.70   1
  -9  -9  -2  176.40    9.70   1
   9   9   3   16.10    7.50   1
  -9  -9  -3   26.00    5.10   1
   9   9   4   -0.80    8.30   1
  -9  -9  -4    2.20    7.50   1
   9   9   5   18.80    7.80   1
  -9  -9  -5   39.00    7.10   1
   9   9   6   32.90    9.80   1
  -9  -9  -6   48.80    6.30   1
   9   9   7   16.60   10.40   1
  -9  -9  -7   21.70    6.90   1
   9  10  -6   15.50    9.20   1
  -9 -10   6    6.30    6.00   1
   9  10  -5    9.90    8.80   1
  -9 -10   5    3.80    5.70   1
   9  10  -4   29.10    9.00   1
  -9 -10   4   34.00    5.80   1
   9  10  -3    5.40    5.40   1
  -9 -10   3    5.50    5.00   1
   9  10  -2   10.20    7.80   1
  -9 -10   2   19.10    4.40   1
   9  10  -1   23.50    8.40   1
  -9 -10   1   28.20    7.90   1
   9  10   0    0.20    8.00   1
  -9 -10   0  -10.20    5.50   1
   9  10   1   -2.10    7.70   1
  -9 -10  -1   -6.00    5.40   1
   9  10   2   -2.50    5.90   1
  -9 -10  -2    3.60    5.10   1
   9  10   3   10.40    8.10   1
  -9 -10  -3   13.70    9.40   1
   9  10   4   26.10    7.70   1
  -9 -10  -4   36.60    8.50   1
   9  10   5   -5.50   10.30   1
  -9 -10  -5    2.60    6.90   1
  -9 -11   5   70.80   10.50   1
   9  11  -4   11.40    9.90   1
  -9 -11   4    4.80    4.90   1
   9  11  -3  -10.90    6.20   1
  -9 -11   3    3.10    5.50   1
   9  11  -2   20.60    6.70   1
  -9 -11   2   13.30    9.00   1
   9  11  -1   13.30    7.00   1
  -9 -11   1   21.60    6.90   1
   9  11   0  -14.20    8.70   1
  -9 -11   0  -13.60    8.20   1
   9  11   1    4.90    8.20   1
  -9 -11  -1   -4.20    5.80   1
   9  11   2   60.60   11.50   1
  -9 -11  -2   67.00    7.60   1
   9  11   3   14.80    9.40   1
  -9 -11  -3   17.10    7.70   1
   9  11   4    6.60    9.10   1
  -9 -11  -4    9.20   10.60   1
  -9 -12   1   65.00   12.10   1
  -9 -12   0   -3.00    9.20   1
  10 -10  -4   27.00   10.00   1
 -10  10   4   34.00    6.10   1
  10 -10  -3   13.40    8.70   1
 -10  10   3    7.00    5.10   1
  10 -10  -2  172.70   16.50   1
 -10  10   2  144.20    9.80   1
  10 -10  -1   -0.10    6.00   1
 -10  10   1   -4.30    5.50   1
  10 -10   0   16.00    8.30   1
 -10  10   0   20.30    6.10   1
  10 -10   1    3.80    8.80   1
 -10  10  -1   15.20    6.00   1
 -10  10  -2   32.80    9.30   1
  10 -10   3   12.80   10.30   1
 -10  10  -3   19.70    8.80   1
  10  -9  -6   29.80   10.70   1
 -10   9   6   13.30    5.40   1
  10  -9  -5   13.10    9.70   1
 -10   9   5    4.90    6.20   1
  10  -9  -4    4.20    6.20   1
 -10   9   4   -3.80    5.90   1
  10  -9  -3   -6.80    5.50   1
 -10   9   3   -1.90    4.30   1
  10  -9  -2   11.00    7.90   1
 -10   9   2    8.70    5.30   1
  10  -9  -1    0.70    7.40   1
 -10   9   1    1.30    3.80   1
  10  -9   0   83.70   10.80   1
 -10   9   0   64.50    7.20   1
  10  -9   1    7.60    7.00   1
 -10   9  -1    1.90    5.40   1
 -10   9  -2  205.90   11.10   1
  10  -9   3   24.80   10.30   1
 -10   9  -3    4.90    4.80   1
  10  -9   4    0.20    9.50   1
 -10   9  -4   -2.00    6.20   1
  10  -9   5   -2.30    8.00   1
 -10   9  -5  -13.50    9.60   1
  10  -8  -7    1.40   10.60   1
 -10   8   7    1.50    6.40   1
  10  -8  -6   24.10   10.10   1
 -10   8   6   43.80    9.30   1
  10  -8  -5    4.50    6.30   1
 -10   8   5   -0.10    5.60   1
  10  -8  -4   -2.60    8.10   1
 -10   8   4   15.30    5.60   1
  10  -8  -3    1.50    7.50   1
 -10   8   3    7.80    5.30   1
  10  -8  -2  163.10   14.20   1
 -10   8   2  167.20   13.50   1
  10  -8  -1    2.50    6.50   1
 -10   8   1    8.20    5.30   1
  10  -8   0   24.20    7.20   1
 -10   8   0   21.20    4.10   1
  10  -8   1   79.70    9.50   1
 -10   8  -1   94.90   10.80   1
 -10   8  -2   -5.20    4.30   1
  10  -8   3   -3.70    6.30   1
 -10   8  -3   -2.40    3.90   1
  10  -8   4   29.20    7.70   1
 -10   8  -4   29.70    6.60   1
  10  -8   5   20.10   10.30   1
 -10   8  -5   20.90    9.00   1
  10  -8   6   35.90   11.00   1
 -10   8  -6   34.10    9.50   1
  10  -7  -8    4.90    7.70   1
 -10   7   8   -1.00    4.60   1
  10  -7  -7   -3.20    6.70   1
 -10   7   7    2.00    5.50   1
  10  -7  -6    8.60    8.80   1
 -10   7   6    2.50    5.30   1
  10  -7  -5  132.90   13.70   1
 -10   7   5  126.40    8.20   1
  10  -7  -4    9.50    8.00   1
 -10   7   4    9.50    4.30   1
  10  -7  -3   54.30    8.50   1
 -10   7   3   56.60    7.00   1
  10  -7  -2   -3.50    6.40   1
 -10   7   2   -2.00    3.70   1
  10  -7  -1   12.70    6.30   1
 -10   7   1    8.00    3.70   1
  10  -7   0   95.80    9.60   1
 -10   7   0   90.80    7.00   1
  10  -7   1   12.50    5.70   1
 -10   7  -1   -0.90    4.90   1
  10  -7   2   95.30    7.10   1
 -10   7  -2   89.70    6.80   1
  10  -7   3   11.30    8.60   1
 -10   7  -3    2.90    5.20   1
  10  -7   4   22.40    9.00   1
 -10   7  -4    2.90    4.80   1
  10  -7   5    3.70    9.30   1
 -10   7  -5   14.00    7.60   1
  10  -7   6    3.20    7.50   1
 -10   7  -6    4.50    7.50   1
  10  -7   7   82.80   13.30   1
 -10   7  -7   37.30    9.90   1
 -10   6   9   85.90   13.00   1
  10  -6  -8  -16.90    9.70   1
 -10   6   8   -3.40    5.40   1
  10  -6  -7    1.00    8.90   1
 -10   6   7   -5.00    4.30   1
  10  -6  -6   46.70    9.10   1
 -10   6   6   42.60    5.90   1
  10  -6  -5   -2.30    7.50   1
 -10   6   5    1.40    4.10   1
  10  -6  -4   80.80    9.70   1
 -10   6   4   63.70    5.50   1
  10  -6  -3   81.50    9.00   1
 -10   6   3   66.40    5.60   1
  10  -6  -2   62.50    8.10   1
 -10   6   2   64.90    6.00   1
  10  -6  -1   58.80    7.50   1
 -10   6   1   51.10    5.60   1
  10  -6   0  337.50   19.70   1
 -10   6   0  301.80   13.60   1
  10  -6   1   73.50    8.00   1
 -10   6  -1   69.60    5.90   1
  10  -6   2    5.30    3.80   1
 -10   6  -2    2.90    4.70   1
  10  -6   3   21.50    6.70   1
 -10   6  -3   10.80    3.90   1
  10  -6   4   -8.50    8.50   1
 -10   6  -4    8.90    4.20   1
  10  -6   5  154.20   14.30   1
 -10   6  -5  151.00    8.70   1
  10  -6   6   11.90    9.30   1
 -10   6  -6   12.80    4.70   1
  10  -6   7   27.50    7.90   1
 -10   6  -7    9.20    5.30   1
  10  -6   8   -4.00   10.60   1
 -10   6  -8    2.20    7.20   1
  10  -5  -9  -15.60   10.60   1
 -10   5   9   -8.00    9.10   1
  10  -5  -8    0.60    9.20   1
 -10   5   8    0.50    5.10   1
  10  -5  -7  273.40   19.20   1
 -10   5   7  234.10   12.20   1
  10  -5  -6    5.00    7.70   1
 -10   5   6    1.50    4.60   1
  10  -5  -5  355.30   23.50   1
 -10   5   5  281.50   12.10   1
  10  -5  -4   59.80    8.60   1
 -10   5   4   61.20    5.80   1
  10  -5  -3   40.90    7.30   1
 -10   5   3   40.90    4.20   1
  10  -5  -2   34.90    6.50   1
 -10   5   2   23.70    6.60   1
  10  -5  -1    4.70    4.90   1
 -10   5   1    7.30    4.50   1
  10  -5   0   12.10    5.10   1
 -10   5   0   16.80    3.90   1
  10  -5   1   43.70    6.40   1
 -10   5  -1   37.80    4.10   1
  10  -5   2    7.00    3.50   1
 -10   5  -2    5.80    2.90   1
  10  -5   3  190.30   14.10   1
 -10   5  -3  200.60    8.60   1
  10  -5   4   51.80    7.60   1
 -10   5  -4   60.50    5.10   1
  10  -5   5   95.40   12.00   1
 -10   5  -5   96.20    6.50   1
  10  -5   6   11.60    9.30   1
 -10   5  -6   -4.90    4.50   1
  10  -5   7   13.90    9.50   1
 -10   5  -7    9.80    4.70   1
  10  -5   8    6.70    7.60   1
 -10   5  -8   -2.00    6.90   1
  10  -4 -10    2.40    8.70   1
 -10   4  10   11.70    9.70   1
  10  -4  -9   80.10   13.60   1
 -10   4   9   52.40   10.80   1
  10  -4  -8   50.20   11.00   1
 -10   4   8   43.30    6.00   1
  10  -4  -7  133.80   13.30   1
 -10   4   7  118.30    7.60   1
  10  -4  -6   14.40    7.50   1
 -10   4   6   20.60    4.80   1
  10  -4  -5   14.90    7.60   1
 -10   4   5   17.00    4.00   1
  10  -4  -4   35.10    7.00   1
 -10   4   4   27.00    4.10   1
  10  -4  -3  115.70    9.80   1
 -10   4   3  114.80    6.50   1
  10  -4  -2   54.30    7.10   1
 -10   4   2   42.10    5.00   1
  10  -4  -1    2.20    4.50   1
 -10   4   1   -0.30    3.20   1
  10  -4   0    0.00    4.10   1
 -10   4   0   -3.30    2.70   1
  10  -4   1   21.90    4.30   1
 -10   4  -1   24.00    3.50   1
  10  -4   2   38.10    4.00   1
 -10   4  -2   37.60    3.30   1
  10  -4   3   29.90    6.20   1
 -10   4  -3   37.40    3.40   1
  10  -4   4   -6.00    5.00   1
 -10   4  -4    5.80    4.10   1
  10  -4   5  229.40   16.60   1
 -10   4  -5  222.00   10.90   1
  10  -4   6    1.00    9.10   1
 -10   4  -6    2.70    4.70   1
  10  -4   7  194.60   18.70   1
 -10   4  -7  217.90   12.50   1
  10  -4   8   64.20   10.20   1
 -10   4  -8   72.70    8.40   1
  10  -4   9   -3.80   11.00   1
 -10   4  -9   -0.30    7.70   1
  10  -3 -10    8.70    8.20   1
 -10   3  10    3.10    7.30   1
  10  -3  -9   28.20   10.70   1
 -10   3   9   24.90    7.00   1
  10  -3  -8   -6.30    8.20   1
 -10   3   8   -4.50    3.90   1
  10  -3  -7   62.80    9.90   1
 -10   3   7   55.90    5.00   1
  10  -3  -6   -6.30    6.20   1
 -10   3   6    3.70    4.50   1
  10  -3  -5   36.10    7.10   1
 -10   3   5   34.10    5.00   1
  10  -3  -4   11.60    5.80   1
 -10   3   4    7.70    4.40   1
  10  -3  -3   37.80    3.90   1
 -10   3   3   43.40    4.90   1
  10  -3  -2   36.60    3.70   1
 -10   3   2   25.60    4.50   1
  10  -3  -1   73.20    4.70   1
 -10   3   1   65.90    5.70   1
  10  -3   0   58.60    4.50   1
 -10   3   0   67.00    4.00   1
  10  -3   1   -0.40    3.10   1
 -10   3  -1    1.20    2.70   1
  10  -3   2  130.60    7.00   1
 -10   3  -2  131.80    5.50   1
  10  -3   3  128.80   10.40   1
 -10   3  -3  134.70    5.80   1
  10  -3   4    9.60    7.50   1
 -10   3  -4    1.60    3.00   1
  10  -3   5    0.00    7.70   1
 -10   3  -5   -5.00    3.10   1
  10  -3   6   11.40    9.00   1
 -10   3  -6   -2.20    3.30   1
  10  -3   7   33.40   10.10   1
 -10   3  -7   33.50    5.00   1
  10  -3   8   10.00    7.80   1
 -10   3  -8    2.50    7.00   1
  10  -3   9   38.90    9.90   1
 -10   3  -9   30.50    8.80   1
  10  -2 -10   22.50   11.40   1
 -10   2  10   14.30    9.00   1
  10  -2  -9   12.20    9.10   1
 -10   2   9    8.20    8.40   1
  10  -2  -8   -3.40    8.50   1
 -10   2   8    9.70    7.60   1
  10  -2  -7  129.20   12.60   1
 -10   2   7  132.10    7.70   1
  10  -2  -6   17.10    6.20   1
 -10   2   6    3.30    3.70   1
  10  -2  -5   57.60    5.00   1
 -10   2   5   61.30    4.80   1
  10  -2  -4    3.10    3.00   1
 -10   2   4    4.70    3.60   1
  10  -2  -3   88.30    5.50   1
 -10   2   3   94.30    5.50   1
  10  -2  -2   92.50    5.30   1
 -10   2   2  110.70    6.40   1
  10  -2  -1    4.80    2.70   1
 -10   2   1    9.40    3.60   1
  10  -2   0  118.80    6.80   1
 -10   2   0  115.00    5.00   1
  10  -2   1  112.70    6.00   1
 -10   2  -1  114.00    5.30   1
  10  -2   2   42.90    4.20   1
 -10   2  -2   52.80    3.50   1
  10  -2   3   12.10    7.20   1
 -10   2  -3    1.90    2.60   1
  10  -2   4   67.30    9.10   1
 -10   2  -4   69.10    3.90   1
  10  -2   5   62.10    9.40   1
 -10   2  -5   63.50    5.30   1
  10  -2   6   18.80    6.30   1
 -10   2  -6    6.20    4.10   1
  10  -2   7  174.20   13.70   1
 -10   2  -7  193.30    9.90   1
  10  -2   8   12.30    7.00   1
 -10   2  -8   -3.70    4.60   1
  10  -2   9   17.80   11.40   1
 -10   2  -9    7.50    5.30   1
  10  -1 -10   73.60   13.20   1
 -10   1  10   68.20   10.70   1
  10  -1  -9   23.50    6.90   1
 -10   1   9   15.00    8.20   1
  10  -1  -8   11.80    8.80   1
 -10   1   8    8.80    7.20   1
  10  -1  -7   56.30    5.70   1
 -10   1   7   57.40    8.80   1
  10  -1  -6    1.20    3.70   1
 -10   1   6    6.50    5.00   1
  10  -1  -5   16.90    3.70   1
 -10   1   5   26.70    4.70   1
  10  -1  -4  162.60    8.10   1
 -10   1   4  169.20    8.80   1
  10  -1  -3   99.70    5.70   1
 -10   1   3  125.20    9.50   1
  10  -1  -2    5.30    3.20   1
 -10   1   2    6.00    3.10   1
  10  -1  -1   20.30    2.90   1
 -10   1   1   27.70    3.80   1
  10  -1   0  213.70    8.80   1
 -10   1   0  227.50    7.90   1
  10  -1   1    5.10    2.80   1
 -10   1  -1    7.40    2.80   1
  10  -1   2  142.90    6.90   1
 -10   1  -2  160.70    6.30   1
  10  -1   3  181.20   13.80   1
 -10   1  -3  178.90    9.10   1
  10  -1   4   51.90    8.70   1
 -10   1  -4   69.40    5.40   1
  10  -1   5    3.10    7.70   1
 -10   1  -5    7.60    5.90   1
  10  -1   6    9.80    8.10   1
 -10   1  -6   10.70    3.80   1
  10  -1   7   -6.30    8.80   1
 -10   1  -7  -11.20    4.50   1
  10  -1   8   10.70    9.60   1
 -10   1  -8    6.10    5.00   1
  10  -1   9   16.60   11.00   1
 -10   1  -9   -2.80    5.10   1
  10   0 -10  145.70   17.80   1
 -10   0  10  155.20   10.40   1
  10   0  -9    5.70    4.30   1
 -10   0   9   -1.80    4.40   1
  10   0  -8    3.30    4.70   1
 -10   0   8   -1.80    3.90   1
  10   0  -7    0.00    4.40   1
 -10   0   7    7.20    4.70   1
  10   0  -6   31.70    4.90   1
 -10   0   6   43.60    4.60   1
  10   0  -5    5.90    4.10   1
 -10   0   5    5.80    6.80   1
  10   0  -4   86.50    5.50   1
 -10   0   4  101.10    9.20   1
  10   0  -3   -1.50    2.70   1
  10   0  -2  391.80   14.60   1
 -10   0   2  412.30   20.70   1
  10   0  -1   -0.60    2.60   1
  10   0   0 1338.40   39.50   1
 -10   0   0 1334.40   38.80   1
  10   0   1    3.70    3.20   1
 -10   0  -1    1.90    3.40   1
  10   0   2   -2.20    2.80   1
 -10   0  -2    0.20    3.20   1
  10   0   3   -6.30    6.00   1
 -10   0  -3   -1.40    2.80   1
  10   0   4   23.10    5.80   1
 -10   0  -4   21.80    4.40   1
  10   0   5   -9.50    5.20   1
 -10   0  -5    4.10    4.20   1
  10   0   6   78.10    9.00   1
 -10   0  -6   93.90    9.20   1
  10   0   7    6.20    9.40   1
 -10   0  -7    2.30    4.00   1
  10   0   8   10.90   10.00   1
 -10   0  -8    6.60    5.00   1
  10   0   9  -16.60   10.30   1
 -10   0  -9   -9.30    5.40   1
 -10   0 -10   14.60    8.50   1
  10   1 -10   65.10    7.30   1
 -10  -1  10   80.10   11.80   1
  10   1  -9   16.60    5.70   1
 -10  -1   9   17.90    5.80   1
  10   1  -8    7.70    5.30   1
 -10  -1   8   24.00    5.50   1
  10   1  -7   56.60    6.10   1
 -10  -1   7   50.50    7.70   1
  10   1  -6    6.50    4.30   1
 -10  -1   6    8.90    4.30   1
  10   1  -5   23.90    3.40   1
 -10  -1   5   25.60    4.00   1
  10   1  -4  162.70    6.60   1
 -10  -1   4  178.00    8.00   1
  10   1  -3   93.10    4.80   1
  10   1  -2    5.50    2.80   1
  10   1  -1   28.50    3.20   1
  10   1   0  206.10    8.70   1
 -10  -1   0  224.10    9.40   1
  10   1   1   11.10    3.30   1
 -10  -1  -1   17.90    5.40   1
  10   1   2  143.80    6.80   1
 -10  -1  -2  146.80    7.40   1
  10   1   3  169.90   12.80   1
 -10  -1  -3  176.50    8.50   1
 -10  -1  -4   56.60    4.80   1
  10   1   5   15.90    6.00   1
 -10  -1  -5   13.00    4.50   1
  10   1   6   17.60    8.70   1
 -10  -1  -6    1.40    3.40   1
  10   1   7  -17.60    9.40   1
 -10  -1  -7   -1.60    4.20   1
  10   1   8   19.40   10.20   1
 -10  -1  -8    3.90    5.20   1
  10   1   9    8.80    8.10   1
 -10  -1  -9   -1.40    5.80   1
  10   2 -10   21.90    7.10   1
 -10  -2  10   21.90    9.50   1
  10   2  -9   -3.20    5.90   1
 -10  -2   9    2.60    7.70   1
  10   2  -8   -1.50    5.00   1
 -10  -2   8    3.40    7.10   1
  10   2  -7  112.90    8.00   1
 -10  -2   7  123.90   11.10   1
  10   2  -6    3.80    4.40   1
 -10  -2   6   -1.30    3.90   1
  10   2  -5   57.00    4.20   1
 -10  -2   5   56.00    5.40   1
  10   2  -4    0.80    3.10   1
 -10  -2   4    6.70    3.70   1
  10   2  -3   89.50    5.40   1
 -10  -2   3   81.00    5.50   1
  10   2  -2   97.30    5.80   1
 -10  -2   2   98.80    8.80   1
  10   2  -1    6.30    3.50   1
 -10  -2   1    2.30    3.00   1
  10   2   0  102.20    6.00   1
 -10  -2   0  116.00    6.90   1
  10   2   1  108.40    6.10   1
 -10  -2  -1  108.90    6.50   1
  10   2   2   47.90    3.80   1
 -10  -2  -2   50.50    4.30   1
  10   2   3    6.70    6.20   1
 -10  -2  -3    7.70    3.90   1
  10   2   4   63.90    8.50   1
 -10  -2  -4   79.20    5.40   1
  10   2   5   56.10    7.40   1
 -10  -2  -5   58.00    5.90   1
  10   2   6    5.70    8.00   1
 -10  -2  -6    7.10    3.80   1
  10   2   7  175.00   14.90   1
 -10  -2  -7  198.10    9.70   1
  10   2   8    6.10    7.00   1
 -10  -2  -8   -0.50    4.70   1
  10   2   9   14.50   10.90   1
 -10  -2  -9    3.10    4.90   1
  10   3 -10    0.50    6.70   1
 -10  -3  10    5.00    8.10   1
  10   3  -9   20.20    6.30   1
 -10  -3   9   19.40    8.10   1
  10   3  -8   -3.00    5.50   1
 -10  -3   8    0.10    3.80   1
  10   3  -7   38.20    7.80   1
 -10  -3   7   43.00    5.30   1
  10   3  -6   16.80    6.40   1
 -10  -3   6    2.80    4.30   1
  10   3  -5   32.70    6.90   1
 -10  -3   5   29.30    4.60   1
  10   3  -4    1.80    3.10   1
 -10  -3   4    4.40    3.90   1
  10   3  -3   39.70    4.00   1
 -10  -3   3   40.20    4.20   1
  10   3  -2   29.10    3.90   1
 -10  -3   2   33.40    3.90   1
  10   3  -1   68.90    5.30   1
 -10  -3   1   81.30    5.70   1
  10   3   0   57.40    6.60   1
 -10  -3   0   59.10    3.80   1
  10   3   1    2.00    5.10   1
 -10  -3  -1    5.70    2.90   1
  10   3   2  124.30   10.70   1
 -10  -3  -2  121.50    6.90   1
  10   3   3  103.50   10.50   1
 -10  -3  -3  132.30    7.70   1
  10   3   4   14.20    6.90   1
 -10  -3  -4   -0.90    3.50   1
  10   3   5    4.30    7.20   1
 -10  -3  -5    2.20    3.90   1
  10   3   6  -11.50    8.10   1
 -10  -3  -6    1.80    4.90   1
  10   3   7   30.40   10.50   1
 -10  -3  -7   41.60    6.50   1
  10   3   8   -4.60   10.10   1
 -10  -3  -8    5.10    5.70   1
  10   3   9   25.80   12.20   1
 -10  -3  -9   30.40    6.70   1
  10   4 -10  -14.00    9.20   1
  10   4  -9   58.10    7.30   1
 -10  -4   9   69.70    8.60   1
  10   4  -8   36.60    8.80   1
 -10  -4   8   39.60    6.60   1
  10   4  -7  109.40   11.10   1
 -10  -4   7  111.80    8.10   1
  10   4  -6   13.80    6.60   1
 -10  -4   6   24.10    5.10   1
  10   4  -5   12.60    6.10   1
 -10  -4   5   14.40    4.40   1
  10   4  -4   20.10    6.00   1
 -10  -4   4   25.20    4.60   1
  10   4  -3  107.30    6.10   1
 -10  -4   3  112.90    6.20   1
  10   4  -2   43.80    4.30   1
 -10  -4   2   42.50    4.20   1
  10   4  -1    1.10    3.40   1
 -10  -4   1    2.00    2.60   1
  10   4   0   -4.40    3.50   1
 -10  -4   0   -0.80    3.20   1
  10   4   1   23.00    5.70   1
 -10  -4  -1   22.50    3.40   1
  10   4   2   23.30    6.00   1
 -10  -4  -2   36.30    3.50   1
  10   4   3   25.90    5.90   1
 -10  -4  -3   38.60    3.40   1
  10   4   4    6.10    6.70   1
 -10  -4  -4   -1.50    4.60   1
  10   4   5  208.00   15.70   1
 -10  -4  -5  217.20   11.40   1
  10   4   6   -1.40    8.10   1
 -10  -4  -6    8.60    7.30   1
  10   4   7  205.10   17.80   1
 -10  -4  -7  236.50   11.70   1
  10   4   8   43.60   11.20   1
 -10  -4  -8   68.00    6.60   1
 -10  -4  -9   -1.60    6.40   1
  10   5  -9    1.00    8.70   1
 -10  -5   9    1.00    5.40   1
  10   5  -8   -0.30    7.70   1
 -10  -5   8    4.10    5.90   1
  10   5  -7  244.60   18.10   1
 -10  -5   7  257.20   13.70   1
  10   5  -6  -10.80    6.40   1
 -10  -5   6   -0.20    4.00   1
  10   5  -5  287.80   20.10   1
 -10  -5   5  299.40   13.50   1
  10   5  -4   53.40    6.80   1
 -10  -5   4   53.10    5.20   1
  10   5  -3   42.50    7.30   1
 -10  -5   3   49.30    4.60   1
  10   5  -2   22.10    3.50   1
 -10  -5   2   27.90    3.90   1
  10   5  -1    0.50    3.70   1
 -10  -5   1    0.10    2.80   1
  10   5   0    1.00    3.70   1
 -10  -5   0    8.10    3.10   1
  10   5   1   42.30    6.50   1
 -10  -5  -1   33.30    4.50   1
  10   5   2   10.10    5.90   1
 -10  -5  -2    8.80    3.20   1
  10   5   3  167.90   14.00   1
 -10  -5  -3  184.50    7.60   1
  10   5   4   53.20    8.90   1
 -10  -5  -4   43.60    8.50   1
  10   5   5   90.60    9.80   1
 -10  -5  -5   95.70    7.10   1
  10   5   6    3.30    8.40   1
 -10  -5  -6    0.00    4.50   1
  10   5   7    0.20    9.10   1
 -10  -5  -7   12.50    5.90   1
  10   5   8    1.10   10.80   1
 -10  -5  -8   -5.00    6.10   1
  10   6  -9   95.80   12.70   1
 -10  -6   9   84.40    9.60   1
  10   6  -8   -5.20    8.90   1
 -10  -6   8    5.10    6.30   1
  10   6  -7    2.40    7.90   1
 -10  -6   7   11.10    5.80   1
  10   6  -6   26.60    8.60   1
 -10  -6   6   42.10    6.10   1
  10   6  -5   10.50    5.40   1
 -10  -6   5   -5.80    4.80   1
  10   6  -4   84.70    9.30   1
 -10  -6   4   72.10    5.80   1
  10   6  -3   66.30    8.30   1
 -10  -6   3   72.30    5.60   1
  10   6  -2   68.40    8.80   1
 -10  -6   2   56.00    4.90   1
  10   6  -1   45.70    4.60   1
 -10  -6   1   50.70    3.90   1
  10   6   0  284.60   12.40   1
 -10  -6   0  288.20   10.10   1
  10   6   1   70.60    6.10   1
 -10  -6  -1   79.90    6.10   1
  10   6   2   14.60    6.20   1
 -10  -6  -2    4.70    3.90   1
  10   6   3    6.20    6.60   1
 -10  -6  -3   14.00    5.20   1
  10   6   4    7.00    6.60   1
 -10  -6  -4    9.10    4.40   1
  10   6   5  140.30   13.60   1
 -10  -6  -5  127.90    8.60   1
  10   6   6   25.70    9.10   1
 -10  -6  -6   22.20    6.20   1
  10   6   7    9.20   10.00   1
 -10  -6  -7   10.90    6.00   1
  10   6   8   -7.40   11.00   1
 -10  -6  -8    6.20    6.50   1
  10   7  -8   11.20    9.50   1
 -10  -7   8    0.50    6.80   1
  10   7  -7    7.80    9.00   1
 -10  -7   7    5.20    5.70   1
  10   7  -6   13.70    7.70   1
 -10  -7   6    1.00    5.40   1
  10   7  -5  115.60   12.70   1
 -10  -7   5  117.00    8.60   1
  10   7  -4   10.50    6.70   1
 -10  -7   4   -2.50    4.60   1
  10   7  -3   30.30    8.20   1
 -10  -7   3   57.50    5.10   1
  10   7  -2   -3.40    4.70   1
 -10  -7   2    4.20    3.90   1
  10   7  -1    9.50    6.40   1
 -10  -7   1   15.60    4.50   1
  10   7   0   88.20    9.80   1
 -10  -7   0   88.90    4.80   1
  10   7   1    1.30    4.00   1
 -10  -7  -1    5.60    3.70   1
  10   7   2   80.70    9.20   1
 -10  -7  -2   83.20    5.50   1
  10   7   3   17.60    8.60   1
 -10  -7  -3    5.50    3.90   1
  10   7   4    9.90    7.50   1
 -10  -7  -4   16.60    5.50   1
  10   7   5    2.00    8.50   1
 -10  -7  -5   15.60    4.60   1
  10   7   6   -9.90    9.20   1
 -10  -7  -6    0.00    6.30   1
  10   7   7   57.60   13.20   1
 -10  -7  -7   60.30    8.20   1
  10   8  -7  -13.50    8.40   1
 -10  -8   7   -5.10    6.30   1
  10   8  -6   28.90    9.20   1
 -10  -8   6   29.90    6.40   1
  10   8  -5    7.50    7.60   1
 -10  -8   5    6.20    5.50   1
  10   8  -4    2.30    7.60   1
 -10  -8   4    3.00    5.00   1
  10   8  -3   20.30    7.80   1
 -10  -8   3   19.60    4.90   1
  10   8  -2  151.00   12.80   1
 -10  -8   2  154.10    8.60   1
  10   8  -1    1.60    7.80   1
 -10  -8   1   -1.10    3.90   1
  10   8   0   13.50    7.70   1
 -10  -8   0   22.00    4.30   1
  10   8   1   87.20   10.70   1
 -10  -8  -1   85.80    6.90   1
  10   8   2   -0.40    5.00   1
 -10  -8  -2    3.10    4.60   1
  10   8   3    6.80    6.50   1
 -10  -8  -3   -2.00    4.50   1
  10   8   4   31.20    8.10   1
 -10  -8  -4   31.10    6.00   1
  10   8   5   12.90    8.90   1
 -10  -8  -5   22.00    9.60   1
  10   8   6   28.50   10.80   1
 -10  -8  -6   46.10    8.00   1
  10   9  -6   27.00   10.00   1
 -10  -9   6   15.10    6.70   1
  10   9  -5   10.50   10.20   1
 -10  -9   5    0.40    5.50   1
  10   9  -4    5.90    8.70   1
 -10  -9   4    6.80    5.30   1
  10   9  -3   -0.80    8.50   1
 -10  -9   3   -1.90    4.00   1
  10   9  -2    1.90    5.10   1
 -10  -9   2   11.20    4.70   1
  10   9  -1   -0.80    8.00   1
 -10  -9   1    2.70    5.20   1
  10   9   0   85.80   11.50   1
 -10  -9   0   75.70    7.50   1
  10   9   1    3.00    6.00   1
 -10  -9  -1    3.00    5.60   1
  10   9   2  238.60   18.40   1
 -10  -9  -2  199.70   11.50   1
  10   9   3   13.70    8.90   1
 -10  -9  -3    4.40    6.70   1
  10   9   4   -3.20    7.80   1
 -10  -9  -4    5.00    6.80   1
  10   9   5   -1.20    8.60   1
 -10  -9  -5    3.60    5.80   1
 -10 -10   4   38.70    5.90   1
  10  10  -3    9.40    9.00   1
 -10 -10   3   -0.60    5.20   1
  10  10  -2  162.60   15.20   1
 -10 -10   2  136.00   14.20   1
  10  10  -1    4.00    6.70   1
 -10 -10   1    0.70    8.40   1
  10  10   0   -1.60    8.90   1
 -10 -10   0   10.00    5.40   1
  10  10   1   22.90    9.00   1
 -10 -10  -1    7.10    4.70   1
  10  10   2   17.20    9.90   1
 -10 -10  -2   -0.40   10.70   1
 -10 -10  -3    9.40    7.20   1
 -10 -11   1   18.40    9.90   1
 -10 -11   0   17.20    9.00   1
  11  -9  -4   76.80   12.70   1
  11  -9  -3    7.50    9.60   1
 -11   9   3   10.70    6.50   1
  11  -9  -2   67.20   11.60   1
 -11   9   2   84.90   11.40   1
  11  -9  -1    4.50    9.10   1
 -11   9   1    2.70    6.40   1
  11  -9   0   26.40   11.60   1
 -11   9   0    3.20    5.50   1
 -11   9  -1   13.90    6.70   1
  11  -9   2   15.60    7.30   1
 -11   9  -2    0.70    5.70   1
  11  -8  -5    8.30   10.70   1
 -11   8   5    0.30    6.40   1
  11  -8  -4   12.90    6.90   1
 -11   8   4    5.40    5.30   1
  11  -8  -3    8.20    6.10   1
 -11   8   3   16.90    5.40   1
  11  -8  -2   24.40    8.80   1
 -11   8   2   12.90    6.30   1
  11  -8  -1   21.10    8.00   1
 -11   8   1   -9.30    6.10   1
  11  -8   0    2.70    7.70   1
 -11   8   0   -3.60    6.20   1
 -11   8  -1   51.10    7.30   1
  11  -8   2   -1.50    9.40   1
 -11   8  -2   -0.10    6.20   1
  11  -8   3    6.20   10.20   1
 -11   8  -3   26.50    9.40   1
  11  -8   4   14.40   10.60   1
 -11   8  -4    3.90    9.10   1
 -11   7   7   10.60    6.10   1
  11  -7  -6   44.00   11.50   1
 -11   7   6   44.40    5.60   1
  11  -7  -5  -14.00    9.50   1
 -11   7   5    7.00    5.90   1
  11  -7  -4  120.00   13.90   1
 -11   7   4  114.20    9.40   1
  11  -7  -3  164.70   15.30   1
 -11   7   3  156.10   10.00   1
  11  -7  -2   38.10    9.10   1
 -11   7   2   32.20    6.10   1
  11  -7  -1   10.90    7.40   1
 -11   7   1    9.00    5.70   1
  11  -7   0   -0.70    6.40   1
 -11   7   0    2.40    4.70   1
  11  -7   1   -1.50    6.10   1
 -11   7  -1   -2.20    4.30   1
  11  -7   2   14.00    9.00   1
 -11   7  -2    9.00    7.70   1
  11  -7   3    1.10    9.30   1
 -11   7  -3    4.80    7.70   1
  11  -7   4   39.60   11.30   1
 -11   7  -4   41.20    9.30   1
  11  -7   5    4.30    7.30   1
 -11   7  -5  -11.80    8.20   1
  11  -6  -7    0.40   10.50   1
 -11   6   7    0.80    6.20   1
  11  -6  -6   -6.00    9.40   1
 -11   6   6    3.90    7.30   1
  11  -6  -5    3.70    8.70   1
 -11   6   5    5.50    5.70   1
  11  -6  -4    6.70    7.40   1
 -11   6   4   -1.80    4.40   1
  11  -6  -3   -0.90    7.10   1
 -11   6   3    6.10    5.20   1
  11  -6  -2   19.70    7.60   1
 -11   6   2   18.60    5.70   1
  11  -6  -1  106.00   11.00   1
 -11   6   1  129.30    8.30   1
  11  -6   0   56.40    8.20   1
 -11   6   0   52.70    6.70   1
  11  -6   1  206.30   10.60   1
 -11   6  -1  217.00   11.20   1
  11  -6   2   11.10    9.10   1
 -11   6  -2    3.50    7.50   1
  11  -6   3    5.60    9.30   1
 -11   6  -3    1.80    7.20   1
  11  -6   4   21.60   10.00   1
 -11   6  -4    9.60    7.60   1
  11  -6   5   38.10   10.80   1
 -11   6  -5   10.00    8.00   1
  11  -6   6   53.90   12.50   1
 -11   6  -6   92.30   12.10   1
  11  -5  -8   -1.10    7.50   1
 -11   5   8    4.50    5.30   1
  11  -5  -7   24.50    9.90   1
 -11   5   7   33.30    5.20   1
  11  -5  -6   28.90    7.10   1
 -11   5   6   13.70    5.50   1
  11  -5  -5    8.90    8.00   1
 -11   5   5   18.30    4.40   1
  11  -5  -4   58.90    9.60   1
 -11   5   4   49.40    5.60   1
  11  -5  -3   33.40    7.60   1
 -11   5   3   31.60    6.10   1
  11  -5  -2   -2.60    6.30   1
 -11   5   2    2.60    4.10   1
  11  -5  -1    8.10    6.00   1
 -11   5   1   -1.00    3.40   1
  11  -5   0   31.60    6.60   1
 -11   5   0   34.10    5.70   1
  11  -5   1  132.40    8.10   1
 -11   5  -1  152.10    9.20   1
  11  -5   2   15.60    8.80   1
 -11   5  -2   16.30    4.60   1
 -11   5  -3  184.80    9.20   1
  11  -5   4   -4.00    9.80   1
 -11   5  -4    1.60    3.70   1
  11  -5   5   90.20   12.10   1
 -11   5  -5   82.50    7.40   1
  11  -5   6   21.30   10.80   1
 -11   5  -6   29.30    5.90   1
  11  -5   7    2.50   11.00   1
 -11   5  -7   -6.60    5.80   1
 -11   4   9   55.30    9.40   1
  11  -4  -8   26.80   11.10   1
 -11   4   8    9.60    4.90   1
  11  -4  -7   32.30   10.60   1
 -11   4   7   26.40    6.10   1
  11  -4  -6    8.00    8.50   1
 -11   4   6   11.70    5.40   1
  11  -4  -5    1.90    8.30   1
 -11   4   5   -6.30    4.80   1
  11  -4  -4   93.40   10.00   1
 -11   4   4   82.50    6.80   1
  11  -4  -3   37.90    7.40   1
 -11   4   3   45.90    6.10   1
  11  -4  -2   30.80    6.60   1
 -11   4   2   50.30    6.00   1
  11  -4  -1  270.00   17.10   1
 -11   4   1  270.80   12.20   1
  11  -4   0   12.30    4.30   1
 -11   4   0   10.00    5.10   1
  11  -4   1  111.10    7.60   1
 -11   4  -1  124.90    7.00   1
  11  -4   2   64.60    9.90   1
 -11   4  -2   71.80    5.70   1
 -11   4  -3    3.00    4.40   1
  11  -4   4   -8.90    9.10   1
 -11   4  -4    4.10    4.70   1
  11  -4   5   18.50    9.90   1
 -11   4  -5   17.50    4.40   1
  11  -4   6   -1.60    9.60   1
 -11   4  -6    7.80    5.10   1
  11  -4   7   18.20   10.60   1
 -11   4  -7   21.10    7.60   1
  11  -3  -9   -6.50    7.10   1
 -11   3   9   -0.90    9.20   1
  11  -3  -8    1.30    9.90   1
 -11   3   8    5.90    8.70   1
  11  -3  -7    0.50    9.20   1
 -11   3   7    1.90    5.60   1
  11  -3  -6   37.00   10.00   1
 -11   3   6   50.70    5.80   1
  11  -3  -5   48.20    8.40   1
 -11   3   5   49.90    6.10   1
  11  -3  -4   24.50    7.70   1
 -11   3   4   37.00    5.00   1
  11  -3  -3   -3.10    5.90   1
 -11   3   3    0.40    4.90   1
  11  -3  -2   23.80    6.40   1
 -11   3   2   31.70    7.10   1
  11  -3  -1  163.30    8.50   1
 -11   3   1  163.20    9.30   1
  11  -3   0   29.10    3.60   1
 -11   3   0   31.60    3.80   1
  11  -3   1   41.80    5.20   1
 -11   3  -1   49.80    4.80   1
  11  -3   2    1.30    7.40   1
 -11   3  -2    0.10    3.00   1
  11  -3   3  132.80   12.40   1
 -11   3  -3  137.00    6.50   1
  11  -3   4   35.20    9.80   1
 -11   3  -4   48.20    5.40   1
  11  -3   5    9.90    9.30   1
 -11   3  -5    5.50    4.90   1
  11  -3   6   -1.40    9.00   1
 -11   3  -6   -6.20    6.70   1
  11  -3   7   -6.70   10.60   1
 -11   3  -7   17.30    7.50   1
 -11   3  -8  -11.70    7.80   1
  11  -2  -9   19.50    8.80   1
 -11   2   9  -10.90    8.30   1
  11  -2  -8  134.10   15.80   1
 -11   2   8  135.70   13.80   1
  11  -2  -7   31.70    9.10   1
 -11   2   7   20.40    6.90   1
  11  -2  -6   97.30    9.90   1
 -11   2   6   81.90    7.50   1
  11  -2  -5   23.00    6.00   1
 -11   2   5   21.20    5.00   1
  11  -2  -4   11.70    6.60   1
 -11   2   4    5.60    3.60   1
  11  -2  -3   60.60    5.30   1
 -11   2   3   62.00    5.60   1
  11  -2  -2    4.00    3.30   1
 -11   2   2   13.80    5.00   1
  11  -2  -1  223.20    8.00   1
 -11   2   1  236.90   11.90   1
  11  -2   0    9.10    3.10   1
 -11   2   0   10.60    4.40   1
  11  -2   1   11.50    3.60   1
 -11   2  -1    9.30    2.90   1
  11  -2   2   83.50    8.70   1
 -11   2  -2   95.30    5.50   1
  11  -2   3   60.80    9.70   1
 -11   2  -3   56.00    4.40   1
  11  -2   4   -3.40    8.30   1
 -11   2  -4    4.10    3.90   1
  11  -2   5   12.20    9.60   1
 -11   2  -5    6.90    4.30   1
  11  -2   6   21.60   10.30   1
 -11   2  -6   34.50    5.20   1
  11  -2   7   12.20   11.00   1
 -11   2  -7   39.10    6.00   1
  11  -2   8   17.70   11.90   1
 -11   2  -8   -1.20    7.50   1
  11  -1  -9   14.50    8.40   1
 -11   1   9   29.90    9.40   1
  11  -1  -8   19.80    9.60   1
 -11   1   8   20.70    8.90   1
  11  -1  -7   -1.30    5.90   1
 -11   1   7    9.50    8.10   1
  11  -1  -6  157.90   13.90   1
 -11   1   6  142.10   11.70   1
  11  -1  -5   21.10    5.00   1
  11  -1  -4  494.50   19.10   1
 -11   1   4  515.30   28.00   1
  11  -1  -3   14.00    3.40   1
 -11   1   3   17.90    5.20   1
  11  -1  -2   -0.70    2.90   1
 -11   1   2    4.40    3.80   1
  11  -1  -1    4.70    3.00   1
 -11   1   1   -3.00    6.10   1
  11  -1   0   12.90    2.80   1
 -11   1   0   16.70    4.40   1
  11  -1   1   52.10    4.80   1
 -11   1  -1   48.40    4.60   1
  11  -1   2   28.80    8.30   1
 -11   1  -2   26.00    4.30   1
  11  -1   3   71.20    9.90   1
 -11   1  -3   79.60    6.00   1
  11  -1   4   52.70   10.50   1
 -11   1  -4   60.60    5.40   1
  11  -1   5   23.20    7.00   1
 -11   1  -5   12.50    4.70   1
  11  -1   6   72.50    9.40   1
 -11   1  -6   76.50    6.50   1
  11  -1   7    6.50   11.20   1
 -11   1  -7   16.20    5.50   1
  11  -1   8   38.90   13.20   1
 -11   1  -8   39.70    6.40   1
  11   0  -9   -9.70   10.60   1
 -11   0   9   -0.50    9.50   1
  11   0  -8   77.50   11.70   1
 -11   0   8   81.60   11.20   1
  11   0  -7   -6.50    4.90   1
 -11   0   7   -7.70    8.40   1
  11   0  -6   29.60    5.90   1
 -11   0   6   29.80    6.60   1
  11   0  -5   -3.60    4.20   1
 -11   0   5    0.30    7.80   1
  11   0  -4    0.10    3.20   1
 -11   0   4  -10.70    7.50   1
  11   0  -3   -2.70    3.20   1
  11   0  -2  250.50    9.20   1
  11   0  -1   -2.60    3.00   1
  11   0   0  115.00    6.90   1
 -11   0   0  103.50    9.10   1
  11   0   1    5.30    4.10   1
 -11   0  -1    0.40    3.90   1
  11   0   2   17.50    7.90   1
 -11   0  -2   19.50    4.30   1
  11   0   3    0.70    5.50   1
 -11   0  -3   -3.40    4.20   1
  11   0   4   15.10    6.50   1
 -11   0  -4   19.90    4.70   1
  11   0   5    3.10    9.00   1
 -11   0  -5    4.90    4.60   1
  11   0   6  269.10   20.50   1
 -11   0  -6  248.40   13.70   1
  11   0   7   10.10   10.80   1
 -11   0  -7   -5.10    5.40   1
  11   0   8   21.40    8.60   1
 -11   0  -8   25.10    5.90   1
  11   1  -9   22.80   11.00   1
 -11  -1   9   14.00    5.60   1
  11   1  -8   13.90    6.40   1
 -11  -1   8    5.90    6.00   1
  11   1  -7    7.90    5.20   1
 -11  -1   7   -4.60    5.40   1
  11   1  -6  111.20    8.50   1
 -11  -1   6  133.80    8.30   1
  11   1  -5   21.80    3.70   1
  11   1  -4  463.60   14.80   1
  11   1  -3    8.30    3.20   1
  11   1  -2   -0.70    3.10   1
  11   1  -1    1.90    3.00   1
  11   1   0   11.20    3.30   1
 -11  -1   0   17.10    4.40   1
  11   1   1   44.60    4.40   1
 -11  -1  -1   42.40    5.00   1
  11   1   2   25.20    8.00   1
 -11  -1  -2   31.10    4.40   1
 -11  -1  -3   70.30    5.40   1
  11   1   4   71.50   10.40   1
 -11  -1  -4   55.40    5.10   1
  11   1   5    6.80    8.90   1
 -11  -1  -5    4.40    6.90   1
  11   1   6   84.30   12.70   1
 -11  -1  -6   71.00    7.00   1
  11   1   7   19.40   10.70   1
 -11  -1  -7   24.60    5.90   1
  11   1   8   18.30   11.20   1
 -11  -1  -8   25.40    6.40   1
  11   2  -9    4.60    6.80   1
 -11  -2   9    2.40    8.70   1
  11   2  -8  126.00   10.60   1
 -11  -2   8  116.70   13.50   1
  11   2  -7   26.30    5.90   1
 -11  -2   7   27.10    7.60   1
  11   2  -6   86.50    7.40   1
 -11  -2   6   92.50    9.80   1
  11   2  -5   23.00    4.90   1
 -11  -2   5   21.10    6.60   1
  11   2  -4    7.30    3.30   1
 -11  -2   4    0.20    5.40   1
  11   2  -3   53.60    4.20   1
  11   2  -2   14.00    3.30   1
  11   2  -1  222.50    8.60   1
  11   2   0    4.00    2.90   1
 -11  -2   0    7.10    6.60   1
  11   2   1    8.60    3.70   1
 -11  -2  -1    7.90    4.40   1
  11   2   2   89.70    9.80   1
 -11  -2  -2   95.20    6.40   1
  11   2   3   46.30    8.80   1
 -11  -2  -3   47.60    5.60   1
  11   2   4    7.60    5.50   1
 -11  -2  -4   -4.60    6.50   1
  11   2   5   18.00    8.70   1
 -11  -2  -5   18.30    7.70   1
  11   2   6   34.50    7.60   1
 -11  -2  -6   27.30    5.90   1
  11   2   7   15.00   11.20   1
 -11  -2  -7   31.20    5.20   1
  11   2   8   11.40   11.80   1
 -11  -2  -8    5.10    6.10   1
  11   3  -9    9.60    7.20   1
  11   3  -8    2.10    5.90   1
 -11  -3   8   16.70    8.30   1
  11   3  -7    1.20    6.30   1
 -11  -3   7    4.10    7.10   1
  11   3  -6   39.60    5.80   1
 -11  -3   6   34.60    5.30   1
  11   3  -5   38.00    8.20   1
 -11  -3   5   31.30    5.50   1
  11   3  -4   38.10    7.20   1
 -11  -3   4   20.60    4.80   1
  11   3  -3    2.20    4.30   1
 -11  -3   3   -1.80    4.10   1
  11   3  -2   21.10    4.20   1
 -11  -3   2   29.60    6.40   1
  11   3  -1  142.10    8.40   1
 -11  -3   1  163.20   11.50   1
  11   3   0   20.30    2.90   1
 -11  -3   0   31.10    7.30   1
  11   3   1   44.40    5.10   1
 -11  -3  -1   46.50    5.40   1
  11   3   2    1.20    7.00   1
 -11  -3  -2    1.40    3.60   1
  11   3   3  135.10   13.10   1
 -11  -3  -3  120.60   12.00   1
  11   3   4   31.20    8.90   1
 -11  -3  -4   48.40    5.30   1
  11   3   5   -5.30    9.20   1
 -11  -3  -5    6.70    5.30   1
  11   3   6    1.80    7.00   1
 -11  -3  -6    5.30    4.80   1
  11   3   7   14.10   11.20   1
 -11  -3  -7    9.30    6.00   1
  11   3   8    5.40   12.30   1
 -11  -3  -8    8.50    9.60   1
  11   4  -9   84.60   12.90   1
  11   4  -8   16.80    6.70   1
 -11  -4   8   13.80    5.50   1
  11   4  -7   16.80    7.70   1
 -11  -4   7   14.30    6.10   1
  11   4  -6   18.10    8.00   1
 -11  -4   6    8.80    5.40   1
  11   4  -5    5.60    5.10   1
 -11  -4   5   -1.20    4.70   1
  11   4  -4   98.30   10.10   1
 -11  -4   4   67.80    6.20   1
  11   4  -3   42.90    7.80   1
 -11  -4   3   47.90    5.10   1
  11   4  -2   39.50    4.80   1
 -11  -4   2   47.50    4.80   1
  11   4  -1  236.20   10.90   1
 -11  -4   1  263.60   16.50   1
  11   4   0    6.00    4.30   1
 -11  -4   0   -1.80    4.20   1
  11   4   1  107.90   10.80   1
 -11  -4  -1  105.80    5.70   1
  11   4   2   68.50    9.10   1
 -11  -4  -2   60.60    5.80   1
  11   4   3   -0.20    7.80   1
 -11  -4  -3   11.50    4.30   1
  11   4   4    0.60    8.00   1
 -11  -4  -4   -2.70    4.30   1
  11   4   5   19.70    9.80   1
 -11  -4  -5   16.20    5.70   1
  11   4   6   -4.50    6.90   1
 -11  -4  -6   18.00    5.90   1
  11   4   7   -4.10   10.70   1
 -11  -4  -7    9.70    6.30   1
  11   5  -8   -4.50    9.60   1
 -11  -5   8   -2.20    6.50   1
  11   5  -7   33.80    9.50   1
 -11  -5   7   26.40    6.70   1
  11   5  -6   28.50    8.50   1
 -11  -5   6   15.20    5.90   1
  11   5  -5   -0.10    7.50   1
 -11  -5   5    9.90    5.10   1
  11   5  -4   51.10    8.30   1
 -11  -5   4   48.10    5.80   1
  11   5  -3   19.00    7.60   1
 -11  -5   3   32.40    5.00   1
  11   5  -2   -3.00    6.80   1
 -11  -5   2    3.30    4.20   1
  11   5  -1    0.30    4.00   1
 -11  -5   1   -4.30    3.80   1
  11   5   0   26.20    4.70   1
 -11  -5   0   30.20    5.30   1
  11   5   1  134.30    8.60   1
 -11  -5  -1  129.50    8.30   1
  11   5   2    4.50    7.30   1
 -11  -5  -2    5.00    3.50   1
  11   5   3  150.80   13.60   1
 -11  -5  -3  181.10   11.00   1
  11   5   4   -3.00    8.60   1
 -11  -5  -4    1.80    4.40   1
  11   5   5   76.60   11.70   1
 -11  -5  -5   78.80    8.00   1
  11   5   6   31.10   10.40   1
 -11  -5  -6   37.40    6.00   1
  11   5   7  -10.30   10.40   1
 -11  -5  -7   10.50    5.50   1
  11   6  -7    8.80    9.60   1
 -11  -6   7   -2.50    6.30   1
  11   6  -6   -1.50    8.60   1
 -11  -6   6    0.40    5.90   1
  11   6  -5   -9.50    8.10   1
 -11  -6   5   14.10    5.40   1
  11   6  -4    0.50    7.00   1
 -11  -6   4   -0.90    5.60   1
  11   6  -3    3.40    7.10   1
 -11  -6   3    3.70    5.30   1
  11   6  -2   36.00    8.60   1
 -11  -6   2   30.00    4.90   1
  11   6  -1   98.90   11.20   1
 -11  -6   1  116.70    7.10   1
  11   6   0   66.80    9.50   1
 -11  -6   0   60.50    6.20   1
  11   6   1  187.70   10.70   1
 -11  -6  -1  207.20   10.90   1
  11   6   2    1.70    7.10   1
 -11  -6  -2    6.40    5.70   1
  11   6   3   -3.10    9.10   1
 -11  -6  -3    6.50    4.60   1
  11   6   4    5.20    8.30   1
 -11  -6  -4   25.70    6.10   1
  11   6   5   -1.90    9.00   1
 -11  -6  -5   18.20    4.60   1
  11   6   6   75.60   11.90   1
 -11  -6  -6   75.50    8.70   1
 -11  -7   7   20.30    9.00   1
  11   7  -6   45.40   10.20   1
 -11  -7   6   51.30    7.30   1
  11   7  -5  -13.00    8.70   1
 -11  -7   5   -5.30    5.70   1
  11   7  -4  117.90   13.10   1
 -11  -7   4  123.70    8.30   1
  11   7  -3  130.70   14.20   1
 -11  -7   3  141.90    9.50   1
  11   7  -2   16.40    8.10   1
 -11  -7   2   33.10    5.20   1
  11   7  -1    9.40    7.90   1
 -11  -7   1   -2.20    7.40   1
  11   7   0    5.40    7.70   1
 -11  -7   0   13.40    5.30   1
  11   7   1   -4.10    8.00   1
 -11  -7  -1    2.60    5.10   1
  11   7   2    4.50    5.40   1
 -11  -7  -2   13.10    9.20   1
  11   7   3   -2.00   10.10   1
 -11  -7  -3    1.80    6.10   1
  11   7   4   38.80   10.40   1
 -11  -7  -4   36.90    6.70   1
  11   7   5   -7.80    9.40   1
 -11  -7  -5    1.80    6.80   1
  11   8  -5    4.30   10.20   1
 -11  -8   5    7.40    6.00   1
  11   8  -4    2.90    9.20   1
 -11  -8   4   12.80    5.40   1
  11   8  -3   11.80    8.80   1
 -11  -8   3    8.50    5.30   1
  11   8  -2   18.40    9.10   1
 -11  -8   2    5.80    6.20   1
  11   8  -1    8.50    9.00   1
 -11  -8   1    3.10    7.60   1
  11   8   0   11.50    8.80   1
 -11  -8   0  -10.40    7.50   1
  11   8   1   41.00    9.90   1
 -11  -8  -1   49.50    6.20   1
  11   8   2   -2.10    8.70   1
 -11  -8  -2    2.50    7.00   1
  11   8   3   25.10   10.10   1
 -11  -8  -3   26.70   10.50   1
  11   8   4    9.80    9.00   1
 -11  -8  -4    4.00    5.70   1
 -11  -9   4   48.20    6.40   1
  11   9  -3   26.40   10.50   1
 -11  -9   3   15.40    9.60   1
  11   9  -2   87.20   12.20   1
 -11  -9   2   54.50   10.80   1
  11   9  -1    4.00    9.50   1
 -11  -9   1   10.80    8.40   1
  11   9   0    2.20    9.50   1
 -11  -9   0   -9.60    7.50   1
  11   9   1    4.60    9.90   1
 -11  -9  -1   11.90   10.20   1
 -11  -9  -2  -10.20    7.00   1
  12  -8  -1    9.60    9.70   1
 -12   8   1   10.10    7.30   1
 -12   8   0  127.90   14.40   1
  12  -7  -4   -5.20    9.40   1
 -12   7   4   -3.30    6.00   1
  12  -7  -3  179.20   16.20   1
 -12   7   3  158.30   10.80   1
  12  -7  -2   11.80    8.70   1
 -12   7   2   20.10    6.00   1
  12  -7  -1    8.40    8.90   1
 -12   7   1  -11.90    6.20   1
  12  -7   0    5.90    7.10   1
 -12   7   0   26.30    5.80   1
  12  -7   1   20.60   11.30   1
 -12   7  -1   26.50    7.00   1
  12  -7   2    7.20   10.80   1
 -12   7  -2    0.40    9.00   1
 -12   7  -3   -0.90    8.80   1
  12  -6  -5    4.50   10.20   1
 -12   6   5   26.70    7.00   1
  12  -6  -4   58.40   11.80   1
 -12   6   4   43.70    7.10   1
  12  -6  -3   -4.90    8.50   1
 -12   6   3    3.20    6.00   1
  12  -6  -2    0.60    7.90   1
 -12   6   2   16.80    6.30   1
  12  -6  -1   26.90    7.90   1
 -12   6   1   37.40    6.30   1
  12  -6   0    8.70    9.10   1
 -12   6   0    6.70    4.90   1
  12  -6   1   21.30   10.20   1
 -12   6  -1   29.70    8.90   1
  12  -6   2   31.90    8.60   1
 -12   6  -2   47.60    8.20   1
  12  -6   3   31.50   10.90   1
 -12   6  -3   29.90    9.50   1
  12  -6   4   18.00   11.40   1
 -12   6  -4   18.40    9.60   1
  12  -5  -6   -4.40    9.80   1
 -12   5   6    2.10    4.40   1
  12  -5  -5   63.80   11.50   1
 -12   5   5   49.80    7.30   1
  12  -5  -4    1.70    8.70   1
 -12   5   4    4.90    6.00   1
  12  -5  -3  102.00   12.40   1
 -12   5   3   95.00    8.30   1
  12  -5  -2   32.00    8.70   1
 -12   5   2   39.90    5.60   1
  12  -5  -1    6.30    6.70   1
 -12   5   1    6.60    4.60   1
  12  -5   0   -5.50    8.40   1
 -12   5   0   -6.00    5.80   1
  12  -5   1   17.50    7.20   1
 -12   5  -1   14.50    8.00   1
  12  -5   2   18.10   10.00   1
 -12   5  -2   -1.50    7.90   1
  12  -5   3    2.70   10.10   1
 -12   5  -3    3.40    6.20   1
  12  -5   4   -6.30   10.40   1
 -12   5  -4    4.50    7.40   1
 -12   5  -5   11.80    9.50   1
  12  -4  -7   92.10   14.80   1
 -12   4   7   87.20    8.90   1
  12  -4  -6   -1.70   10.30   1
 -12   4   6   -1.20    5.00   1
  12  -4  -5  169.80   16.90   1
 -12   4   5  160.50   11.00   1
  12  -4  -4   91.90   11.70   1
 -12   4   4   99.10    8.50   1
  12  -4  -3   11.10    7.70   1
 -12   4   3    1.20    5.50   1
  12  -4  -2   -4.10    6.70   1
 -12   4   2    5.10    5.60   1
  12  -4  -1   30.50    5.80   1
 -12   4   1   41.40    5.80   1
  12  -4   0    3.80    5.00   1
 -12   4   0   -9.80    8.10   1
  12  -4   1   12.20    7.00   1
 -12   4  -1    6.50    4.60   1
  12  -4   2   38.20   11.00   1
 -12   4  -2   17.80    5.00   1
  12  -4   3   16.70   10.40   1
 -12   4  -3    3.80    4.60   1
  12  -4   4    3.90   10.10   1
 -12   4  -4    2.30    5.80   1
  12  -4   5  -13.10   10.80   1
 -12   4  -5    6.90    5.90   1
 -12   4  -6   -6.20    7.90   1
  12  -3  -7   18.80   10.70   1
  12  -3  -6    6.80    9.90   1
 -12   3   6    2.00    6.10   1
  12  -3  -5  120.20   14.10   1
 -12   3   5  100.70   12.50   1
  12  -3  -4   -4.90    8.80   1
 -12   3   4   -5.10    4.60   1
  12  -3  -3  153.10   14.40   1
 -12   3   3  126.30    9.60   1
  12  -3  -2    7.90    5.30   1
 -12   3   2    4.10    5.90   1
  12  -3  -1  142.50    9.00   1
 -12   3   1  177.40    9.40   1
  12  -3   0   16.60    5.00   1
 -12   3   0   13.80    9.00   1
 -12   3  -1    4.20    4.20   1
  12  -3   2   16.20    7.20   1
 -12   3  -2   20.80    5.20   1
  12  -3   3   22.20    9.80   1
 -12   3  -3    7.00    5.00   1
  12  -3   4   28.30   11.00   1
 -12   3  -4   36.00    8.00   1
  12  -3   5  109.20   14.60   1
 -12   3  -5  133.00   12.20   1
  12  -3   6   12.60   11.40   1
 -12   3  -6   18.90    8.20   1
 -12   2   8   81.20   10.70   1
  12  -2  -7   42.80   11.20   1
  12  -2  -6   62.40   11.20   1
 -12   2   6   60.50   11.50   1
  12  -2  -5  144.50   15.00   1
  12  -2  -4    8.90    8.30   1
 -12   2   4   11.40    5.10   1
  12  -2  -3   55.70    6.30   1
 -12   2   3   67.70    6.50   1
  12  -2  -2   26.40    5.00   1
 -12   2   2   30.20    5.50   1
  12  -2  -1    8.50    4.90   1
 -12   2   1   12.90    8.30   1
  12  -2   0  130.50    6.20   1
 -12   2   0  186.70   14.60   1
  12  -2   1    3.70    8.30   1
 -12   2  -1    2.10    4.60   1
  12  -2   2  117.60   12.70   1
 -12   2  -2  124.60    7.80   1
  12  -2   3   26.10    6.90   1
 -12   2  -3   16.30    4.50   1
  12  -2   4    8.80    9.40   1
 -12   2  -4   16.70    7.30   1
  12  -2   5    1.10   10.20   1
 -12   2  -5    6.40    7.50   1
  12  -2   6   14.10   11.30   1
 -12   2  -6    4.70    8.10   1
  12  -1  -8   51.50   13.20   1
 -12   1   8   71.30   12.40   1
  12  -1  -7   -0.70    9.90   1
 -12   1   7   14.90    9.70   1
  12  -1  -6    7.60    6.00   1
 -12   1   6   24.60    7.00   1
  12  -1  -5   -6.90    5.30   1
 -12   1   5    1.70    8.70   1
  12  -1  -4    5.20    5.00   1
 -12   1   4  -10.30    8.90   1
  12  -1  -3   -1.10    5.00   1
  12  -1  -2  168.30    7.70   1
  12  -1  -1   16.90    3.50   1
  12  -1   0    1.10    3.70   1
  12  -1   1   20.90    8.70   1
 -12   1  -1   25.80    6.90   1
  12  -1   2    9.60    9.10   1
 -12   1  -2   12.50    4.40   1
  12  -1   3   -5.00    8.70   1
 -12   1  -3    0.10    3.60   1
  12  -1   4   59.80   12.10   1
 -12   1  -4   54.50    5.80   1
  12  -1   5    5.70    7.50   1
 -12   1  -5    5.60    5.10   1
  12  -1   6   86.70   13.30   1
 -12   1  -6   96.80    7.70   1
 -12   1  -7   25.60    9.30   1
  12   0  -8   40.60   12.00   1
 -12   0   8   18.60   10.60   1
  12   0  -7    0.10   10.60   1
 -12   0   7   -1.20    9.00   1
  12   0  -6   13.40    9.40   1
 -12   0   6   -0.40    6.60   1
  12   0  -5   -5.50    5.10   1
  12   0  -4   26.20    4.20   1
  12   0  -3    0.10    3.70   1
  12   0  -2   12.60    4.00   1
  12   0  -1   -2.70    4.00   1
  12   0   0   89.20    5.70   1
  12   0   1   -8.60    5.70   1
 -12   0  -1   -4.00    4.50   1
  12   0   2  239.60   17.80   1
 -12   0  -2  242.70   14.80   1
  12   0   3    6.30    9.20   1
 -12   0  -3    1.60    4.70   1
  12   0   4   25.90    9.90   1
 -12   0  -4   32.70    5.60   1
  12   0   5   -6.90    9.60   1
 -12   0  -5   -3.00    5.60   1
  12   0   6   10.20   11.90   1
 -12   0  -6   15.00    5.80   1
 -12   0  -7    1.50    5.10   1
  12   1  -8   51.80   12.90   1
  12   1  -7   -3.60   10.20   1
  12   1  -6    4.70    6.20   1
  12   1  -5   -5.80    5.70   1
  12   1  -4   -0.90    3.80   1
  12   1  -3    1.40    3.80   1
  12   1  -2  164.20    7.50   1
  12   1  -1   16.60    4.30   1
  12   1   0    3.30    3.60   1
  12   1   1   24.90    8.50   1
 -12  -1  -1   22.80    5.10   1
  12   1   2    9.20    8.70   1
 -12  -1  -2   10.10    5.10   1
  12   1   3   15.00    6.80   1
 -12  -1  -3    4.50    4.80   1
  12   1   4   36.00   10.10   1
 -12  -1  -4   45.80    6.40   1
  12   1   5   10.40   10.40   1
 -12  -1  -5    0.30    5.30   1
  12   1   6   68.30   14.30   1
 -12  -1  -6  105.90    8.40   1
  12   2  -7   35.60    7.00   1
 -12  -2   7   32.20    9.10   1
  12   2  -6   42.10    6.80   1
  12   2  -5  133.60    9.50   1
  12   2  -4   21.10    5.60   1
  12   2  -3   47.30    4.50   1
  12   2  -2   18.70    3.40   1
  12   2  -1    3.80    3.70   1
  12   2   0  130.70    6.10   1
  12   2   1   -9.80    7.50   1
 -12  -2  -1    0.60    5.40   1
  12   2   2  117.50   13.20   1
 -12  -2  -2  140.50    8.40   1
  12   2   3   21.90    9.10   1
 -12  -2  -3   22.20    4.70   1
  12   2   4   14.20   10.20   1
 -12  -2  -4   10.30    4.40   1
  12   2   5    9.50    8.00   1
 -12  -2  -5    6.90    5.50   1
  12   2   6    3.90   10.50   1
 -12  -2  -6    0.40    4.80   1
  12   3  -7   13.20    6.90   1
 -12  -3   7   16.90    8.10   1
  12   3  -6   -0.70    5.70   1
 -12  -3   6    2.60    7.40   1
  12   3  -5   98.00    8.30   1
 -12  -3   5  109.30   11.70   1
  12   3  -4    6.90    5.10   1
  12   3  -3  122.70    8.70   1
  12   3  -2    4.10    3.80   1
  12   3  -1  148.90    7.50   1
  12   3   0   14.80    3.50   1
 -12  -3   0   16.40    6.60   1
  12   3   1    1.40    5.30   1
 -12  -3  -1    6.10    4.30   1
  12   3   2   16.50    8.90   1
 -12  -3  -2   18.50    4.70   1
  12   3   3   11.90    9.00   1
 -12  -3  -3    8.60    7.70   1
  12   3   4   13.70   10.20   1
 -12  -3  -4   12.50    8.10   1
  12   3   5   92.90   12.00   1
 -12  -3  -5  113.10    9.10   1
  12   3   6  -17.10   11.00   1
 -12  -3  -6    0.30    6.40   1
  12   4  -7   91.50    9.10   1
 -12  -4   7   97.90   13.50   1
  12   4  -6   14.40    6.50   1
 -12  -4   6    1.60    7.50   1
  12   4  -5  129.70    9.50   1
 -12  -4   5  146.80    9.70   1
  12   4  -4   94.60   11.90   1
 -12  -4   4   88.20    7.60   1
  12   4  -3    0.10    7.60   1
 -12  -4   3    8.50    7.60   1
  12   4  -2   -5.30    7.40   1
 -12  -4   2   -6.50    6.70   1
  12   4  -1   31.50    8.00   1
 -12  -4   1   35.90    7.60   1
  12   4   0    2.40    3.50   1
  12   4   1    5.70    5.40   1
 -12  -4  -1   16.10    9.00   1
  12   4   2   19.30    9.20   1
 -12  -4  -2   27.30    6.30   1
  12   4   3    9.30    8.80   1
 -12  -4  -3    6.10    4.70   1
  12   4   4    3.50    7.30   1
 -12  -4  -4    0.50    5.80   1
  12   4   5    9.40   10.60   1
 -12  -4  -5    4.40    5.00   1
  12   4   6   15.10   11.70   1
 -12  -4  -6   34.40   10.50   1
  12   5  -6   -4.50    8.80   1
 -12  -5   6    5.80    6.50   1
  12   5  -5   26.10   10.00   1
 -12  -5   5   55.10    6.40   1
  12   5  -4  -11.20    8.20   1
 -12  -5   4    5.90    4.70   1
  12   5  -3   68.50   10.80   1
 -12  -5   3   72.00    7.20   1
  12   5  -2   34.50    9.60   1
 -12  -5   2   34.70    8.60   1
  12   5  -1    8.90    7.80   1
 -12  -5   1    4.00    7.10   1
  12   5   0    2.00    7.90   1
 -12  -5   0   -6.70    4.50   1
  12   5   1   19.30    6.40   1
 -12  -5  -1    8.00    6.70   1
  12   5   2    3.50    8.50   1
 -12  -5  -2   -2.10    4.70   1
  12   5   3   -5.50    9.40   1
 -12  -5  -3    0.00    6.30   1
  12   5   4   17.20   10.60   1
 -12  -5  -4    3.60    5.90   1
  12   5   5    4.60   11.10   1
 -12  -5  -5    1.70    9.50   1
  12   6  -5   31.20   11.00   1
 -12  -6   5   16.20    6.00   1
  12   6  -4   33.30    9.80   1
 -12  -6   4   43.70    6.90   1
  12   6  -3   10.00    6.90   1
 -12  -6   3    1.60    5.40   1
  12   6  -2   -0.80    8.60   1
 -12  -6   2   15.10    5.20   1
  12   6  -1   21.80    9.20   1
 -12  -6   1   28.10    7.70   1
  12   6   0   27.10    9.40   1
 -12  -6   0    3.50    4.70   1
  12   6   1   16.80    8.50   1
 -12  -6  -1   20.10   10.10   1
  12   6   2   35.80    7.00   1
 -12  -6  -2   62.30   11.00   1
  12   6   3   49.40   10.60   1
 -12  -6  -3   35.40    7.60   1
  12   6   4   13.00   10.30   1
 -12  -6  -4   28.60    7.20   1
  12   7  -4    4.40    9.90   1
 -12  -7   4   -2.10    6.00   1
  12   7  -3  143.90   16.50   1
 -12  -7   3  167.30   13.80   1
  12   7  -2   42.20   10.20   1
 -12  -7   2   43.40    9.30   1
  12   7  -1   19.00    9.40   1
 -12  -7   1   -3.20    7.80   1
  12   7   0    5.50    9.10   1
 -12  -7   0   21.20    8.00   1
  12   7   1   29.50    9.20   1
 -12  -7  -1   33.30   11.20   1
  12   7   2    7.70    9.50   1
 -12  -7  -2   19.30    7.50   1
 -12  -8   2   30.50   10.40   1
 -12  -8   1   10.60    9.50   1
 -12  -8   0   98.90   12.20   1
  13  -5  -3   14.60    9.40   1
  13  -5  -2   10.80    7.10   1
 -13   5   2    5.70    5.70   1
  13  -5  -1   51.80   11.50   1
 -13   5   1   55.50    6.70   1
  13  -5   0   -5.00   10.60   1
 -13   5   0    1.60    9.50   1
  13  -5   1   17.80   11.10   1
 -13   5  -1   21.20   10.00   1
  13  -4  -4   26.10    9.80   1
 -13   4   4   36.00    8.10   1
  13  -4  -3   24.10    5.80   1
 -13   4   3    5.20    7.30   1
  13  -4  -2   10.90    6.50   1
 -13   4   2    4.90    7.00   1
  13  -4  -1    8.80    9.90   1
 -13   4   1   10.50    9.50   1
  13  -4   0    5.90    6.80   1
 -13   4   0   11.40    9.80   1
  13  -4   1   40.10   11.60   1
 -13   4  -1   42.80    8.00   1
  13  -4   2   10.10   10.90   1
 -13   4  -2   24.70   10.10   1
 -13   4  -3   22.60   10.40   1
  13  -3  -5   21.60   10.80   1
 -13   3   5    6.30    7.20   1
  13  -3  -4    6.70    6.60   1
 -13   3   4   16.50    7.00   1
  13  -3  -3    0.20    6.40   1
 -13   3   3    3.50    7.00   1
  13  -3  -2    9.10    6.60   1
 -13   3   2   15.00    6.80   1
  13  -3  -1   -5.60    6.50   1
 -13   3   1   -0.20    5.80   1
  13  -3   0   16.90    9.70   1
 -13   3   0   27.40   10.20   1
  13  -3   1    6.70   10.00   1
 -13   3  -1   13.50    9.20   1
  13  -3   2    6.20   10.80   1
 -13   3  -2   19.00    7.20   1
  13  -3   3   78.10   11.80   1
 -13   3  -3   91.10   10.50   1
 -13   3  -4    6.00    7.60   1
  13  -2  -5   31.00    7.40   1
  13  -2  -4   24.60    6.70   1
 -13   2   4   22.60    8.00   1
  13  -2  -3   24.20    6.50   1
  13  -2  -2    0.90    5.00   1
  13  -2  -1   18.40    6.10   1
  13  -2   0   33.90   10.60   1
  13  -2   1   11.00   10.50   1
  13  -2   2   32.30   12.10   1
 -13   2  -2   30.10    7.50   1
  13  -2   3    5.30   11.40   1
 -13   2  -3    7.30    7.70   1
  13  -2   4  -15.50    7.50   1
 -13   2  -4    0.40    7.50   1
  13  -1  -6   11.80   10.90   1
 -13   1   6   12.70    7.60   1
  13  -1  -5   10.80    9.70   1
  13  -1  -4   57.00    7.20   1
  13  -1  -3    8.10    5.80   1
  13  -1  -2  142.60   10.50   1
  13  -1  -1    6.70    4.70   1
  13  -1   0   37.20   10.20   1
  13  -1   1   31.60   10.00   1
  13  -1   2   10.10   10.40   1
 -13   1  -2   11.30    7.10   1
  13  -1   3   14.20   10.40   1
 -13   1  -3   -6.70    6.50   1
  13  -1   4   -6.30   10.60   1
 -13   1  -4   -3.30    7.80   1
  13   0  -6  143.00   16.60   1
  13   0  -5    2.20    9.50   1
  13   0  -4   44.80    6.90   1
  13   0  -3    0.90    5.40   1
  13   0  -2   69.70    7.40   1
  13   0  -1   -2.40    4.30   1
  13   0   0   21.10    5.90   1
  13   0   1   -9.00    6.00   1
  13   0   2   30.20    7.60   1
 -13   0  -2   33.50    5.90   1
  13   0   3    6.20   10.20   1
 -13   0  -3   13.10    5.60   1
 -13   0  -4   57.50    7.10   1
 -13   0  -5   -1.00    8.50   1
  13   1  -6   19.10   10.90   1
  13   1  -5    8.90   10.40   1
  13   1  -4   64.30   11.30   1
  13   1  -3   -4.10    5.40   1
  13   1  -2  134.50    7.70   1
  13   1  -1    7.90    4.40   1
  13   1   0   31.60    6.20   1
  13   1   1   24.30    6.00   1
  13   1   2   16.40   10.10   1
 -13  -1  -2   15.70    5.50   1
  13   1   3   14.90   10.60   1
 -13  -1  -3    8.70    5.30   1
  13   1   4    8.10   11.30   1
 -13  -1  -4    2.10    5.80   1
  13   2  -5   37.20    8.10   1
  13   2  -4   17.60    6.80   1
  13   2  -3   27.00    6.30   1
  13   2  -2    0.80    6.20   1
  13   2  -1   14.60    4.30   1
  13   2   0   41.20    6.50   1
  13   2   1   26.70    6.40   1
  13   2   2   41.70   10.20   1
 -13  -2  -2   37.80    5.30   1
  13   2   3    7.20   10.60   1
 -13  -2  -3    5.10    7.90   1
  13   2   4   16.90   10.80   1
 -13  -2  -4    3.90    6.20   1
  13   3  -5   10.80    7.10   1
  13   3  -4    0.70    6.20   1
  13   3  -3    5.50    5.80   1
  13   3  -2    0.50    5.40   1
  13   3  -1   -7.40    5.40   1
  13   3   0    6.30    8.50   1
  13   3   1   10.50    6.40   1
 -13  -3  -1    9.90    9.30   1
  13   3   2    8.00    9.80   1
 -13  -3  -2   15.20    6.10   1
  13   3   3  109.40   13.50   1
 -13  -3  -3  104.50    8.50   1
  13   3   4    2.10   11.00   1
 -13  -3  -4   -2.50    9.70   1
  13   4  -4   26.40    6.80   1
  13   4  -3    5.90    6.20   1
  13   4  -2    8.40    6.50   1
  13   4  -1    6.00    8.70   1
  13   4   0    9.70    8.20   1
  13   4   1   27.40    6.90   1
 -13  -4  -1   38.00   10.80   1
  13   4   2    7.90    6.50   1
 -13  -4  -2   14.00    9.50   1
  13   4   3   24.30   10.90   1
 -13  -4  -3   40.00    9.10   1
  13   5  -3    0.10    6.40   1
 -13  -5   3    9.30    7.30   1
  13   5  -2    4.00    6.10   1
  13   5  -1   51.40    9.20   1
  13   5   0   -0.20    5.90   1
  13   5   1   21.90    8.10   1
 -13  -5  -1   23.50   11.30   1
  13   5   2   20.50   10.10   1
 -13  -5  -2   22.90   10.60   1
  14   0  -1    4.50    9.60   1
  14   0   0  -19.80   10.50   1
   0   0   0
;
_shelx_hkl_checksum              6549
loop_
_space_group_symop_operation_xyz
'x, y, z'
'-x, y+1/2, -z+1/2'
'-x, -y, -z'
'x, -y-1/2, z-1/2'
loop_
_atom_site_label
_atom_site_type_symbol
_atom_site_fract_x
_atom_site_fract_y
_atom_site_fract_z
_atom_site_U_iso_or_equiv
_atom_site_adp_type
_atom_site_occupancy
_atom_site_site_symmetry_order
_atom_site_calc_flag
_atom_site_refinement_flags_posn
_atom_site_refinement_flags_adp
_atom_site_refinement_flags_occupancy
_atom_site_disorder_assembly
_atom_site_disorder_group
As1 As 0.11230(3) 0.69750(3) 0.10404(3) 0.01250(7) Uani 1 1 d . . . . .
As2 As -0.28883(3) 0.68782(3) 0.52750(3) 0.01350(7) Uani 1 1 d . . . . .
Cu1 Cu -0.10071(3) 0.85580(3) 0.31938(3) 0.01440(7) Uani 1 1 d . . . . .
Cu2 Cu 0.000000 1.000000 0.000000 0.01636(10) Uani 1 2 d S . P . .
Na1 Na 0.22233(13) 0.49604(13) -0.19676(12) 0.0246(2) Uani 1 1 d . . . . .
O1 O 0.0613(2) 0.57662(19) 0.2157(2) 0.0187(4) Uani 1 1 d . . . . .
O2 O 0.0969(2) 0.6653(2) -0.0715(2) 0.0180(4) Uani 1 1 d . . . . .
O3 O 0.0200(2) 0.84728(18) 0.14023(19) 0.0140(3) Uani 1 1 d . . . . .
O4 O 0.3055(2) 0.7322(2) 0.1423(2) 0.0235(4) Uani 1 1 d D . . . .
O5 O -0.2196(2) 0.84374(19) 0.4908(2) 0.0171(4) Uani 1 1 d . . . . .
O6 O -0.2942(2) 0.6723(2) 0.7059(2) 0.0184(4) Uani 1 1 d . . . . .
O7 O -0.2022(2) 0.5601(2) 0.4418(2) 0.0194(4) Uani 1 1 d . . . . .
O8 O -0.4791(2) 0.6761(2) 0.4668(2) 0.0225(4) Uani 1 1 d D . . . .
O9 O 0.4908(3) 0.4801(3) -0.2230(3) 0.0308(5) Uani 1 1 d D . . . .
H1 H 0.549(4) 0.546(3) -0.241(5) 0.053(13) Uiso 1 1 d D . . . .
H2 H 0.546(4) 0.431(3) -0.167(4) 0.040(11) Uiso 1 1 d D . . . .
H8 H -0.464(5) 0.625(4) 0.400(4) 0.064(15) Uiso 1 1 d D . . . .
H4 H 0.332(6) 0.773(5) 0.071(4) 0.075(18) Uiso 1 1 d D . . . .
loop_
_atom_site_aniso_label
_atom_site_aniso_U_11
_atom_site_aniso_U_22
_atom_site_aniso_U_33
_atom_site_aniso_U_23
_atom_site_aniso_U_13
_atom_site_aniso_U_12
As1 0.01381(12) 0.01202(12) 0.01177(11) 0.00025(8) 0.00160(8) 0.00048(8)
As2 0.01290(12) 0.01587(12) 0.01187(12) -0.00101(9) 0.00206(8) 0.00080(8)
Cu1 0.01578(15) 0.01648(15) 0.01104(14) 0.00067(11) 0.00180(10) -0.00101(11)
Cu2 0.0145(2) 0.0156(2) 0.0188(2) 0.00604(16) -0.00126(15) -0.00241(15)
Na1 0.0247(6) 0.0305(6) 0.0189(5) -0.0018(5) 0.0036(4) 0.0049(5)
O1 0.0272(10) 0.0121(8) 0.0174(9) 0.0041(7) 0.0070(7) 0.0000(7)
O2 0.0185(9) 0.0230(9) 0.0126(8) -0.0032(7) 0.0022(7) 0.0013(7)
O3 0.0171(8) 0.0120(8) 0.0132(8) 0.0016(6) 0.0040(6) 0.0022(6)
O4 0.0141(9) 0.0326(11) 0.0236(10) 0.0055(9) -0.0011(7) -0.0024(8)
O5 0.0200(9) 0.0163(8) 0.0153(8) -0.0009(7) 0.0048(7) -0.0014(7)
O6 0.0168(9) 0.0269(10) 0.0116(8) 0.0018(7) 0.0024(7) 0.0003(7)
O7 0.0167(9) 0.0216(9) 0.0199(9) -0.0081(7) -0.0005(7) 0.0055(7)
O8 0.0111(9) 0.0339(11) 0.0224(10) -0.0060(9) -0.0010(7) 0.0021(7)
O9 0.0259(11) 0.0300(12) 0.0361(13) 0.0059(10) -0.0043(9) -0.0032(9)
loop_
_atom_type_symbol
_atom_type_description
_atom_type_scat_dispersion_real
_atom_type_scat_dispersion_imag
_atom_type_scat_source
O O 0.0106 0.0060 'International Tables Vol C Tables 4.2.6.8 and 6.1.1.4'
H H 0.0000 0.0000 'International Tables Vol C Tables 4.2.6.8 and 6.1.1.4'
Cu Cu 0.3201 1.2651 'International Tables Vol C Tables 4.2.6.8 and 6.1.1.4'
As As 0.0499 2.0058 'International Tables Vol C Tables 4.2.6.8 and 6.1.1.4'
Na Na 0.0362 0.0249 'International Tables Vol C Tables 4.2.6.8 and 6.1.1.4'
loop_
_geom_angle_atom_site_label_1
_geom_angle_atom_site_label_2
_geom_angle_atom_site_label_3
_geom_angle
_geom_angle_site_symmetry_1
_geom_angle_site_symmetry_3
O1 As1 O2 118.39(10) . .
O1 As1 O3 110.05(9) . .
O2 As1 O3 109.76(9) . .
O1 As1 O4 107.19(10) . .
O2 As1 O4 105.77(10) . .
O3 As1 O4 104.69(10) . .
O1 As1 O5 81.19(8) . 4_575
O2 As1 O5 66.66(8) . 4_575
O3 As1 O5 74.61(7) . 4_575
O4 As1 O5 171.04(8) . 4_575
O1 As1 O2 71.77(8) . 4_576
O2 As1 O2 165.39(6) . 4_576
O3 As1 O2 55.68(7) . 4_576
O4 As1 O2 79.24(8) . 4_576
O5 As1 O2 106.93(5) 4_575 4_576
O1 As1 O7 146.32(7) . 2
O2 As1 O7 94.30(8) . 2
O3 As1 O7 45.65(7) . 2
O4 As1 O7 67.96(8) . 2
O5 As1 O7 106.93(5) 4_575 2
O2 As1 O7 74.62(5) 4_576 2
O1 As1 O5 64.06(7) . 2_545
O2 As1 O5 66.31(7) . 2_545
O3 As1 O5 166.59(7) . 2_545
O4 As1 O5 88.70(8) . 2_545
O5 As1 O5 92.30(4) 4_575 2_545
O2 As1 O5 128.06(4) 4_576 2_545
O7 As1 O5 144.93(4) 2 2_545
O1 As1 O7 118.51(8) . 4_575
O2 As1 O7 72.97(8) . 4_575
O3 As1 O7 39.19(7) . 4_575
O4 As1 O7 128.52(8) . 4_575
O5 As1 O7 45.95(5) 4_575 4_575
O2 As1 O7 93.08(5) 4_576 4_575
O7 As1 O7 60.99(5) 2 4_575
O5 As1 O7 131.18(4) 2_545 4_575
O1 As1 O6 78.76(8) . 4_575
O2 As1 O6 105.47(7) . 4_575
O3 As1 O6 40.22(7) . 4_575
O4 As1 O6 139.86(8) . 4_575
O5 As1 O6 43.64(4) 4_575 4_575
O2 As1 O6 64.75(5) 4_576 4_575
O7 As1 O6 85.18(4) 2 4_575
O5 As1 O6 127.03(4) 2_545 4_575
O7 As1 O6 42.84(4) 4_575 4_575
O1 As1 O9 76.60(8) . 3_665
O2 As1 O9 102.82(8) . 3_665
O3 As1 O9 136.69(7) . 3_665
O4 As1 O9 37.46(8) . 3_665
O5 As1 O9 146.58(5) 4_575 3_665
O2 As1 O9 89.51(6) 4_576 3_665
O7 As1 O9 105.41(5) 2 3_665
O5 As1 O9 55.53(5) 2_545 3_665
O7 As1 O9 164.70(4) 4_575 3_665
O6 As1 O9 148.90(5) 4_575 3_665
O1 As1 O2 43.78(7) . 3_565
O2 As1 O2 75.05(8) . 3_565
O3 As1 O2 123.78(7) . 3_565
O4 As1 O2 128.59(8) . 3_565
O5 As1 O2 55.60(4) 4_575 3_565
O2 As1 O2 112.94(4) 4_576 3_565
O7 As1 O2 161.92(4) 2 3_565
O5 As1 O2 43.32(4) 2_545 3_565
O7 As1 O2 101.46(4) 4_575 3_565
O6 As1 O2 83.72(4) 4_575 3_565
O9 As1 O2 91.36(5) 3_665 3_565
O6 As2 O5 108.17(9) . .
O6 As2 O7 116.17(10) . .
O5 As2 O7 113.67(10) . .
O6 As2 O8 104.45(10) . .
O5 As2 O8 109.92(10) . .
O7 As2 O8 103.88(10) . .
O6 As2 O3 72.09(8) . 4_576
O5 As2 O3 80.97(7) . 4_576
O7 As2 O3 69.59(7) . 4_576
O8 As2 O3 169.06(8) . 4_576
O6 As2 O6 160.59(4) . 4_575
O5 As2 O6 55.17(7) . 4_575
O7 As2 O6 81.97(8) . 4_575
O8 As2 O6 75.85(8) . 4_575
O3 As2 O6 110.98(5) 4_576 4_575
O6 As2 Na1 68.46(7) . 2
O5 As2 Na1 41.03(7) . 2
O7 As2 Na1 143.05(7) . 2
O8 As2 Na1 110.33(7) . 2
O3 As2 Na1 78.43(4) 4_576 2
O6 As2 Na1 93.01(4) 4_575 2
O6 As2 O9 134.23(8) . 3_565
O5 As2 O9 114.28(8) . 3_565
O7 As2 O9 60.55(8) . 3_565
O8 As2 O9 45.35(8) . 3_565
O3 As2 O9 129.93(6) 4_576 3_565
O6 As2 O9 59.41(5) 4_575 3_565
Na1 As2 O9 144.51(4) 2 3_565
O6 As2 O9 44.26(8) . 1_456
O5 As2 O9 145.97(7) . 1_456
O7 As2 O9 98.77(8) . 1_456
O8 As2 O9 69.67(8) . 1_456
O3 As2 O9 102.09(5) 4_576 1_456
O6 As2 O9 144.67(5) 4_575 1_456
Na1 As2 O9 105.74(5) 2 1_456
O9 As2 O9 89.98(6) 3_565 1_456
O6 As2 O2 109.92(8) . 4_576
O5 As2 O2 43.90(7) . 4_576
O7 As2 O2 75.04(8) . 4_576
O8 As2 O2 142.03(8) . 4_576
O3 As2 O2 46.30(5) 4_576 4_576
O6 As2 O2 66.36(5) 4_575 4_576
Na1 As2 O2 69.52(4) 2 4_576
O9 As2 O2 112.21(5) 3_565 4_576
O9 As2 O2 148.25(5) 1_456 4_576
O6 As2 O4 70.79(8) . 4_476
O5 As2 O4 102.60(7) . 4_476
O7 As2 O4 136.68(7) . 4_476
O8 As2 O4 38.83(8) . 4_476
O3 As2 O4 141.87(5) 4_576 4_476
O6 As2 O4 101.34(5) 4_575 4_476
Na1 As2 O4 80.25(4) 2 4_476
O9 As2 O4 83.77(5) 3_565 4_476
O9 As2 O4 54.56(5) 1_456 4_476
O2 As2 O4 146.09(5) 4_576 4_476
O6 As2 O9 63.98(8) . 2
O5 As2 O9 66.58(8) . 2
O7 As2 O9 179.55(7) . 2
O8 As2 O9 75.67(8) . 2
O3 As2 O9 110.85(5) 4_576 2
O6 As2 O9 97.94(5) 4_575 2
Na1 As2 O9 37.38(4) 2 2
O9 As2 O9 119.02(7) 3_565 2
O9 As2 O9 81.05(2) 1_456 2
O2 As2 O9 105.33(5) 4_576 2
O4 As2 O9 42.90(5) 4_476 2
O6 As2 H8 120.9(13) . .
O5 As2 H8 115.5(15) . .
O7 As2 H8 80.4(8) . .
O8 As2 H8 24.2(7) . .
O3 As2 H8 149.8(9) 4_576 .
O6 As2 H8 66.6(14) 4_575 .
Na1 As2 H8 131.0(10) 2 .
O9 As2 H8 21.3(8) 3_565 .
O9 As2 H8 78.6(14) 1_456 .
O2 As2 H8 129.1(12) 4_576 .
O4 As2 H8 62.5(8) 4_476 .
O9 As2 H8 99.2(8) 2 .
O5 Cu1 O6 87.67(8) . 4_575
O5 Cu1 O2 93.08(8) . 4_576
O6 Cu1 O2 165.92(9) 4_575 4_576
O5 Cu1 O3 174.14(8) . .
O6 Cu1 O3 90.79(8) 4_575 .
O2 Cu1 O3 87.04(8) 4_576 .
O5 Cu1 O1 105.84(7) . 2
O6 Cu1 O1 101.01(8) 4_575 2
O2 Cu1 O1 92.32(8) 4_576 2
O3 Cu1 O1 80.00(7) . 2
O5 Cu1 Na1 124.92(6) . 4_576
O6 Cu1 Na1 141.00(6) 4_575 4_576
O2 Cu1 Na1 46.87(6) 4_576 4_576
O3 Cu1 Na1 58.82(6) . 4_576
O1 Cu1 Na1 53.45(6) 2 4_576
O5 Cu1 O1 116.78(7) . .
O6 Cu1 O1 95.53(7) 4_575 .
O2 Cu1 O1 71.59(7) 4_576 .
O3 Cu1 O1 57.74(6) . .
O1 Cu1 O1 134.69(3) 2 .
Na1 Cu1 O1 88.20(4) 4_576 .
O5 Cu1 O7 59.52(6) . .
O6 Cu1 O7 79.93(7) 4_575 .
O2 Cu1 O7 88.33(7) 4_576 .
O3 Cu1 O7 114.64(6) . .
O1 Cu1 O7 165.35(6) 2 .
Na1 Cu1 O7 132.76(4) 4_576 .
O1 Cu1 O7 59.11(5) . .
O5 Cu1 O7 133.25(7) . 4_575
O6 Cu1 O7 49.80(6) 4_575 4_575
O2 Cu1 O7 133.08(6) 4_576 4_575
O3 Cu1 O7 47.75(6) . 4_575
O1 Cu1 O7 70.92(6) 2 4_575
Na1 Cu1 O7 91.58(4) 4_576 4_575
O1 Cu1 O7 89.41(5) . 4_575
O7 Cu1 O7 118.55(5) . 4_575
O5 Cu1 O3 56.32(6) . 4_576
O6 Cu1 O3 124.43(7) 4_575 4_576
O2 Cu1 O3 46.92(6) 4_576 4_576
O3 Cu1 O3 120.62(6) . 4_576
O1 Cu1 O3 126.97(6) 2 4_576
Na1 Cu1 O3 93.57(4) 4_576 4_576
O1 Cu1 O3 71.38(4) . 4_576
O7 Cu1 O3 46.42(4) . 4_576
O7 Cu1 O3 159.91(4) 4_575 4_576
O5 Cu1 O5 120.31(6) . 4_575
O6 Cu1 O5 44.58(6) 4_575 4_575
O2 Cu1 O5 124.94(7) 4_576 4_575
O3 Cu1 O5 55.50(6) . 4_575
O1 Cu1 O5 115.13(6) 2 4_575
Na1 Cu1 O5 114.25(4) 4_576 4_575
O1 Cu1 O5 54.90(5) . 4_575
O7 Cu1 O5 75.92(5) . 4_575
O7 Cu1 O5 44.42(4) 4_575 4_575
O3 Cu1 O5 116.33(4) 4_576 4_575
O5 Cu1 O2 62.12(6) . 2
O6 Cu1 O2 115.08(6) 4_575 2
O2 Cu1 O2 77.38(7) 4_576 2
O3 Cu1 O2 123.53(6) . 2
O1 Cu1 O2 47.56(6) 2 2
Na1 Cu1 O2 71.81(4) 4_576 2
O1 Cu1 O2 148.89(5) . 2
O7 Cu1 O2 118.65(4) . 2
O7 Cu1 O2 114.07(4) 4_575 2
O3 Cu1 O2 85.97(4) 4_576 2
O5 Cu1 O2 155.42(4) 4_575 2
O7 Cu2 O7 180.0 4_575 2
O7 Cu2 O3 90.54(8) 4_575 .
O7 Cu2 O3 89.46(8) 2 .
O7 Cu2 O3 89.46(8) 4_575 3_575
O7 Cu2 O3 90.54(8) 2 3_575
O3 Cu2 O3 180.0 . 3_575
O7 Cu2 O1 82.16(7) 4_575 4_575
O7 Cu2 O1 97.84(8) 2 4_575
O3 Cu2 O1 113.95(6) . 4_575
O3 Cu2 O1 66.05(6) 3_575 4_575
O7 Cu2 O1 97.84(7) 4_575 2
O7 Cu2 O1 82.16(8) 2 2
O3 Cu2 O1 66.05(6) . 2
O3 Cu2 O1 113.95(6) 3_575 2
O1 Cu2 O1 180.00(7) 4_575 2
O7 Cu2 Na1 137.05(6) 4_575 4_576
O7 Cu2 Na1 42.95(6) 2 4_576
O3 Cu2 Na1 54.72(6) . 4_576
O3 Cu2 Na1 125.28(6) 3_575 4_576
O1 Cu2 Na1 131.87(5) 4_575 4_576
O1 Cu2 Na1 48.13(5) 2 4_576
O7 Cu2 Na1 42.95(6) 4_575 2_554
O7 Cu2 Na1 137.05(6) 2 2_554
O3 Cu2 Na1 125.28(6) . 2_554
O3 Cu2 Na1 54.72(6) 3_575 2_554
O1 Cu2 Na1 48.13(5) 4_575 2_554
O1 Cu2 Na1 131.87(5) 2 2_554
Na1 Cu2 Na1 180.0 4_576 2_554
O7 Cu2 O2 83.43(7) 4_575 .
O7 Cu2 O2 96.57(7) 2 .
O3 Cu2 O2 53.30(6) . .
O3 Cu2 O2 126.70(6) 3_575 .
O1 Cu2 O2 60.65(5) 4_575 .
O1 Cu2 O2 119.35(5) 2 .
Na1 Cu2 O2 92.13(4) 4_576 .
Na1 Cu2 O2 87.87(4) 2_554 .
O7 Cu2 O2 96.57(7) 4_575 3_575
O7 Cu2 O2 83.43(7) 2 3_575
O3 Cu2 O2 126.70(6) . 3_575
O3 Cu2 O2 53.30(6) 3_575 3_575
O1 Cu2 O2 119.35(5) 4_575 3_575
O1 Cu2 O2 60.65(5) 2 3_575
Na1 Cu2 O2 87.87(4) 4_576 3_575
Na1 Cu2 O2 92.13(4) 2_554 3_575
O2 Cu2 O2 180.00(6) . 3_575
O7 Cu2 O6 49.74(6) 4_575 4_575
O7 Cu2 O6 130.26(6) 2 4_575
O3 Cu2 O6 49.84(6) . 4_575
O3 Cu2 O6 130.16(6) 3_575 4_575
O1 Cu2 O6 122.36(5) 4_575 4_575
O1 Cu2 O6 57.64(5) 2 4_575
Na1 Cu2 O6 87.32(4) 4_576 4_575
Na1 Cu2 O6 92.68(4) 2_554 4_575
O2 Cu2 O6 81.47(5) . 4_575
O2 Cu2 O6 98.53(5) 3_575 4_575
O7 Cu2 O6 130.26(6) 4_575 2
O7 Cu2 O6 49.74(6) 2 2
O3 Cu2 O6 130.16(6) . 2
O3 Cu2 O6 49.84(6) 3_575 2
O1 Cu2 O6 57.64(5) 4_575 2
O1 Cu2 O6 122.36(5) 2 2
Na1 Cu2 O6 92.68(4) 4_576 2
Na1 Cu2 O6 87.32(4) 2_554 2
O2 Cu2 O6 98.53(5) . 2
O2 Cu2 O6 81.47(5) 3_575 2
O6 Cu2 O6 180.00(6) 4_575 2
O2 Na1 O7 129.74(8) . 3_565
O2 Na1 O9 126.01(9) . .
O7 Na1 O9 85.06(9) 3_565 .
O2 Na1 O5 90.77(8) . 2_545
O7 Na1 O5 128.67(9) 3_565 2_545
O9 Na1 O5 95.01(9) . 2_545
O2 Na1 O1 75.97(7) . 3_565
O7 Na1 O1 80.80(8) 3_565 3_565
O9 Na1 O1 157.87(9) . 3_565
O5 Na1 O1 80.91(7) 2_545 3_565
O2 Na1 O3 65.09(7) . 4_575
O7 Na1 O3 64.65(7) 3_565 4_575
O9 Na1 O3 126.31(8) . 4_575
O5 Na1 O3 138.64(8) 2_545 4_575
O1 Na1 O3 61.52(6) 3_565 4_575
O2 Na1 O4 76.50(7) . 4_575
O7 Na1 O4 74.91(7) 3_565 4_575
O9 Na1 O4 75.85(8) . 4_575
O5 Na1 O4 154.54(8) 2_545 4_575
O1 Na1 O4 116.17(7) 3_565 4_575
O3 Na1 O4 54.68(6) 4_575 4_575
O2 Na1 Cu1 38.24(5) . 4_575
O7 Na1 Cu1 97.21(6) 3_565 4_575
O9 Na1 Cu1 156.52(8) . 4_575
O5 Na1 Cu1 101.52(6) 2_545 4_575
O1 Na1 Cu1 43.64(5) 3_565 4_575
O3 Na1 Cu1 39.05(4) 4_575 4_575
O4 Na1 Cu1 82.16(5) 4_575 4_575
O2 Na1 O6 143.68(8) . 2_545
O7 Na1 O6 75.64(7) 3_565 2_545
O9 Na1 O6 74.86(8) . 2_545
O5 Na1 O6 55.33(6) 2_545 2_545
O1 Na1 O6 85.16(6) 3_565 2_545
O3 Na1 O6 130.73(6) 4_575 2_545
O4 Na1 O6 139.76(6) 4_575 2_545
Cu1 Na1 O6 128.43(5) 4_575 2_545
O2 Na1 Cu2 98.64(6) . 2_544
O7 Na1 Cu2 33.63(5) 3_565 2_544
O9 Na1 Cu2 116.60(7) . 2_544
O5 Na1 Cu2 130.42(6) 2_545 2_544
O1 Na1 Cu2 55.18(5) 3_565 2_544
O3 Na1 Cu2 36.25(4) 4_575 2_544
O4 Na1 Cu2 73.98(4) 4_575 2_544
Cu1 Na1 Cu2 63.65(3) 4_575 2_544
O6 Na1 Cu2 95.41(5) 2_545 2_544
O2 Na1 As2 117.58(6) . 2_545
O7 Na1 As2 104.36(6) 3_565 2_545
O9 Na1 As2 81.01(7) . 2_545
O5 Na1 As2 26.92(5) 2_545 2_545
O1 Na1 As2 86.09(5) 3_565 2_545
O3 Na1 As2 146.55(6) 4_575 2_545
O4 Na1 As2 156.83(5) 4_575 2_545
Cu1 Na1 As2 120.53(4) 4_575 2_545
O6 Na1 As2 28.96(4) 2_545 2_545
Cu2 Na1 As2 118.51(4) 2_544 2_545
O2 Na1 O8 160.70(8) . 3_565
O7 Na1 O8 43.76(6) 3_565 3_565
O9 Na1 O8 45.12(7) . 3_565
O5 Na1 O8 106.27(7) 2_545 3_565
O1 Na1 O8 114.98(7) 3_565 3_565
O3 Na1 O8 104.98(6) 4_575 3_565
O4 Na1 O8 84.28(6) 4_575 3_565
Cu1 Na1 O8 140.90(5) 4_575 3_565
O6 Na1 O8 55.48(5) 2_545 3_565
Cu2 Na1 O8 77.39(4) 2_544 3_565
As2 Na1 O8 80.12(4) 2_545 3_565
As1 O1 Cu1 123.72(10) . 2_545
As1 O1 Na1 116.10(10) . 3_565
Cu1 O1 Na1 82.91(7) 2_545 3_565
As1 O1 O3 169.93(11) . 2_545
Cu1 O1 O3 46.95(5) 2_545 2_545
Na1 O1 O3 62.35(6) 3_565 2_545
As1 O1 O4 37.52(6) . .
Cu1 O1 O4 112.13(9) 2_545 .
Na1 O1 O4 153.57(9) 3_565 .
O3 O1 O4 143.68(10) 2_545 .
As1 O1 O3 35.69(6) . .
Cu1 O1 O3 156.51(9) 2_545 .
Na1 O1 O3 97.63(8) 3_565 .
O3 O1 O3 151.81(8) 2_545 .
O4 O1 O3 59.76(7) . .
As1 O1 Cu2 148.18(10) . 2_545
Cu1 O1 Cu2 85.37(6) 2_545 2_545
Na1 O1 Cu2 76.69(6) 3_565 2_545
O3 O1 Cu2 41.84(5) 2_545 2_545
O4 O1 Cu2 124.44(9) . 2_545
O3 O1 Cu2 117.73(8) . 2_545
As1 O1 O2 31.01(6) . .
Cu1 O1 O2 97.57(8) 2_545 .
Na1 O1 O2 99.49(8) 3_565 .
O3 O1 O2 139.23(9) 2_545 .
O4 O1 O2 58.28(7) . .
O3 O1 O2 59.08(6) . .
Cu2 O1 O2 174.91(8) 2_545 .
As1 O1 O2 114.02(10) . 3_565
Cu1 O1 O2 40.74(5) 2_545 3_565
Na1 O1 O2 48.35(6) 3_565 3_565
O3 O1 O2 56.94(6) 2_545 3_565
O4 O1 O2 131.93(9) . 3_565
O3 O1 O2 125.70(9) . 3_565
Cu2 O1 O2 96.34(6) 2_545 3_565
O2 O1 O2 83.35(8) . 3_565
As1 O1 O7 132.64(10) . .
Cu1 O1 O7 99.82(7) 2_545 .
Na1 O1 O7 46.63(5) 3_565 .
O3 O1 O7 54.56(6) 2_545 .
O4 O1 O7 141.95(9) . .
O3 O1 O7 97.37(7) . .
Cu2 O1 O7 36.37(4) 2_545 .
O2 O1 O7 138.64(8) . .
O2 O1 O7 85.88(7) 3_565 .
As1 O1 O2 79.07(8) . 4_576
Cu1 O1 O2 147.64(9) 2_545 4_576
Na1 O1 O2 108.90(8) 3_565 4_576
O3 O1 O2 110.97(8) 2_545 4_576
O4 O1 O2 70.46(8) . 4_576
O3 O1 O2 54.20(6) . 4_576
Cu2 O1 O2 69.13(5) 2_545 4_576
O2 O1 O2 109.46(6) . 4_576
O2 O1 O2 156.56(7) 3_565 4_576
O7 O1 O2 71.49(6) . 4_576
As1 O1 O6 119.76(10) . 3_566
Cu1 O1 O6 36.80(5) 2_545 3_566
Na1 O1 O6 113.66(8) 3_565 3_566
O3 O1 O6 56.27(6) 2_545 3_566
O4 O1 O6 89.17(8) . 3_566
O3 O1 O6 148.58(9) . 3_566
Cu2 O1 O6 74.49(6) 2_545 3_566
O2 O1 O6 110.32(8) . 3_566
O2 O1 O6 77.47(7) 3_565 3_566
O7 O1 O6 106.01(7) . 3_566
O2 O1 O6 114.01(8) 4_576 3_566
As1 O1 Cu1 73.85(7) . .
Cu1 O1 Cu1 159.77(8) 2_545 .
Na1 O1 Cu1 79.69(6) 3_565 .
O3 O1 Cu1 114.62(7) 2_545 .
O4 O1 Cu1 87.91(7) . .
O3 O1 Cu1 38.35(4) . .
Cu2 O1 Cu1 80.66(5) 2_545 .
O2 O1 Cu1 95.42(6) . .
O2 O1 Cu1 126.48(7) 3_565 .
O7 O1 Cu1 60.52(5) . .
O2 O1 Cu1 35.60(4) 4_576 .
O6 O1 Cu1 147.53(7) 3_566 .
As1 O1 O5 68.69(7) . 4_575
Cu1 O1 O5 104.77(7) 2_545 4_575
Na1 O1 O5 47.69(5) 3_565 4_575
O3 O1 O5 108.12(8) 2_545 4_575
O4 O1 O5 106.16(8) . 4_575
O3 O1 O5 61.23(6) . 4_575
Cu2 O1 O5 120.05(7) 2_545 4_575
O2 O1 O5 55.22(6) . 4_575
O2 O1 O5 65.32(6) 3_565 4_575
O7 O1 O5 84.05(7) . 4_575
O2 O1 O5 105.17(7) 4_576 4_575
O6 O1 O5 140.77(8) 3_566 4_575
Cu1 O1 O5 70.48(5) . 4_575
As1 O1 O5 89.42(8) . 2_545
Cu1 O1 O5 34.41(4) 2_545 2_545
Na1 O1 O5 101.27(7) 3_565 2_545
O3 O1 O5 81.36(7) 2_545 2_545
O4 O1 O5 83.36(8) . 2_545
O3 O1 O5 124.06(8) . 2_545
Cu2 O1 O5 117.74(7) 2_545 2_545
O2 O1 O5 66.07(6) . 2_545
O2 O1 O5 53.11(6) 3_565 2_545
O7 O1 O5 132.85(7) . 2_545
O2 O1 O5 149.77(8) 4_576 2_545
O6 O1 O5 48.97(6) 3_566 2_545
Cu1 O1 O5 161.43(7) . 2_545
O5 O1 O5 96.24(7) 4_575 2_545
As1 O2 Cu1 123.81(11) . 4_575
As1 O2 Na1 127.59(11) . .
Cu1 O2 Na1 94.89(8) 4_575 .
As1 O2 O4 38.00(6) . .
Cu1 O2 O4 160.75(10) 4_575 .
Na1 O2 O4 103.09(9) . .
As1 O2 O3 167.48(11) . 4_575
Cu1 O2 O3 47.19(6) 4_575 4_575
Na1 O2 O3 64.79(7) . 4_575
O4 O2 O3 148.85(10) . 4_575
As1 O2 O3 35.60(5) . .
Cu1 O2 O3 101.66(8) 4_575 .
Na1 O2 O3 162.10(10) . .
O4 O2 O3 59.73(7) . .
O3 O2 O3 132.36(9) 4_575 .
As1 O2 O5 80.78(8) . 4_575
Cu1 O2 O5 43.17(5) 4_575 4_575
Na1 O2 O5 124.27(9) . 4_575
O4 O2 O5 118.63(9) . 4_575
O3 O2 O5 90.21(8) 4_575 4_575
O3 O2 O5 66.69(7) . 4_575
As1 O2 O1 30.60(6) . .
Cu1 O2 O1 108.96(9) 4_575 .
Na1 O2 O1 109.43(9) . .
O4 O2 O1 58.60(7) . .
O3 O2 O1 151.28(9) 4_575 .
O3 O2 O1 58.69(6) . .
O5 O2 O1 69.49(7) 4_575 .
As1 O2 O1 126.88(10) . 3_565
Cu1 O2 O1 46.94(6) 4_575 3_565
Na1 O2 O1 55.67(6) . 3_565
O4 O2 O1 142.38(10) . 3_565
O3 O2 O1 56.06(6) 4_575 3_565
O3 O2 O1 134.48(9) . 3_565
O5 O2 O1 68.89(7) 4_575 3_565
O1 O2 O1 96.66(8) . 3_565
As1 O2 O1 117.48(9) . 4_575
Cu1 O2 O1 72.81(7) 4_575 4_575
Na1 O2 O1 106.19(8) . 4_575
O4 O2 O1 108.00(9) . 4_575
O3 O2 O1 54.29(6) 4_575 4_575
O3 O2 O1 85.41(7) . 4_575
O5 O2 O1 94.79(7) 4_575 4_575
O1 O2 O1 143.96(8) . 4_575
O1 O2 O1 107.86(6) 3_565 4_575
As1 O2 As1 144.69(10) . 4_575
Cu1 O2 As1 68.96(6) 4_575 4_575
Na1 O2 As1 77.70(6) . 4_575
O4 O2 As1 121.36(8) . 4_575
O3 O2 As1 30.90(4) 4_575 4_575
O3 O2 As1 114.57(7) . 4_575
O5 O2 As1 106.20(7) 4_575 4_575
O1 O2 As1 172.84(8) . 4_575
O1 O2 As1 86.79(6) 3_565 4_575
O1 O2 As1 29.17(4) 4_575 4_575
As1 O2 O5 86.87(8) . 2_545
Cu1 O2 O5 106.13(8) 4_575 2_545
Na1 O2 O5 45.88(6) . 2_545
O4 O2 O5 82.24(8) . 2_545
O3 O2 O5 103.71(7) 4_575 2_545
O3 O2 O5 121.34(8) . 2_545
O5 O2 O5 103.00(7) 4_575 2_545
O1 O2 O5 63.67(6) . 2_545
O1 O2 O5 60.58(6) 3_565 2_545
O1 O2 O5 152.05(8) 4_575 2_545
As1 O2 O5 123.40(6) 4_575 2_545
As1 O2 Cu2 68.93(6) . .
Cu1 O2 Cu2 89.02(6) 4_575 .
Na1 O2 Cu2 153.56(8) . .
O4 O2 Cu2 77.99(7) . .
O3 O2 Cu2 100.44(7) 4_575 .
O3 O2 Cu2 35.19(4) . .
O5 O2 Cu2 75.00(6) 4_575 .
O1 O2 Cu2 93.83(6) . .
O1 O2 Cu2 135.72(7) 3_565 .
O1 O2 Cu2 50.22(4) 4_575 .
As1 O2 Cu2 79.38(4) 4_575 .
O5 O2 Cu2 155.78(7) 2_545 .
As1 O2 O4 133.29(10) . 4_575
Cu1 O2 O4 96.21(8) 4_575 4_575
Na1 O2 O4 62.55(7) . 4_575
O4 O2 O4 98.14(8) . 4_575
O3 O2 O4 50.72(6) 4_575 4_575
O3 O2 O4 121.50(8) . 4_575
O5 O2 O4 135.84(8) 4_575 4_575
O1 O2 O4 154.42(8) . 4_575
O1 O2 O4 97.27(7) 3_565 4_575
O1 O2 O4 48.15(6) 4_575 4_575
As1 O2 O4 29.67(4) 4_575 4_575
O5 O2 O4 105.58(7) 2_545 4_575
Cu2 O2 O4 91.04(6) . 4_575
As1 O2 O7 81.80(8) . 4_575
Cu1 O2 O7 59.91(6) 4_575 4_575
Na1 O2 O7 150.30(8) . 4_575
O4 O2 O7 104.32(8) . 4_575
O3 O2 O7 85.72(7) 4_575 4_575
O3 O2 O7 47.50(6) . 4_575
O5 O2 O7 48.13(5) 4_575 4_575
O1 O2 O7 94.57(7) . 4_575
O1 O2 O7 105.62(7) 3_565 4_575
O1 O2 O7 54.02(5) 4_575 4_575
As1 O2 O7 78.42(5) 4_575 4_575
O5 O2 O7 150.26(7) 2_545 4_575
Cu2 O2 O7 30.49(3) . 4_575
O4 O2 O7 102.17(7) 4_575 4_575
As1 O3 Cu2 122.57(10) . .
As1 O3 Cu1 117.85(9) . .
Cu2 O3 Cu1 118.87(9) . .
As1 O3 O1 159.41(10) . 2
Cu2 O3 O1 72.11(7) . 2
Cu1 O3 O1 53.04(6) . 2
As1 O3 O4 38.04(6) . .
Cu2 O3 O4 111.44(9) . .
Cu1 O3 O4 121.37(9) . .
O1 O3 O4 126.35(9) 2 .
As1 O3 Na1 106.83(8) . 4_576
Cu2 O3 Na1 89.03(7) . 4_576
Cu1 O3 Na1 82.12(7) . 4_576
O1 O3 Na1 56.12(6) 2 4_576
O4 O3 Na1 70.26(7) . 4_576
As1 O3 O7 107.91(9) . 2
Cu2 O3 O7 44.18(5) . 2
Cu1 O3 O7 122.05(9) . 2
O1 O3 O7 71.55(8) 2 2
O4 O3 O7 76.93(8) . 2
Na1 O3 O7 50.79(6) 4_576 2
As1 O3 O2 93.43(8) . 4_576
Cu2 O3 O2 133.63(9) . 4_576
Cu1 O3 O2 45.77(5) . 4_576
O1 O3 O2 67.00(7) 2 4_576
O4 O3 O2 78.07(8) . 4_576
Na1 O3 O2 50.11(6) 4_576 4_576
O7 O3 O2 100.90(8) 2 4_576
As1 O3 O1 34.26(5) . .
Cu2 O3 O1 153.51(9) . .
Cu1 O3 O1 83.91(7) . .
O1 O3 O1 134.09(7) 2 .
O4 O3 O1 59.67(7) . .
Na1 O3 O1 108.60(8) 4_576 .
O7 O3 O1 136.60(9) 2 .
O2 O3 O1 71.51(7) 4_576 .
As1 O3 O2 34.64(6) . .
Cu2 O3 O2 91.51(8) . .
Cu1 O3 O2 140.60(9) . .
O1 O3 O2 163.62(9) 2 .
O4 O3 O2 59.31(7) . .
Na1 O3 O2 125.77(8) 4_576 .
O7 O3 O2 97.09(8) 2 .
O2 O3 O2 128.06(8) 4_576 .
O1 O3 O2 62.23(7) . .
As1 O3 O7 117.86(10) . 4_575
Cu2 O3 O7 43.65(5) . 4_575
Cu1 O3 O7 99.59(8) . 4_575
O1 O3 O7 82.71(8) 2 4_575
O4 O3 O7 138.42(9) . 4_575
Na1 O3 O7 127.02(8) 4_576 4_575
O7 O3 O7 87.83(7) 2 4_575
O2 O3 O7 143.33(9) 4_576 4_575
O1 O3 O7 124.31(9) . 4_575
O2 O3 O7 85.16(8) . 4_575
As1 O3 O6 116.91(9) . 4_575
Cu2 O3 O6 97.86(8) . 4_575
Cu1 O3 O6 43.90(5) . 4_575
O1 O3 O6 70.91(7) 2 4_575
O4 O3 O6 149.16(9) . 4_575
Na1 O3 O6 121.30(8) 4_576 4_575
O7 O3 O6 133.42(9) 2 4_575
O2 O3 O6 88.83(8) 4_576 4_575
O1 O3 O6 89.78(8) . 4_575
O2 O3 O6 112.31(8) . 4_575
O7 O3 O6 61.00(7) 4_575 4_575
As1 O3 As2 105.55(8) . 4_575
Cu2 O3 As2 78.15(6) . 4_575
Cu1 O3 As2 78.07(6) . 4_575
O1 O3 As2 91.06(7) 2 4_575
O4 O3 As2 142.58(8) . 4_575
Na1 O3 As2 147.15(7) 4_576 4_575
O7 O3 As2 122.26(7) 2 4_575
O2 O3 As2 122.53(8) 4_576 4_575
O1 O3 As2 95.12(7) . 4_575
O2 O3 As2 85.12(7) . 4_575
O7 O3 As2 34.61(4) 4_575 4_575
O6 O3 As2 34.17(4) 4_575 4_575
As1 O3 O5 73.10(7) . 4_575
Cu2 O3 O5 96.74(8) . 4_575
Cu1 O3 O5 91.85(7) . 4_575
O1 O3 O5 122.28(8) 2 4_575
O4 O3 O5 110.67(8) . 4_575
Na1 O3 O5 173.16(8) 4_576 4_575
O7 O3 O5 135.98(8) 2 4_575
O2 O3 O5 123.11(8) 4_576 4_575
O1 O3 O5 67.33(7) . 4_575
O2 O3 O5 57.97(6) . 4_575
O7 O3 O5 57.05(7) 4_575 4_575
O6 O3 O5 54.38(6) 4_575 4_575
As2 O3 O5 32.48(4) 4_575 4_575
As1 O3 Cu1 60.11(6) . 4_575
Cu2 O3 Cu1 81.62(6) . 4_575
Cu1 O3 Cu1 123.60(7) . 4_575
O1 O3 Cu1 140.26(7) 2 4_575
O4 O3 Cu1 90.62(7) . 4_575
Na1 O3 Cu1 154.01(7) 4_576 4_575
O7 O3 Cu1 108.96(7) 2 4_575
O2 O3 Cu1 144.74(7) 4_576 4_575
O1 O3 Cu1 73.95(6) . 4_575
O2 O3 Cu1 31.42(4) . 4_575
O7 O3 Cu1 57.93(6) 4_575 4_575
O6 O3 Cu1 84.15(6) 4_575 4_575
As2 O3 Cu1 53.97(4) 4_575 4_575
O5 O3 Cu1 31.76(4) 4_575 4_575
As1 O4 O8 129.29(12) . 4_675
As1 O4 O2 36.23(6) . .
O8 O4 O2 95.36(9) 4_675 .
As1 O4 O1 35.29(6) . .
O8 O4 O1 155.40(11) 4_675 .
O2 O4 O1 63.12(7) . .
As1 O4 O3 37.28(6) . .
O8 O4 O3 121.22(10) 4_675 .
O2 O4 O3 60.96(7) . .
O1 O4 O3 60.57(7) . .
As1 O4 O9 120.42(12) . 3_665
O8 O4 O9 87.63(9) 4_675 3_665
O2 O4 O9 114.44(10) . 3_665
O1 O4 O9 90.77(9) . 3_665
O3 O4 O9 150.49(10) . 3_665
As1 O4 Na1 91.14(9) . 4_576
O8 O4 Na1 101.11(9) 4_675 4_576
O2 O4 Na1 113.09(8) . 4_576
O1 O4 Na1 98.56(8) . 4_576
O3 O4 Na1 55.06(6) . 4_576
O9 O4 Na1 130.48(9) 3_665 4_576
As1 O4 O7 83.79(8) . 2
O8 O4 O7 74.49(8) 4_675 2
O2 O4 O7 83.97(8) . 2
O1 O4 O7 112.30(8) . 2
O3 O4 O7 51.72(6) . 2
O9 O4 O7 155.77(9) 3_665 2
Na1 O4 O7 41.85(5) 4_576 2
As1 O4 O9 131.81(11) . 4_576
O8 O4 O9 67.97(8) 4_675 4_576
O2 O4 O9 138.60(10) . 4_576
O1 O4 O9 135.98(10) . 4_576
O3 O4 O9 94.56(9) . 4_576
O9 O4 O9 102.85(6) 3_665 4_576
Na1 O4 O9 41.80(5) 4_576 4_576
O7 O4 O9 55.53(6) 2 4_576
As1 O4 O2 71.09(8) . 4_576
O8 O4 O2 141.28(10) 4_675 4_576
O2 O4 O2 106.31(8) . 4_576
O1 O4 O2 61.39(7) . 4_576
O3 O4 O2 51.21(6) . 4_576
O9 O4 O2 110.78(9) 3_665 4_576
Na1 O4 O2 40.95(5) 4_576 4_576
O7 O4 O2 76.31(6) 2 4_576
O9 O4 O2 74.68(7) 4_576 4_576
As1 O4 O8 128.15(11) . 1_655
O8 O4 O8 102.43(8) 4_675 1_655
O2 O4 O8 154.73(10) . 1_655
O1 O4 O8 95.06(8) . 1_655
O3 O4 O8 121.20(9) . 1_655
O9 O4 O8 49.55(7) 3_665 1_655
Na1 O4 O8 81.11(6) 4_576 1_655
O7 O4 O8 117.88(8) 2 1_655
O9 O4 O8 65.87(7) 4_576 1_655
O2 O4 O8 70.00(6) 4_576 1_655
As1 O4 O6 175.69(11) . 4_675
O8 O4 O6 47.58(6) 4_675 4_675
O2 O4 O6 141.86(9) . 4_675
O1 O4 O6 148.89(9) . 4_675
O3 O4 O6 139.82(9) . 4_675
O9 O4 O6 63.55(7) 3_665 4_675
Na1 O4 O6 86.93(6) 4_576 4_675
O7 O4 O6 92.21(7) 2 4_675
O9 O4 O6 45.67(6) 4_576 4_675
O2 O4 O6 109.58(7) 4_576 4_675
O8 O4 O6 55.33(6) 1_655 4_675
As1 O4 As2 151.85(10) . 4_675
O8 O4 As2 23.70(5) 4_675 4_675
O2 O4 As2 116.03(8) . 4_675
O1 O4 As2 157.96(9) . 4_675
O3 O4 As2 140.25(8) . 4_675
O9 O4 As2 69.16(6) 3_665 4_675
Na1 O4 As2 101.44(6) 4_576 4_675
O7 O4 As2 88.95(6) 2 4_675
O9 O4 As2 60.81(5) 4_576 4_675
O2 O4 As2 133.27(7) 4_576 4_675
O8 O4 As2 79.08(6) 1_655 4_675
O6 O4 As2 25.83(3) 4_675 4_675
As1 O4 Cu2 54.77(6) . .
O8 O4 Cu2 93.08(7) 4_675 .
O2 O4 Cu2 59.30(6) . .
O1 O4 Cu2 85.99(6) . .
O3 O4 Cu2 28.15(4) . .
O9 O4 Cu2 173.74(9) 3_665 .
Na1 O4 Cu2 55.46(4) 4_576 .
O7 O4 Cu2 29.21(3) 2 .
O9 O4 Cu2 83.16(6) 4_576 .
O2 O4 Cu2 72.29(5) 4_576 .
O8 O4 Cu2 136.06(8) 1_655 .
O6 O4 Cu2 121.12(7) 4_675 .
As2 O4 Cu2 113.05(6) 4_675 .
As1 O4 Na1 65.30(7) . .
O8 O4 Na1 79.26(7) 4_675 .
O2 O4 Na1 34.92(5) . .
O1 O4 Na1 76.18(7) . .
O3 O4 Na1 95.76(7) . .
O9 O4 Na1 82.88(8) 3_665 .
Na1 O4 Na1 146.58(7) 4_576 .
O7 O4 Na1 108.98(7) 2 .
O9 O4 Na1 146.28(8) 4_576 .
O2 O4 Na1 134.89(7) 4_576 .
O8 O4 Na1 131.86(8) 1_655 .
O6 O4 Na1 114.79(7) 4_675 .
As2 O4 Na1 91.83(6) 4_675 .
Cu2 O4 Na1 91.13(5) . .
As1 O4 H4 104(4) . .
O8 O4 H4 28(4) 4_675 .
O2 O4 H4 74(4) . .
O1 O4 H4 137(4) . .
O3 O4 H4 95(4) . .
O9 O4 H4 112(4) 3_665 .
Na1 O4 H4 94(4) 4_576 .
O7 O4 H4 56(4) 2 .
O9 O4 H4 76(4) 4_576 .
O2 O4 H4 132(4) 4_576 .
O8 O4 H4 128(4) 1_655 .
O6 O4 H4 73(4) 4_675 .
As2 O4 H4 51(4) 4_675 .
Cu2 O4 H4 67(4) . .
Na1 O4 H4 71(4) . .
As2 O5 Cu1 115.60(10) . .
As2 O5 Na1 112.05(9) . 2
Cu1 O5 Na1 129.61(9) . 2
As2 O5 O6 94.36(9) . 4_575
Cu1 O5 O6 46.45(6) . 4_575
Na1 O5 O6 143.16(9) 2 4_575
As2 O5 O6 35.91(6) . .
Cu1 O5 O6 143.01(10) . .
Na1 O5 O6 77.24(7) 2 .
O6 O5 O6 129.43(8) 4_575 .
As2 O5 O8 35.68(6) . .
Cu1 O5 O8 115.37(9) . .
Na1 O5 O8 112.59(9) 2 .
O6 O5 O8 74.39(8) 4_575 .
O6 O5 O8 58.55(7) . .
As2 O5 O7 33.19(6) . .
Cu1 O5 O7 83.73(7) . .
Na1 O5 O7 137.14(9) 2 .
O6 O5 O7 78.21(8) 4_575 .
O6 O5 O7 62.03(7) . .
O8 O5 O7 57.31(7) . .
As2 O5 O2 112.00(9) . 4_576
Cu1 O5 O2 43.75(6) . 4_576
Na1 O5 O2 103.01(8) 2 4_576
O6 O5 O2 89.34(8) 4_575 4_576
O6 O5 O2 113.53(9) . 4_576
O8 O5 O2 138.99(9) . 4_576
O7 O5 O2 82.88(7) . 4_576
As2 O5 As1 98.81(8) . 4_576
Cu1 O5 As1 76.24(6) . 4_576
Na1 O5 As1 81.38(6) 2 4_576
O6 O5 As1 120.74(8) 4_575 4_576
O6 O5 As1 85.29(7) . 4_576
O8 O5 As1 134.44(8) . 4_576
O7 O5 As1 82.50(6) . 4_576
O2 O5 As1 32.56(4) 4_576 4_576
As2 O5 O3 66.55(7) . 4_576
Cu1 O5 O3 91.93(8) . 4_576
Na1 O5 O3 92.39(8) 2 4_576
O6 O5 O3 122.37(9) 4_575 4_576
O6 O5 O3 58.22(6) . 4_576
O8 O5 O3 102.23(8) . 4_576
O7 O5 O3 55.83(6) . 4_576
O2 O5 O3 55.35(6) 4_576 4_576
As1 O5 O3 32.29(4) 4_576 4_576
As2 O5 O1 110.62(9) . 4_576
Cu1 O5 O1 95.94(8) . 4_576
Na1 O5 O1 51.40(6) 2 4_576
O6 O5 O1 141.97(9) 4_575 4_576
O6 O5 O1 82.38(7) . 4_576
O8 O5 O1 140.92(9) . 4_576
O7 O5 O1 107.23(7) . 4_576
O2 O5 O1 55.29(6) 4_576 4_576
As1 O5 O1 30.12(4) 4_576 4_576
O3 O5 O1 51.44(6) 4_576 4_576
As2 O5 O1 154.39(10) . 2
Cu1 O5 O1 39.75(5) . 2
Na1 O5 O1 93.52(7) 2 2
O6 O5 O1 63.71(7) 4_575 2
O6 O5 O1 166.12(9) . 2
O8 O5 O1 135.29(9) . 2
O7 O5 O1 123.48(8) . 2
O2 O5 O1 58.00(6) 4_576 2
As1 O5 O1 83.07(6) 4_576 2
O3 O5 O1 112.66(7) 4_576 2
O1 O5 O1 83.76(7) 4_576 2
As2 O5 O2 155.08(10) . 2
Cu1 O5 O2 87.28(7) . 2
Na1 O5 O2 43.35(5) 2 2
O6 O5 O2 109.29(8) 4_575 2
O6 O5 O2 119.29(8) . 2
O8 O5 O2 143.76(8) . 2
O7 O5 O2 158.29(8) . 2
O2 O5 O2 77.00(7) 4_576 2
As1 O5 O2 76.17(5) 4_576 2
O3 O5 O2 104.97(7) 4_576 2
O1 O5 O2 54.09(5) 4_576 2
O1 O5 O2 50.26(5) 2 2
As2 O5 O9 87.65(8) . 2
Cu1 O5 O9 151.08(9) . 2
Na1 O5 O9 41.81(6) 2 2
O6 O5 O9 119.07(8) 4_575 2
O6 O5 O9 65.71(7) . 2
O8 O5 O9 73.03(7) . 2
O7 O5 O9 120.83(8) . 2
O2 O5 O9 144.82(8) 4_576 2
As1 O5 O9 118.98(7) 4_576 2
O3 O5 O9 114.00(8) 4_576 2
O1 O5 O9 91.05(7) 4_576 2
O1 O5 O9 113.96(8) 2 2
O2 O5 O9 74.26(6) 2 2
As2 O5 O9 107.34(9) . 4_476
Cu1 O5 O9 84.30(7) . 4_476
Na1 O5 O9 96.67(8) 2 4_476
O6 O5 O9 49.51(7) 4_575 4_476
O6 O5 O9 121.41(8) . 4_476
O8 O5 O9 71.87(7) . 4_476
O7 O5 O9 115.03(8) . 4_476
O2 O5 O9 124.41(8) 4_576 4_476
As1 O5 O9 152.34(7) 4_576 4_476
O3 O5 O9 170.58(8) 4_576 4_476
O1 O5 O9 137.46(8) 4_576 4_476
O1 O5 O9 69.46(7) 2 4_476
O2 O5 O9 83.53(7) 2 4_476
O9 O5 O9 71.86(7) 2 4_476
As2 O6 Cu1 119.04(10) . 4_576
As2 O6 O8 38.49(6) . .
Cu1 O6 O8 155.93(10) 4_576 .
As2 O6 O5 164.47(11) . 4_576
Cu1 O6 O5 45.88(6) 4_576 4_576
O8 O6 O5 157.04(10) . 4_576
As2 O6 O5 35.93(6) . .
Cu1 O6 O5 104.83(9) 4_576 .
O8 O6 O5 62.11(7) . .
O5 O6 O5 134.93(9) 4_576 .
As2 O6 O9 110.60(11) . 1_456
Cu1 O6 O9 110.53(9) 4_576 1_456
O8 O6 O9 79.73(9) . 1_456
O5 O6 O9 81.90(8) 4_576 1_456
O5 O6 O9 141.84(10) . 1_456
As2 O6 O3 73.74(8) . 4_576
Cu1 O6 O3 45.30(5) 4_576 4_576
O8 O6 O3 111.58(9) . 4_576
O5 O6 O3 91.04(8) 4_576 4_576
O5 O6 O3 67.40(7) . 4_576
O9 O6 O3 132.84(10) 1_456 4_576
As2 O6 O7 31.94(6) . .
Cu1 O6 O7 98.31(8) 4_576 .
O8 O6 O7 57.89(7) . .
O5 O6 O7 139.72(9) 4_576 .
O5 O6 O7 60.60(7) . .
O9 O6 O7 99.75(9) 1_456 .
O3 O6 O7 58.28(7) 4_576 .
As2 O6 Na1 82.58(7) . 2
Cu1 O6 Na1 89.31(7) 4_576 2
O8 O6 Na1 94.25(7) . 2
O5 O6 Na1 92.54(7) 4_576 2
O5 O6 Na1 47.43(5) . 2
O9 O6 Na1 144.02(9) 1_456 2
O3 O6 Na1 82.51(6) 4_576 2
O7 O6 Na1 106.91(7) . 2
As2 O6 O1 104.32(9) . 3_566
Cu1 O6 O1 42.18(5) 4_576 3_566
O8 O6 O1 123.00(9) . 3_566
O5 O6 O1 67.33(7) 4_576 3_566
O5 O6 O1 117.49(8) . 3_566
O9 O6 O1 82.01(8) 1_456 3_566
O3 O6 O1 52.82(6) 4_576 3_566
O7 O6 O1 73.03(7) . 3_566
Na1 O6 O1 128.49(7) 2 3_566
As2 O6 As2 150.29(10) . 4_576
Cu1 O6 As2 65.87(6) 4_576 4_576
O8 O6 As2 137.11(8) . 4_576
O5 O6 As2 30.47(4) 4_576 4_576
O5 O6 As2 115.19(8) . 4_576
O9 O6 As2 92.47(8) 1_456 4_576
O3 O6 As2 104.54(7) 4_576 4_576
O7 O6 As2 162.83(8) . 4_576
Na1 O6 As2 67.92(4) 2 4_576
O1 O6 As2 97.01(6) 3_566 4_576
As2 O6 O8 136.43(10) . 4_576
Cu1 O6 O8 95.68(8) 4_576 4_576
O8 O6 O8 108.05(8) . 4_576
O5 O6 O8 53.84(6) 4_576 4_576
O5 O6 O8 114.12(9) . 4_576
O9 O6 O8 76.59(8) 1_456 4_576
O3 O6 O8 133.78(8) 4_576 4_576
O7 O6 O8 165.93(9) . 4_576
Na1 O6 O8 71.66(6) 2 4_576
O1 O6 O8 119.24(8) 3_566 4_576
As2 O6 O8 30.28(4) 4_576 4_576
As2 O6 O9 90.24(9) . 2
Cu1 O6 O9 120.59(9) 4_576 2
O8 O6 O9 75.41(8) . 2
O5 O6 O9 95.82(8) 4_576 2
O5 O6 O9 68.67(7) . 2
O9 O6 O9 103.61(6) 1_456 2
O3 O6 O9 123.52(8) 4_576 2
O7 O6 O9 122.18(8) . 2
Na1 O6 O9 41.31(5) 2 2
O1 O6 O9 161.59(8) 3_566 2
As2 O6 O9 65.53(6) 4_576 2
O8 O6 O9 47.49(6) 4_576 2
As2 O6 O7 123.02(10) . 4_576
Cu1 O6 O7 66.26(6) 4_576 4_576
O8 O6 O7 128.72(9) . 4_576
O5 O6 O7 52.09(6) 4_576 4_576
O5 O6 O7 87.19(7) . 4_576
O9 O6 O7 119.78(9) 1_456 4_576
O3 O6 O7 89.47(7) 4_576 4_576
O7 O6 O7 140.33(9) . 4_576
Na1 O6 O7 40.83(4) 2 4_576
O1 O6 O7 107.20(7) 3_566 4_576
As2 O6 O7 28.49(3) 4_576 4_576
O8 O6 O7 46.34(5) 4_576 4_576
O9 O6 O7 54.68(6) 2 4_576
As2 O6 O4 83.39(8) . 4_476
Cu1 O6 O4 156.31(9) 4_576 4_476
O8 O6 O4 47.75(6) . 4_476
O5 O6 O4 111.09(8) 4_576 4_476
O5 O6 O4 88.96(7) . 4_476
O9 O6 O4 63.58(7) 1_456 4_476
O3 O6 O4 155.51(8) 4_576 4_476
O7 O6 O4 105.27(8) . 4_476
Na1 O6 O4 86.03(6) 2 4_476
O1 O6 O4 145.01(8) 3_566 4_476
As2 O6 O4 90.93(6) 4_576 4_476
O8 O6 O4 60.82(6) 4_576 4_476
O9 O6 O4 46.53(6) 2 4_476
O7 O6 O4 95.89(7) 4_576 4_476
As2 O7 Cu2 121.37(10) . 2_545
As2 O7 Na1 128.44(11) . 3_565
Cu2 O7 Na1 103.42(9) 2_545 3_565
As2 O7 O8 38.75(6) . .
Cu2 O7 O8 157.60(10) 2_545 .
Na1 O7 O8 98.95(9) 3_565 .
As2 O7 O3 166.71(11) . 2_545
Cu2 O7 O3 46.37(5) 2_545 2_545
Na1 O7 O3 64.56(7) 3_565 2_545
O8 O7 O3 151.29(10) . 2_545
As2 O7 O3 75.80(7) . 4_576
Cu2 O7 O3 45.80(6) 2_545 4_576
Na1 O7 O3 138.23(9) 3_565 4_576
O8 O7 O3 114.06(9) . 4_576
O3 O7 O3 92.17(7) 2_545 4_576
As2 O7 O5 33.15(6) . .
Cu2 O7 O5 108.15(9) 2_545 .
Na1 O7 O5 112.68(9) 3_565 .
O8 O7 O5 61.00(7) . .
O3 O7 O5 145.77(9) 2_545 .
O3 O7 O5 67.12(7) 4_576 .
As2 O7 O6 31.89(6) . .
Cu2 O7 O6 99.43(9) 2_545 .
Na1 O7 O6 157.09(9) 3_565 .
O8 O7 O6 58.17(7) . .
O3 O7 O6 136.24(9) 2_545 .
O3 O7 O6 60.72(7) 4_576 .
O5 O7 O6 57.37(6) . .
As2 O7 O9 92.18(9) . 3_565
Cu2 O7 O9 146.45(9) 2_545 3_565
Na1 O7 O9 47.69(6) 3_565 3_565
O8 O7 O9 54.73(7) . 3_565
O3 O7 O9 100.22(8) 2_545 3_565
O3 O7 O9 167.12(9) 4_576 3_565
O5 O7 O9 100.28(8) . 3_565
O6 O7 O9 110.92(8) . 3_565
As2 O7 O1 129.09(10) . .
Cu2 O7 O1 61.47(6) 2_545 .
Na1 O7 O1 52.57(6) 3_565 .
O8 O7 O1 135.44(9) . .
O3 O7 O1 53.89(6) 2_545 .
O3 O7 O1 85.66(7) 4_576 .
O5 O7 O1 95.97(7) . .
O6 O7 O1 142.46(9) . .
O9 O7 O1 98.75(8) 3_565 .
As2 O7 Cu1 69.15(7) . .
Cu2 O7 Cu1 96.33(7) 2_545 .
Na1 O7 Cu1 82.71(7) 3_565 .
O8 O7 Cu1 85.22(7) . .
O3 O7 Cu1 113.82(7) 2_545 .
O3 O7 Cu1 75.65(6) 4_576 .
O5 O7 Cu1 36.76(5) . .
O6 O7 Cu1 93.21(7) . .
O9 O7 Cu1 95.93(7) 3_565 .
O1 O7 Cu1 60.37(5) . .
As2 O7 O4 133.40(10) . 2_545
Cu2 O7 O4 90.47(7) 2_545 2_545
Na1 O7 O4 63.24(6) 3_565 2_545
O8 O7 O4 100.76(8) . 2_545
O3 O7 O4 51.34(6) 2_545 2_545
O3 O7 O4 129.06(8) 4_576 2_545
O5 O7 O4 161.25(8) . 2_545
O6 O7 O4 118.61(8) . 2_545
O9 O7 O4 62.90(6) 3_565 2_545
O1 O7 O4 94.90(7) . 2_545
Cu1 O7 O4 145.91(7) . 2_545
As2 O7 O6 69.54(7) . 4_575
Cu2 O7 O6 126.27(9) 2_545 4_575
Na1 O7 O6 63.53(6) 3_565 4_575
O8 O7 O6 63.76(7) . 4_575
O3 O7 O6 120.61(8) 2_545 4_575
O3 O7 O6 108.21(8) 4_576 4_575
O5 O7 O6 49.69(6) . 4_575
O6 O7 O6 101.20(6) . 4_575
O9 O7 O6 62.32(7) 3_565 4_575
O1 O7 O6 72.29(6) . 4_575
Cu1 O7 O6 33.81(4) . 4_575
O4 O7 O6 120.45(7) 2_545 4_575
As2 O7 O1 89.63(8) . 3_566
Cu2 O7 O1 50.68(6) 2_545 3_566
Na1 O7 O1 141.24(8) 3_565 3_566
O8 O7 O1 110.32(8) . 3_566
O3 O7 O1 77.97(7) 2_545 3_566
O3 O7 O1 48.06(6) 4_576 3_566
O5 O7 O1 103.70(7) . 3_566
O6 O7 O1 58.30(6) . 3_566
O9 O7 O1 138.12(9) 3_565 3_566
O1 O7 O1 112.15(6) . 3_566
Cu1 O7 O1 123.47(6) . 3_566
O4 O7 O1 86.19(7) 2_545 3_566
O6 O7 O1 153.07(7) 4_575 3_566
As2 O7 As1 151.42(10) . 2_545
Cu2 O7 As1 62.40(5) 2_545 2_545
Na1 O7 As1 70.57(5) 3_565 2_545
O8 O7 As1 128.09(8) . 2_545
O3 O7 As1 26.45(4) 2_545 2_545
O3 O7 As1 104.31(7) 4_576 2_545
O5 O7 As1 170.50(7) . 2_545
O6 O7 As1 122.97(8) . 2_545
O9 O7 As1 88.45(6) 3_565 2_545
O1 O7 As1 78.86(5) . 2_545
Cu1 O7 As1 139.20(6) . 2_545
O4 O7 As1 28.25(4) 2_545 2_545
O6 O7 As1 134.06(6) 4_575 2_545
O1 O7 As1 71.44(5) 3_566 2_545
As2 O8 O7 37.37(6) . .
As2 O8 O6 37.06(6) . .
O7 O8 O6 63.94(7) . .
As2 O8 O4 117.47(11) . 4_476
O7 O8 O4 147.66(11) . 4_476
O6 O8 O4 84.67(9) . 4_476
As2 O8 O9 107.92(10) . 3_565
O7 O8 O9 72.09(8) . 3_565
O6 O8 O9 132.85(10) . 3_565
O4 O8 O9 133.53(10) 4_476 3_565
As2 O8 O5 34.40(6) . .
O7 O8 O5 61.69(7) . .
O6 O8 O5 59.33(7) . .
O4 O8 O5 109.90(10) 4_476 .
O9 O8 O5 113.07(10) 3_565 .
As2 O8 O6 73.86(8) . 4_575
O7 O8 O6 69.90(7) . 4_575
O6 O8 O6 108.79(8) . 4_575
O4 O8 O6 132.12(10) 4_476 4_575
O9 O8 O6 68.83(8) 3_565 4_575
O5 O8 O6 51.77(6) . 4_575
As2 O8 O9 82.62(9) . 1_456
O7 O8 O9 86.77(8) . 1_456
O6 O8 O9 50.88(7) . 1_456
O4 O8 O9 66.21(8) 4_476 1_456
O9 O8 O9 112.60(9) 3_565 1_456
O5 O8 O9 110.22(8) . 1_456
O6 O8 O9 155.25(8) 4_575 1_456
As2 O8 O8 96.44(10) . 3_466
O7 O8 O8 72.80(8) . 3_466
O6 O8 O8 84.44(9) . 3_466
O4 O8 O8 97.81(10) 4_476 3_466
O9 O8 O8 66.58(8) 3_565 3_466
O5 O8 O8 130.46(10) . 3_466
O6 O8 O8 128.40(10) 4_575 3_466
O9 O8 O8 46.03(7) 1_456 3_466
As2 O8 O4 137.20(11) . 1_455
O7 O8 O4 115.76(9) . 1_455
O6 O8 O4 170.88(10) . 1_455
O4 O8 O4 96.48(8) 4_476 1_455
O9 O8 O4 51.29(7) 3_565 1_455
O5 O8 O4 112.01(9) . 1_455
O6 O8 O4 63.84(6) 4_575 1_455
O9 O8 O4 137.68(8) 1_456 1_455
O8 O8 O4 104.32(9) 3_466 1_455
As2 O8 O7 132.56(10) . 3_466
O7 O8 O7 116.13(8) . 3_466
O6 O8 O7 102.98(8) . 3_466
O4 O8 O7 61.37(7) 4_476 3_466
O9 O8 O7 81.22(8) 3_565 3_466
O5 O8 O7 161.91(9) . 3_466
O6 O8 O7 146.17(8) 4_575 3_466
O9 O8 O7 52.26(6) 1_456 3_466
O8 O8 O7 43.34(5) 3_466 3_466
O4 O8 O7 85.42(6) 1_455 3_466
As2 O8 O9 98.01(9) . 4_476
O7 O8 O9 112.00(9) . 4_476
O6 O8 O9 115.18(8) . 4_476
O4 O8 O9 87.48(8) 4_476 4_476
O9 O8 O9 95.96(7) 3_565 4_476
O5 O8 O9 63.80(7) . 4_476
O6 O8 O9 44.87(6) 4_575 4_476
O9 O8 O9 149.88(9) 1_456 4_476
O8 O8 O9 160.16(10) 3_466 4_476
O4 O8 O9 55.95(6) 1_455 4_476
O7 O8 O9 127.94(7) 3_466 4_476
As2 O8 O9 78.24(8) . 2
O7 O8 O9 115.61(8) . 2
O6 O8 O9 61.49(7) . 2
O4 O8 O9 47.34(7) 4_476 2
O9 O8 O9 162.42(10) 3_565 2
O5 O8 O9 62.57(7) . 2
O6 O8 O9 98.17(8) 4_575 2
O9 O8 O9 84.23(5) 1_456 2
O8 O8 O9 130.04(10) 3_466 2
O4 O8 O9 112.93(8) 1_455 2
O7 O8 O9 107.10(7) 3_466 2
O9 O8 O9 66.64(7) 4_476 2
As2 O8 Na1 70.45(7) . 3_565
O7 O8 Na1 37.29(5) . 3_565
O6 O8 Na1 101.22(7) . 3_565
O4 O8 Na1 170.77(9) 4_476 3_565
O9 O8 Na1 37.80(6) 3_565 3_565
O5 O8 Na1 79.29(6) . 3_565
O6 O8 Na1 52.85(5) 4_575 3_565
O9 O8 Na1 112.00(7) 1_456 3_565
O8 O8 Na1 75.90(7) 3_466 3_565
O4 O8 Na1 78.84(6) 1_455 3_565
O7 O8 Na1 110.04(6) 3_466 3_565
O9 O8 Na1 96.27(7) 4_476 3_565
O9 O8 Na1 141.83(7) 2 3_565
As2 O8 O2 150.37(10) . 4_476
O7 O8 O2 169.66(9) . 4_476
O6 O8 O2 126.40(8) . 4_476
O4 O8 O2 42.47(6) 4_476 4_476
O9 O8 O2 98.14(8) 3_565 4_476
O5 O8 O2 121.44(8) . 4_476
O6 O8 O2 103.81(7) 4_575 4_476
O9 O8 O2 100.44(7) 1_456 4_476
O8 O8 O2 106.89(8) 3_466 4_476
O4 O8 O2 54.01(6) 1_455 4_476
O7 O8 O2 64.29(5) 3_466 4_476
O9 O8 O2 64.77(6) 4_476 4_476
O9 O8 O2 72.83(6) 2 4_476
Na1 O8 O2 132.37(7) 3_565 4_476
As2 O8 H8 96(3) . .
O7 O8 H8 60(3) . .
O6 O8 H8 121(3) . .
O4 O8 H8 144(3) 4_476 .
O9 O8 H8 12(3) 3_565 .
O5 O8 H8 105(4) . .
O6 O8 H8 67(4) 4_575 .
O9 O8 H8 109(4) 1_456 .
O8 O8 H8 64(4) 3_466 .
O4 O8 H8 62(3) 1_455 .
O7 O8 H8 87(4) 3_466 .
O9 O8 H8 101(4) 4_476 .
O9 O8 H8 165(4) 2 .
Na1 O8 H8 27(3) 3_565 .
O2 O8 H8 110(3) 4_476 .
Na1 O9 O8 97.08(9) . 3_565
Na1 O9 O6 131.82(11) . 1_654
O8 O9 O6 100.25(10) 3_565 1_654
Na1 O9 O4 129.48(11) . 3_665
O8 O9 O4 79.16(9) 3_565 3_665
O6 O9 O4 97.92(9) 1_654 3_665
Na1 O9 O7 47.25(6) . 3_565
O8 O9 O7 53.19(7) 3_565 3_565
O6 O9 O7 117.02(10) 1_654 3_565
O4 O9 O7 123.46(10) 3_665 3_565
Na1 O9 O4 62.35(7) . 4_575
O8 O9 O4 98.65(9) 3_565 4_575
O6 O9 O4 70.75(8) 1_654 4_575
O4 O9 O4 168.03(9) 3_665 4_575
O7 O9 O4 61.57(7) 3_565 4_575
Na1 O9 O6 63.83(7) . 2_545
O8 O9 O6 63.67(7) 3_565 2_545
O6 O9 O6 160.86(10) 1_654 2_545
O4 O9 O6 69.91(7) 3_665 2_545
O7 O9 O6 63.01(6) 3_565 2_545
O4 O9 O6 119.87(8) 4_575 2_545
Na1 O9 O8 99.34(9) . 1_654
O8 O9 O8 67.40(9) 3_565 1_654
O6 O9 O8 49.39(7) 1_654 1_654
O4 O9 O8 123.77(10) 3_665 1_654
O7 O9 O8 67.84(7) 3_565 1_654
O4 O9 O8 45.82(6) 4_575 1_654
O6 O9 O8 124.68(8) 2_545 1_654
Na1 O9 O5 43.18(6) . 2_545
O8 O9 O5 107.47(9) 3_565 2_545
O6 O9 O5 152.20(10) 1_654 2_545
O4 O9 O5 89.43(8) 3_665 2_545
O7 O9 O5 79.49(7) 3_565 2_545
O4 O9 O5 102.40(8) 4_575 2_545
O6 O9 O5 45.62(5) 2_545 2_545
O8 O9 O5 142.38(8) 1_654 2_545
Na1 O9 O5 125.76(10) . 4_675
O8 O9 O5 136.77(10) 3_565 4_675
O6 O9 O5 48.59(6) 1_654 4_675
O4 O9 O5 77.49(8) 3_665 4_675
O7 O9 O5 158.41(9) 3_565 4_675
O4 O9 O5 96.86(8) 4_575 4_675
O6 O9 O5 136.61(8) 2_545 4_675
O8 O9 O5 97.03(8) 1_654 4_675
O5 O9 O5 108.14(7) 2_545 4_675
Na1 O9 As2 70.61(7) . 3_565
O8 O9 As2 26.73(5) 3_565 3_565
O6 O9 As2 115.16(9) 1_654 3_565
O4 O9 As2 98.87(8) 3_665 3_565
O7 O9 As2 27.26(4) 3_565 3_565
O4 O9 As2 83.11(6) 4_575 3_565
O6 O9 As2 55.05(5) 2_545 3_565
O8 O9 As2 69.63(6) 1_654 3_565
O5 O9 As2 89.85(6) 2_545 3_565
O5 O9 As2 161.48(8) 4_675 3_565
Na1 O9 As2 125.05(9) . 1_654
O8 O9 As2 77.34(7) 3_565 1_654
O6 O9 As2 25.15(5) 1_654 1_654
O4 O9 As2 103.48(8) 3_665 1_654
O7 O9 As2 94.62(7) 3_565 1_654
O4 O9 As2 64.63(6) 4_575 1_654
O6 O9 As2 141.01(8) 2_545 1_654
O8 O9 As2 27.71(4) 1_654 1_654
O5 O9 As2 166.94(8) 2_545 1_654
O5 O9 As2 73.48(5) 4_675 1_654
As2 O9 As2 90.02(6) 3_565 1_654
Na1 O9 O8 86.63(8) . 4_675
O8 O9 O8 151.54(10) 3_565 4_675
O6 O9 O8 58.55(7) 1_654 4_675
O4 O9 O8 119.77(9) 3_665 4_675
O7 O9 O8 116.31(8) 3_565 4_675
O4 O9 O8 58.18(6) 4_575 4_675
O6 O9 O8 140.14(9) 2_545 4_675
O8 O9 O8 84.14(6) 1_654 4_675
O5 O9 O8 94.55(7) 2_545 4_675
O5 O9 O8 44.32(5) 4_675 4_675
As2 O9 O8 141.10(7) 3_565 4_675
As2 O9 O8 77.50(6) 1_654 4_675
Na1 O9 O8 86.04(8) . 2_545
O8 O9 O8 95.07(7) 3_565 2_545
O6 O9 O8 135.94(9) 1_654 2_545
O4 O9 O8 45.03(6) 3_665 2_545
O7 O9 O8 105.27(8) 3_565 2_545
O4 O9 O8 146.74(9) 4_575 2_545
O6 O9 O8 43.11(5) 2_545 2_545
O8 O9 O8 162.08(10) 1_654 2_545
O5 O9 O8 44.40(5) 2_545 2_545
O5 O9 O8 93.51(7) 4_675 2_545
As2 O9 O8 96.55(7) 3_565 2_545
As2 O9 O8 148.44(8) 1_654 2_545
O8 O9 O8 113.36(7) 4_675 2_545
Na1 O9 As2 61.62(6) . 2_545
O8 O9 As2 88.98(8) 3_565 2_545
O6 O9 As2 161.54(9) 1_654 2_545
O4 O9 As2 67.93(7) 3_665 2_545
O7 O9 As2 81.31(6) 3_565 2_545
O4 O9 As2 123.96(7) 4_575 2_545
O6 O9 As2 25.78(4) 2_545 2_545
O8 O9 As2 148.39(8) 1_654 2_545
O5 O9 As2 25.77(3) 2_545 2_545
O5 O9 As2 114.55(7) 4_675 2_545
As2 O9 As2 79.84(5) 3_565 2_545
As2 O9 As2 165.22(8) 1_654 2_545
O8 O9 As2 117.07(7) 4_675 2_545
O8 O9 As2 26.09(3) 2_545 2_545
Na1 O9 H1 125(3) . .
O8 O9 H1 105(3) 3_565 .
O6 O9 H1 7(3) 1_654 .
O4 O9 H1 104(3) 3_665 .
O7 O9 H1 115(3) 3_565 .
O4 O9 H1 65(3) 4_575 .
O6 O9 H1 167(3) 2_545 .
O8 O9 H1 49(3) 1_654 .
O5 O9 H1 147(3) 2_545 .
O5 O9 H1 48(3) 4_675 .
As2 O9 H1 117(3) 3_565 .
As2 O9 H1 28(3) 1_654 .
O8 O9 H1 52(3) 4_675 .
O8 O9 H1 139(3) 2_545 .
As2 O9 H1 163(3) 2_545 .
Na1 O9 H2 121(3) . .
O8 O9 H2 101(3) 3_565 .
O6 O9 H2 99(3) 1_654 .
O4 O9 H2 23(3) 3_665 .
O7 O9 H2 137(3) 3_565 .
O4 O9 H2 159(3) 4_575 .
O6 O9 H2 75(3) 2_545 .
O8 O9 H2 140(3) 1_654 .
O5 O9 H2 78(3) 2_545 .
O5 O9 H2 64(3) 4_675 .
As2 O9 H2 118(3) 3_565 .
As2 O9 H2 114(3) 1_654 .
O8 O9 H2 101(3) 4_675 .
O8 O9 H2 37(3) 2_545 .
As2 O9 H2 63(3) 2_545 .
H1 O9 H2 103(4) . .
loop_
_geom_bond_atom_site_label_1
_geom_bond_atom_site_label_2
_geom_bond_distance
_geom_bond_site_symmetry_2
As1 O1 1.6476(18) .
As1 O2 1.6675(19) .
As1 O3 1.7076(18) .
As1 O4 1.737(2) .
As1 O5 3.059(2) 4_575
As1 O2 3.320(2) 4_576
As1 O7 3.649(2) 2
As1 O5 3.690(2) 2_545
As1 O7 3.872(2) 4_575
As1 O6 3.919(2) 4_575
As1 O9 3.978(2) 3_665
As1 O2 3.983(2) 3_565
As2 O6 1.6750(19) .
As2 O5 1.6758(19) .
As2 O7 1.6776(18) .
As2 O8 1.730(2) .
As2 O3 2.8631(19) 4_576
As2 O6 3.296(2) 4_575
As2 Na1 3.4308(14) 2
As2 O9 3.660(3) 3_565
As2 O9 3.690(3) 1_456
As2 O2 3.805(2) 4_576
As2 O4 3.819(2) 4_476
As2 O9 3.852(2) 2
As2 H8 1.99(4) .
Cu1 O5 1.9493(19) .
Cu1 O6 1.968(2) 4_575
Cu1 O2 1.970(2) 4_576
Cu1 O3 2.0175(18) .
Cu1 O1 2.2060(19) 2
Cu1 Na1 3.1720(13) 4_576
Cu1 O1 3.233(2) .
Cu1 O7 3.238(2) .
Cu1 O7 3.687(2) 4_575
Cu1 O3 3.7018(19) 4_576
Cu1 O5 3.738(2) 4_575
Cu1 O2 3.825(2) 2
Cu2 O7 1.9108(18) 4_575
Cu2 O7 1.9108(18) 2
Cu2 O3 1.9844(17) .
Cu2 O3 1.9844(17) 3_575
Cu2 O1 2.8310(19) 4_575
Cu2 O1 2.8310(19) 2
Cu2 Na1 3.3557(15) 4_576
Cu2 Na1 3.3557(15) 2_554
Cu2 O2 3.442(2) .
Cu2 O2 3.442(2) 3_575
Cu2 O6 3.679(2) 4_575
Cu2 O6 3.679(2) 2
Na1 O2 2.324(2) .
Na1 O7 2.351(2) 3_565
Na1 O9 2.367(3) .
Na1 O5 2.430(2) 2_545
Na1 O1 2.568(2) 3_565
Na1 O3 2.740(2) 4_575
Na1 O4 3.146(3) 4_575
Na1 O6 3.218(2) 2_545
Na1 O8 3.832(2) 3_565
O1 O3 2.719(3) 2_545
O1 O4 2.725(3) .
O1 O3 2.750(3) .
O1 O2 2.847(3) .
O1 O2 3.017(3) 3_565
O1 O7 3.192(3) .
O1 O2 3.211(3) 4_576
O1 O6 3.225(3) 3_566
O1 O5 3.244(3) 4_575
O1 O5 3.319(3) 2_545
O2 O4 2.715(3) .
O2 O3 2.746(3) 4_575
O2 O3 2.761(3) .
O2 O5 2.845(3) 4_575
O2 O5 3.384(3) 2_545
O2 O4 3.447(3) 4_575
O2 O7 3.741(3) 4_575
O3 O4 2.727(3) .
O3 O7 2.742(3) 2
O3 O7 2.768(3) 4_575
O3 O6 2.838(3) 4_575
O3 O5 3.082(3) 4_575
O4 O8 2.699(3) 4_675
O4 O9 2.806(3) 3_665
O4 O7 3.402(3) 2
O4 O9 3.444(3) 4_576
O4 O8 3.532(3) 1_655
O4 O6 3.631(3) 4_675
O4 H4 0.819(10) .
O5 O6 2.713(3) 4_575
O5 O6 2.714(3) .
O5 O8 2.789(3) .
O5 O7 2.807(3) .
O5 O9 3.537(3) 2
O5 O9 3.581(3) 4_476
O6 O8 2.692(3) .
O6 O9 2.751(3) 1_456
O6 O7 2.846(3) .
O6 O8 3.327(3) 4_576
O6 O9 3.461(3) 2
O6 O7 3.483(3) 4_576
O7 O8 2.683(3) .
O7 O9 3.189(3) 3_565
O8 O9 2.736(3) 3_565
O8 O9 3.489(3) 1_456
O8 O8 3.510(4) 3_466
O8 O9 3.793(3) 4_476
O8 O9 3.812(3) 2
O8 H8 0.819(10) .
O9 H1 0.844(10) .
O9 H2 0.848(10) .
loop_
_geom_hbond_atom_site_label_D
_geom_hbond_atom_site_label_H
_geom_hbond_atom_site_label_A
_geom_hbond_distance_DH
_geom_hbond_distance_HA
_geom_hbond_distance_DA
_geom_hbond_angle_DHA
_geom_hbond_site_symmetry_A
_geom_hbond_publ_flag
O9 H1 O6 0.844(10) 1.916(13) 2.751(3) 170(4) 1_654 yes
O9 H2 O4 0.848(10) 2.05(2) 2.806(3) 148(4) 3_665 yes
O8 H8 O9 0.819(10) 1.944(17) 2.736(3) 163(5) 3_565 yes
O4 H4 O8 0.819(10) 2.01(4) 2.699(3) 141(5) 4_675 yes
