#------------------------------------------------------------------------------
#$Date: 2021-02-26 12:39:16 +0200 (Fri, 26 Feb 2021) $
#$Revision: 262262 $
#$URL: file:///home/coder/svn-repositories/cod/cif/1/56/06/1560694.cif $
#------------------------------------------------------------------------------
#
# This file is available in the Crystallography Open Database (COD),
# http://www.crystallography.net/
#
# All data on this site have been placed in the public domain by the
# contributors.
#
data_1560694
loop_
_publ_author_name
'Meundaeng, Natthaya'
'Rujiwatra, Apinpus'
'Prior, Timothy J.'
_publ_section_title
;
 Copper coordination polymers constructed from thiazole-5-carboxylic acid:
 Synthesis, crystal structures, and structural transformation
;
_journal_name_full               'Journal of Solid State Chemistry'
_journal_page_first              138
_journal_page_last               145
_journal_paper_doi               10.1016/j.jssc.2016.10.009
_journal_volume                  245
_journal_year                    2017
_chemical_formula_moiety
;
C4 H3 N O2 S
;
_chemical_formula_sum            'C4 H3 N O2 S'
_chemical_formula_weight         129.13
_space_group_crystal_system      orthorhombic
_space_group_IT_number           57
_space_group_name_Hall           '-P 2c 2b'
_space_group_name_H-M_alt        'P b c m'
_atom_sites_solution_hydrogens   mixed
_cell_angle_alpha                90
_cell_angle_beta                 90
_cell_angle_gamma                90
_cell_formula_units_Z            4
_cell_length_a                   6.780(2)
_cell_length_b                   12.082(5)
_cell_length_c                   6.403(3)
_cell_measurement_reflns_used    5736
_cell_measurement_temperature    150(2)
_cell_measurement_theta_max      29.25
_cell_measurement_theta_min      1.50
_cell_volume                     524.5(4)
_computing_cell_refinement       'Stoe X-AREA'
_computing_data_collection       'Stoe X-AREA'
_computing_structure_refinement  'SHELXL-2014/7 (Sheldrick, 2014)'
_diffrn_ambient_temperature      150(2)
_diffrn_detector_area_resol_mean 6.67
_diffrn_measured_fraction_theta_full 0.996
_diffrn_measured_fraction_theta_max 0.990
_diffrn_measurement_device_type  'Stoe IPDS2'
_diffrn_measurement_method       \w-scans
_diffrn_radiation_type           MoK\a
_diffrn_radiation_wavelength     0.71073
_diffrn_reflns_av_R_equivalents  0.1109
_diffrn_reflns_av_unetI/netI     0.0641
_diffrn_reflns_Laue_measured_fraction_full 0.996
_diffrn_reflns_Laue_measured_fraction_max 0.990
_diffrn_reflns_limit_h_max       9
_diffrn_reflns_limit_h_min       -8
_diffrn_reflns_limit_k_max       16
_diffrn_reflns_limit_k_min       -16
_diffrn_reflns_limit_l_max       5
_diffrn_reflns_limit_l_min       -8
_diffrn_reflns_number            2980
_diffrn_reflns_point_group_measured_fraction_full 0.996
_diffrn_reflns_point_group_measured_fraction_max 0.990
_diffrn_reflns_theta_full        26.000
_diffrn_reflns_theta_max         29.284
_diffrn_reflns_theta_min         3.004
_diffrn_source                   'fine-focus sealed tube'
_exptl_absorpt_coefficient_mu    0.507
_exptl_absorpt_correction_type   none
_exptl_crystal_colour            brown
_exptl_crystal_density_diffrn    1.635
_exptl_crystal_description       block
_exptl_crystal_F_000             264
_exptl_crystal_size_max          0.460
_exptl_crystal_size_mid          0.110
_exptl_crystal_size_min          0.100
_refine_diff_density_max         0.578
_refine_diff_density_min         -0.370
_refine_diff_density_rms         0.079
_refine_ls_extinction_coef       .
_refine_ls_extinction_method     none
_refine_ls_goodness_of_fit_ref   0.956
_refine_ls_hydrogen_treatment    mixed
_refine_ls_matrix_type           full
_refine_ls_number_parameters     52
_refine_ls_number_reflns         770
_refine_ls_number_restraints     0
_refine_ls_restrained_S_all      0.956
_refine_ls_R_factor_all          0.0680
_refine_ls_R_factor_gt           0.0545
_refine_ls_shift/su_max          0.000
_refine_ls_shift/su_mean         0.000
_refine_ls_structure_factor_coef Fsqd
_refine_ls_weighting_details
'w=1/[\s^2^(Fo^2^)+(0.0938P)^2^] where P=(Fo^2^+2Fc^2^)/3'
_refine_ls_weighting_scheme      calc
_refine_ls_wR_factor_gt          0.1371
_refine_ls_wR_factor_ref         0.1452
_reflns_Friedel_coverage         0.000
_reflns_Friedel_fraction_full    .
_reflns_Friedel_fraction_max     .
_reflns_number_gt                560
_reflns_number_total             770
_reflns_threshold_expression     'I > 2\s(I)'
_cod_data_source_file            JSSC-2017-245-138.cif
_cod_data_source_block           L
_cod_database_code               1560694
_shelx_space_group_comment
;
The symmetry employed for this shelxl refinement is uniquely defined
by the following loop, which should always be used as a source of
symmetry information in preference to the above space-group names.
They are only intended as comments.
;
_shelx_estimated_absorpt_t_min   0.800
_shelx_estimated_absorpt_t_max   0.951
_shelx_res_file
;

    shelx.res created by SHELXL-2014/7

TITL nmt126_a.res in Pbcm
CELL  0.71073   6.7801  12.0825   6.4031   90.000   90.000   90.000
ZERR     4.00   0.0020   0.0054   0.0034    0.000    0.000    0.000
LATT   1
SYMM  - X, - Y, 1/2 + Z
SYMM  - X, 1/2 + Y, 1/2 - Z
SYMM    X, 1/2 - Y, - Z
SFAC  C    H    N    O    S
UNIT  16 12 4 8 4
MERG   2
MORE -1
EQIV $1 -x+2, y-1/2, -z+1/2
HTAB  C4 O1_$1
EQIV $2 -x+1, y-1/2, -z+1/2
HTAB  C3 O1_$2
EQIV $3 -x+1, y+1/2, -z+1/2
HTAB O2 N1_$3
FMAP   2
PLAN   20
SIZE     0.100   0.110   0.460
ACTA    52.00
BOND   $H
CONF
LIST   6
L.S.  10
TEMP  -123.00
WGHT    0.093800
FVAR       1.46386
S1    5    0.948402    0.404401    0.250000    10.50000    0.03486    0.04990 =
         0.06966    0.00000    0.00000   -0.00154
O2    4    0.408114    0.522415    0.250000    10.50000    0.03749    0.04264 =
         0.06853    0.00000    0.00000    0.00188
O1    4    0.697363    0.614100    0.250000    10.50000    0.04073    0.04572 =
         0.09284    0.00000    0.00000   -0.00327
N1    3    0.738726    0.227367    0.250000    10.50000    0.04003    0.04791 =
         0.05487    0.00000    0.00000    0.00383
C2    1    0.696072    0.417424    0.250000    10.50000    0.03322    0.04445 =
         0.05748    0.00000    0.00000   -0.00035
C4    1    0.921334    0.263680    0.250000    10.50000    0.04299    0.04999 =
         0.05659    0.00000    0.00000    0.00460
AFIX  43
H4    2    1.031258    0.214924    0.250000    10.50000   -1.20000
AFIX   0
C3    1    0.609229    0.315593    0.250000    10.50000    0.03872    0.04500 =
         0.05522    0.00000    0.00000   -0.00094
AFIX  43
H3    2    0.470143    0.306077    0.250000    10.50000   -1.20000
AFIX   0
C1    1    0.602048    0.528211    0.250000    10.50000    0.03691    0.04378 =
         0.05867    0.00000    0.00000   -0.00059
H2    2    0.380859    0.587388    0.250000    10.50000    0.06775
HKLF    4

REM  nmt126_a.res in Pbcm
REM R1 =  0.0545 for     560 Fo > 4sig(Fo)  and  0.0680 for all     770 data
REM     52 parameters refined using      0 restraints

END

WGHT      0.0938      0.0000

REM Highest difference peak  0.578,  deepest hole -0.370,  1-sigma level  0.079
Q1    1   0.9428  0.3302  0.2500  10.50000  0.05    0.58
Q2    1   0.6504  0.4705  0.2500  10.50000  0.05    0.34
Q3    1   0.7312  0.5958  0.2500  10.50000  0.05    0.30
Q4    1   0.6348  0.3794  0.2500  10.50000  0.05    0.27
Q5    1   0.7225  0.1698  0.2500  10.50000  0.05    0.23
Q6    1   0.9567  0.4877  0.2500  10.50000  0.05    0.22
Q7    1   0.3872  0.4487  0.2500  10.50000  0.05    0.21
Q8    1   0.3346  0.2261  0.2500  10.50000  0.05    0.20
Q9    1   0.6876  0.3083  0.2500  10.50000  0.05    0.20
Q10   1   1.0238  0.3304  0.1305  11.00000  0.05    0.19
Q11   1   0.7874  0.5317  0.3240  11.00000  0.05    0.18
Q12   1   0.7362  0.6840  0.3009  11.00000  0.05    0.17
Q13   1   1.0446  0.2814  0.1945  11.00000  0.05    0.17
Q14   1   0.3756  0.6071  0.4464  11.00000  0.05    0.16
Q15   1   0.3318  0.6079  0.3139  11.00000  0.05    0.16
Q16   1   1.1835  0.2398  0.2500  10.50000  0.05    0.15
Q17   1   0.8983  0.4841  0.5382  11.00000  0.05    0.14
Q18   1   0.8201  0.5093  0.4353  11.00000  0.05    0.13
Q19   1   0.8704  0.4884  0.1502  11.00000  0.05    0.13
Q20   1   0.8333  0.3112  0.0324  11.00000  0.05    0.13
;
_shelx_res_checksum              35406
_shelx_hkl_file
;
   1   0   0   76.29    7.73   0
  -1   0   0   59.37    5.92   0
   2   0   0  514.96    9.38   0
   3   0   0 9999.99   30.92   0
   4   0   0   23.98    5.42   0
   5   0   0    2.31    5.51   0
   6   0   0  756.04    9.94   0
   7   0   0    1.31    6.58   0
   8   0   0  255.09    9.14   0
   9   0   0  316.20   10.08   0
   1   1   0 4650.34   29.98   0
  -1  -1   0 5045.15   31.11   0
  -2  -1   0  558.80    9.02   0
   2   1   0  559.77    9.81   0
  -3  -1   0 1609.01   12.42   0
   3  -1   0 1489.98   12.93   0
   3   1   0 1575.62   12.88   0
   4   1   0  783.37    8.84   0
   4  -1   0  794.43    9.25   0
   5  -1   0 1011.49   10.34   0
   5   1   0  740.61    8.58   0
   6  -1   0  365.76    8.19   0
   6   1   0  322.90    6.95   0
   7   1   0    3.88    5.66   0
   7  -1   0   -3.69    6.55   0
   8  -1   0   48.98    6.89   0
   8   1   0   38.01    6.78   0
   9   1   0    0.89    9.20   0
   9  -1   0    1.99    8.27   0
   0  -2   0  338.65    9.48   0
   0   2   0  542.98   11.65   0
   1   2   0 1606.31   15.62   0
  -1  -2   0 1681.19   15.78   0
   2   2   0  953.28   10.60   0
  -2  -2   0  767.27    9.61   0
   3   2   0  344.99    6.89   0
  -3  -2   0  349.62    6.62   0
   4  -2   0  376.60    7.17   0
   4   2   0  373.67    7.30   0
  -4  -2   0  403.83    6.60   0
   5   2   0  342.64    7.16   0
   5  -2   0  260.50    7.41   0
   6   2   0    4.09    6.24   0
   6  -2   0    2.86    6.01   0
   7   2   0   10.32    5.94   0
   7  -2   0    6.84    6.64   0
   8  -2   0   52.60    7.03   0
   8   2   0   63.22    6.97   0
   9   2   0    9.87    9.46   0
   9  -2   0   15.10    9.45   0
   1   3   0  472.16    8.47   0
  -1  -3   0  429.58    7.90   0
   1  -3   0  367.45    8.49   0
  -2  -3   0  468.94    7.51   0
   2   3   0  771.67    9.28   0
  -3  -3   0 2338.89   13.49   0
   3   3   0 2353.28   14.16   0
   4   3   0  419.29    6.82   0
  -4  -3   0  485.74    7.39   0
  -5  -3   0  552.70    7.64   0
   5  -3   0  347.86    8.11   0
   5   3   0  439.13    7.04   0
   6  -3   0  479.88    8.93   0
   6   3   0  475.24    7.75   0
   7  -3   0  426.16    9.66   0
   7   3   0  413.58    7.82   0
   8   3   0   48.37    8.14   0
   8  -3   0   40.61    8.12   0
   9  -3   0    6.87    9.60   0
   9   3   0   -1.16   10.17   0
   0  -4   0   11.14    4.12   0
   0   4   0   13.50    4.52   0
  -1  -4   0 1409.87   11.87   0
   1   4   0 1268.73   11.47   0
   1  -4   0 1829.65   15.28   0
  -1   4   0 1712.24   15.37   0
   2   4   0    0.86    4.64   0
   2  -4   0   -2.15    4.99   0
  -2  -4   0   -2.61    4.14   0
   3   4   0 1041.78    9.42   0
  -3  -4   0 1152.77    9.92   0
  -4  -4   0  333.51    6.15   0
   4   4   0  293.66    6.18   0
   5   4   0  478.55    7.79   0
  -5  -4   0  442.36    6.97   0
   6   4   0  233.90    6.55   0
   6  -4   0  224.50    6.95   0
  -6  -4   0  395.66    7.56   0
   7  -4   0   20.62    7.63   0
   7   4   0   30.29    7.14   0
   8  -4   0  181.61    9.54   0
   8   4   0  173.92    8.91   0
   9  -4   0    6.33    9.94   0
   9   4   0    7.86    9.43   0
   1   5   0 1221.00   10.78   0
   1  -5   0 1328.13   11.88   0
  -1   5   0 1706.56   14.06   0
  -1  -5   0 1799.14   12.40   0
   2  -5   0   10.29    4.92   0
   2   5   0    8.22    4.54   0
  -2  -5   0   11.69    4.19   0
  -3  -5   0   17.29    4.17   0
   3   5   0   16.26    4.48   0
   4   5   0  336.84    6.53   0
  -4  -5   0  446.04    6.79   0
   5   5   0  161.12    5.98   0
  -5  -5   0  185.54    5.75   0
  -6  -5   0   50.65    5.43   0
   6   5   0   41.42    5.56   0
   6  -5   0   42.94    6.66   0
   7   5   0   10.26    6.17   0
  -7  -5   0    8.44    6.02   0
   7  -5   0    4.06    6.37   0
   8   5   0   -3.07    7.20   0
   8  -5   0   -1.25    8.93   0
   0  -6   0 2614.38   14.64   0
   0   6   0 3128.03   16.21   0
  -1   6   0 3561.33   17.86   0
   1  -6   0 3756.74   18.26   0
  -1  -6   0 3203.89   15.34   0
   1   6   0 3075.10   15.22   0
   2  -6   0    1.64    4.22   0
   2   6   0    1.32    4.42   0
  -2  -6   0    3.64    4.11   0
   3  -6   0  559.17    8.06   0
   3   6   0  574.62    7.50   0
  -3  -6   0  812.58    8.55   0
   4   6   0  680.08    8.21   0
   4  -6   0  573.06    8.76   0
  -4  -6   0  649.47    7.47   0
   5   6   0  685.08    8.19   0
  -5  -6   0  774.13    8.38   0
   6   6   0    3.66    5.63   0
  -6  -6   0    8.24    6.00   0
   7   6   0   74.68    7.78   0
  -7  -6   0   76.91    6.76   0
   7  -6   0   72.65    8.35   0
   8   6   0  138.44    8.26   0
   8  -6   0  183.71   10.55   0
  -1  -7   0   14.30    4.12   0
   1  -7   0   10.45    5.04   0
   1   7   0    9.57    4.46   0
  -1   7   0    7.67    5.57   0
   2  -7   0 1505.54   11.87   0
   2   7   0 1373.60   10.12   0
  -2  -7   0 1539.46   10.38   0
  -3  -7   0  261.25    5.73   0
   3   7   0  320.41    7.04   0
   3  -7   0  263.55    7.25   0
   4  -7   0  650.16    8.45   0
   4   7   0  583.80    8.15   0
  -4  -7   0  645.81    7.39   0
  -5  -7   0  659.44    7.66   0
   5  -7   0  510.45    9.18   0
   5   7   0  529.74    7.66   0
   6   7   0  241.03    7.68   0
  -6  -7   0  235.46    6.84   0
  -7  -7   0   86.55    7.93   0
   7   7   0   54.62    7.07   0
   7  -7   0   50.96    8.27   0
   8  -7   0   -2.33    9.37   0
   8   7   0    2.44    7.83   0
   0  -8   0  306.46    6.11   0
   0   8   0  418.08    7.58   0
  -1   8   0   42.83    4.97   0
   1   8   0   44.29    4.67   0
   1  -8   0   39.96    4.46   0
  -1  -8   0   60.93    5.21   0
   2  -8   0   12.41    5.49   0
  -2  -8   0    5.71    5.00   0
   2   8   0    4.05    4.59   0
   3   8   0   14.22    5.58   0
  -3  -8   0   22.58    4.64   0
   3  -8   0   18.66    4.64   0
   4   8   0   16.20    5.14   0
  -4  -8   0   20.71    4.96   0
   4  -8   0    9.07    4.80   0
  -5  -8   0   41.35    5.40   0
   5   8   0   33.60    5.70   0
   5  -8   0   40.12    5.58   0
  -6  -8   0   19.02    6.51   0
   6   8   0   12.80    6.13   0
   6  -8   0    2.13    7.54   0
   7   8   0   -1.95    7.00   0
   7  -8   0   -0.43    7.06   0
  -7  -8   0   -1.48    7.79   0
   7  -8   0    5.82    8.41   0
   8  -8   0   -0.64    9.99   0
   8   8   0    9.38    8.34   0
  -8  -8   0    0.77    7.46   0
   8  -8   0   13.09   10.60   0
  -1  -9   0  143.44    5.41   0
  -1   9   0  213.87    6.71   0
   1   9   0  127.21    5.48   0
   1  -9   0  127.36    5.98   0
  -2  -9   0   -1.57    5.17   0
   2   9   0    3.29    5.57   0
   2  -9   0    4.04    4.47   0
  -3  -9   0  112.67    5.30   0
   3  -9   0  109.46    6.36   0
   3   9   0  120.00    5.40   0
   4  -9   0  362.67    7.25   0
   4   9   0  237.31    7.09   0
  -4  -9   0  339.18    7.01   0
  -5  -9   0   55.19    5.79   0
   5   9   0   35.25    6.80   0
   5  -9   0   21.98    7.21   0
  -6  -9   0  115.14    6.72   0
   6   9   0  100.14    7.74   0
   6  -9   0   38.85    7.92   0
   7  -9   0   18.30    9.51   0
   7   9   0   79.76    7.61   0
  -7  -9   0   66.43    7.66   0
   0  10   0 1234.71   10.51   0
   0 -10   0  869.70    8.45   0
   1 -10   0  149.52    5.73   0
  -1 -10   0  137.20    6.41   0
  -1  10   0  165.89    6.03   0
   1  10   0  138.52    5.84   0
   2 -10   0  116.47    5.42   0
  -2 -10   0  125.73    5.27   0
   2  10   0  105.87    5.56   0
  -3 -10   0  347.40    6.48   0
   3 -10   0  314.48    7.66   0
   3  10   0  371.78    6.75   0
   4 -10   0   14.09    6.34   0
   4  10   0   26.80    5.70   0
  -4 -10   0   26.18    5.52   0
   5 -10   0    0.46    7.02   0
  -5 -10   0    5.18    5.84   0
   5  10   0    0.78    6.01   0
   6 -10   0    1.20    7.90   0
  -6 -10   0   -0.74    6.86   0
   6  10   0    7.07    6.83   0
   7  10   0    6.63    7.79   0
  -7 -10   0    4.23    7.64   0
   7 -10   0    1.45   10.04   0
   1  11   0   63.67    5.47   0
  -1  11   0   54.71    6.66   0
   1 -11   0   63.21    5.32   0
  -1 -11   0   52.54    5.27   0
   2  11   0   11.49    5.33   0
  -2 -11   0   10.80    5.69   0
   2 -11   0   10.21    6.00   0
   3 -11   0   71.90    5.68   0
   3  11   0   54.50    5.98   0
  -3 -11   0  118.06    5.72   0
   4  11   0   18.46    5.88   0
   4 -11   0   22.13    7.07   0
  -4 -11   0   30.54    5.96   0
   5  11   0   16.09    6.55   0
   5 -11   0    9.84    7.48   0
  -5 -11   0   16.36    5.93   0
   6 -11   0   15.38    8.86   0
   6  11   0   36.69    7.56   0
  -6 -11   0   47.02    7.51   0
   0 -12   0  116.34    5.84   0
   0  12   0  147.71    7.11   0
  -1  12   0  137.52    7.73   0
   1 -12   0  196.12    6.35   0
   1  12   0  125.85    6.54   0
  -1 -12   0  234.26    6.49   0
  -2 -12   0   52.74    5.82   0
   2  12   0   30.49    5.94   0
   2 -12   0   57.74    5.77   0
   3 -12   0   12.14    5.80   0
   3  12   0    7.87    5.77   0
  -3 -12   0   16.67    5.67   0
   4 -12   0   -1.44    7.48   0
   4  12   0    6.54    7.36   0
  -4 -12   0    6.58    6.26   0
   5  12   0    2.70    7.15   0
   5 -12   0    5.95    8.15   0
  -5 -12   0   14.88    6.91   0
   6  12   0    2.55    7.85   0
   6 -12   0    0.28   10.03   0
  -6 -12   0    1.97    7.75   0
   1 -13   0   43.13    7.11   0
  -1  13   0   43.59    6.49   0
  -1 -13   0   38.62    7.04   0
   1  13   0   39.28    7.38   0
   2 -13   0   19.25    7.05   0
  -2 -13   0   18.39    6.02   0
   2  13   0   18.64    6.08   0
  -3 -13   0  318.08    7.66   0
   3 -13   0  195.50    8.56   0
   3  13   0  320.09    7.82   0
  -4 -13   0   90.93    7.19   0
   4  13   0   62.07    7.30   0
   4 -13   0   75.08    8.26   0
  -5 -13   0   76.84    7.95   0
   5 -13   0   41.47    9.23   0
   5  13   0   91.15    9.24   0
   0  14   0  114.02    7.60   0
   0 -14   0  322.10    7.63   0
  -1 -14   0    1.32    6.50   0
   1  14   0    4.03    6.66   0
   1 -14   0   -2.86    6.31   0
   2  14   0   38.73    8.05   0
  -2 -14   0   37.62    7.52   0
   2 -14   0   26.97    7.79   0
   3  14   0   27.29    7.05   0
   3 -14   0   22.27    8.12   0
  -3 -14   0   30.31    6.97   0
  -4 -14   0   23.26    7.61   0
   4  14   0    8.78    7.65   0
   4 -14   0   11.54    7.78   0
  -1 -15   0   47.58    7.27   0
   1  15   0   22.29    8.52   0
   1 -15   0   28.94    8.33   0
   2  15   0    2.32    7.68   0
   2 -15   0    0.52    8.34   0
  -2 -15   0   -0.13    7.53   0
  -3 -15   0    5.70    7.97   0
   3 -15   0   14.24    8.96   0
   3  15   0    4.17    8.08   0
   0  16   0   64.10    8.80   0
   0 -16   0   98.23    8.53   0
   1  16   0   12.46    8.27   0
  -1 -16   0   15.26    9.15   0
   1 -16   0   11.87    8.24   0
   2  16   0   16.07    8.63   0
  -2 -16   0   23.53    8.35   0
   2 -16   0   24.39    9.62   0
   1   1   1 4763.64   30.23   0
   1   1  -1 4397.76   25.18   0
  -1  -1  -1 4696.39   29.94   0
   2   1   1  144.24    6.82   0
  -2  -1  -1  119.06    5.59   0
   2   1  -1  129.10    5.69   0
   2  -1   1  133.13    8.08   0
   3   1   1  224.92    6.41   0
  -3  -1  -1  212.99    6.09   0
   3   1  -1  245.47    6.32   0
   3  -1   1  236.20    7.82   0
   4  -1  -1 3898.11   16.93   0
   4   1   1 3392.31   17.61   0
   4   1  -1 3567.53   16.04   0
  -4  -1  -1 3775.92   18.25   0
   4  -1   1 3644.96   20.41   0
   5  -1   1  332.61    7.82   0
   5  -1  -1  439.47    7.74   0
   5   1  -1  381.92    6.71   0
   5   1   1  322.83    6.91   0
   6  -1  -1  148.09    6.17   0
   6   1   1  142.29    7.01   0
   6  -1   1  146.28    7.08   0
   6   1  -1  238.16    7.00   0
   7  -1   1  300.95    8.33   0
   7   1  -1  307.14    8.28   0
   7   1   1  299.62    8.39   0
   7  -1  -1  324.69    8.35   0
   8  -1  -1   50.42    8.07   0
   8  -1   1   38.91    8.06   0
   8   1  -1   67.27    8.09   0
   8   1   1   75.48    8.11   0
   9  -1   1    6.68    9.50   0
   9  -1  -1    3.38    8.37   0
   9   1   1   -8.45    9.25   0
   9   1  -1   -0.17    9.37   0
   0  -2   1 1766.31   20.62   0
   0   2   1 1851.07   17.02   0
   0   2  -1 1994.97   21.86   0
   0  -2  -1 2282.44   18.63   0
   1  -2   1 3098.08   42.87   0
   1   2   1 4869.04   25.44   0
  -1  -2  -1 3612.97   21.98   0
  -1  -2   1 4771.80   24.64   0
   1   2  -1 5653.50   27.14   0
   2   2   1 3993.46   20.73   0
   2   2  -1 4216.24   19.82   0
  -2  -2  -1 3182.84   18.57   0
  -2  -2   1 4675.28   20.74   0
  -3  -2   1  291.78    6.11   0
   3   2   1  281.37    6.59   0
  -3  -2  -1  302.32    7.09   0
   3   2  -1  249.75    6.23   0
   3  -2   1  276.32    8.36   0
   4   2  -1   13.96    4.54   0
   4  -2   1   14.73    5.68   0
  -4  -2  -1   17.63    5.03   0
   4   2   1   16.40    4.57   0
   5  -2   1    3.69    5.65   0
   5  -2  -1    6.97    4.74   0
  -5  -2  -1    1.36    4.45   0
   5   2   1    7.19    4.67   0
   5   2  -1    3.35    4.71   0
   6   2  -1   38.64    5.26   0
   6  -2   1   39.33    6.43   0
   6   2   1   31.51    6.19   0
   6  -2  -1   36.05    6.29   0
   7   2  -1  244.29    8.02   0
   7   2   1  221.13    6.99   0
   7  -2   1  221.57    8.28   0
   7  -2  -1  292.33    8.19   0
   8   2   1  120.77    8.30   0
   8   2  -1  126.79    7.37   0
   8  -2   1  134.45    8.55   0
   8  -2  -1  109.36    8.46   0
   9  -2   1  110.54   10.23   0
   9  -2  -1   74.24    9.07   0
   9   2   1  126.62    9.87   0
   9   2  -1   91.33    9.83   0
   1   3  -1  840.50   10.44   0
   1  -3   1  664.90   13.93   0
   1   3   1  981.28   10.82   0
  -1   3  -1  770.92   15.20   0
  -1  -3  -1 1023.06   11.32   0
  -1  -3   1  739.85    9.69   0
   1  -3  -1  554.43    8.67   0
   2  -3   1  306.95   10.20   0
   2   3   1  434.32    7.53   0
  -2  -3  -1  402.02    7.07   0
   2   3  -1  424.47    7.56   0
  -2  -3   1  437.87    7.29   0
  -3  -3   1 1119.61    9.54   0
  -3  -3  -1  995.29    9.56   0
   3   3   1 1045.22    9.88   0
   3   3  -1 1096.63    9.80   0
   4   3   1   69.39    5.02   0
   4   3  -1   61.56    4.83   0
   4  -3   1   77.48    6.77   0
  -4  -3  -1   66.62    4.71   0
  -4  -3   1   73.88    4.64   0
  -5  -3  -1   29.81    4.71   0
   5   3  -1   24.57    4.94   0
   5  -3   1   26.50    5.89   0
   5   3   1   20.94    4.87   0
  -6  -3  -1   75.45    6.28   0
   6  -3  -1   50.98    5.57   0
   6   3  -1   54.39    5.67   0
   6   3   1   46.48    5.44   0
   6  -3   1   45.56    6.54   0
   7  -3  -1    3.68    6.01   0
   7  -3   1    3.89    7.38   0
   7   3  -1    2.69    6.00   0
   7   3   1    1.66    6.83   0
   8  -3  -1   16.14    7.18   0
   8   3   1   21.80    7.08   0
   8   3  -1   21.47    8.06   0
   8  -3   1   15.84    8.43   0
   9  -3   1    6.20    9.87   0
   9  -3  -1   13.12   10.02   0
   9   3  -1    2.10    8.45   0
   9   3   1   10.62    9.77   0
   0   4  -1   21.48    4.45   0
   0  -4  -1   12.93    4.31   0
   0   4   1   31.98    5.09   0
   0  -4   1   26.74    5.07   0
   1   4   1 3711.97   18.16   0
  -1  -4  -1 4680.07   20.13   0
   1  -4  -1 3381.49   17.84   0
  -1  -4   1 4007.30   19.46   0
   1  -4   1 2542.85   20.78   0
  -1   4  -1 3892.59   25.83   0
   1   4  -1 4156.14   19.94   0
   2   4   1   26.13    4.72   0
  -2  -4  -1   28.76    5.00   0
   2   4  -1   19.86    4.72   0
   2  -4   1   18.44    6.05   0
  -2  -4   1   24.09    4.34   0
  -3  -4  -1  173.85    5.31   0
   3   4   1  180.18    5.61   0
  -3  -4   1  214.52    5.97   0
   3   4  -1  164.44    5.50   0
   4   4   1 1111.53   10.11   0
   4   4  -1  866.45    8.64   0
  -4  -4   1  922.81    8.42   0
  -4  -4  -1  882.79    8.62   0
  -5  -4  -1  350.54    6.63   0
  -5  -4   1  421.43    6.72   0
   5   4  -1  390.82    6.79   0
   5   4   1  308.70    7.56   0
   5  -4   1  354.87    8.78   0
   6  -4   1   16.05    6.52   0
  -6  -4  -1   16.74    6.12   0
   6   4  -1   13.44    5.29   0
   6   4   1    9.56    5.31   0
   6  -4  -1   10.22    5.43   0
   7  -4   1   21.58    7.61   0
   7   4  -1   17.31    6.19   0
  -7  -4  -1   37.34    6.04   0
   7   4   1   25.31    7.12   0
   7  -4  -1   23.55    7.12   0
   8  -4   1   86.28    9.85   0
   8   4  -1   97.69    7.42   0
   8  -4  -1   83.51    7.83   0
   8   4   1   69.05    7.57   0
   1   5   1 2680.88   14.69   0
   1  -5   1 2381.71   17.67   0
  -1  -5  -1 3041.95   15.44   0
  -1  -5   1 1885.98   12.92   0
   1  -5  -1 2307.29   14.03   0
   1   5  -1 2755.14   15.53   0
  -1   5  -1 2525.67   18.49   0
   2  -5   1   28.63    5.41   0
   2   5  -1   37.07    4.72   0
   2   5   1   34.79    4.65   0
   2  -5  -1   40.00    5.28   0
  -2  -5  -1   35.52    4.30   0
  -2  -5   1   33.43    4.28   0
   3   5   1   10.77    4.46   0
   3  -5   1    7.02    5.34   0
   3   5  -1   12.82    5.39   0
  -3  -5  -1    9.65    4.11   0
  -3  -5   1    8.23    4.22   0
   4   5   1 2003.35   12.68   0
   4   5  -1 1812.22   11.50   0
  -4  -5  -1 2129.05   12.66   0
  -4  -5   1 1710.52   10.79   0
   5  -5   1 1099.34   12.43   0
   5   5   1  781.93    9.12   0
   5   5  -1 1124.82    9.84   0
  -5  -5   1 1009.58    9.53   0
  -5  -5  -1 1102.76    9.73   0
   6  -5   1   13.89    6.91   0
  -6  -5   1   15.79    5.35   0
   6   5   1    6.82    5.55   0
  -6  -5  -1   10.16    5.36   0
   6   5  -1   10.30    6.43   0
   7   5   1  337.61    8.76   0
   7  -5  -1  238.04    8.23   0
   7  -5   1  299.39    9.79   0
   7   5  -1  332.15    7.53   0
  -7  -5  -1  330.66    7.87   0
   8   5  -1  121.85    7.71   0
   8  -5   1  123.65   10.33   0
   8  -5  -1   93.10    9.06   0
   8   5   1   88.02    7.86   0
   0   6  -1  432.83    7.50   0
   0  -6   1  569.01    8.48   0
   0   6   1  727.90    9.01   0
   0  -6  -1  335.49    6.46   0
   1  -6  -1   -7.11    4.50   0
  -1  -6   1   38.17    4.41   0
   1   6  -1   33.10    4.66   0
   1  -6   1   33.71    5.39   0
  -1   6  -1   22.31    5.59   0
   1   6   1   12.91    4.79   0
  -1  -6  -1   12.50    4.28   0
   2  -6  -1  294.80    6.16   0
  -2  -6   1  311.10    6.05   0
  -2  -6  -1  308.55    5.93   0
   2   6  -1  413.14    6.83   0
   2  -6   1  327.36    7.90   0
   2   6   1  346.05    6.44   0
   3   6  -1    3.05    4.43   0
   3  -6  -1   -4.89    4.40   0
  -3  -6   1    7.38    4.19   0
   3  -6   1    4.18    5.43   0
   3   6   1   -2.40    5.36   0
  -3  -6  -1    6.19    4.18   0
  -4  -6   1    6.01    4.56   0
   4   6   1    4.47    4.89   0
   4   6  -1   11.31    4.81   0
   4  -6   1    1.97    5.90   0
  -4  -6  -1    5.13    4.67   0
  -5  -6  -1  242.26    6.18   0
   5  -6   1  193.32    8.58   0
   5   6   1  239.64    6.46   0
  -5  -6   1  273.11    6.05   0
   5   6  -1  223.00    6.17   0
   6  -6   1  161.25    8.14   0
   6   6   1  139.81    7.54   0
  -6  -6  -1  161.53    6.60   0
   6   6  -1  145.62    6.86   0
  -6  -6   1  148.82    6.25   0
   7   6  -1    0.35    6.21   0
   7  -6  -1   -1.27    7.64   0
   7   6   1    1.77    7.35   0
   7  -6   1    2.48    8.83   0
  -7  -6  -1   -9.63    7.18   0
  -8  -6  -1   -4.78    7.45   0
   8  -6   1    2.90   10.32   0
   8  -6  -1    2.54    9.53   0
   8   6  -1   10.36    8.55   0
   8   6   1    0.89    8.66   0
  -1   7  -1   50.33    5.12   0
   1  -7  -1   21.10    4.25   0
   1  -7   1   45.44    4.69   0
  -1  -7  -1   34.35    4.33   0
   1   7   1   41.97    4.72   0
   1   7  -1   33.88    4.68   0
  -1  -7   1   33.19    5.17   0
  -2  -7   1   45.02    4.40   0
   2   7   1   56.18    4.86   0
   2   7  -1   48.44    4.67   0
   2  -7  -1   70.44    4.84   0
   2  -7   1   49.04    5.82   0
  -2  -7  -1   45.63    4.48   0
   3   7  -1  817.23    8.86   0
   3  -7  -1  625.62    7.81   0
   3  -7   1  589.47    9.69   0
   3   7   1  729.40    8.24   0
  -3  -7  -1  579.56    7.20   0
  -3  -7   1  664.33    7.63   0
  -4  -7  -1  139.71    5.40   0
   4  -7  -1  151.47    5.75   0
   4  -7   1  155.13    7.86   0
   4   7  -1  148.03    5.81   0
  -4  -7   1  180.11    5.67   0
   4   7   1  139.17    6.65   0
   5   7   1   59.02    5.69   0
   5   7  -1   66.00    6.40   0
  -5  -7   1   82.81    5.49   0
   5  -7   1   78.65    7.68   0
  -5  -7  -1   66.48    5.48   0
   6  -7   1   40.94    8.17   0
  -6  -7  -1   69.36    6.14   0
   6   7   1   58.59    6.26   0
   6  -7   1   45.56    7.64   0
  -6  -7   1   91.99    5.88   0
   6   7  -1   70.67    6.70   0
   7   7   1   41.16    7.91   0
   7  -7   1   23.84    8.74   0
   7  -7  -1   16.48    7.02   0
   7   7  -1   31.98    6.66   0
   7  -7   1   18.39    8.78   0
  -7  -7  -1   34.17    6.81   0
  -7  -7   1   38.70    6.55   0
   8   7   1   11.16    9.18   0
   8  -7  -1    1.90    8.23   0
   8  -7   1    3.63   10.00   0
   8  -7   1    5.21   11.08   0
   8   7  -1    2.81    8.06   0
  -8  -7  -1    4.39    7.97   0
   0  -8   1 1837.65   12.25   0
   0  -8  -1 1498.92   10.18   0
   0   8   1 2312.88   13.02   0
   0   8  -1 2091.48   13.99   0
  -1  -8  -1  198.72    5.34   0
  -1  -8   1  207.67    5.51   0
   1  -8   1  196.70    5.86   0
   1   8   1  301.54    6.30   0
  -1   8  -1  266.97    6.55   0
   1  -8  -1  265.46    5.86   0
   1   8  -1  305.12    6.97   0
  -1   8   1  271.72    6.19   0
  -2  -8   1 1710.10   11.28   0
   2  -8   1 1233.74   11.89   0
   2   8  -1 1517.76   10.71   0
   2   8   1 1669.15   11.28   0
   2  -8  -1 1597.05   11.18   0
  -2  -8  -1 1620.33   10.84   0
  -3  -8  -1  234.33    5.96   0
  -3  -8   1  246.36    6.00   0
   3  -8   1  198.34    7.16   0
   3  -8  -1  208.80    5.87   0
   3   8   1  213.64    6.15   0
   3   8  -1  204.85    5.93   0
   4  -8   1   75.07    6.54   0
   4  -8  -1   78.09    5.52   0
   4   8  -1   71.92    5.46   0
  -4  -8  -1   69.77    5.20   0
   4   8   1   54.82    5.43   0
  -4  -8   1   88.79    6.18   0
   5  -8   1   34.90    7.45   0
  -5  -8  -1   41.21    5.60   0
   5  -8  -1   48.10    5.62   0
   5   8  -1   40.33    5.82   0
   5   8   1   39.34    5.63   0
  -5  -8   1   52.23    5.66   0
  -6  -8  -1   86.76    7.43   0
   6  -8   1   72.20    8.14   0
   6  -8   1   48.01    7.76   0
  -6  -8   1  152.69    6.55   0
   6   8  -1  131.91    6.50   0
   6  -8  -1   51.56    8.14   0
   6   8   1   86.87    6.66   0
   7   8  -1   51.43    7.20   0
   7  -8   1   19.84   10.08   0
   7  -8  -1   30.36    8.36   0
  -7  -8  -1   52.11    8.29   0
   7   8   1   55.43    7.95   0
  -7  -8   1   62.67    7.12   0
   7  -8   1   34.31    9.65   0
   8  -8   1   66.61   12.20   0
   8   8   1  133.12    9.09   0
  -8  -8  -1   74.49    8.88   0
   8  -8  -1   87.61    9.44   0
   8  -8   1   85.99   11.64   0
   8  -8  -1   50.55   10.39   0
   8   8  -1   77.83    8.85   0
  -1   9   1   19.16    4.91   0
  -1  -9  -1   21.39    4.66   0
   1  -9   1   19.30    4.60   0
  -1   9  -1   22.03    6.00   0
   1   9   1   25.56    5.77   0
   1   9  -1   22.58    5.65   0
   1  -9  -1   22.10    4.65   0
  -1  -9   1   22.67    5.63   0
  -2  -9   1  238.64    6.61   0
   2  -9   1  189.22    6.89   0
   2   9   1  182.53    5.78   0
  -2  -9  -1  191.47    5.58   0
   2   9  -1  156.17    6.76   0
   2  -9  -1  203.71    5.87   0
   3  -9   1   84.15    6.45   0
   3   9  -1   99.34    6.39   0
  -3  -9  -1  120.39    5.45   0
  -3  -9   1  138.39    5.50   0
   3   9   1   99.27    5.64   0
   3  -9  -1  129.45    6.57   0
   4  -9  -1  507.31    7.71   0
  -4  -9  -1  502.09    7.41   0
   4   9  -1  519.59    7.25   0
   4  -9   1  493.98    9.40   0
   4   9   1  457.75    7.82   0
  -4  -9   1  485.95    7.57   0
   5  -9   1   49.39    8.04   0
  -5  -9   1   90.06    5.84   0
   5   9   1   76.96    6.02   0
   5  -9  -1   62.61    6.01   0
  -5  -9  -1   54.73    5.93   0
   5   9  -1   55.87    5.98   0
   6  -9  -1   12.45    7.69   0
   6  -9   1    5.09    9.02   0
  -6  -9  -1   14.59    6.44   0
   6   9   1   12.55    6.61   0
  -6  -9   1   23.49    6.31   0
   6   9  -1   12.74    6.47   0
   7  -9   1   80.81   10.03   0
   7  -9   1   65.24   10.57   0
   7   9   1  177.32    8.33   0
   7   9  -1   90.62    7.92   0
   7  -9  -1   73.82    8.47   0
  -7  -9   1  129.02    7.89   0
  -7  -9  -1  159.40    8.15   0
   0 -10  -1 1702.89   11.09   0
   0 -10   1 1466.23   10.89   0
   0  10   1 1609.35   11.94   0
   0  10  -1 1942.48   13.30   0
  -1 -10   1  236.58    6.06   0
   1 -10  -1  300.00    7.22   0
   1  10   1  366.06    7.41   0
  -1 -10  -1  268.65    6.06   0
  -1  10  -1  273.44    7.87   0
   1 -10   1  227.20    6.07   0
   1  10  -1  289.69    6.41   0
   2  10   1   31.09    5.20   0
  -2 -10   1   38.76    5.07   0
  -2 -10  -1   29.53    4.97   0
   2 -10   1   21.12    5.85   0
   2  10  -1   36.72    5.12   0
   2 -10  -1   33.43    6.17   0
   3 -10   1  182.87    7.05   0
  -3 -10   1  230.52    6.46   0
   3  10   1  161.21    7.03   0
   3  10  -1  176.38    6.90   0
  -3 -10  -1  241.54    7.42   0
   3 -10  -1  230.19    7.26   0
  -4 -10   1   -1.05    5.38   0
   4  10   1    1.38    5.63   0
  -4 -10  -1    4.98    5.46   0
   4 -10  -1    7.92    6.38   0
   4 -10   1    2.27    6.48   0
   4  10  -1    0.57    5.53   0
   5  10  -1   14.12    6.18   0
   5 -10   1    6.45    8.34   0
   5 -10  -1    7.42    7.58   0
  -5 -10  -1   17.07    6.19   0
  -5 -10   1   22.65    6.21   0
   5  10   1    7.69    6.15   0
   6 -10  -1   26.87    8.19   0
  -6 -10  -1   35.20    7.42   0
   6 -10   1   26.60    8.85   0
   6  10   1   40.97    8.03   0
  -6 -10   1   59.53    6.95   0
   6  10  -1   58.83    7.66   0
   7  10  -1   14.06    8.53   0
   7  10   1   23.04    8.27   0
  -7 -10  -1   22.22    8.02   0
  -7 -10   1   16.19    8.41   0
   7 -10   1   17.56   11.15   0
   7 -10   1   19.52   10.23   0
   7 -10  -1    4.79    9.50   0
   1 -11  -1  220.00    6.19   0
  -1  11  -1  259.59    6.65   0
  -1 -11  -1  220.17    5.97   0
   1  11   1  190.05    6.96   0
   1  11  -1  167.83    7.36   0
   1 -11   1  198.51    6.25   0
  -1 -11   1  230.14    6.56   0
   2 -11  -1    4.07    6.48   0
  -2 -11   1    4.22    5.19   0
   2 -11   1    9.20    5.97   0
   2  11   1    9.62    5.38   0
  -2 -11  -1    6.49    5.21   0
   2  11  -1    7.69    5.45   0
   3  11   1   25.65    5.71   0
   3  11  -1   26.59    5.70   0
   3 -11   1   22.99    5.69   0
  -3 -11  -1   20.00    5.54   0
   3 -11  -1   21.91    5.59   0
  -3 -11   1   27.48    5.66   0
   4 -11  -1  200.66    7.67   0
   4  11  -1  229.25    6.89   0
   4 -11   1  144.57    8.05   0
  -4 -11  -1  206.40    6.81   0
  -4 -11   1  215.76    6.51   0
   4  11   1  162.90    7.34   0
  -5 -11   1  243.58    7.26   0
  -5 -11  -1  130.90    7.75   0
   5  11   1  111.94    7.33   0
   5 -11  -1   48.16    8.20   0
   5  11  -1  100.81    7.19   0
   5 -11   1  104.23    9.02   0
   6 -11   1   28.11   10.29   0
   6  11   1   39.20    8.61   0
   6  11  -1   36.77    7.63   0
  -6 -11   1   50.48    7.49   0
   6 -11  -1   10.03    7.66   0
  -6 -11  -1   42.79    7.52   0
   0  12   1   19.79    5.69   0
   0 -12  -1   20.28    5.51   0
   0  12  -1   18.72    5.72   0
   0 -12   1   19.99    6.46   0
   1 -12  -1  246.71    6.71   0
   1  12  -1  165.11    7.00   0
  -1 -12  -1  148.84    7.38   0
   1  12   1  187.18    7.43   0
   1 -12   1  226.99    6.62   0
  -1 -12   1  267.07    6.73   0
  -1  12  -1  141.90    6.97   0
   2  12  -1   15.47    6.80   0
   2 -12  -1   16.19    5.90   0
   2  12   1    7.15    6.34   0
   2 -12   1   18.71    7.07   0
  -2 -12  -1   15.05    5.59   0
  -2 -12   1   22.32    6.65   0
   3  12   1    7.07    6.06   0
   3 -12   1   10.57    7.28   0
  -3 -12   1   14.27    5.78   0
  -3 -12  -1    7.69    5.92   0
   3 -12  -1    3.89    5.96   0
   3  12  -1    9.52    5.97   0
   4  12  -1   49.43    6.88   0
  -4 -12  -1   58.13    6.68   0
   4  12   1   79.78    6.79   0
   4 -12   1   36.75    7.97   0
   4 -12  -1   38.74    6.73   0
  -4 -12   1   60.01    6.82   0
   5  12  -1    2.66    7.61   0
   5 -12   1   -0.80    8.78   0
  -5 -12   1    0.50    6.97   0
  -5 -12  -1    1.44    7.63   0
   5  12   1    0.33    7.30   0
   5 -12  -1   -2.47    8.57   0
   6  12  -1    4.57    8.13   0
   6  12   1   -4.12    7.92   0
  -6 -12   1   -0.06    8.08   0
  -6 -12  -1   -3.33    7.97   0
   6 -12  -1   -0.60    9.26   0
   6 -12   1    2.55    9.98   0
   1 -13  -1   30.37    6.10   0
   1 -13   1   39.67    6.01   0
  -1  13  -1   13.98    7.36   0
  -1 -13  -1   24.18    6.82   0
   1  13  -1   24.45    6.27   0
   1  13   1   18.28    6.74   0
  -1 -13   1   38.73    6.17   0
   2  13  -1   53.82    6.42   0
   2 -13  -1   47.38    6.35   0
  -2 -13   1   51.81    6.38   0
   2 -13   1   42.17    7.42   0
   2  13   1   35.63    6.62   0
  -2 -13  -1   44.83    6.94   0
   3  13  -1   12.16    7.75   0
  -3 -13  -1   11.72    6.38   0
   3 -13   1    2.37    7.43   0
  -3 -13   1    9.69    6.58   0
   3 -13  -1    7.12    6.43   0
   3  13   1    8.95    6.66   0
   4  13   1    6.68    7.03   0
  -4 -13  -1    2.18    7.04   0
   4 -13   1    3.86    8.20   0
   4  13  -1   10.32    7.09   0
  -4 -13   1    3.11    6.79   0
   4 -13  -1    3.02    8.08   0
   5  13  -1   -2.55    7.87   0
  -5 -13   1   -0.68    8.12   0
   5 -13   1   -0.26    9.60   0
  -5 -13  -1    0.96    7.62   0
   5  13   1    3.64    8.40   0
   5 -13  -1   -0.14    8.94   0
   0 -14   1   29.16    7.55   0
   0  14   1   23.11    7.02   0
   0 -14  -1   30.21    6.71   0
   0  14  -1   38.33    6.84   0
  -1 -14   1  390.54    8.03   0
   1 -14   1  308.00    7.89   0
   1  14   1  169.36    9.02   0
   1 -14  -1  277.44    7.71   0
  -1 -14  -1  183.21    7.74   0
  -1  14  -1  122.72    8.92   0
   1  14  -1  159.75    7.88   0
   2 -14  -1   11.74    6.97   0
   2  14   1   11.91    6.84   0
  -2 -14  -1   27.18    6.82   0
   2 -14   1   14.70    6.80   0
  -2 -14   1   33.11    6.90   0
   2  14  -1   30.00    6.86   0
   3 -14  -1   18.92    7.29   0
   3  14   1   26.35    7.44   0
   3 -14   1   22.33    8.47   0
   3  14  -1   28.06    7.35   0
  -3 -14   1   28.92    7.19   0
  -3 -14  -1   23.92    7.16   0
   4 -14  -1    4.95    9.03   0
  -4 -14  -1    9.80    7.64   0
   4 -14   1   11.41   10.25   0
   4  14   1    1.00    8.41   0
  -4 -14   1    8.82    7.84   0
   4  14  -1   11.27    9.04   0
   1  15   1    3.83    7.70   0
  -1 -15   1    1.27    8.34   0
   1 -15  -1    5.29    8.22   0
   1  15  -1   -4.50    7.45   0
  -1  15  -1   -0.57    7.48   0
  -1 -15  -1    2.63    7.19   0
   1 -15   1    5.12    7.20   0
   2  15  -1   26.77    7.83   0
   2  15   1    5.73    8.82   0
   2 -15   1   30.68    9.40   0
   2 -15  -1   13.74    7.74   0
  -2 -15   1   25.21    7.58   0
  -2 -15  -1   21.87    7.96   0
  -3 -15  -1   82.19    8.17   0
   3 -15  -1   47.47    9.51   0
   3  15   1   50.29    8.88   0
   3 -15   1   65.78    9.60   0
  -3 -15   1   69.90    8.64   0
   3  15  -1   57.10    8.49   0
   0  16  -1   -1.76    8.29   0
   0 -16  -1    1.33    7.81   0
   0 -16   1    1.34    8.00   0
   1 -16  -1    7.29    9.18   0
  -1 -16   1    2.91    8.03   0
   1 -16   1   -3.47    9.41   0
   1  16   1   -3.78    8.40   0
  -1 -16  -1   -2.87    8.00   0
   1  16  -1   -5.24    9.51   0
   2 -16   1   78.19    8.88   0
   2 -16  -1   41.56    9.93   0
  -2 -16   1   83.55    8.86   0
   2  16  -1   62.09   10.13   0
  -2 -16  -1   47.81    8.84   0
  -1   0  -2   37.14    6.05   0
  -2   0  -2  284.93    8.74   0
   2   0   2  329.94    9.79   0
   3   0   2 5318.30   27.70   0
  -3   0  -2 5894.41   29.44   0
   4   0  -2   11.33    5.26   0
   4   0   2   15.03    5.77   0
  -4   0  -2   14.99    5.51   0
   5   0   2    3.28    6.40   0
   5   0  -2    4.06    4.87   0
   6   0  -2  775.94    8.76   0
   6   0   2  662.40   10.30   0
   7   0  -2   12.76    6.13   0
   7   0   2    8.68    7.34   0
   8   0  -2  159.53    8.77   0
   8   0   2  157.11    9.30   0
   9   0  -2  263.60    9.83   0
   9   0   2  380.44   12.84   0
  -1   1  -2 2272.71   28.78   0
   1   1   2 2670.26   20.23   0
  -1  -1  -2 2173.55   18.06   0
  -2   1  -2  219.98   11.63   0
   2   1   2  281.61    7.96   0
   2  -1   2  230.36   12.06   0
  -2  -1  -2  282.78    7.75   0
   2   1  -2  270.57    6.54   0
  -3  -1  -2  930.76   11.40   0
   3   1   2  934.02   11.53   0
  -3   1  -2  657.98   12.55   0
   3  -1   2  872.01   14.92   0
   3   1  -2 1095.38   10.11   0
   4   1   2  571.10    9.45   0
  -4  -1  -2  604.68    9.45   0
   4   1  -2  597.42    7.52   0
   4  -1   2  574.49   10.78   0
   5   1  -2  601.79    7.77   0
   5   1   2  594.50    9.54   0
   5  -1  -2  746.71    8.23   0
   5  -1   2  567.80   10.32   0
  -5  -1  -2  791.36    9.91   0
   6   1   2  240.09    7.84   0
   6  -1   2  226.13    8.77   0
   6  -1  -2  236.58    7.39   0
   6   1  -2  235.56    6.42   0
   7  -1   2    3.35    7.13   0
   7   1   2    0.67    6.93   0
   7   1  -2    5.76    6.87   0
   7  -1  -2    1.58    6.10   0
   8  -1  -2   18.84    7.26   0
   8   1   2   22.08    8.28   0
   8   1  -2   26.49    7.00   0
   8  -1   2   24.78    8.94   0
   9   1  -2    0.57    8.54   0
   9   1   2    2.02    9.82   0
   0   2  -2  384.20    9.45   0
   0  -2  -2  336.61    7.22   0
  -1   2  -2  538.73   18.31   0
   1   2   2  748.80   10.10   0
  -1  -2  -2  655.35    9.33   0
   1   2  -2  904.70   10.97   0
   2   2  -2  577.11    8.09   0
  -2  -2  -2  540.64    8.30   0
   2   2   2  520.48    8.33   0
  -3  -2  -2  240.15    6.82   0
   3   2  -2  197.68    5.75   0
   3  -2   2  203.81   11.23   0
   3   2   2  247.88    7.14   0
   4   2   2  223.44    7.23   0
   4   2  -2  187.45    5.61   0
  -4  -2  -2  214.25    6.17   0
   4  -2   2  221.64    9.12   0
   5   2   2  156.89    6.08   0
  -5  -2  -2  202.37    6.10   0
   5  -2   2  186.69    8.62   0
   5   2  -2  234.18    6.66   0
   5  -2  -2  225.71    6.18   0
   6   2   2   -0.37    6.23   0
   6  -2  -2    1.26    5.37   0
  -6  -2  -2    1.86    5.05   0
   6   2  -2   -1.23    5.23   0
   6  -2   2   -0.03    7.23   0
   7  -2  -2   10.64    6.28   0
   7   2   2    6.45    6.19   0
   7   2  -2    6.57    6.59   0
   7  -2   2   12.78    7.94   0
   8   2  -2   25.42    7.15   0
   8   2   2   45.09    8.24   0
   8  -2  -2   37.71    7.40   0
   8  -2   2   45.71    9.02   0
  -1   3  -2  169.82   10.20   0
   1   3  -2  270.79    7.33   0
  -1  -3   2  285.14    7.01   0
   1   3   2  255.22    6.57   0
  -1  -3  -2  223.25    6.04   0
  -2  -3  -2  510.71    8.25   0
  -2  -3   2  442.09    6.92   0
   2   3  -2  427.76    7.24   0
   2   3   2  519.17    8.57   0
   3   3   2 1239.93   10.88   0
   3  -3   2  897.52   23.99   0
   3   3  -2 1329.32   10.21   0
  -3  -3  -2 1359.40   11.65   0
   3  -3   2 1178.67   26.13   0
   4  -3   2  315.97   10.69   0
   4   3   2  357.39    7.62   0
  -4  -3  -2  291.55    6.49   0
   4   3  -2  386.11    7.10   0
  -5  -3  -2  244.16    6.34   0
   5   3   2  232.10    6.55   0
   5   3  -2  312.60    6.43   0
   5  -3   2  281.68    9.58   0
  -6  -3  -2  352.39    7.30   0
   6   3   2  345.13    8.36   0
   6   3  -2  338.74    6.90   0
   6  -3   2  326.86   10.39   0
   6  -3  -2  370.62    7.47   0
   7  -3   2  359.44   10.42   0
   7   3   2  330.62    9.29   0
  -7  -3  -2  474.36    9.28   0
   7  -3  -2  370.13    8.19   0
   7   3  -2  332.50    8.32   0
   8   3  -2   34.78    7.39   0
   8  -3  -2   26.73    7.54   0
   8   3   2   40.96    8.28   0
   8  -3   2   31.49   10.04   0
   0  -4  -2    4.30    4.29   0
   0  -4   2    5.73    4.90   0
   0   4  -2    4.90    4.23   0
   1   4  -2 1056.90   10.61   0
   1  -4  -2 1007.38    9.73   0
   1   4   2 1454.59   11.97   0
  -1  -4   2 1115.21   10.61   0
  -1   4  -2  968.85   15.60   0
   1  -4   2 1156.98   17.13   0
  -1  -4  -2 1421.88   11.65   0
   2  -4   2    2.43   10.14   0
   2   4  -2    4.96    5.46   0
  -2  -4   2    4.38    4.05   0
  -2  -4  -2    5.43    4.05   0
   2   4   2    1.11    4.44   0
   3  -4   2  430.28   17.32   0
  -3  -4  -2  469.37    7.06   0
   3  -4   2  482.41   17.33   0
   3   4  -2  549.67    7.36   0
   3   4   2  548.44    7.61   0
  -3  -4   2  653.65    7.51   0
  -4  -4  -2  218.61    6.00   0
   4  -4   2  179.17   10.20   0
   4   4  -2  256.81    6.66   0
   4   4   2  237.12    6.95   0
   4  -4   2  215.43   10.52   0
   5   4   2  212.87    6.58   0
   5   4  -2  266.72    6.26   0
   5  -4   2  220.51   10.36   0
  -5  -4  -2  304.26    7.47   0
   6  -4   2  174.66    9.89   0
  -6  -4  -2  181.26    6.47   0
   6   4   2  139.84    7.29   0
   6   4  -2  169.56    6.35   0
   7   4  -2   10.87    6.23   0
  -7  -4  -2   20.40    7.23   0
   7  -4   2    6.69    8.53   0
   7  -4  -2    9.19    7.49   0
   7   4   2   17.80    6.49   0
   8   4   2  114.56    8.05   0
   8   4  -2  142.68    7.92   0
   8  -4  -2  103.31    8.27   0
   8  -4   2  162.93   11.35   0
  -1  -5  -2  934.44    9.01   0
   1  -5   2  888.32   13.24   0
  -1  -5   2  849.39    9.28   0
   1   5   2 1035.45    9.58   0
   1   5  -2  729.87    8.89   0
   1  -5  -2 1069.70    9.53   0
  -1   5  -2  723.31   11.93   0
   2  -5  -2   12.44    4.33   0
  -2  -5  -2   16.13    4.21   0
  -2  -5   2   13.28    4.18   0
   2  -5   2   10.74    7.03   0
   2   5   2   13.49    4.57   0
   2   5  -2   14.89    4.48   0
  -3  -5  -2   13.21    4.26   0
   3  -5   2    8.37    7.74   0
   3   5  -2    8.20    4.50   0
  -3  -5   2    9.76    4.20   0
   3   5   2   12.02    5.51   0
   4   5   2  288.99    6.54   0
   4   5  -2  273.71    6.21   0
  -4  -5  -2  336.22    7.18   0
  -4  -5   2  324.30    6.22   0
   4  -5   2  268.40   11.32   0
   4  -5   2  223.52   10.28   0
   5   5  -2  130.74    5.86   0
   5   5   2  116.20    6.85   0
   5  -5   2  126.26    9.64   0
  -5  -5  -2  149.43    6.73   0
   5  -5   2  108.48    9.31   0
   6   5   2   25.43    5.82   0
   6  -5   2   22.32    8.53   0
  -6  -5  -2   29.05    6.65   0
   6   5  -2   36.31    5.68   0
   7   5  -2   10.48    6.40   0
   7   5   2    6.62    7.51   0
  -7  -5  -2    3.36    7.30   0
   7  -5  -2    6.04    6.56   0
   7  -5   2    8.19    9.92   0
   8   5   2   -0.36    7.59   0
   8   5  -2   -4.34    8.60   0
   8  -5   2    1.26   10.66   0
  -8  -5  -2    0.80    7.46   0
   8  -5  -2    0.25    7.85   0
   0   6  -2 1820.35   14.27   0
   0  -6   2 1490.92   12.69   0
   0   6   2 1932.04   12.11   0
   0  -6  -2 2127.38   12.45   0
  -1  -6  -2 3201.06   14.86   0
  -1   6  -2 2298.16   17.95   0
   1  -6  -2 2461.58   13.15   0
   1   6  -2 2395.77   14.21   0
  -1  -6   2 3311.29   16.63   0
   1  -6   2 2746.49   19.53   0
   1   6   2 2950.06   14.40   0
   2  -6  -2    1.59    4.23   0
  -2  -6   2    0.20    4.18   0
   2   6   2   -2.66    4.39   0
  -2  -6  -2   -1.58    4.09   0
   2  -6   2   -0.60    6.13   0
   2   6  -2    5.04    5.25   0
   3  -6   2  323.05   10.90   0
  -3  -6   2  514.08    7.00   0
   3   6  -2  475.85    7.03   0
  -3  -6  -2  491.60    7.12   0
   3   6   2  548.21    8.16   0
  -4  -6  -2  425.34    7.16   0
  -4  -6   2  552.07    7.31   0
   4   6  -2  459.91    7.26   0
   4  -6   2  382.34   12.06   0
   4   6   2  496.14    8.41   0
   5   6   2  447.02    8.07   0
  -5  -6   2  642.09    7.62   0
   5  -6   2  541.70   13.58   0
  -5  -6  -2  547.66    8.33   0
   5  -6   2  503.45   13.16   0
   5   6  -2  635.67    8.77   0
  -6  -6  -2    1.84    5.92   0
   6   6   2   -0.58    7.19   0
   6  -6   2    4.27    9.08   0
   6  -6   2    4.71    9.08   0
   6   6  -2    9.30    6.63   0
   7  -6   2   43.32   10.08   0
   7   6   2   47.80    6.97   0
   7   6  -2   54.05    6.79   0
  -7  -6  -2   47.00    7.83   0
   7  -6   2   31.32   10.23   0
   8   6   2  149.30    9.68   0
   8  -6  -2  101.07    9.96   0
   8  -6   2  102.03   12.91   0
  -8  -6  -2  122.48    8.55   0
   8  -6   2  149.62   13.33   0
   8   6  -2  167.87    8.36   0
  -1  -7  -2    9.23    4.28   0
   1   7  -2   17.54    5.51   0
  -1  -7   2   17.99    5.32   0
  -1   7  -2    9.01    5.73   0
   1   7   2   13.98    5.48   0
   1  -7  -2   13.94    4.30   0
   1  -7   2   16.31    5.59   0
   2  -7  -2 1256.44    9.92   0
  -2  -7  -2 1313.60   10.40   0
   2   7   2 1122.35    9.62   0
   2   7  -2 1305.51   10.80   0
   2  -7   2  780.52   11.71   0
  -2  -7   2 1212.65    9.88   0
   3  -7  -2  249.17    6.92   0
   3  -7   2  182.20    8.94   0
  -3  -7   2  267.61    6.67   0
  -3  -7  -2  200.95    5.82   0
   3   7   2  217.28    6.22   0
   3   7  -2  201.79    6.00   0
  -4  -7  -2  466.83    7.22   0
  -4  -7   2  557.98    7.54   0
   4  -7   2  445.52   12.31   0
   4  -7  -2  584.73    8.79   0
   4   7  -2  493.98    7.53   0
   4   7   2  506.90    7.93   0
  -5  -7   2  502.33    7.54   0
   5  -7   2  380.73   12.36   0
  -5  -7  -2  371.97    8.58   0
   5   7  -2  463.49    7.51   0
   5  -7   2  374.46   11.96   0
   5   7   2  376.34    7.86   0
   6  -7   2  113.80   10.81   0
   6   7   2  119.25    6.98   0
  -6  -7  -2  158.51    6.87   0
   6   7  -2  141.32    7.37   0
   6  -7   2   92.17   11.35   0
   7   7   2   63.48    8.37   0
   7  -7   2   51.21   11.31   0
   7   7  -2   55.75    7.06   0
   7  -7   2   30.49   12.00   0
  -7  -7  -2   50.07    7.81   0
   8   7   2   -4.39    9.51   0
   8  -7  -2    7.59    9.82   0
   8  -7   2    2.77   13.70   0
   8  -7   2    2.24   13.10   0
   8   7  -2    1.86    8.59   0
  -8  -7  -2    4.83    8.34   0
   0   8  -2  218.02    6.92   0
   0  -8   2  236.72    6.92   0
   0   8   2  201.00    5.79   0
   0  -8  -2  251.23    5.84   0
   1  -8   2   39.64    5.72   0
  -1  -8  -2   31.49    4.66   0
   1   8  -2   37.57    4.83   0
  -1  -8   2   51.53    5.76   0
   1   8   2   39.24    4.98   0
  -1   8  -2   39.51    5.90   0
   1  -8  -2   49.57    4.61   0
   2   8  -2    3.88    4.74   0
  -2  -8  -2    6.42    5.41   0
   2  -8  -2    2.37    5.52   0
   2  -8   2    5.74    5.88   0
   2   8   2    9.00    4.88   0
  -2  -8   2    8.25    4.62   0
   3   8  -2   18.46    5.01   0
  -3  -8   2   14.79    4.86   0
  -3  -8  -2   10.67    4.86   0
   3  -8   2   11.40    6.75   0
   3   8   2   10.71    4.98   0
   3  -8  -2   18.79    5.05   0
   4  -8   2   10.68    8.00   0
   4   8  -2   16.91    6.11   0
  -4  -8  -2   10.18    5.12   0
  -4  -8   2   21.26    5.09   0
   4  -8  -2   11.67    5.34   0
   4   8   2   15.70    5.36   0
   5  -8   2   12.41    8.87   0
  -5  -8  -2   27.20    6.65   0
   5  -8   2   17.39    8.45   0
   5   8  -2   19.25    6.68   0
   5   8   2   23.64    5.93   0
   5  -8  -2   19.14    5.87   0
  -5  -8   2   36.19    5.61   0
   6   8   2    7.70    7.37   0
   6  -8   2    5.69   10.68   0
   6  -8  -2    5.10    7.77   0
   6   8  -2    5.37    7.33   0
  -6  -8  -2   10.36    6.24   0
   6  -8   2    4.69   10.41   0
  -6  -8   2   10.69    6.23   0
   7  -8   2   -0.45   11.62   0
  -7  -8  -2    4.59    7.32   0
   7   8  -2    7.97    7.10   0
   7  -8   2   -0.04   11.90   0
   7   8   2    1.06    7.38   0
   1   9  -2   99.23    5.34   0
   1  -9   2   96.66    6.25   0
  -1  -9  -2  106.75    5.39   0
  -1  -9   2  102.64    5.35   0
   1   9   2   95.89    5.41   0
  -1   9  -2   94.04    6.50   0
   1  -9  -2  116.37    5.28   0
   2   9  -2   -2.41    4.99   0
  -2  -9   2   -0.26    5.70   0
  -2  -9  -2    2.98    4.65   0
   2  -9   2   -0.16    5.86   0
   2   9   2    5.70    4.86   0
   2  -9  -2   -1.40    4.77   0
  -3  -9   2   91.39    5.53   0
   3   9   2   83.39    5.63   0
   3   9  -2   84.91    5.76   0
   3  -9   2   66.24    7.73   0
   3  -9  -2   96.51    5.55   0
  -3  -9  -2   88.16    6.21   0
   4  -9   2  204.06    9.54   0
   4  -9  -2  234.34    7.73   0
   4   9  -2  243.53    6.78   0
  -4  -9   2  291.03    6.45   0
   4   9   2  182.59    7.64   0
  -4  -9  -2  197.54    6.52   0
   5  -9   2   13.34    9.53   0
  -5  -9  -2   22.28    6.04   0
  -5  -9   2   26.63    6.80   0
   5   9  -2   30.33    6.13   0
   5  -9  -2   20.41    6.25   0
   5   9   2   20.56    6.27   0
   6  -9   2   41.62   11.50   0
  -6  -9   2   66.10    6.85   0
   6   9  -2   68.84    7.59   0
  -6  -9  -2   57.04    7.09   0
   6  -9  -2   27.79    7.24   0
   6  -9   2   53.51   11.21   0
   6   9   2   59.70    7.17   0
  -7  -9  -2   36.72    8.57   0
   7   9  -2   26.49    7.96   0
   7  -9  -2   21.12    9.32   0
   7  -9   2   34.82   14.49   0
   7   9   2   34.50    8.17   0
   7  -9   2   14.61   14.21   0
   0 -10  -2  665.03    8.20   0
   0 -10   2  555.71    8.39   0
   0  10   2  604.04    8.03   0
   0  10  -2  677.23    8.57   0
   1  10  -2  103.02    6.78   0
  -1 -10  -2  113.65    5.59   0
  -1 -10   2  126.28    6.63   0
  -1  10  -2   99.81    6.91   0
   1  10   2   74.58    6.31   0
   1 -10   2  108.93    6.78   0
   1 -10  -2  107.34    5.40   0
   2  10  -2   86.93    5.78   0
  -2 -10  -2   98.42    5.65   0
   2 -10   2   64.16    6.60   0
   2  10   2   84.29    5.80   0
  -2 -10   2   89.99    6.66   0
   2 -10  -2   59.97    6.42   0
  -3 -10   2  230.19    7.35   0
  -3 -10  -2  211.00    6.49   0
   3  10  -2  236.25    6.45   0
   3 -10  -2  217.05    6.46   0
   3  10   2  195.47    6.61   0
   3 -10   2  162.75    8.12   0
   4  10  -2   17.64    5.81   0
   4 -10   2    8.17    8.28   0
  -4 -10   2   16.61    6.62   0
   4 -10  -2   12.50    6.93   0
   4  10   2    7.78    5.78   0
  -4 -10  -2   21.87    5.64   0
  -5 -10   2   -1.62    6.21   0
  -5 -10  -2    0.13    6.26   0
   5 -10   2    0.16    9.42   0
   5  10  -2   -0.47    6.36   0
   5 -10  -2   -2.34    6.43   0
   5  10   2   -5.09    6.42   0
  -6 -10   2    0.17    7.08   0
   6 -10   2   -1.71   11.62   0
   6  10  -2   -1.69    6.96   0
  -6 -10  -2   -0.11    8.13   0
   6 -10   2    0.72   10.95   0
   6  10   2   -5.24    7.30   0
   6 -10  -2   -0.52    8.32   0
  -7 -10  -2    0.84    8.88   0
  -7 -10   2    2.04    7.40   0
   7  10  -2   -4.94    8.77   0
   7 -10  -2    6.80   10.04   0
   7 -10   2    4.18   14.29   0
   7  10   2   -2.16    9.10   0
   1 -11  -2   30.08    6.36   0
  -1 -11  -2   42.37    5.37   0
  -1 -11   2   40.43    5.57   0
   1  11   2   39.11    5.78   0
  -1  11  -2   27.12    6.45   0
   1  11  -2   26.88    6.73   0
   1 -11   2   28.82    6.21   0
   2  11  -2    7.52    5.50   0
   2  11   2    5.60    5.64   0
  -2 -11  -2    6.70    6.33   0
   2 -11   2    8.61    6.69   0
  -2 -11   2    6.72    5.45   0
   2 -11  -2    4.16    6.31   0
   3  11  -2   42.12    6.88   0
  -3 -11  -2   41.01    5.91   0
   3  11   2   47.64    6.12   0
   3 -11   2   39.21    7.34   0
   3 -11  -2   47.60    7.15   0
  -3 -11   2   66.41    6.04   0
   4  11  -2   19.69    7.17   0
  -4 -11   2   25.83    7.20   0
   4  11   2   13.00    6.42   0
  -4 -11  -2   22.74    6.27   0
   4 -11  -2   11.82    6.27   0
   4 -11   2   15.31    7.57   0
   5  11  -2   11.07    6.84   0
  -5 -11  -2    4.16    6.74   0
   5 -11   2    4.92   10.18   0
   5 -11  -2    4.92    7.09   0
   5  11   2    9.11    7.85   0
  -5 -11   2   17.31    6.64   0
  -6 -11  -2   33.98    7.83   0
   6  11  -2   29.97    7.91   0
   6 -11   2   14.65   12.10   0
   6  11   2   18.06    7.92   0
   6 -11  -2    5.53    8.89   0
   6 -11   2   16.68   12.21   0
  -6 -11   2   31.55    7.75   0
   0  12   2   68.21    6.21   0
   0 -12   2   71.35    6.98   0
   0 -12  -2   69.42    5.90   0
   0  12  -2   48.11    7.00   0
   1 -12  -2  133.50    6.19   0
  -1 -12  -2  103.57    6.36   0
  -1 -12   2  136.79    7.53   0
   1  12   2  128.96    6.43   0
  -1  12  -2  107.92    8.20   0
   1  12  -2  133.15    7.36   0
   1 -12   2   99.27    7.58   0
  -2 -12  -2   22.78    5.77   0
  -2 -12   2   42.53    6.21   0
   2  12   2   28.76    6.02   0
   2 -12   2   25.56    7.07   0
   2 -12  -2   29.92    6.04   0
   2  12  -2   30.44    6.20   0
   3  12  -2   16.85    7.26   0
   3  12   2   12.78    6.29   0
   3 -12   2    9.27    8.17   0
  -3 -12  -2   13.58    6.30   0
   3 -12  -2    5.70    7.14   0
  -3 -12   2   15.51    7.05   0
  -4 -12  -2    0.96    6.64   0
   4  12  -2    0.84    6.65   0
  -4 -12   2    3.29    6.60   0
   4 -12  -2    1.40    7.81   0
   4 -12   2    2.85    8.80   0
   4  12   2   -4.10    6.76   0
   5  12  -2    9.71    8.31   0
  -5 -12  -2    6.03    8.24   0
   5 -12   2    6.97   10.82   0
   5 -12  -2    1.86    9.09   0
   5  12   2   18.33    7.47   0
  -5 -12   2    6.07    8.27   0
   6 -12  -2    5.27    9.82   0
  -6 -12   2    6.81    8.21   0
  -6 -12  -2    6.52    8.50   0
   1  13   2   29.11    6.63   0
   1 -13   2   53.39    7.79   0
   1 -13  -2   45.45    6.26   0
  -1 -13   2   60.54    6.58   0
  -1 -13  -2   25.80    6.85   0
  -1  13  -2   28.77    6.47   0
   1  13  -2   30.67    6.58   0
   2 -13  -2   13.06    6.45   0
  -2 -13  -2    8.36    6.47   0
   2  13   2    4.01    7.14   0
  -2 -13   2   21.05    6.63   0
   2 -13   2   14.17    7.63   0
   2  13  -2   13.79    6.51   0
  -3 -13  -2  199.15    7.60   0
   3  13   2  132.02    7.70   0
   3 -13   2  224.73    9.75   0
   3 -13  -2   90.51    8.13   0
  -3 -13   2  128.38    8.61   0
   3  13  -2  203.84    7.64   0
  -4 -13  -2   48.41    8.10   0
   4  13  -2   62.60    7.74   0
  -4 -13   2  104.55    7.91   0
   4 -13   2   57.12   10.31   0
   4  13   2   44.57    7.73   0
   4 -13  -2   32.16    7.72   0
   5 -13   2   23.44   12.36   0
   5  13  -2   58.26    8.56   0
  -5 -13  -2   36.32    8.35   0
   5  13   2   29.63    8.45   0
  -5 -13   2   68.21    8.28   0
   5 -13  -2   31.73    8.44   0
   0 -14   2  177.41    9.13   0
   0 -14  -2  158.67    7.32   0
   0  14  -2  112.72    7.80   0
   1 -14   2   -1.67    6.76   0
   1 -14  -2   -4.17    6.67   0
   1  14   2    0.22    7.41   0
  -1 -14   2   -4.26    7.95   0
  -1 -14  -2    2.54    6.60   0
  -1  14  -2    0.73    8.39   0
   1  14  -2    3.97    7.97   0
   2 -14  -2   25.95    8.11   0
   2  14   2   17.45    8.20   0
  -2 -14  -2   15.19    7.69   0
  -2 -14   2   30.13    8.43   0
   2  14  -2   39.66    8.34   0
   2 -14   2   29.14    8.94   0
   3 -14  -2   15.28    8.48   0
   3  14   2   25.51    7.60   0
  -3 -14  -2   12.19    8.48   0
   3 -14   2   11.98    9.80   0
   3  14  -2   18.80    7.48   0
  -3 -14   2   14.05    8.67   0
  -4 -14  -2   10.06    9.08   0
  -4 -14   2    9.62    8.15   0
   4  14   2    1.65    8.23   0
   4 -14   2    7.17   10.42   0
   4 -14  -2    0.40    8.20   0
   4  14  -2    5.92    8.20   0
   1  15   2    9.02    7.74   0
   1 -15   2   20.39    9.44   0
   1 -15  -2    9.73    7.73   0
  -1 -15  -2   22.40    7.48   0
  -1  15  -2   18.21    9.09   0
  -1 -15   2   29.74    8.85   0
   1  15  -2   22.65    8.84   0
   2 -15   2    1.43    9.72   0
   2 -15  -2   -1.37    7.79   0
   2  15   2    1.26    7.95   0
  -2 -15  -2    1.68    7.61   0
  -2 -15   2    2.91    8.07   0
   2  15  -2    4.45    8.22   0
   3 -15  -2    6.05    8.43   0
   3  15   2    0.54    8.49   0
   3  15  -2    2.85    8.91   0
  -3 -15  -2    4.29    8.30   0
   3 -15   2   -0.78   10.42   0
  -3 -15   2   -0.10    8.27   0
   0  16  -2   41.54    9.11   0
   0 -16   2   76.05    8.93   0
   0 -16  -2   37.89    8.74   0
  -1 -16  -2   13.10    8.52   0
  -1   1  -3 1248.20   16.55   0
  -1  -1  -3 1271.04   13.04   0
  -2  -1  -3   68.77    5.74   0
   2   1   3   76.47    6.34   0
  -2   1  -3   63.09    8.28   0
  -3   1  -3  131.64    9.03   0
   3   1  -3  183.59    5.60   0
   3   1   3  166.77    7.18   0
  -3  -1  -3  177.99    6.99   0
   4   1  -3 1580.38   10.69   0
  -4  -1  -3 1642.18   14.77   0
   4  -1   3 1314.27   18.13   0
   4   1   3 1519.08   14.54   0
   5  -1  -3  240.19    6.31   0
   5   1  -3  216.35    6.03   0
  -5  -1  -3  256.26    7.88   0
   5   1   3  194.44    7.78   0
   5  -1   3  192.86    9.78   0
   6   1   3   84.26    8.06   0
   6  -1   3   85.20    8.47   0
   6  -1  -3  107.11    6.15   0
   6   1  -3  110.07    6.21   0
  -6  -1  -3  105.97    7.15   0
   7   1   3  140.05    9.21   0
   7  -1  -3  157.18    7.06   0
   7  -1   3  142.80    9.68   0
   7   1  -3  140.10    6.98   0
   8  -1  -3   35.35    7.81   0
   8   1   3   34.75    9.54   0
   8  -1   3   33.71   10.40   0
   8   1  -3   29.34    8.80   0
   0  -2  -3  941.89   10.45   0
   0   2  -3  786.38   11.16   0
   1   2  -3 1479.54   12.22   0
  -1   2  -3 1602.05   19.95   0
  -1  -2  -3 1632.44   13.13   0
  -2  -2  -3 1424.44   13.07   0
   2   2  -3 1310.18   10.55   0
   2   2   3 1271.35   11.97   0
  -3  -2  -3  189.91    6.79   0
   3   2   3  173.71    6.22   0
   3   2  -3  191.59    5.57   0
  -4  -2  -3    8.15    5.59   0
   4   2  -3   12.51    4.79   0
   4  -2   3    6.12   10.31   0
   4   2   3    7.44    4.75   0
   5   2  -3   -1.61    5.09   0
  -5  -2  -3   -0.91    5.91   0
   5   2   3    2.66    6.10   0
   5  -2   3   -1.29    8.79   0
   6   2   3   18.19    7.09   0
   6  -2   3   15.97    8.72   0
  -6  -2  -3   22.33    6.73   0
   6   2  -3   20.32    5.67   0
   6  -2  -3   19.37    5.80   0
   7   2   3  102.09    8.31   0
   7  -2   3  114.19   10.62   0
   7   2  -3  116.86    7.03   0
   7  -2  -3  104.78    7.67   0
   8   2   3   54.98    9.66   0
   8  -2   3   63.43   11.46   0
   8  -2  -3   53.14    8.14   0
   8   2  -3   54.13    7.76   0
  -1   3  -3  206.02    9.80   0
   1   3  -3  295.31    7.45   0
  -1  -3  -3  244.09    6.11   0
  -2  -3  -3   91.96    5.06   0
   2   3  -3  124.13    6.20   0
   2   3   3  100.32    5.42   0
   3   3  -3  481.90    6.99   0
  -3  -3  -3  409.52    7.43   0
   3   3   3  458.63    7.83   0
  -4  -3  -3   23.18    4.76   0
   4   3   3   32.72    6.04   0
   4   3  -3   28.72    4.97   0
   5   3  -3   14.74    5.26   0
  -5  -3  -3   12.94    6.04   0
   5  -3   3   10.13   15.17   0
   5   3   3   15.05    6.27   0
   6  -3   3   26.23   10.89   0
   6  -3  -3   31.55    5.92   0
  -6  -3  -3   29.11    5.82   0
   6   3  -3   25.46    5.78   0
   6   3   3   23.36    7.20   0
   7   3   3    3.15    7.70   0
   7  -3   3    1.76   11.13   0
   7   3  -3   -1.25    6.47   0
   7  -3  -3    3.85    6.77   0
  -7  -3  -3    1.75    6.20   0
   8   3   3    2.34    8.92   0
   8  -3   3   10.88   12.29   0
   8   3  -3    1.34    7.53   0
   8  -3  -3    8.57    8.03   0
   0   4  -3   24.34    5.66   0
   0  -4  -3   31.63    4.50   0
  -1   4  -3 1425.10   18.80   0
   1   4  -3 1389.51   11.80   0
   1   4   3 1542.40   11.45   0
   1  -4  -3 1873.86   12.00   0
  -1  -4  -3 1852.33   12.39   0
  -2  -4  -3    5.90    5.13   0
   2   4  -3    4.45    4.42   0
   2   4   3   -1.26    5.39   0
  -3  -4  -3   85.76    5.90   0
   3   4  -3   94.47    5.14   0
   3   4   3   93.27    5.46   0
   4   4  -3  494.63    7.22   0
   4   4   3  453.52    7.72   0
  -4  -4  -3  377.21    7.26   0
   5   4  -3  236.47    6.43   0
  -5  -4  -3  232.45    7.65   0
   5   4   3  198.86    7.64   0
  -6  -4  -3    6.94    5.79   0
   6   4  -3   10.10    5.83   0
   6   4   3    6.62    6.93   0
   7  -4   3    9.12   13.94   0
   7   4  -3    9.78    6.62   0
   7  -4  -3   16.35    6.99   0
  -7  -4  -3    7.83    7.44   0
   7   4   3   10.80    6.78   0
   8  -4   3   42.15   16.74   0
   8   4  -3   34.74    8.08   0
   8  -4  -3   37.31    9.51   0
   8   4   3   42.32    9.39   0
   1   5  -3 1062.95   10.83   0
  -1   5  -3  765.16   13.16   0
   1  -5  -3  988.47    9.02   0
   1   5   3  874.75    8.81   0
  -1  -5   3 1166.84   10.98   0
  -1  -5  -3 1100.47    9.57   0
   2   5  -3   54.89    4.87   0
  -2  -5  -3   64.74    5.56   0
   2  -5  -3   28.00    4.56   0
   2   5   3   57.31    4.94   0
   3   5  -3   11.89    4.72   0
  -3  -5  -3   13.95    5.31   0
   3   5   3    6.87    4.80   0
   4   5  -3 1029.17    9.76   0
   4   5   3  816.79    9.65   0
  -4  -5  -3  714.26    9.04   0
   5   5  -3  488.65    7.65   0
  -5  -5  -3  380.29    7.81   0
   5   5   3  389.98    8.23   0
   6   5  -3    6.97    5.70   0
   6   5   3    6.52    7.00   0
  -6  -5  -3   -0.92    7.04   0
   7   5  -3  162.10    8.49   0
   7  -5  -3  162.97    7.92   0
  -7  -5  -3  134.76    8.73   0
   7   5   3  132.90    8.78   0
   8  -5  -3   38.25    8.70   0
  -8  -5  -3   43.70    9.50   0
   8   5  -3   52.32    8.20   0
   8   5   3   38.42    9.60   0
   0  -6   3  223.16    6.55   0
   0   6  -3  274.12    7.50   0
   0  -6  -3  310.85    6.11   0
  -1   6  -3    9.36    6.17   0
   1   6   3   12.87    4.67   0
   1  -6  -3   13.50    4.46   0
   1   6  -3    8.36    4.62   0
   1  -6   3   12.97    6.17   0
  -1  -6   3   15.31    5.43   0
  -1  -6  -3   11.95    4.35   0
  -2  -6  -3  149.14    5.41   0
  -2  -6   3  151.49    5.29   0
   2  -6  -3  150.42    5.61   0
   2   6   3  177.38    5.83   0
   2   6  -3  159.29    5.58   0
   3   6   3    4.56    4.82   0
  -3  -6   3    6.47    4.67   0
  -3  -6  -3    5.50    5.39   0
   3   6  -3    5.27    4.91   0
   4   6  -3    5.83    5.13   0
   4   6   3   -1.32    6.11   0
  -4  -6  -3    0.63    6.02   0
   5   6  -3  111.04    6.00   0
  -5  -6  -3   85.90    6.09   0
   5   6   3   78.16    6.39   0
   6   6   3   45.36    7.61   0
  -6  -6  -3   59.69    6.66   0
   6   6  -3   76.78    7.43   0
  -7  -6  -3    3.50    8.02   0
   7   6  -3   -2.63    7.92   0
   7   6   3   -0.18    8.32   0
   8   6  -3   -5.95    8.15   0
  -8  -6  -3    0.01    9.55   0
   8  -6  -3    5.91    9.32   0
  -1  -7  -3   18.92    4.73   0
   1   7   3   32.48    5.09   0
   1  -7   3   21.65    6.57   0
   1   7  -3   18.44    5.62   0
   1  -7  -3   19.18    4.63   0
  -1   7  -3   23.52    5.77   0
  -1  -7   3   21.12    5.46   0
   2  -7  -3   36.18    4.91   0
  -2  -7  -3   30.57    4.88   0
  -2  -7   3   31.62    4.81   0
   2   7   3   31.92    5.13   0
   2   7  -3   36.46    5.83   0
   2  -7   3   26.01    8.24   0
  -3  -7  -3  271.99    6.49   0
  -3  -7   3  381.65    6.92   0
   3   7   3  349.34    7.20   0
   3   7  -3  410.90    8.02   0
   3  -7  -3  392.75    6.94   0
   4  -7  -3   76.17    5.74   0
  -4  -7   3  123.29    5.65   0
   4   7   3   95.16    6.21   0
  -4  -7  -3   80.99    5.83   0
   4   7  -3  107.12    5.80   0
  -5  -7  -3   31.31    5.90   0
   5   7  -3   23.64    5.75   0
   5   7   3   22.62    7.26   0
   6   7  -3   13.84    6.46   0
   6   7   3   27.61    6.78   0
  -6  -7  -3   28.29    6.66   0
  -7  -7  -3   25.67    8.65   0
   7   7  -3   13.43    7.43   0
   7   7   3   23.56    7.67   0
   0   8  -3 1003.02   11.08   0
   0  -8   3  834.31   10.26   0
   0  -8  -3 1183.92    9.72   0
   1  -8   3  143.42    7.37   0
  -1  -8  -3  185.86    5.77   0
   1   8  -3  135.21    5.71   0
   1   8   3  177.86    6.03   0
   1  -8  -3  161.04    5.74   0
  -1   8  -3  135.49    7.33   0
  -1  -8   3  145.60    5.71   0
  -2  -8   3 1011.50   10.26   0
   2  -8   3  766.20   14.60   0
   2   8  -3  864.18    9.98   0
  -2  -8  -3  645.80    7.98   0
   2   8   3  803.75    9.09   0
   2  -8  -3  753.10    8.22   0
  -3  -8  -3  149.94    6.03   0
   3  -8  -3  167.26    6.02   0
   3  -8   3  112.78   13.81   0
   3   8  -3  155.16    6.16   0
   3   8   3  144.69    6.25   0
  -3  -8   3  171.10    5.91   0
  -4  -8   3   45.81    6.39   0
   4   8  -3   42.87    5.78   0
   4  -8  -3   30.96    5.65   0
   4   8   3   39.33    5.88   0
  -4  -8  -3   32.56    6.64   0
  -5  -8  -3   21.08    7.11   0
   5  -8  -3   10.12    6.13   0
   5   8  -3   24.19    6.82   0
   5   8   3   17.51    6.33   0
   6  -8  -3   38.08    7.07   0
  -6  -8  -3   39.72    7.00   0
   6   8  -3   52.42    6.97   0
   6   8   3   40.19    7.29   0
  -7  -8  -3   18.02    8.12   0
   7   8  -3   25.11    7.88   0
   7   8   3   18.78    8.26   0
  -1  -9  -3    3.72    4.93   0
   1   9  -3    8.10    5.94   0
  -1  -9   3   10.21    5.03   0
   1   9   3    8.68    5.19   0
  -1   9  -3    7.73    6.15   0
   1  -9   3    6.63    6.04   0
   1  -9  -3    5.21    4.94   0
  -2  -9  -3  133.18    5.86   0
   2   9  -3  123.27    5.90   0
   2   9   3   99.03    6.73   0
  -2  -9   3  125.56    5.90   0
   2  -9  -3  143.28    5.81   0
   2  -9   3  110.40    8.49   0
  -3  -9   3  108.08    5.85   0
  -3  -9  -3   64.91    5.79   0
   3   9  -3   89.70    5.89   0
   3  -9  -3   92.60    5.82   0
   3   9   3   83.43    6.16   0
   3  -9   3   58.62   10.11   0
  -4  -9   3  284.92    7.79   0
   4   9  -3  267.10    7.04   0
   4  -9  -3  191.84    6.86   0
   4   9   3  183.28    7.24   0
  -4  -9  -3  179.90    7.82   0
   5  -9  -3   23.62    6.76   0
  -5  -9  -3   28.81    6.41   0
   5   9  -3   33.14    6.40   0
   5   9   3   30.41    6.76   0
  -5  -9   3   40.21    6.33   0
  -6  -9  -3   15.34    7.34   0
   6  -9  -3    9.80    7.39   0
   6   9  -3   10.13    7.17   0
   6   9   3   11.71    7.46   0
  -7  -9  -3   44.34    9.76   0
   7  -9  -3   23.06    9.91   0
   7   9  -3   46.76    8.64   0
   7   9   3   31.37    8.73   0
   0 -10  -3  894.08    9.97   0
   0 -10   3  700.48    9.89   0
   0  10  -3  755.03   10.83   0
  -1 -10   3  124.97    6.22   0
   1  10  -3  128.52    7.23   0
  -1 -10  -3  140.37    6.07   0
   1  10   3   91.37    6.90   0
  -1  10  -3  138.15    7.62   0
   1 -10   3  142.75    8.24   0
   1 -10  -3   95.64    6.84   0
   2  10  -3   19.97    5.57   0
  -2 -10  -3   14.59    5.51   0
   2  10   3   14.78    6.52   0
   2 -10   3   10.03    7.53   0
   2 -10  -3    9.14    6.10   0
  -2 -10   3   16.18    5.55   0
  -3 -10   3  139.23    7.52   0
   3  10  -3  142.43    6.48   0
   3 -10   3   79.35   10.18   0
  -3 -10  -3   98.91    6.30   0
   3  10   3   79.66    7.33   0
   3 -10  -3  132.37    7.27   0
   4 -10   3    1.66   13.87   0
   4  10  -3    9.05    6.93   0
  -4 -10   3    9.45    5.83   0
   4 -10  -3    5.96    6.19   0
   4  10   3    1.90    6.88   0
  -4 -10  -3    7.72    6.01   0
  -5 -10  -3   11.05    6.83   0
  -5 -10   3    6.87    6.46   0
   5  10  -3   14.01    6.61   0
   5 -10  -3    5.01    6.81   0
   5  10   3    7.31    7.96   0
   6  10  -3   17.62    7.76   0
  -6 -10  -3   21.16    9.00   0
   6 -10  -3   10.83    7.92   0
   6  10   3   17.17    9.13   0
   1  11  -3  132.37    7.29   0
  -1 -11   3  113.98    6.45   0
  -1 -11  -3  140.17    6.40   0
   1  11   3  118.80    6.42   0
  -1  11  -3  119.16    7.81   0
   1 -11   3   81.04    7.59   0
   1 -11  -3  129.07    6.25   0
   2  11  -3   -3.62    5.88   0
  -2 -11   3    4.02    6.74   0
  -2 -11  -3    2.61    6.56   0
   2 -11   3   -0.44    7.55   0
   2  11   3   -1.36    5.84   0
   2 -11  -3    7.43    6.62   0
   3  11  -3   12.85    6.77   0
   3 -11   3    4.75    8.69   0
  -3 -11  -3   11.26    6.15   0
   3  11   3   18.43    6.28   0
  -3 -11   3   18.82    6.13   0
   3 -11  -3    6.58    5.96   0
   4  11  -3   81.95    7.23   0
  -4 -11   3  153.53    7.23   0
   4  11   3   76.94    7.17   0
   4 -11  -3   55.85    7.10   0
   4 -11   3   80.21   12.89   0
  -4 -11  -3   71.51    7.52   0
  -5 -11  -3   55.65    7.66   0
   5  11  -3  112.30    7.66   0
  -5 -11   3  134.57    7.89   0
   5 -11  -3   32.08    7.62   0
   5  11   3   58.17    8.97   0
   6  11  -3   -1.00    8.34   0
  -6 -11  -3   18.10    8.42   0
   6 -11  -3   10.80    8.46   0
   6  11   3   11.03    9.73   0
   0 -12  -3   11.21    5.96   0
   0  12  -3   12.51    7.20   0
   0 -12   3   14.46    7.54   0
   1 -12  -3  103.29    7.42   0
  -1 -12   3  116.42    7.79   0
  -1 -12  -3   72.88    6.47   0
   1  12   3   99.04    6.84   0
   1 -12   3   66.05    7.83   0
  -1  12  -3   99.40    8.68   0
   1  12  -3   92.02    8.14   0
   2  12  -3   12.80    6.29   0
  -2 -12   3   10.34    6.30   0
  -2 -12  -3   12.31    6.38   0
   2 -12   3    4.21    8.25   0
   2  12   3    8.65    6.50   0
   2 -12  -3    5.92    6.29   0
   3  12  -3    7.47    6.74   0
   3  12   3   -0.39    7.26   0
  -3 -12  -3    5.60    6.54   0
   3 -12   3    6.39    9.45   0
  -3 -12   3    8.66    7.67   0
   3 -12  -3    1.30    6.64   0
   4 -12   3   19.23   12.07   0
  -4 -12   3   53.62    7.31   0
   4  12  -3   30.87    7.33   0
   4  12   3   23.61    7.40   0
   4 -12  -3   17.19    7.41   0
  -4 -12  -3   36.13    7.27   0
  -5 -12  -3   -2.81    7.98   0
  -5 -12   3   -1.04    7.89   0
   5  12  -3   -1.16    7.98   0
   5  12   3   -0.41    8.09   0
   5 -12  -3    6.22    7.92   0
   1 -13   3   10.93    7.85   0
  -1 -13   3   13.97    8.06   0
   1 -13  -3    9.55    7.50   0
  -1 -13  -3    7.33    6.48   0
   1  13   3   10.13    6.68   0
  -1  13  -3    8.24    8.09   0
   1  13  -3    8.88    7.64   0
  -2 -13  -3   20.80    6.95   0
  -2 -13   3   37.73    7.17   0
   2  13   3   18.58    7.06   0
   2 -13   3   28.99    8.76   0
   2  13  -3   29.23    8.06   0
   2 -13  -3   21.06    6.80   0
   3  13  -3    9.81    7.27   0
   3 -13   3    2.61    9.74   0
   3  13   3    3.64    7.43   0
  -3 -13   3   10.35    7.27   0
  -3 -13  -3    6.41    8.18   0
   3 -13  -3    5.82    8.28   0
   4  13  -3    5.26    7.90   0
  -4 -13   3    5.20    7.81   0
   4 -13   3    2.27   12.11   0
   4  13   3    7.89    7.94   0
   4 -13  -3   11.18    7.83   0
  -4 -13  -3    4.85    7.84   0
   0 -14  -3    5.57    7.28   0
   0  14  -3   11.33    8.91   0
   0 -14   3   19.20    7.39   0
  -1 -14   3  181.59    9.11   0
   1 -14  -3   85.66    7.61   0
  -1 -14  -3  132.14    7.83   0
   1 -14   3  140.70    9.33   0
   1  14  -3  121.07    9.66   0
  -1  14  -3   72.27   10.45   0
   2 -14  -3   10.69    7.52   0
  -2 -14  -3    5.02    7.51   0
  -2 -14   3   21.52    7.75   0
   2  14   3    7.70    7.74   0
   2 -14   3    4.45    9.38   0
   2  14  -3   15.88    8.77   0
   3  14   3    8.32    8.06   0
   3 -14   3    7.19   11.05   0
  -3 -14   3   26.55    8.23   0
  -3 -14  -3   12.35    7.93   0
   3 -14  -3    8.32    8.04   0
   3  14  -3   10.82    8.37   0
  -1 -15   3   -2.21    8.10   0
   1 -15  -3   -1.17    8.04   0
  -1 -15  -3    5.01    8.40   0
  -1  15  -3    3.41    9.82   0
   1  15  -3    1.84    9.39   0
   1 -15   3    7.49   10.13   0
   2 -15  -3    7.81    8.89   0
  -2 -15   3   21.95    8.68   0
   2  15   3    2.71    9.10   0
  -2 -15  -3   13.36    8.41   0
   2 -15   3    9.48   10.53   0
   2  15  -3   19.43    8.73   0
  -1   0  -4   12.04    5.61   0
  -2   0  -4  163.33    7.78   0
  -3   0  -4 1402.78   16.59   0
   4   0  -4    4.61    4.88   0
  -4   0  -4    4.83    7.58   0
  -5   0  -4   -0.94    7.89   0
   5   0   4    0.62    8.54   0
   5   0  -4    0.81    5.37   0
   6   0   4  246.33   11.75   0
   6   0  -4  339.58    7.45   0
   7   0  -4    1.33    6.93   0
   7   0   4    2.57    9.83   0
   8   0   4   42.73   12.90   0
   8   0  -4   44.19    8.28   0
  -1   1  -4  695.05   11.78   0
  -1  -1  -4  550.87    8.83   0
  -2  -1  -4   63.84    6.14   0
  -2   1  -4   67.43    7.62   0
  -3   1  -4  255.87   12.00   0
  -3  -1  -4  296.41    8.93   0
   3   1  -4  290.31    6.21   0
  -4  -1  -4  234.64    8.16   0
   4   1  -4  233.60    6.18   0
   4   1   4  262.46    9.38   0
   5  -1  -4  301.32    7.02   0
  -5  -1  -4  277.47    9.03   0
   5   1   4  243.29    9.87   0
   5   1  -4  302.56    6.97   0
   6   1  -4   93.48    6.32   0
   6  -1  -4   95.23    6.33   0
   6  -1   4   67.96   12.23   0
   6   1   4   63.08    8.91   0
  -6  -1  -4   81.63    8.82   0
   7   1  -4    2.26    6.90   0
   7  -1  -4    1.35    6.81   0
   7  -1   4    0.70   11.88   0
   7   1   4   -0.03    9.28   0
   8  -1  -4    3.82    8.18   0
   8  -1   4    6.40   13.82   0
   8   1  -4   13.39    8.62   0
   8   1   4    6.24   11.29   0
   0  -2  -4  108.19    5.31   0
   1   2  -4  151.78    6.58   0
  -1  -2  -4  124.99    5.65   0
  -2  -2  -4  171.96    6.95   0
   2   2  -4  214.73    6.60   0
  -2   2  -4  142.28   10.74   0
   3   2  -4   56.18    5.29   0
  -3  -2  -4   58.93    6.15   0
   3   2   4   68.71    6.30   0
  -4  -2  -4   52.24    6.40   0
   4   2   4   47.45    6.69   0
   4   2  -4   59.40    5.36   0
   5   2  -4   69.44    6.75   0
   5   2   4   46.93    7.72   0
  -5  -2  -4   57.20    7.25   0
   6   2  -4   -5.02    6.02   0
  -6  -2  -4   -3.35    7.08   0
   6   2   4   -4.69    8.09   0
   6  -2  -4    4.37    6.84   0
   7  -2  -4    3.77    6.95   0
   7   2  -4    7.09    6.92   0
   7   2   4    3.83    8.81   0
   8  -2  -4    6.88    9.01   0
   8   2  -4   10.49    8.35   0
   8   2   4   11.09   11.26   0
  -1   3  -4   27.08    7.05   0
   1   3  -4   31.29    5.87   0
  -1  -3  -4   24.31    4.69   0
  -2  -3  -4  151.29    6.69   0
   2   3  -4  131.17    5.44   0
   3   3  -4  382.45    6.95   0
  -3  -3  -4  300.17    7.21   0
   3   3   4  409.03    8.58   0
   4   3  -4  207.56    6.89   0
   4   3   4  151.26    7.36   0
  -4  -3  -4  177.61    7.38   0
  -5  -3  -4  100.97    7.52   0
   5   3   4  100.92    7.54   0
   5   3  -4  107.30    6.10   0
  -6  -3  -4  110.74    8.06   0
   6   3  -4  120.56    6.74   0
   6   3   4   85.32    8.13   0
  -7  -3  -4  123.12    9.88   0
   7   3  -4  128.77    8.64   0
   7  -3  -4  151.86    7.82   0
   7   3   4  105.13    9.91   0
   8   3  -4   12.44    8.37   0
   8  -3  -4    8.28    8.68   0
   8   3   4    8.05   11.12   0
   0   4  -4    3.39    5.61   0
   0  -4  -4    4.19    4.47   0
  -1   4  -4  374.66   10.76   0
   1  -4  -4  321.02    6.42   0
   1   4  -4  322.50    7.12   0
  -1  -4  -4  421.83    7.15   0
  -2  -4  -4   13.18    4.63   0
   2   4  -4   16.32    4.78   0
  -3  -4  -4  152.11    6.57   0
   3   4   4  190.95    7.31   0
   3   4  -4  206.47    6.93   0
   4   4   4   75.66    6.04   0
   4   4  -4   86.36    5.67   0
  -4  -4  -4   63.29    5.58   0
  -5  -4  -4   76.22    7.27   0
   5   4  -4   87.79    6.06   0
   5   4   4   62.52    7.27   0
   6   4  -4   60.99    7.65   0
   6   4   4   54.16    7.86   0
  -6  -4  -4   52.59    7.74   0
  -7  -4  -4    8.74    8.47   0
   7   4  -4    5.91    7.05   0
   7  -4  -4    4.49    7.33   0
   7   4   4   -4.62    9.11   0
   1   5  -4  187.22    6.18   0
  -1   5  -4  184.51    8.61   0
   1  -5  -4  172.82    5.79   0
  -1  -5  -4  257.85    6.27   0
  -2  -5  -4   10.09    5.49   0
   2   5  -4   15.20    5.97   0
   2  -5  -4   12.58    4.84   0
   2   5   4   21.14    5.88   0
  -3  -5  -4    4.14    5.04   0
   3   5  -4   -2.97    5.10   0
   3   5   4   -0.45    6.21   0
   4   5  -4  115.33    6.85   0
   4   5   4  101.31    7.31   0
  -4  -5  -4  108.58    7.01   0
  -5  -5  -4   49.95    6.15   0
   5   5  -4   65.51    5.97   0
   5   5   4   51.06    7.21   0
   6   5  -4   14.28    6.42   0
   6   5   4    3.69    7.84   0
  -6  -5  -4   11.27    7.84   0
   7   5  -4    4.13    7.42   0
  -7  -5  -4    5.69    8.55   0
   7   5   4   -0.49    8.78   0
   0   6  -4  623.79   10.12   0
   0  -6  -4  658.24    8.14   0
  -1   6  -4  765.57   13.29   0
   1  -6  -4 1022.39    9.34   0
  -1  -6  -4  928.84    9.42   0
   1   6  -4  983.71   10.96   0
   2   6  -4    8.16    5.76   0
  -2  -6  -4    3.68    4.76   0
   2   6   4    8.03    5.26   0
   2  -6  -4    1.48    4.84   0
   3   6  -4  174.99    6.45   0
  -3  -6  -4  160.74    7.01   0
   3  -6  -4   98.89    5.73   0
   3   6   4  164.68    6.53   0
   4   6  -4  206.95    6.71   0
   4   6   4  174.51    8.00   0
  -4  -6  -4  183.93    7.51   0
  -5  -6  -4  201.04    8.05   0
   5   6  -4  221.79    7.94   0
   5   6   4  191.99    8.35   0
   6   6  -4    2.43    6.62   0
  -6  -6  -4    5.96    7.60   0
   6   6   4   -2.82    6.86   0
  -7  -6  -4   16.08    9.55   0
   7   6   4   14.00    9.13   0
   7   6  -4   20.54    7.84   0
  -1   7  -4   15.05    7.00   0
   1  -7  -4   22.63    4.90   0
   1   7  -4   16.24    5.89   0
  -1  -7  -4   19.52    4.98   0
  -2  -7  -4  283.98    6.74   0
   2   7   4  446.05    8.50   0
   2  -7  -4  274.42    6.61   0
   2   7  -4  312.38    8.15   0
  -3  -7  -4   65.78    5.84   0
   3  -7  -4   88.73    5.80   0
   3   7   4   89.70    7.28   0
   3   7  -4   79.37    5.97   0
   4   7   4  230.27    7.57   0
  -4  -7  -4  215.61    7.16   0
   4  -7  -4  273.31    7.91   0
   4   7  -4  267.56    7.17   0
  -5  -7  -4  131.80    7.32   0
   5   7   4  144.41    8.39   0
   5   7  -4  222.37    7.10   0
  -6  -7  -4   36.20    8.75   0
   6   7   4   37.98    7.44   0
   6   7  -4   56.81    7.27   0
  -7  -7  -4   16.03    9.38   0
   7   7   4    3.31    9.52   0
   7   7  -4   -2.82    8.06   0
   0   8  -4   59.78    6.51   0
   0  -8  -4   45.51    5.25   0
  -1  -8  -4   23.74    5.20   0
   1   8  -4   22.16    5.36   0
   1  -8  -4   24.89    5.16   0
  -1   8  -4   18.25    7.42   0
  -2  -8  -4    1.31    5.21   0
   2   8   4   -4.19    5.43   0
   2   8  -4   -0.71    6.32   0
   2  -8  -4   -1.86    5.25   0
  -3  -8  -4    2.75    5.65   0
   3   8   4    5.20    6.00   0
   3  -8  -4    1.48    5.54   0
   3   8  -4    0.17    6.88   0
   4   8   4    5.41    7.31   0
  -4  -8  -4    5.28    5.95   0
   4   8  -4    6.98    6.14   0
   4  -8  -4    3.85    5.95   0
  -5  -8  -4   10.86    7.62   0
   5  -8  -4    7.57    6.49   0
   5   8   4    9.52    6.90   0
   5   8  -4    3.33    6.60   0
  -6  -8  -4    5.46    8.64   0
   6  -8  -4    0.65    8.60   0
   6   8   4    3.08    7.78   0
   6   8  -4    3.08    7.29   0
  -7  -8  -4    1.75   10.04   0
  -1  -9   4   45.78    5.51   0
  -1  -9  -4   39.34    5.73   0
   1   9  -4   43.06    6.44   0
   1  -9  -4   53.02    5.56   0
  -1   9  -4   32.24    7.92   0
  -2  -9   4    2.22    6.21   0
  -2  -9  -4   -0.66    5.54   0
   2   9  -4    0.23    6.34   0
   2   9   4    4.32    6.44   0
   2  -9  -4    4.22    5.50   0
   3   9  -4   45.50    6.28   0
   3   9   4   25.96    7.30   0
   3  -9  -4   32.55    5.89   0
  -3  -9  -4   37.23    6.01   0
   4  -9  -4   95.60    6.90   0
   4   9  -4  109.35    6.76   0
   4   9   4   76.47    6.95   0
  -4  -9  -4   64.91    7.69   0
  -5  -9  -4    8.50    7.01   0
   5  -9  -4    4.76    7.60   0
   5   9  -4   11.12    7.04   0
   5   9   4    4.72    7.38   0
  -6  -9  -4   20.69    9.24   0
   6  -9  -4   14.99    8.09   0
   6   9  -4   23.87    7.93   0
   6   9   4   13.05    8.38   0
   0  10  -4  222.39    8.89   0
   0 -10   4  276.85    9.00   0
   0 -10  -4  258.29    7.00   0
  -1 -10   4   49.35    6.04   0
  -1 -10  -4   47.54    5.95   0
   1  10  -4   47.48    7.00   0
   1 -10   4   41.88    8.06   0
  -1  10  -4   37.84    8.18   0
   1 -10  -4   26.01    5.72   0
  -2 -10   4   63.03    7.19   0
  -2 -10  -4   29.33    6.02   0
   2  10  -4   36.94    6.84   0
   2  10   4   31.66    6.38   0
   2 -10  -4   28.78    6.06   0
   3  10  -4   66.99    6.69   0
  -3 -10  -4   57.17    6.46   0
  -3 -10   4  111.09    7.61   0
   3  10   4   76.29    6.95   0
   3 -10  -4   84.95    6.75   0
   4  10  -4    4.74    7.74   0
   4  10   4   -2.31    6.97   0
   4 -10  -4    5.93    7.06   0
  -4 -10  -4   -4.49    6.89   0
  -5 -10  -4    4.68    7.42   0
   5  10  -4   -2.24    8.10   0
   5 -10  -4    2.32    7.46   0
   5  10   4   -3.11    8.66   0
  -6 -10  -4    1.01    8.54   0
   6  10  -4    3.53    8.58   0
   6 -10  -4    3.72    8.57   0
   6  10   4   -0.39    9.23   0
   1  11  -4   12.36    6.11   0
  -1 -11  -4    9.55    6.28   0
  -1  11  -4   11.72    8.46   0
   1 -11   4   15.08    8.22   0
  -1 -11   4   12.90    7.13   0
   1 -11  -4    9.34    6.15   0
  -2 -11   4    7.90    6.05   0
   2  11  -4    5.31    7.27   0
  -2 -11  -4   -0.55    6.31   0
   2  11   4    2.75    7.49   0
   2 -11   4    4.88    9.64   0
   2 -11  -4    2.44    6.28   0
  -3 -11   4   23.75    6.87   0
   3  11  -4   16.38    7.87   0
  -3 -11  -4   17.75    6.63   0
   3  11   4   18.68    7.09   0
   3 -11  -4   14.52    6.54   0
   4  11  -4    0.32    7.20   0
   4  11   4    1.49    8.12   0
   4 -11  -4    2.98    7.11   0
  -4 -11  -4    2.77    7.27   0
  -5 -11  -4    5.92    7.95   0
   5  11  -4   -2.29    8.19   0
   5  11   4    7.49    8.22   0
   5 -11  -4    3.98    8.09   0
   0 -12  -4   28.65    6.72   0
   0 -12   4   37.19    7.88   0
   0  12  -4   27.29    8.10   0
   1  12  -4   41.07    7.86   0
  -1 -12   4   50.30    7.77   0
  -1 -12  -4   33.37    6.68   0
   1 -12   4   61.37    9.36   0
  -1  12  -4   30.11    9.02   0
   1 -12  -4   36.16    6.71   0
   2 -12   4    8.38   10.47   0
   2  12  -4   13.53    7.75   0
   2  12   4    6.94    6.99   0
  -2 -12  -4    6.74    6.88   0
  -2 -12   4    9.63    6.93   0
   2 -12  -4    3.60    6.76   0
  -3 -12   4    7.67    8.33   0
   3  12  -4   10.08    7.33   0
   3  12   4    2.21    7.42   0
  -3 -12  -4    4.52    7.64   0
   3 -12  -4    4.92    7.13   0
   4  12  -4   -4.95    8.98   0
   4  12   4   -1.86    7.97   0
   4 -12  -4    1.55    8.78   0
  -4 -12  -4    7.20    8.77   0
  -4 -12   4    5.14    7.88   0
   1 -13  -4   16.45    6.99   0
   1 -13   4   19.75    9.01   0
  -1 -13  -4    7.02    7.03   0
  -1 -13   4   19.95    8.72   0
  -1  13  -4    8.48    9.43   0
   1  13  -4   15.25    8.36   0
   2  13  -4    8.42    7.51   0
  -2 -13  -4    7.63    7.93   0
   2  13   4   10.20    7.57   0
   2 -13   4    6.35   10.78   0
  -2 -13   4    7.66    8.48   0
   2 -13  -4    3.77    7.46   0
   3  13  -4   69.21   10.24   0
  -3 -13   4   95.57    8.58   0
   3  13   4   29.76    9.40   0
  -3 -13  -4   33.31    8.27   0
   3 -13  -4   27.70    8.29   0
   0 -14   4   68.77    9.60   0
   0 -14  -4   53.33    8.01   0
   0  14  -4   49.64    9.78   0
   1 -14  -4   -3.89    8.85   0
   1 -14   4   -1.62   10.13   0
  -1 -14   4    0.95    9.06   0
  -1 -14  -4    5.03    7.74   0
  -1  14  -4   -5.97   10.52   0
   1  14  -4   -0.23    9.72   0
   2 -14  -4    6.72    8.08   0
  -2 -14  -4    4.35    8.66   0
   2 -14   4   18.69   11.28   0
  -2 -14   4   27.51    8.48   0
   2  14  -4   15.86    9.73   0
  -1   1  -5  195.84    8.05   0
  -1  -1  -5  226.34    7.66   0
  -2   1  -5   16.38    7.38   0
  -2  -1  -5   19.50    6.08   0
  -3  -1  -5   66.80    6.96   0
   3   1  -5   80.01    5.53   0
  -3   1  -5   61.00    9.81   0
  -4  -1  -5  354.87   11.00   0
   4   1  -5  407.13    7.46   0
  -5  -1  -5   54.98    9.37   0
   5  -1  -5   79.71    6.37   0
   5   1  -5   66.58    6.10   0
   6  -1  -5   32.48    6.72   0
   6   1  -5   30.77    6.68   0
  -6  -1  -5   26.81    9.41   0
   7   1  -5   39.20    7.84   0
   7  -1  -5   31.26    7.87   0
   0  -2  -5  285.91    6.80   0
  -1   2  -5  368.54   10.33   0
   1   2  -5  427.33    8.23   0
  -1  -2  -5  321.99    7.34   0
   2   2  -5  273.31    6.50   0
  -2   2  -5  287.95   11.73   0
  -2   2  -5  222.31   10.98   0
  -2  -2  -5  259.05    7.95   0
   3   2  -5   92.41    5.68   0
  -3  -2  -5   78.64    6.79   0
   4   2  -5   -2.86    5.58   0
  -4  -2  -5    3.09    6.77   0
   5   2  -5    1.26    5.78   0
  -5  -2  -5   -2.42    7.04   0
   6   2  -5    6.75    6.69   0
   6   2   5    3.61    8.37   0
   6  -2  -5   -2.52    7.34   0
  -6  -2  -5    3.96    8.12   0
   7  -2  -5   20.31    8.03   0
   7   2   5   16.24   11.26   0
   7   2  -5   29.96    8.03   0
   1  -3  -5   30.37    5.10   0
  -1   3  -5   39.22    7.62   0
  -1  -3  -5   31.35    5.02   0
   1   3  -5   34.39    5.90   0
  -2  -3  -5   10.25    5.69   0
  -2   3  -5   10.77   11.40   0
  -2   3  -5   10.05   11.74   0
   2   3  -5    9.71    5.14   0
  -3  -3  -5  102.45    6.94   0
   3   3  -5  119.39    6.00   0
   4   3  -5    9.41    6.24   0
  -4  -3  -5    3.18    7.19   0
   5   3  -5    9.87    5.90   0
  -5  -3  -5    2.19    7.24   0
   5   3   5   -0.75    8.21   0
  -6  -3  -5    6.33    8.54   0
   6   3   5    5.99    8.81   0
   6   3  -5   10.47    6.85   0
  -7  -3  -5   -1.34   10.05   0
   7   3   5   -0.66   10.11   0
   7   3  -5    1.27    7.74   0
   7  -3  -5    2.36    7.84   0
   0  -4  -5   14.63    5.14   0
   0   4  -5   21.51    6.17   0
  -1   4  -5  395.77   11.45   0
   1  -4  -5  418.56    8.06   0
  -1  -4  -5  367.18    7.39   0
   1   4  -5  309.43    7.30   0
   2   4  -5    3.10    6.04   0
  -2  -4  -5    2.28    5.92   0
  -3  -4  -5   20.23    6.18   0
   3   4  -5   32.10    5.67   0
  -4  -4  -5   83.93    7.56   0
   4   4  -5  158.71    7.50   0
  -5  -4  -5   47.48    6.99   0
   5   4   5   64.38    8.14   0
   5   4  -5   81.17    6.57   0
   6   4  -5    0.08    6.95   0
   6   4   5    4.31    8.98   0
  -6  -4  -5    3.79    8.15   0
  -7  -4  -5    0.67   10.56   0
   7   4  -5    1.76    8.10   0
   7   4   5    0.79   10.84   0
   7  -4  -5    1.09    8.04   0
   1   5  -5  213.42    7.41   0
   1  -5  -5  138.35    5.92   0
  -1   5  -5  153.74    9.70   0
  -1  -5  -5  176.21    6.32   0
  -2  -5  -5   29.32    6.28   0
   2  -5  -5   29.13    5.32   0
   2   5  -5   32.25    6.39   0
  -3  -5  -5    4.69    6.13   0
   3   5  -5    4.19    5.43   0
   4   5  -5  275.01    7.55   0
  -4  -5  -5  247.11    9.06   0
   4   5   5  253.76    9.46   0
  -5  -5  -5  133.70    8.66   0
   5   5  -5  170.35    7.32   0
   5   5   5  120.38    8.99   0
   6   5  -5    2.01    7.11   0
   6   5   5    3.89    9.30   0
  -6  -5  -5    0.38    8.49   0
   7   5  -5   10.45    8.46   0
   7  -5  -5   24.06    8.67   0
  -7  -5  -5   27.62   10.29   0
   7   5   5   18.95   10.39   0
   0  -6  -5  114.53    6.76   0
   0   6  -5   89.65    7.10   0
   1   6  -5    3.02    6.21   0
  -1   6  -5    2.90    8.07   0
   1  -6  -5    0.52    5.12   0
  -1  -6  -5    4.11    5.36   0
  -2  -6  -5   24.73    5.61   0
   2   6  -5   32.54    5.59   0
   2  -6  -5   36.18    5.40   0
   3   6  -5   10.34    5.78   0
  -3  -6  -5    0.46    5.51   0
   3  -6  -5    5.16    5.58   0
   4   6  -5    4.51    6.05   0
   4   6   5    0.23    7.63   0
  -4  -6  -5   -2.08    5.76   0
  -5  -6  -5   14.82    6.85   0
   5   6  -5   22.47    6.93   0
   5   6   5   11.50    8.00   0
   6   6  -5    7.82    8.62   0
  -6  -6  -5   13.73    9.34   0
   6   6   5   18.30    9.07   0
  -1   7  -5    8.19    8.39   0
   1  -7  -5    6.52    6.35   0
   1   7  -5   12.33    6.34   0
  -1  -7  -5    7.52    5.51   0
  -2  -7  -5    7.37    5.59   0
   2  -7  -5   14.73    5.59   0
   2   7  -5    7.89    6.43   0
   3   7  -5  124.36    7.66   0
  -3  -7  -5   63.97    7.40   0
   3  -7  -5   41.63    6.86   0
   4   7  -5   41.78    6.51   0
   4  -7  -5   20.65    6.57   0
   4   7   5   33.86    6.85   0
  -4  -7  -5   22.87    6.52   0
   5   7  -5    6.16    8.12   0
   5   7   5    2.55    8.62   0
  -5  -7  -5    9.68    6.89   0
  -6  -7  -5   -0.15    9.00   0
   6   7   5    5.80    9.40   0
   6   7  -5    1.83    8.55   0
   0   8  -5  325.48   10.25   0
   0  -8  -5  348.25    7.67   0
  -1   8  -5   48.25    9.25   0
   1   8  -5   46.65    6.11   0
   1  -8  -5   51.74    5.96   0
  -1  -8  -5   48.60    6.11   0
  -2  -8  -5  208.54    8.45   0
   2  -8  -5  232.77    7.13   0
   2   8  -5  194.63    7.13   0
  -3  -8  -5   42.54    7.50   0
   3  -8  -5   23.26    6.89   0
   3   8  -5   50.45    6.49   0
   4   8   5   12.63    7.00   0
   4  -8  -5   11.06    6.54   0
  -4  -8  -5    9.07    6.50   0
   4   8  -5    6.72    6.78   0
   5  -8  -5    1.22    7.34   0
   5   8   5    1.13    8.86   0
   5   8  -5    1.58    7.22   0
  -5  -8  -5    1.01    8.44   0
  -6  -8  -5   13.86   10.28   0
   6  -8  -5    9.75    8.45   0
   6   8   5    7.61   10.01   0
   6   8  -5    2.40    9.55   0
  -1  -9  -5   -1.16    5.81   0
   1   9  -5    1.09    7.19   0
   1  -9  -5    0.99    6.42   0
  -1   9  -5   -0.50    9.00   0
  -2  -9  -5   39.45    6.51   0
   2   9  -5   37.96    6.47   0
   2  -9  -5   37.37    6.37   0
  -3  -9  -5   27.08    6.82   0
   3  -9  -5   21.45    6.64   0
   3   9  -5   20.46    7.74   0
   4   9   5   58.57    7.87   0
   4  -9  -5   36.63    7.21   0
  -4  -9  -5   54.34    8.45   0
   4   9  -5   73.19    7.65   0
   5   9   5   11.90    8.30   0
   5  -9  -5    3.76    7.81   0
   5   9  -5    8.09    9.02   0
  -5  -9  -5    6.64    7.71   0
   0  10  -5  241.01   10.30   0
   0 -10  -5  207.83    7.77   0
  -1 -10  -5   36.67    6.53   0
   1  10  -5   44.14    7.57   0
  -1  10  -5   32.95   10.16   0
   1 -10  -5   38.36    6.57   0
  -2 -10  -5    0.17    6.65   0
   2  10  -5   -0.55    7.57   0
   2 -10  -5    3.69    6.47   0
  -3 -10  -5   31.28    7.18   0
   3  10  -5   31.23    8.35   0
   3 -10  -5   23.50    7.05   0
   4  10   5    0.02    8.88   0
   4  10  -5    5.16    8.67   0
   4 -10  -5    0.44    7.44   0
  -4 -10  -5    3.54    7.56   0
   5  10   5    3.04    9.89   0
   5  10  -5    3.98    8.41   0
   5 -10  -5   -4.73    8.22   0
  -5 -10  -5   -2.68    8.27   0
  -1 -11  -5   38.59    7.04   0
   1  11  -5   30.14    8.10   0
  -1  11  -5   27.49   11.06   0
   1 -11  -5   41.67    7.05   0
   2  11  -5    0.06    7.90   0
  -2 -11  -5    2.52    7.11   0
   2 -11  -5    2.33    6.93   0
   3  11  -5    3.26    8.73   0
  -3 -11  -5   -3.16    7.58   0
   3 -11  -5    1.62    7.40   0
   4  11  -5   23.56    8.56   0
   4  11   5   27.15    8.75   0
  -4 -11  -5   17.52    8.14   0
   4 -11  -5    7.73    8.62   0
   0 -12  -5    3.93    7.86   0
   0  12  -5    6.34    9.20   0
   1  12  -5   16.57    7.79   0
  -1 -12  -5   20.95    8.08   0
  -1  12  -5   10.92   10.90   0
   1 -12  -5   18.99    7.63   0
   2  12  -5    6.88    9.34   0
  -2 -12  -5    3.35    7.79   0
   2 -12  -5   -2.13    8.65   0
   3  12  -5    3.70    9.39   0
  -3 -12  -5   -1.44    8.28   0
   3 -12  -5   10.70    8.48   0
   1 -13  -5    8.69    7.98   0
  -1 -13  -5   -4.37    8.02   0
  -1  13  -5    3.98   12.03   0
   1  13  -5   -4.21    9.56   0
   2  13  -5    8.97    9.62   0
  -2 -13  -5   10.95    8.60   0
   2 -13  -5   -0.21    8.41   0
   0   0  -6 1732.78   15.45   0
  -1   0  -6    9.71    6.52   0
  -2   0  -6   36.75    7.30   0
  -3   0  -6  226.81   10.67   0
  -4   0  -6    2.00   10.79   0
   4   0  -6   -2.90    6.11   0
   5   0  -6    2.20    6.67   0
   6   0  -6   90.82    8.00   0
  -1   1  -6  119.54    7.89   0
  -1  -1  -6  132.72    7.46   0
  -2   1  -6    5.38    7.64   0
  -2  -1  -6    8.44    6.74   0
  -3  -1  -6   45.06    8.22   0
  -3   1  -6   42.77   11.76   0
   3   1  -6   58.94    7.01   0
  -4  -1  -6   40.66    9.15   0
   4   1  -6   68.98    6.57   0
  -5  -1  -6   42.07   11.52   0
   5   1  -6   62.90    6.92   0
   5  -1  -6   71.17    6.95   0
   6  -1  -6   13.73    8.70   0
   6   1  -6    3.59    8.11   0
   0  -2  -6   14.54    5.50   0
   0   2  -6   13.77    6.36   0
   1   2  -6   15.50    6.21   0
  -1   2  -6   11.32    7.72   0
  -1   2  -6   12.74    7.48   0
  -1  -2  -6   10.30    6.53   0
   2   2  -6   25.28    6.61   0
  -2   2  -6   30.69    8.78   0
  -2   2  -6   26.09    9.46   0
  -2  -2  -6   30.45    7.03   0
   3   2  -6   17.56    6.05   0
  -3  -2  -6    8.94    7.87   0
   4   2  -6   11.57    6.11   0
  -4  -2  -6    6.50    7.52   0
   5   2  -6   13.93    7.02   0
  -5  -2  -6    5.86    9.08   0
   6   2  -6    0.79    7.58   0
  -6  -2  -6    1.49   11.27   0
   6  -2  -6    0.29    8.82   0
  -1   3  -6    2.36    7.67   0
   1  -3  -6    0.97    5.54   0
  -1   3  -6    3.84    7.67   0
  -1  -3  -6   -0.82    5.36   0
   1   3  -6    4.84    6.12   0
  -2   3  -6   18.00   11.44   0
  -2   3  -6   17.28   10.94   0
   2   3  -6   29.01    6.64   0
  -2  -3  -6   19.46    6.61   0
  -3  -3  -6   39.09    7.35   0
   3   3  -6   61.36    7.25   0
   4   3  -6   41.20    7.62   0
  -4  -3  -6   29.47    8.06   0
   5   3  -6   24.89    7.03   0
  -5  -3  -6   11.97    8.64   0
   6  -3  -6    5.68    8.98   0
  -6  -3  -6   11.13   10.90   0
   6   3  -6   23.52    7.93   0
   0  -4  -6    1.98    5.58   0
   0   4  -6   -0.46    6.81   0
   1   4  -6   96.83    7.17   0
  -1   4  -6   77.78    9.07   0
   1  -4  -6   61.72    6.07   0
  -1  -4  -6   65.58    6.16   0
  -2  -4  -6   14.14    6.53   0
   2   4  -6    6.80    5.74   0
   2  -4  -6   11.48    6.66   0
  -3  -4  -6   21.52    6.46   0
   3   4  -6   26.63    6.34   0
  -4  -4  -6    8.55    8.11   0
   4   4  -6   11.42    7.53   0
  -5  -4  -6    5.89    8.46   0
   5   4  -6   10.02    8.25   0
   6   4  -6    5.99    8.25   0
  -6  -4  -6    9.72   10.03   0
   1   5  -6   48.61    7.42   0
   1  -5  -6   33.39    6.74   0
  -1   5  -6   31.08    9.16   0
  -1  -5  -6   33.38    6.03   0
  -2  -5  -6   10.38    6.59   0
   2  -5  -6    5.47    6.70   0
   2   5  -6    6.99    6.86   0
  -3  -5  -6   -3.72    7.10   0
   3  -5  -6    0.25    6.13   0
   3   5  -6    3.97    7.15   0
   4   5  -6   17.80    7.94   0
  -4  -5  -6   22.46    7.71   0
  -5  -5  -6   16.54    9.15   0
   5   5  -6   18.54    7.32   0
   6   5  -6    7.89    8.41   0
  -6  -5  -6    5.71    9.86   0
   0  -6  -6  145.84    7.16   0
   0   6  -6  119.54    8.21   0
   1   6  -6  160.88    8.40   0
  -1   6  -6  166.20   11.45   0
   1  -6  -6  202.09    7.13   0
  -1  -6  -6  160.47    7.34   0
  -2  -6  -6    0.76    7.02   0
   2   6  -6    4.10    7.17   0
   2  -6  -6    3.70    5.90   0
   3   6  -6   36.43    6.69   0
  -3  -6  -6   19.38    6.69   0
   3  -6  -6   13.04    7.51   0
   4   6  -6   32.02    8.41   0
   4  -6  -6   34.01    7.06   0
  -4  -6  -6   27.83    8.07   0
   5   6  -6   53.70    8.14   0
  -5  -6  -6   31.04    9.13   0
  -1   7  -6    6.58    9.71   0
   1  -7  -6   12.95    6.94   0
   1   7  -6   10.06    7.56   0
  -1  -7  -6    6.59    6.32   0
  -2  -7  -6   61.57    6.82   0
   2  -7  -6   49.62    6.74   0
   2   7  -6   98.01    8.24   0
   3   7  -6   11.45    6.81   0
  -3  -7  -6   10.82    7.70   0
   3  -7  -6    9.40    6.61   0
   4   7  -6   56.57    7.74   0
   4  -7  -6   52.20    7.46   0
  -4  -7  -6   30.45    8.60   0
   5   7  -6   17.26    8.22   0
   5  -7  -6   20.89    8.51   0
  -5  -7  -6   29.91    8.42   0
   0   8  -6    7.56    8.51   0
   0  -8  -6    4.34    6.32   0
  -1   8  -6    4.68   11.04   0
   1   8  -6    5.07    8.04   0
   1  -8  -6    7.31    6.44   0
  -1  -8  -6    5.33    7.59   0
  -2  -8  -6   -4.40    6.89   0
   2  -8  -6    1.97    6.48   0
   2   8  -6    0.20    7.56   0
  -3  -8  -6   -7.67    8.20   0
   3  -8  -6   -2.47    6.87   0
   3   8  -6   -3.12    7.02   0
   4  -8  -6    4.55    8.02   0
  -4  -8  -6   -0.13    7.74   0
   4   8  -6    2.34    7.80   0
   5  -8  -6   -0.72    8.40   0
   5   8  -6    0.45    8.60   0
  -5  -8  -6   -0.86    9.73   0
  -1  -9  -6   10.86    7.15   0
   1   9  -6    8.12    8.22   0
   1  -9  -6   23.48    6.81   0
  -1   9  -6    8.46   12.40   0
  -2  -9  -6    4.24    8.14   0
   2   9  -6    6.26    8.08   0
   2  -9  -6    3.23    6.91   0
  -3  -9  -6    7.00    7.70   0
   3  -9  -6   -5.55    7.97   0
   3   9  -6    9.69    8.64   0
   4  -9  -6   16.11    8.04   0
  -4  -9  -6   16.91    9.48   0
   4   9  -6   21.41    8.47   0
   0  10  -6   30.46   10.07   0
   0 -10  -6   39.66    7.44   0
  -1 -10  -6    3.71    7.42   0
   1  10  -6    9.96    8.54   0
  -1  10  -6    5.18   13.24   0
   1 -10  -6   10.91    7.24   0
  -2 -10  -6    6.42    8.84   0
   2  10  -6    4.59    8.66   0
   2 -10  -6    4.90    7.49   0
  -3 -10  -6   16.09    8.37   0
   3  10  -6   18.45    9.31   0
   3 -10  -6   17.51    8.20   0
  -1 -11  -6    1.43    8.88   0
   1  11  -6   -3.59   10.26   0
  -1  11  -6    0.60   13.66   0
   1 -11  -6    4.68    7.63   0
  -2 -11  -6    1.41    8.36   0
   2  11  -6   -6.89    9.22   0
   2 -11  -6   -4.81    7.86   0
   0 -12  -6    9.06    8.42   0
   0  12  -6    8.57   11.58   0
   1  -1  -7   21.68    6.44   0
  -1   1  -7   23.52    8.49   0
  -1  -1  -7   23.14    7.49   0
   2   1  -7   -0.52    6.30   0
  -2   1  -7    0.88    8.65   0
  -2  -1  -7    0.77    8.39   0
  -3  -1  -7    9.63    9.46   0
  -3   1  -7   15.39   13.48   0
   3   1  -7   16.64    6.93   0
  -3   1  -7    9.79   13.85   0
  -4  -1  -7   31.10   11.79   0
   4   1  -7   74.88    7.52   0
   4  -1  -7   70.88    7.53   0
  -5  -1  -7    3.38   15.45   0
   5   1  -7   12.00    8.00   0
   5  -1  -7   11.97    8.13   0
   0  -2  -7   69.08    8.16   0
   0   2  -7   89.17    8.10   0
   1   2  -7   46.72    6.45   0
   1  -2  -7   39.85    7.50   0
  -1   2  -7   45.70    8.76   0
  -1   2  -7   32.71    8.90   0
  -1  -2  -7   39.33    6.74   0
  -2   2  -7   20.45   10.17   0
   2   2  -7   38.49    7.97   0
  -2   2  -7   34.36   11.16   0
  -2  -2  -7   23.07    7.83   0
  -3  -2  -7    8.90    8.36   0
   3   2  -7   33.72    7.80   0
   4   2  -7    1.59    7.24   0
  -4  -2  -7    2.82    9.67   0
   5   2  -7    2.92    8.00   0
   5  -2  -7    6.29    9.15   0
  -5  -2  -7   -1.13   12.04   0
  -1   3  -7    3.18    8.61   0
   1  -3  -7    4.62    7.17   0
   1   3  -7    8.07    7.42   0
  -1   3  -7   -0.67    8.63   0
  -1  -3  -7    5.87    7.39   0
  -2  -3  -7   -3.51    7.45   0
  -2   3  -7    1.78   12.78   0
  -2   3  -7    0.29   13.11   0
   2  -3  -7    2.29    7.30   0
   2   3  -7    1.64    7.91   0
   3   3  -7   15.61    7.12   0
  -3  -3  -7   12.90    8.66   0
   4   3  -7   -0.46    8.36   0
  -4  -3  -7    0.21    8.96   0
  -5  -3  -7   -2.94   11.68   0
   5   3  -7    1.40    8.10   0
   0  -4  -7    8.22    7.49   0
   0   4  -7    4.72    7.74   0
  -1   4  -7   53.70   10.32   0
   1  -4  -7   51.87    6.77   0
  -1   4  -7   34.81   10.14   0
  -1  -4  -7   42.84    8.40   0
   1   4  -7   48.60    6.91   0
  -2  -4  -7   -0.07    7.36   0
   2  -4  -7    2.64    6.60   0
   2   4  -7   -1.00    8.21   0
  -3  -4  -7    3.49    8.74   0
   3   4  -7    4.66    7.11   0
  -4  -4  -7   16.24    9.44   0
   4   4  -7   27.98    7.87   0
  -5  -4  -7    9.77   10.43   0
   5   4  -7   26.06    8.33   0
   1   5  -7   21.25    8.34   0
  -1   5  -7   17.96   10.55   0
   1  -5  -7   20.80    6.87   0
  -1   5  -7   16.95   10.71   0
  -1  -5  -7   15.02    7.87   0
  -2  -5  -7   13.32    8.22   0
   2   5  -7   10.21    8.27   0
   2  -5  -7   11.65    7.91   0
  -3  -5  -7    2.59    8.77   0
   3  -5  -7  -10.22    7.15   0
   3   5  -7    0.21    8.37   0
   4   5  -7   47.72    8.41   0
   4  -5  -7   28.06    7.97   0
  -4  -5  -7   37.67   10.10   0
   0  -6  -7   13.42    7.10   0
   0   6  -7   13.62    9.19   0
   1   6  -7    2.31    8.56   0
  -1   6  -7    2.04   11.44   0
  -1   6  -7    1.89   11.81   0
   1  -6  -7    2.67    6.80   0
  -1  -6  -7    3.20    7.10   0
  -2  -6  -7    4.45    7.06   0
   2   6  -7    2.13    8.09   0
   2  -6  -7    3.87    7.11   0
   3   6  -7   -4.26    8.64   0
  -3  -6  -7   -0.61    7.68   0
   3  -6  -7    3.97    7.59   0
   4   6  -7    1.78    9.60   0
   4  -6  -7    1.77    7.91   0
  -4  -6  -7   -0.84    9.24   0
  -1   7  -7    0.57   13.12   0
  -1   7  -7   -0.86   14.16   0
   1  -7  -7   -0.13    7.15   0
   1   7  -7   -1.90    8.77   0
  -1  -7  -7   -2.44    7.41   0
  -2  -7  -7   -1.80    8.63   0
   2  -7  -7    2.85    7.44   0
   2   7  -7   -1.31    8.55   0
   3   7  -7   15.35    7.98   0
  -3  -7  -7   11.84    8.13   0
   3  -7  -7   10.66    8.02   0
   4   7  -7    5.18    9.95   0
   4  -7  -7    8.95    8.92   0
  -4  -7  -7    3.36    9.92   0
   0   8  -7   40.10   10.63   0
   0  -8  -7   42.32    7.95   0
  -1  -8  -7    6.06    8.87   0
   1   8  -7    7.36    9.33   0
   1  -8  -7    0.98    7.78   0
  -1   8  -7    5.40   17.46   0
  -2  -8  -7   18.93    8.15   0
   2  -8  -7   28.34    8.02   0
   2   8  -7   39.04    9.13   0
  -3  -8  -7    2.24    8.74   0
   3  -8  -7    7.39    8.13   0
   3   8  -7    5.53    9.43   0
  -1  -9  -7   -1.91    9.22   0
   1   9  -7   -1.82    9.73   0
   1  -9  -7   -1.43    8.03   0
  -2  -9  -7    7.21    8.73   0
   2   9  -7    7.25    9.68   0
   2  -9  -7    1.24    8.50   0
   0   0  -8  152.91   10.38   0
   1   0  -8    2.94    8.67   0
  -1   0  -8    2.88    9.18   0
  -2   0  -8    1.26   10.17   0
   2   0  -8    7.44    9.03   0
   3   0  -8   28.57    9.35   0
  -3   0  -8    8.14   13.26   0
   1   1  -8   14.22    8.59   0
   1  -1  -8   18.95    7.67   0
  -1   1  -8   12.94   10.24   0
  -1  -1  -8   11.57    8.67   0
  -1   1  -8   12.57   10.05   0
  -2  -1  -8    3.69    9.27   0
  -2   1  -8    1.83   10.95   0
   2   1  -8   -2.55    8.49   0
  -2   1  -8   -0.96   11.44   0
   3   1  -8   -1.68    9.25   0
  -3  -1  -8    4.32   11.05   0
   0   2  -8    1.66    8.65   0
   0  -2  -8    2.81    8.50   0
   0   2  -8    1.33    9.30   0
   1  -2  -8   -1.08    7.58   0
  -1   2  -8    0.55    9.84   0
  -1   2  -8   -3.02   10.04   0
  -1  -2  -8   -2.12    9.25   0
   1   2  -8    0.44    9.05   0
  -2  -2  -8    1.55    9.43   0
  -2   2  -8    3.76   12.64   0
  -2   2  -8    2.93   12.60   0
   2  -2  -8    1.45    7.74   0
   2   2  -8    3.36    9.23   0
  -3  -2  -8   -0.07   10.93   0
   3   2  -8    0.86    9.25   0
   1   3  -8   -3.03    8.75   0
   1  -3  -8   -3.11    8.65   0
  -1   3  -8   -0.94   11.00   0
  -1   3  -8    0.35   10.83   0
  -1  -3  -8    2.26    8.81   0
  -2  -3  -8   -1.23    9.66   0
   2   3  -8    3.94    7.90   0
   2  -3  -8   -4.09    8.02   0
   3   3  -8    3.88    8.43   0
  -3  -3  -8    1.52   10.14   0
   3  -3  -8    0.93    8.85   0
   0   4  -8    1.89   10.52   0
   0   4  -8   -1.61   10.10   0
   0  -4  -8   -3.62    8.94   0
  -1   4  -8    2.94   12.51   0
   1  -4  -8    3.96    8.86   0
  -1   4  -8    6.32   11.88   0
   1   4  -8    6.65    9.64   0
  -1  -4  -8    9.14    9.05   0
  -2  -4  -8    5.74    9.79   0
   2  -4  -8   -5.44    8.15   0
   2   4  -8    7.24    9.20   0
  -3  -4  -8    6.62    9.94   0
   3  -4  -8   -1.46    9.77   0
   3   4  -8    0.08    8.88   0
   1   5  -8    4.37   10.03   0
   1  -5  -8   12.10    9.20   0
  -1   5  -8    3.28   13.05   0
  -1   5  -8    2.58   14.07   0
  -1  -5  -8    1.05    8.20   0
  -2  -5  -8   -1.16    9.88   0
   2   5  -8    4.41   10.03   0
   2  -5  -8    3.78    8.30   0
   0   6  -8   13.32   11.88   0
   0  -6  -8    6.46    9.82   0
   1   6  -8   25.72   10.53   0
  -1   6  -8    7.67   16.49   0
   1  -6  -8   16.49    8.62   0
  -1   6  -8   11.52   18.20   0
  -1  -6  -8   19.59    8.77   0
;
_shelx_hkl_checksum              91916
loop_
_space_group_symop_operation_xyz
'x, y, z'
'-x, -y, z+1/2'
'-x, y+1/2, -z+1/2'
'x, -y+1/2, -z'
'-x, -y, -z'
'x, y, -z-1/2'
'x, -y-1/2, z-1/2'
'-x, y-1/2, z'
loop_
_atom_site_label
_atom_site_type_symbol
_atom_site_fract_x
_atom_site_fract_y
_atom_site_fract_z
_atom_site_U_iso_or_equiv
_atom_site_adp_type
_atom_site_occupancy
_atom_site_site_symmetry_order
_atom_site_calc_flag
_atom_site_refinement_flags_posn
_atom_site_refinement_flags_adp
_atom_site_refinement_flags_occupancy
_atom_site_disorder_assembly
_atom_site_disorder_group
S1 S 0.94840(11) 0.40440(6) 0.2500 0.0515(3) Uani 1 2 d S T P . .
O2 O 0.4081(3) 0.52241(18) 0.2500 0.0496(6) Uani 1 2 d S T P . .
O1 O 0.6974(3) 0.61410(18) 0.2500 0.0598(7) Uani 1 2 d S T P . .
N1 N 0.7387(4) 0.22737(18) 0.2500 0.0476(6) Uani 1 2 d S T P . .
C2 C 0.6961(4) 0.4174(2) 0.2500 0.0451(7) Uani 1 2 d S T P . .
C4 C 0.9213(5) 0.2637(3) 0.2500 0.0499(8) Uani 1 2 d S T P . .
H4 H 1.0313 0.2149 0.2500 0.060 Uiso 1 2 calc R U P . .
C3 C 0.6092(5) 0.3156(2) 0.2500 0.0463(7) Uani 1 2 d S T P . .
H3 H 0.4701 0.3061 0.2500 0.056 Uiso 1 2 calc R U P . .
C1 C 0.6020(4) 0.5282(2) 0.2500 0.0465(7) Uani 1 2 d S T P . .
H2 H 0.381(7) 0.587(3) 0.2500 0.068(12) Uiso 1 2 d S . P . .
loop_
_atom_site_aniso_label
_atom_site_aniso_U_11
_atom_site_aniso_U_22
_atom_site_aniso_U_33
_atom_site_aniso_U_23
_atom_site_aniso_U_13
_atom_site_aniso_U_12
S1 0.0349(4) 0.0499(5) 0.0697(6) 0.000 0.000 -0.0015(3)
O2 0.0375(11) 0.0426(11) 0.0685(15) 0.000 0.000 0.0019(8)
O1 0.0407(12) 0.0457(10) 0.093(2) 0.000 0.000 -0.0033(8)
N1 0.0400(14) 0.0479(12) 0.0549(15) 0.000 0.000 0.0038(10)
C2 0.0332(13) 0.0444(13) 0.0575(18) 0.000 0.000 -0.0003(10)
C4 0.0430(17) 0.0500(15) 0.0566(19) 0.000 0.000 0.0046(11)
C3 0.0387(14) 0.0450(14) 0.0552(18) 0.000 0.000 -0.0009(11)
C1 0.0369(14) 0.0438(14) 0.0587(18) 0.000 0.000 -0.0006(11)
loop_
_atom_type_symbol
_atom_type_description
_atom_type_scat_dispersion_real
_atom_type_scat_dispersion_imag
_atom_type_scat_source
C C 0.0033 0.0016 'International Tables Vol C Tables 4.2.6.8 and 6.1.1.4'
H H 0.0000 0.0000 'International Tables Vol C Tables 4.2.6.8 and 6.1.1.4'
N N 0.0061 0.0033 'International Tables Vol C Tables 4.2.6.8 and 6.1.1.4'
O O 0.0106 0.0060 'International Tables Vol C Tables 4.2.6.8 and 6.1.1.4'
S S 0.1246 0.1234 'International Tables Vol C Tables 4.2.6.8 and 6.1.1.4'
loop_
_geom_angle_atom_site_label_1
_geom_angle_atom_site_label_2
_geom_angle_atom_site_label_3
_geom_angle
_geom_angle_site_symmetry_1
_geom_angle_site_symmetry_3
C4 S1 C2 89.09(14) . .
C1 O2 H2 100(4) . .
C4 N1 C3 110.0(2) . .
C3 C2 C1 129.0(3) . .
C3 C2 S1 110.3(2) . .
C1 C2 S1 120.7(2) . .
N1 C4 S1 115.7(2) . .
N1 C4 H4 122.2 . .
S1 C4 H4 122.2 . .
C2 C3 N1 114.9(3) . .
C2 C3 H3 122.5 . .
N1 C3 H3 122.5 . .
O1 C1 O2 125.0(3) . .
O1 C1 C2 122.6(3) . .
O2 C1 C2 112.4(2) . .
loop_
_geom_bond_atom_site_label_1
_geom_bond_atom_site_label_2
_geom_bond_distance
_geom_bond_site_symmetry_2
S1 C4 1.710(3) .
S1 C2 1.718(3) .
O2 C1 1.317(4) .
O2 H2 0.81(4) .
O1 C1 1.223(3) .
N1 C4 1.314(4) .
N1 C3 1.381(4) .
C2 C3 1.364(4) .
C2 C1 1.483(4) .
C4 H4 0.9500 .
C3 H3 0.9500 .
loop_
_geom_hbond_atom_site_label_D
_geom_hbond_atom_site_label_H
_geom_hbond_atom_site_label_A
_geom_hbond_distance_DH
_geom_hbond_distance_HA
_geom_hbond_distance_DA
_geom_hbond_angle_DHA
_geom_hbond_site_symmetry_A
C4 H4 O1 0.95 2.21 3.154(4) 175.2 3_745
C3 H3 O1 0.95 2.58 3.201(4) 123.0 3_645
O2 H2 N1 0.81(4) 1.88(4) 2.669(3) 168(5) 3_655
loop_
_geom_torsion_atom_site_label_1
_geom_torsion_atom_site_label_2
_geom_torsion_atom_site_label_3
_geom_torsion_atom_site_label_4
_geom_torsion
_geom_torsion_site_symmetry_1
_geom_torsion_site_symmetry_2
_geom_torsion_site_symmetry_3
_geom_torsion_site_symmetry_4
C4 S1 C2 C3 0.0 . . . .
C4 S1 C2 C1 180.0 . . . .
C3 N1 C4 S1 0.0 . . . .
C2 S1 C4 N1 0.0 . . . .
C1 C2 C3 N1 180.0 . . . .
S1 C2 C3 N1 0.0 . . . .
C4 N1 C3 C2 0.0 . . . .
C3 C2 C1 O1 180.0 . . . .
S1 C2 C1 O1 0.0 . . . .
C3 C2 C1 O2 0.0 . . . .
S1 C2 C1 O2 180.0 . . . .
