#------------------------------------------------------------------------------
#$Date: 2021-02-11 14:23:41 +0200 (Thu, 11 Feb 2021) $
#$Revision: 261890 $
#$URL: file:///home/coder/svn-repositories/cod/cif/1/56/03/1560336.cif $
#------------------------------------------------------------------------------
#
# This file is available in the Crystallography Open Database (COD),
# http://www.crystallography.net/
#
# All data on this site have been placed in the public domain by the
# contributors.
#
data_1560336
loop_
_publ_author_name
'Hamchaoui, Farida'
'Alonzo, V\'eronique'
'Marlart, Isabelle'
'Auguste, Sandy'
'Galven, Cyrille'
'Rebbah, Houria'
'Le Fur, Eric'
_publ_section_title
;
 Hydrothermal synthesis, structural and thermal characterizations of three
 open-framework gallium phosphites
;
_journal_name_full               'Journal of Solid State Chemistry'
_journal_page_first              8
_journal_page_last               12
_journal_paper_doi               10.1016/j.jssc.2017.07.030
_journal_volume                  255
_journal_year                    2017
_chemical_formula_sum            'Ga H6 N O6 P2'
_chemical_formula_weight         247.72
_space_group_crystal_system      hexagonal
_space_group_IT_number           186
_space_group_name_Hall           'P 6c -2c'
_space_group_name_H-M_alt        'P 63 m c'
_atom_sites_solution_hydrogens   difmap
_cell_angle_alpha                90
_cell_angle_beta                 90
_cell_angle_gamma                120
_cell_formula_units_Z            2
_cell_length_a                   5.2576(2)
_cell_length_b                   5.2576(2)
_cell_length_c                   12.9113(4)
_cell_measurement_reflns_used    2681
_cell_measurement_temperature    293(2)
_cell_measurement_theta_max      36.22
_cell_measurement_theta_min      2.91
_cell_volume                     309.083(19)
_computing_cell_refinement       'DIRAX/LSQ (Duisenberg, 1992)'
_computing_data_collection       'COLLECT (Nonius, 1998)'
_computing_data_reduction        'EVALCCD (Duisenberg, 1998)'
_computing_molecular_graphics    'DIAMOND (Brandenburg, 2005)'
_computing_publication_material  'WinGX (Farrugia, 1999)'
_computing_structure_refinement  'SHELXL97 (Sheldrick, 2008)'
_computing_structure_solution    'SIR97 (Altomare <i>et al.</i>,  1999)'
_diffrn_ambient_temperature      293(2)
_diffrn_measured_fraction_theta_full 0.993
_diffrn_measured_fraction_theta_max 0.993
_diffrn_measurement_device_type  'Nonius KappaCCD'
_diffrn_measurement_method       'CCD rotation images, thick slices'
_diffrn_radiation_monochromator  graphite
_diffrn_radiation_source         'fine-focus sealed tube'
_diffrn_radiation_type           MoK\a
_diffrn_radiation_wavelength     0.71069
_diffrn_reflns_av_R_equivalents  0.0335
_diffrn_reflns_av_unetI/netI     0.0284
_diffrn_reflns_Laue_measured_fraction_full 0.993
_diffrn_reflns_Laue_measured_fraction_max 0.993
_diffrn_reflns_limit_h_max       7
_diffrn_reflns_limit_h_min       -8
_diffrn_reflns_limit_k_max       8
_diffrn_reflns_limit_k_min       -8
_diffrn_reflns_limit_l_max       20
_diffrn_reflns_limit_l_min       -14
_diffrn_reflns_number            4617
_diffrn_reflns_point_group_measured_fraction_full 0.914
_diffrn_reflns_point_group_measured_fraction_max 0.885
_diffrn_reflns_theta_full        25.240
_diffrn_reflns_theta_max         34.990
_diffrn_reflns_theta_min         4.476
_exptl_absorpt_coefficient_mu    4.943
_exptl_absorpt_correction_T_max  908
_exptl_absorpt_correction_T_min  0.617
_exptl_absorpt_correction_type   multi-scan
_exptl_absorpt_process_details   '(SADABS; Sheldrick, 2002)'
_exptl_crystal_colour            colorless
_exptl_crystal_density_diffrn    2.662
_exptl_crystal_description       block
_exptl_crystal_F_000             244
_exptl_crystal_size_max          0.1
_exptl_crystal_size_mid          0.04
_exptl_crystal_size_min          0.02
_refine_diff_density_max         0.415
_refine_diff_density_min         -0.916
_refine_diff_density_rms         0.146
_refine_ls_abs_structure_details
;
 Flack x determined using 189 quotients [(I+)-(I-)]/[(I+)+(I-)]
 (Parsons, Flack and Wagner, Acta Cryst. B69 (2013) 249-259).
;
_refine_ls_abs_structure_Flack   0.028(10)
_refine_ls_extinction_coef       0.051(9)
_refine_ls_extinction_expression Fc^*^=kFc[1+0.001xFc^2^\l^3^/sin(2\q)]^-1/4^
_refine_ls_extinction_method     SHELXL
_refine_ls_goodness_of_fit_ref   1.040
_refine_ls_hydrogen_treatment    mixed
_refine_ls_matrix_type           full
_refine_ls_number_parameters     29
_refine_ls_number_reflns         522
_refine_ls_number_restraints     5
_refine_ls_restrained_S_all      1.103
_refine_ls_R_factor_all          0.0292
_refine_ls_R_factor_gt           0.0237
_refine_ls_shift/su_max          0.020
_refine_ls_shift/su_mean         0.001
_refine_ls_structure_factor_coef Fsqd
_refine_ls_weighting_details
'w=1/[\s^2^(Fo^2^)+(0.0329P)^2^+0.1567P] where P=(Fo^2^+2Fc^2^)/3'
_refine_ls_weighting_scheme      calc
_refine_ls_wR_factor_gt          0.0537
_refine_ls_wR_factor_ref         0.0560
_reflns_Friedel_coverage         0.717
_reflns_Friedel_fraction_full    0.828
_reflns_Friedel_fraction_max     0.768
_reflns_number_gt                479
_reflns_number_total             522
_reflns_threshold_expression     'I > 2\s(I)'
_cod_data_source_file            NH4Ga.cif
_cod_data_source_block           2
_cod_original_cell_volume        309.08(3)
_cod_database_code               1560336
_shelx_space_group_comment
;
The symmetry employed for this shelxl refinement is uniquely defined
by the following loop, which should always be used as a source of
symmetry information in preference to the above space-group names.
They are only intended as comments.
;
_shelxl_version_number           2014/6
_shelx_res_file
;
TITL import in P 63 m c
CELL  0.71069   5.2576   5.2576  12.9113   90.000   90.000  120.000
ZERR    2   0.0002   0.0002   0.0004    0.00    0.0    0.00
LATT  -1
SYMM  - X, - Y, 1/2 + Z
SYMM  - Y,   X - Y,   Z
SYMM  - X + Y, - X,   Z
SYMM    X - Y,   X, 1/2 + Z
SYMM    Y, - X + Y, 1/2 + Z
SYMM  - X + Y,   Y,   Z
SYMM    X,   X - Y,   Z
SYMM  - Y, - X,   Z
SYMM    Y,   X, 1/2 + Z
SYMM  - X, - X + Y, 1/2 + Z
SYMM    X - Y, - Y, 1/2 + Z
SFAC  O    P    GA    N    H
UNIT  12   4    2    2    12
MERG   2
OMIT     0.00 180.00
ACTA
FMAP   2
L.S. 24
DFIX   H1 P1 1.3 0.05
DFIX H2 P2 1.3 0.05
DFIX   HN1 N1 1.0 0.05
DFIX   HN2 N1 1.2 0.05
PLAN   -20
LIST   1
WGHT    0.032900    0.156700
EXTI    0.051149
FVAR       1.15570
GA    3    0.666667    0.333333    0.407705    10.16667    0.00603    0.00603 =
         0.01295    0.00000    0.00000    0.00302
P1    2    0.333333    0.666667    0.528779    10.16667    0.00629    0.00629 =
         0.00918    0.00000    0.00000    0.00315
P2    2    1.000000    1.000000    0.355745    10.16667    0.00660    0.00660 =
         0.01100    0.00000    0.00000    0.00330
O2    1    0.841039    0.682077    0.317221    10.50000    0.01584    0.00631 =
         0.01302   -0.00076   -0.00038    0.00316
O1    1    0.494374    0.505626    0.499128    10.50000    0.01492    0.01492 =
         0.02425   -0.00215    0.00215    0.01097
N1    4    0.333333    0.666667    0.203857    10.16667    0.01895    0.01895 =
         0.01552    0.00000    0.00000    0.00948
H2    5    1.000000    1.000000    0.459190    10.16667   -1.20000
H1    5    0.333333    0.666667    0.625070    10.16667   -1.20000
HN1   5    0.333333    0.666667    0.126093    10.16667   -1.20000
HN2   5   10.498466   10.749228   10.221128    10.50000   -1.20000

HKLF    4

REM  import in P 63 m c
REM R1 =  0.0237 for     479 Fo > 4sig(Fo)  and  0.0292 for all     522 data
REM     29 parameters refined using      5 restraints

END

WGHT      0.0222      0.0760

REM Highest difference peak  0.415,  deepest hole -0.916,  1-sigma level  0.146
Q1    1   0.4201  0.8402  0.5112  10.50000  0.05    0.42
Q2    1   0.9180  0.8360  0.3240  10.50000  0.05    0.38
Q3    1   0.8810  0.7619  0.3619  10.50000  0.05    0.34
Q4    1   1.1663  0.5831  0.2226  10.50000  0.05    0.33
Q5    1   0.4555  0.1679  0.3336  11.00000  0.05    0.33
Q6    1   1.0954  0.9046  0.0967  10.50000  0.05    0.33
Q7    1   0.6082  0.2164  0.3708  10.50000  0.05    0.32
Q8    1   0.5959  0.1917  0.4363  10.50000  0.05    0.32
Q9    1   0.4416 -0.1167  0.4554  10.50000  0.05    0.28
Q10   1   0.1263  0.4945  0.5613  11.00000  0.05    0.27
Q11   1   0.9070  0.8140  0.2197  10.50000  0.05    0.27
Q12   1   0.9015  1.0985  0.2637  10.50000  0.05    0.27
Q13   1   1.0031  0.7782  0.1807  11.00000  0.05    0.24
Q14   1   0.8692  0.4991  0.3895  11.00000  0.05    0.24
Q15   1   1.0218  0.7181  0.2310  11.00000  0.05    0.24
Q16   1   0.3654  0.4380  0.4916  11.00000  0.05    0.23
Q17   1   1.5277  0.8276  0.1723  11.00000  0.05    0.23
Q18   1   0.7357  0.4714  0.4387  10.50000  0.05    0.23
Q19   1   0.4544  0.9089  0.5656  10.50000  0.05    0.22
Q20   1   0.7721  0.8861  0.4296  10.50000  0.05    0.22
;
_shelx_res_checksum              19889
_shelx_hkl_file
;
   0  -1   0  913.53   50.59   1
  -1   1   0  857.18   50.21   1
  -1   0   0  928.51   50.71   1
   1   0   0  892.79   50.35   1
   0   1   0  903.25   50.33   1
   1  -1   0  923.26   50.69   1
   2  -1   0 5739.98  320.90   1
  -2   1   0 5934.16  321.51   1
   1   1   0 6038.46  321.08   1
   1  -2   0 5968.18  321.52   1
  -1  -1   0 5984.33  321.47   1
  -1   2   0 5982.06  321.13   1
  -2   2   0   21.92    7.26   1
   2   0   0   19.77    6.10   1
   0  -2   0    7.78    6.61   1
  -2   0   0   17.45    7.07   1
  -2   2   0    7.81    5.98   1
   2  -3   0  624.49   41.07   1
  -3   1   0  645.09   41.35   1
  -1  -2   0  622.98   41.03   1
  -3   2   0  611.27   40.79   1
  -2  -1   0  632.23   40.79   1
   1  -3   0  622.82   40.54   1
   0  -3   0 4338.61  241.76   1
  -3   0   0 4427.46  242.29   1
  -3   3   0 4415.28  242.55   1
  -1  -3   0  229.42   23.03   1
  -4   1   0  217.38   23.00   1
   3  -4   0  240.38   22.93   1
  -2  -2   0 9996.78  538.84   1
   2  -4   0 9880.01  538.77   1
  -4   2   0 9928.72  538.84   1
  -4   3   0  236.67   23.55   1
  -3  -1   0  223.52   23.57   1
   1  -4   0  246.61   23.40   1
   0  -4   0   31.96   14.59   1
  -4   4   0   17.29   14.74   1
  -4   0   0   42.43   14.28   1
  -1  -4   0 2724.74  160.27   1
  -4   5   0 2664.54  160.40   1
  -5   1   0 2855.05  161.19   1
  -5   2   0   96.92   20.66   1
   3  -5   0  122.91   20.75   1
  -2  -3   0  136.28   21.78   1
   2  -5   0  111.91   17.36   1
  -3  -2   0  114.57   17.46   1
  -5   3   0   77.49   16.26   1
   1  -5   0 2784.68  163.90   1
  -4  -1   0 2737.01  164.31   1
  -5   4   0 2937.41  165.07   1
   0  -5   0  225.67   28.32   1
  -5   0   0  187.93   26.68   1
  -5   5   0  205.30   26.91   1
  -1  -5   0  108.51   25.48   1
  -6   1   0  152.07   26.85   1
  -5   6   0  143.31   26.20   1
   4  -6   0   -0.65   14.22   1
  -2  -4   0    0.70   12.63   1
  -6   2   0    0.67   13.53   1
  -6   3   0 2084.71  127.27   1
  -3  -3   0 1991.77  126.05   1
   3  -6   0 2159.74  127.83   1
  -4  -2   0   30.80   14.68   1
  -6   4   0   19.96   14.42   1
   2  -6   0    9.26   14.41   1
   1  -6   0  137.09   26.50   1
  -6   5   0  132.89   26.45   1
  -5  -1   0  134.32   26.29   1
  -6   6   0 3469.93  204.15   1
   0  -6   0 3371.22  202.63   1
  -6   0   0 3489.35  203.81   1
  -1  -6   0   12.98   25.74   1
  -6   7   0   41.41   26.61   1
  -7   1   0   73.38   28.15   1
  -7   2   0 1377.35   94.89   1
  -2  -5   0 1435.87   95.00   1
  -5   7   0 1339.44   94.70   1
  -3  -4   0   76.26   24.87   1
  -7   3   0  105.25   28.91   1
   4  -7   0  100.46   26.41   1
   3  -7   0  114.81   23.69   1
  -7   4   0  122.12   24.17   1
  -4  -3   0  118.04   23.02   1
  -5  -2   0 1404.65   97.33   1
   2  -7   0 1553.31   99.06   1
  -7   5   0 1449.21   98.44   1
   1  -7   0   84.37   31.70   1
  -6  -1   0   71.53   29.69   1
  -7   7   0   22.55   30.83   1
   0  -7   0  -24.14   30.09   1
  -7   0   0   18.97   32.16   1
  -8   2   0    7.43   31.92   1
  -6   8   0   56.07   35.38   1
  -2  -6   0    1.41   31.45   1
  -5   8   0   25.93   24.34   1
  -8   3   0   34.47   23.49   1
  -3  -5   0   44.12   24.67   1
   4  -8   0 2164.78  138.04   1
  -8   4   0 2077.83  138.07   1
  -4  -4   0 2185.17  138.65   1
   3  -8   0   29.29   34.85   1
  -8   5   0   93.45   34.58   1
  -5  -3   0   12.07   31.30   1
  -6  -2   0  -20.15   33.63   1
  -8   6   0    8.96   33.41   1
   2  -8   0   -4.67   30.81   1
   0  -1   1 1699.54   96.09   1
   1   0   1 1683.27   96.01   1
   0   1  -1 1806.18   96.09   1
  -1   0  -1 1838.79   96.44   1
  -1   1   1 1649.60   95.92   1
   1  -1  -1 1842.99   96.41   1
  -1   1   1 1724.98   86.19   4
   1  -1  -1 1839.54   80.59   5
   1  -1   1 1737.39   97.27   1
   0  -1  -1 1805.09   97.35   1
   1   0  -1 1775.21   97.16   1
  -1   0   1 1796.87   97.35   1
   1  -1   1 1772.26   81.43   5
  -1   1  -1 1844.04   97.21   1
  -1   1  -1 1832.89   87.10   4
   0   1   1 1681.31   96.98   1
   1  -2   1   -7.05    6.11   1
   1   1   1    5.13    4.24   1
  -1   2  -1   -1.37    4.71   1
   2  -1  -1   -6.01    4.73   1
   1  -3   1 1529.03   91.12   1
  -3   2   1 1547.52   91.38   1
  -2  -1  -1 1677.89   92.18   1
   0  -2   1  201.88   15.63   1
  -2   2   1  203.73   15.64   1
  -2   2   1  204.19   15.54   1
   2   0   1  183.97   15.09   1
  -1  -1   1    3.19    7.11   1
  -1   2   1   -4.67    3.54   1
   1   1  -1   -3.18    5.20   1
   2  -1   1   17.72    6.40   1
  -2   1  -1    3.66    6.56   1
   1  -2  -1   -0.21    6.24   1
   2   0  -1   85.14    9.32   1
   0  -2  -1   84.34   10.40   1
  -2   2  -1   66.10    8.62   1
  -2   2  -1   66.49    8.88   1
  -1  -2  -1 1655.34   92.01   1
  -3   1   1 1561.54   91.68   1
   2  -3   1 1543.23   91.65   1
   4  -2  -1    2.23    3.32   4
   2  -5   1  380.42   32.14   1
  -5   3   1  348.32   31.83   1
  -3  -2  -1  433.43   33.79   1
   1  -4   1  681.78   49.38   1
  -4   3   1  707.80   49.99   1
  -3  -1  -1  837.89   51.41   1
   0  -3   1   37.82   11.41   1
  -3   3   1   28.52    8.87   1
   2  -3  -1 1645.96   92.22   1
  -3   1  -1 1578.60   91.99   1
  -1  -2   1 1544.56   91.34   1
  -3   2  -1 1662.23   94.06   1
   2   1  -1 1620.57   76.87   3
   1  -3  -1 1636.39   93.94   1
  -2  -1   1 1589.42   93.69   1
  -3   3  -1   36.14   10.90   1
   3  -4   1  715.08   49.67   1
  -1  -3  -1  771.94   50.10   1
  -4   1   1  717.28   49.80   1
   3  -5   1  367.15   33.42   1
  -5   2   1  369.68   33.94   1
  -2  -3  -1  420.74   34.43   1
  -6   3   1  -13.86   19.75   1
  -3  -3  -1   20.61   18.36   1
   3  -6   1  -16.88   19.24   1
  -7   4   1  302.26   37.59   1
  -4  -3  -1  343.87   34.93   1
   3  -7   1  269.51   36.14   1
  -6   4   1   74.20   18.41   1
  -4  -2  -1   85.06   18.38   1
   2  -6   1   93.52   19.01   1
  -4  -1  -1   26.68   17.33   1
   1  -5   1   59.75   18.64   1
  -4   4   1  101.17   19.35   1
  -4   0  -1  130.45   19.36   1
   0  -4   1  114.94   19.13   1
  -1  -3   1  717.28   50.78   1
  -4   1  -1  817.03   52.30   1
   3  -4  -1  764.60   51.46   1
  -2  -2   1   15.74   12.64   1
   1  -4  -1  772.63   51.61   1
  -4   3  -1  786.66   52.28   1
   3   1  -1  825.26   37.77   3
  -3  -1   1  683.83   50.67   1
  -4   4  -1   95.36   17.82   1
  -4   0   1   97.93   18.73   1
   0  -4  -1   82.35   16.79   1
  -4   5  -1   41.45   18.37   1
  -1  -4  -1    6.41   17.20   1
  -2  -4  -1   79.96   17.77   1
  -6   2   1   79.72   18.35   1
   4  -6   1   64.32   17.11   1
   4  -7   1  274.30   33.61   1
  -7   3   1  269.62   34.48   1
  -3  -4  -1  288.28   35.83   1
  -8   4   1   64.16   31.84   1
   4  -8   1    9.58   29.59   1
  -4  -4  -1   23.32   30.29   1
   3  -8   1  127.22   35.95   1
  -8   5   1  161.19   37.04   1
  -5  -3  -1  142.43   35.67   1
  -5  -2  -1   49.79   19.90   1
   2  -7   1   27.76   19.37   1
  -7   5   1   22.20   19.91   1
   1  -6   1  311.52   35.69   1
  -5  -1  -1  352.21   37.56   1
  -6   5   1  348.77   37.83   1
  -5   5   1  491.15   42.31   1
   0  -5   1  515.31   42.55   1
  -5   0  -1  508.99   43.56   1
  -1  -4   1   45.67   18.46   1
  -4   5   1   47.48   18.73   1
  -2  -3   1  376.85   35.38   1
  -5   2  -1  416.26   37.12   1
  -5   2  -1  469.56   22.61   5
   3  -5  -1  450.31   36.75   1
   2  -5  -1  426.52   34.32   1
  -3  -2   1  374.95   32.90   1
  -5   3  -1  438.26   35.18   1
   1  -5  -1   14.46   16.29   1
  -5   0   1  497.11   43.28   1
   0  -5  -1  542.32   44.90   1
  -5   5  -1  561.10   44.74   1
  -5   6  -1  472.86   42.14   1
  -1  -5  -1  402.60   40.01   1
  -6   1   1  312.25   37.86   1
  -7   2   1   13.49   21.31   1
  -5   7  -1   20.23   23.44   1
  -3  -5  -1  160.82   31.34   1
  -8   3   1  164.47   31.69   1
  -5   8  -1  204.78   33.31   1
   2  -8   1   -6.25   34.52   1
  -6  -2  -1   33.34   31.94   1
  -8   6   1   88.34   35.27   1
   1  -7   1  111.24   33.54   1
  -6  -1  -1  176.74   38.12   1
  -7   6   1  199.95   36.34   1
  -6   6   1  -23.29   25.09   1
  -6   0  -1   11.81   22.83   1
   0  -6   1   22.49   24.27   1
  -6   1  -1  414.79   39.48   1
  -5   6   1  324.02   37.36   1
  -1  -5   1  316.20   36.27   1
  -6   2  -1   91.99   19.46   1
   4  -6  -1   72.65   18.56   1
  -2  -4   1   89.33   18.38   1
   3  -6  -1    9.57   19.92   1
  -6   3  -1   16.49   19.70   1
  -3  -3   1   16.22   19.10   1
   2  -6  -1   83.38   18.82   1
  -6   4  -1   65.22   18.02   1
  -4  -2   1  117.38   21.37   1
   1  -6  -1  408.63   39.36   1
  -6   5  -1  391.97   40.97   1
  -5  -1   1  337.13   37.65   1
  -6   6  -1   18.09   24.45   1
  -6   0   1    6.11   23.92   1
   0  -6  -1    1.53   24.74   1
  -7   1   1  153.11   29.08   1
  -1  -6  -1  147.93   28.92   1
  -6   7  -1  161.58   28.80   1
  -6   8  -1   20.26   34.34   1
  -8   2   1   15.94   32.06   1
  -2  -6  -1   50.60   34.53   1
   0  -7   1   74.25   27.42   1
  -7   7   1   70.15   31.43   1
  -7   0  -1   73.91   30.77   1
  -6   7   1  160.14   29.10   1
  -1  -6   1  164.66   29.16   1
  -7   1  -1  187.18   30.63   1
  -2  -5   1   28.59   18.69   1
  -7   2  -1   15.29   24.32   1
  -5   7   1   63.56   25.39   1
  -3  -4   1  258.71   32.61   1
   4  -7  -1  320.17   37.34   1
  -7   3  -1  369.24   39.54   1
  -7   4  -1  340.50   37.22   1
   3  -7  -1  274.57   34.58   1
  -4  -3   1  243.48   34.12   1
   2  -7  -1   33.01   19.83   1
  -5  -2   1    4.36   18.28   1
  -7   5  -1   44.86   22.86   1
   1  -7  -1  209.42   37.19   1
  -7   6  -1  118.00   36.78   1
  -6  -1   1  119.02   34.00   1
  -7   0   1   78.47   26.47   1
  -7   7  -1   67.90   31.00   1
   0  -7  -1   65.76   30.40   1
  -2  -6   1   68.97   35.07   1
  -6   8   1   78.89   35.80   1
  -3  -5   1  103.06   27.49   1
  -5   8   1  150.13   30.90   1
  -8   3  -1  178.49   31.29   1
   4  -8  -1  -11.28   31.14   1
  -4  -4   1   20.52   30.43   1
  -8   4  -1    2.49   29.75   1
   3  -8  -1  154.75   36.48   1
  -5  -3   1  124.19   33.56   1
  -8   5  -1  179.93   38.05   1
   2  -8  -1   48.19   34.79   1
  -6  -2   1   83.39   35.45   1
  -8   6  -1   69.60   37.33   1
   1  -1  -2 2141.66  103.95   5
   1  -1  -2 2150.75  122.92   1
  -1   1   2 2413.75  104.19   5
   1   0   2 2388.14  123.01   1
  -1   0  -2 2145.87  123.01   1
  -1   0  -2 2136.35  103.54   2
   0   1  -2 2088.55  122.68   1
   0  -1   2 2401.34  123.10   1
  -1   1   2 2461.56  123.03   1
   0   1  -2 2120.61  103.63   2
  -1   1   2 2457.03  111.49   4
   1  -1   2 2418.15  123.82   1
   0   1   2 2382.83  123.57   1
  -1   1  -2 2097.53  123.45   1
   1  -1   2 2431.97  104.64   5
   0  -1  -2 2156.23  123.56   1
   0  -1  -2 2144.18  107.53   3
   1  -1   2 2539.63  112.09   4
  -1   1  -2 2168.47  111.75   4
  -1   0   2 2495.36  123.92   1
   1   0  -2 2160.10  107.84   3
   1   0  -2 2044.29  123.26   1
   1   1   2 2753.80  157.51   1
  -2   1   2 2841.91  132.56   5
   2  -1  -2 3013.16  142.09   4
   1   1   2 2937.81  135.54   3
   1   1   2 3009.30  131.42   2
  -2   1   2 2874.37  158.28   1
   2  -1  -2 2766.57  157.70   1
  -1   2  -2 2881.29  157.86   1
  -1  -1  -2 2848.10  158.27   1
   1  -2   2 2960.95  158.36   1
   2   1   2  958.18   43.67   3
  -2  -1  -2  824.12   55.18   1
   1  -3   2  931.88   55.97   1
   3  -2  -2  781.83   45.37   4
  -3   2   2  973.69   56.33   1
  -3   2   2  990.49   42.60   5
  -2   2   2  583.20   30.43   4
  -2   2   2  589.71   37.04   1
   2   0   2  536.55   35.75   1
   0   2  -2  722.80   37.24   1
   0  -2   2  575.71   36.85   1
  -2   2   2  552.52   35.71   1
  -1  -1   2 3029.96  135.47   3
   1   1  -2 2759.53  135.19   3
  -1   2   2 2817.16  156.84   1
   1   1  -2 2752.98  156.74   1
   2  -1   2 2828.41  156.99   1
  -1  -1   2 2944.57  130.89   2
  -2   1  -2 2942.26  131.82   5
  -1  -1   2 2844.74  157.23   1
  -2   1  -2 2927.34  157.69   1
   1  -2  -2 2922.44  157.58   1
   1   1  -2 2833.80  130.76   2
   2   0  -2  746.78   41.69   1
   2  -2   2  571.02   32.41   5
  -2   2  -2  738.96   34.94   4
  -2   2  -2  706.14   41.49   1
   0  -2  -2  729.02   42.20   1
  -2   2  -2  744.25   42.62   1
  -2   0   2  593.58   41.42   1
   2  -3   2  909.17   55.38   1
  -3   1   2  947.11   55.44   1
   1   2   2  942.19   41.79   2
  -1  -2  -2  783.31   53.96   1
  -2  -2  -2 4235.69  230.69   1
   2  -4   2 4043.65  230.10   1
  -4   2   2 4118.58  189.43   5
   4  -2  -2 4123.91  202.99   4
  -4   2   2 4185.02  230.49   1
  -3  -2  -2  458.69   39.39   1
  -5   3   2  562.21   42.08   1
   2  -5   2  582.03   42.13   1
   1  -4   2  802.94   50.25   1
  -4   3   2  765.47   50.25   1
  -3  -1  -2  621.00   48.32   1
  -3   3   2 2338.88  131.25   1
   0  -3   2 2327.36  130.70   1
  -3   0  -2 2232.05  130.72   1
   3  -3  -2 2322.72  105.71   5
   1   2  -2  777.96   38.99   2
  -3   1  -2  809.30   51.30   1
  -1  -2   2  933.33   40.62   3
  -1  -2   2  871.79   51.60   1
   2  -3  -2  761.73   50.95   1
  -2  -1   2  930.92   40.20   2
  -2  -1   2  982.35   54.19   1
   1  -3  -2  837.18   52.62   1
   2   1  -2  756.96   41.65   3
  -3   2  -2  793.85   52.80   1
  -3   3  -2 2218.29  128.76   1
   0  -3  -2 2287.47  128.34   1
  -3   0   2 2274.91  128.44   1
  -4   1   2  713.43   45.81   1
  -3   4  -2  575.96   34.75   4
  -1  -3  -2  612.54   45.31   1
   3  -4   2  780.48   46.55   1
  -5   2   2  558.01   41.42   1
  -2  -3  -2  452.72   39.89   1
   5  -2  -2  460.63   29.02   4
   3  -5   2  537.40   40.69   1
  -5   2   2  587.41   27.05   5
  -3  -3  -2 1050.89   69.59   1
  -6   3   2  924.64   68.86   1
   3  -6   2  981.31   68.82   1
  -7   4   2  179.55   33.78   1
   3  -7   2  207.83   33.88   1
  -6   4   2   42.50   21.31   1
  -4  -2  -2  -11.11   16.11   1
   2  -6   2   -0.89   19.49   1
   1  -5   2 1384.85   88.01   1
  -4  -1  -2 1390.55   88.83   1
  -5   4   2 1411.07   88.78   1
  -4   0  -2   55.83   16.82   1
   0  -4   2   14.11   13.80   1
  -4   1  -2  642.24   45.61   1
   3  -4  -2  630.05   44.98   1
  -1  -3   2  734.56   44.88   1
   3  -4  -2  596.37   31.99   5
   1   3  -2  616.85   30.61   2
  -4   2  -2 4247.14  237.25   1
  -4   2  -2 4254.79  194.85   5
   2  -4  -2 4242.93  237.02   1
   4  -2   2 4411.65  209.08   4
  -2  -2   2 4162.99  236.58   1
  -4   3  -2  624.24   43.85   1
   3   1  -2  588.88   30.18   3
   1  -4  -2  585.95   42.52   1
  -4   0   2  -10.55   14.45   1
  -4   4  -2   53.91   16.84   1
   0  -4  -2    3.33   13.86   1
  -1  -4  -2 1374.91   87.74   1
  -4   5  -2 1376.63   87.86   1
  -5   1   2 1372.92   87.23   1
   4  -6   2   29.01   19.75   1
  -6   2   2   28.61   21.19   1
  -2  -4  -2    8.40   12.50   1
  -3  -4  -2  110.93   24.14   1
  -7   3   2  147.21   25.80   1
   4  -7   2  143.26   26.03   1
  -8   4   2  788.10   65.37   1
  -4  -4  -2  744.12   64.57   1
   4  -8   2  795.42   65.01   1
  -8   5   2  153.74   30.35   1
  -5  -3  -2   95.17   30.93   1
   3  -8   2  196.71   31.08   1
  -7   5   2  768.67   60.14   1
  -5  -2  -2  650.57   55.72   1
   2  -7   2  641.56   57.08   1
   1  -6   2  258.39   28.65   1
  -5  -1  -2  174.16   29.15   1
  -6   5   2  258.82   32.38   1
  -5   5   2  279.65   28.19   1
  -5   0  -2  204.71   26.31   1
   0  -5   2  282.89   17.43   3
   0  -5   2  256.76   27.89   1
  -1  -4   2 1413.31   86.71   1
   4  -5  -2 1353.14   63.91   5
  -5   1  -2 1362.24   87.18   1
  -4   5   2 1308.20   86.01   1
   3  -5  -2  430.12   37.45   1
  -5   2  -2  468.82   38.87   1
  -5   2  -2  472.89   23.95   5
  -5   3  -2  459.32   37.99   1
   2  -5  -2  427.47   35.42   1
  -4  -1   2 1379.22   86.01   1
  -5   4  -2 1349.91   86.58   1
   1  -5  -2 1312.23   85.39   1
   4   1  -2 1334.53   64.94   3
  -5   0   2  263.07   15.21   2
   0  -5  -2  196.83   25.07   1
  -5   5  -2  181.84   24.33   1
  -5   6  -2  240.29   29.24   1
  -6   1   2  238.08   28.31   1
  -1  -5  -2  216.39   28.94   1
  -2  -5  -2  722.70   55.66   1
  -7   2   2  675.46   54.95   1
  -5   7  -2  635.25   55.03   1
  -5   8  -2  134.27   31.95   1
  -8   3   2  133.24   34.96   1
  -3  -5  -2   85.46   26.14   1
  -6  -2  -2  -12.49   31.65   1
  -8   6   2   48.00   35.12   1
   2  -8   2    8.42   31.90   1
   1  -7   2  268.42   40.23   1
  -7   6   2  297.31   41.86   1
  -6   0  -2 1369.57   90.89   1
   0  -6   2 1231.35   87.79   1
  -6   6   2 1252.53   89.08   1
  -1  -5   2  283.62   29.82   1
  -5   6   2  257.33   31.75   1
  -6   1  -2  214.25   30.39   1
  -6   2  -2   -5.23   13.81   1
  -2  -4   2    1.66   18.06   1
  -4   6   2    5.18    6.68   4
   4  -6  -2   -8.43   14.01   1
   3  -6  -2 1001.43   71.14   1
  -3  -3   2 1023.94   70.80   1
  -6   3  -2 1050.19   72.27   1
   2  -6  -2    3.84   17.69   1
  -4  -2   2   29.73   20.64   1
  -6   4  -2   25.07   19.46   1
   1  -6  -2  191.85   29.02   1
  -5  -1   2  237.79   28.37   1
  -6   5  -2  247.36   31.96   1
  -6   6  -2 1310.79   90.17   1
   0  -6  -2 1247.03   87.98   1
  -6   0   2 1257.85   88.47   1
  -7   1   2  230.20   35.37   1
  -6   7  -2  140.82   28.87   1
  -1  -6  -2  141.71   29.33   1
  -6   8  -2    8.79   32.54   1
  -2  -6  -2   32.16   31.24   1
  -8   2   2   48.27   33.05   1
   0  -7   2  187.95   32.40   1
  -7   7   2  185.74   32.25   1
  -7   0  -2  120.92   28.82   1
  -1  -6   2  236.58   36.05   1
  -6   7   2  219.26   31.10   1
  -7   1  -2  158.63   31.13   1
  -2  -5   2  717.38   55.91   1
  -7   2  -2  667.23   56.58   1
  -5   7   2  700.03   56.68   1
  -7   3  -2   97.91   23.41   1
   4  -7  -2  116.43   23.70   1
   3  -7  -2  130.21   31.33   1
  -4  -3   2  166.27   30.19   1
  -7   4  -2   96.05   29.89   1
  -7   5  -2  663.59   57.64   1
  -5  -2   2  721.36   59.17   1
   2  -7  -2  727.25   57.60   1
  -6  -1   2  220.79   36.37   1
   1  -7  -2  156.73   34.92   1
  -7   6  -2  175.30   37.92   1
  -7   0   2  191.01   31.78   1
  -7   7  -2  125.44   30.84   1
   0  -7  -2  174.58   30.73   1
  -6   8   2   40.66   33.42   1
  -8   2  -2   -5.52   34.07   1
  -5   8   2  181.72   31.36   1
  -8   3  -2  157.37   31.84   1
  -3  -5   2  192.42   35.92   1
   4  -8  -2  772.96   66.28   1
  -8   4  -2  799.36   67.68   1
  -4  -4   2  793.84   63.88   1
  -8   5  -2  130.32   32.50   1
   3  -8  -2  160.48   34.26   1
  -5  -3   2  182.17   30.48   1
  -6  -2   2   -7.19   31.88   1
   2  -8  -2   33.63   33.27   1
  -8   6  -2   66.87   37.17   1
   0   0  -3   -3.15    2.30   4
   0   0  -3   -1.80    3.03   5
   0   0   3    3.11    4.22   2
   0   0  -3   -4.64    2.79   2
   0   0   3   -1.36    3.27   3
   0   0   3   -4.01    3.70   5
   0   0  -3   -3.85    3.13   3
   0   0   3    3.76    3.28   4
   1   0   3 6182.24  350.75   1
   0  -1   3 6449.92  350.99   1
  -1   0  -3 6831.46  351.26   1
  -1   1   3 6350.86  298.70   5
   0   1  -3 6625.87  350.88   1
  -1   0  -3 6759.27  299.13   5
   1  -1  -3 6828.22  298.70   5
   0   1  -3 6768.26  297.30   2
   1  -1  -3 6644.26  319.55   4
  -1   1   3 6298.39  350.72   1
  -1   0  -3 6852.02  297.25   2
  -1   1   3 6257.87  350.90   1
  -1   1   3 6430.75  319.57   4
   0  -1   3 6372.27  307.13   3
   1   0  -3 7008.77  310.11   3
   0   1   3 6475.28  299.96   2
   0  -1  -3 6945.98  354.40   1
   1   0  -3 6489.29  354.01   1
   1  -1   3 6404.76  322.43   4
  -1   1  -3 6862.39  322.45   4
  -1   0   3 6223.76  299.92   2
  -1   1  -3 6723.25  354.45   1
  -1   0   3 6532.26  354.22   1
   1   0  -3 6654.49  323.02   4
  -1   1  -3 6540.74  301.19   5
   0  -1  -3 7005.92  309.81   3
   0   1   3 6257.72  353.91   1
  -1   1  -3 6676.95  354.13   1
   1  -1   3 6304.40  301.29   5
  -2   1   3   -4.93    5.80   1
  -2   1   3    3.01    3.44   5
   1   1   3   -0.61    4.31   1
   1  -2   3    2.59    4.19   1
   1   1   3   -1.53    2.23   2
  -1  -1  -3    1.20    2.47   2
   2  -1  -3   -3.36    4.35   1
   2  -1  -3    8.98    3.60   4
  -1   2  -3    3.16    4.95   1
   1   1   3   -1.45    2.69   3
  -1  -1  -3   -2.00    6.35   1
  -3   2   3 3077.69  149.88   5
  -3   2   3 3110.20  180.86   1
  -2  -1  -3 3465.47  149.11   2
  -2  -1  -3 3502.67  182.01   1
   1  -3   3 3120.16  180.64   1
   2   1   3 3126.95  153.84   3
   3  -2  -3 3466.84  160.71   4
   0  -2   3 4278.67  234.21   1
  -2   2   3 4384.07  211.17   4
  -2   2   3 4360.10  233.76   1
   2   0   3 4137.50  233.67   1
  -2   2   3 4336.54  234.39   1
  -2   0  -3 4254.93  196.57   2
   0   2  -3 4200.80  233.74   1
   2  -2  -3 4311.18  197.18   5
   0   2  -3 4250.12  196.81   2
  -2   0  -3 4539.65  234.97   1
   1   1  -3   -3.11    2.87   2
   1   1  -3   -0.38    2.66   3
  -1  -1   3    0.62    3.53   3
  -1   2   3   -4.54    4.77   1
  -2   1  -3    3.13    3.00   5
  -1  -1   3    1.02    2.87   2
  -1  -1   3    0.38    4.37   1
   1   1  -3   -7.46    4.76   1
   2  -1   3   -1.31    3.76   1
   1  -2  -3   -0.96    5.99   1
   2  -1   3    4.39    3.80   4
   2  -2   3 4554.27  198.90   5
  -2   0   3 4440.77  236.52   1
   0   2   3 4180.62  235.42   1
   2   0  -3 4104.86  235.57   1
   0  -2  -3 4455.95  236.55   1
  -2   2  -3 4285.47  212.52   4
   0  -2  -3 4495.02  204.90   3
  -2   2  -3 4140.74  235.60   1
   2   0  -3 4491.44  205.54   3
  -2   2  -3 4262.30  236.46   1
   1   2   3 3128.98  147.75   2
  -1  -2  -3 3387.44  179.86   1
  -1  -2  -3 3379.41  152.24   3
   2  -3   3 3061.85  179.15   1
  -2   3  -3 3413.07  160.51   4
  -3   1   3 3043.02  179.11   1
  -4   2   3    1.84    3.40   5
  -2  -2  -3    9.65   13.06   1
  -4   2   3    3.80    9.33   1
   4  -2  -3   -1.79    4.54   4
   2  -4   3   -7.15    9.59   1
  -3  -2  -3 1691.44   96.65   1
  -5   3   3 1523.49   94.89   1
   2  -5   3 1407.01   93.85   1
  -4   3   3 2069.17  130.77   1
   1  -4   3 2270.51  131.82   1
  -3  -1  -3 2366.59  104.53   2
   3   1   3 2264.64  108.25   3
  -3  -1  -3 2436.34  132.71   1
  -3   3   3   60.81   12.61   1
   3  -3  -3   60.71    5.12   5
  -3   0  -3   51.59   11.61   1
   0  -3   3   64.35   10.46   1
  -3   3   3   63.00    5.44   4
  -3   1  -3 3305.23  182.05   1
   2  -3  -3 3405.48  182.22   1
  -1  -2   3 3125.84  154.92   3
  -1  -2   3 3124.68  181.09   1
   1   2  -3 3431.02  150.01   2
  -2  -1   3 3168.22  182.14   1
  -3   2  -3 3312.29  150.80   5
   1  -3  -3 3515.91  183.05   1
   2   1  -3 3419.50  155.89   3
   3  -2   3 3238.82  161.61   4
  -3   2  -3 3319.25  182.88   1
  -2  -1   3 3076.10  150.34   2
   3  -3   3   60.16    4.95   5
  -3   0   3   79.65   11.25   1
   3   0  -3   60.57    8.19   3
  -3   3  -3   58.89    5.11   4
   0  -3  -3   59.72    7.02   3
   0  -3  -3   77.13   13.31   1
  -3   3  -3   54.47   10.70   1
  -1  -3  -3 2349.63  127.32   1
   3  -4   3 2112.24  102.48   5
  -4   1   3 2134.00  126.63   1
   3  -4   3 2122.55  126.72   1
  -3   4  -3 2256.45  109.47   4
   1   3   3 2169.44  100.75   2
   5  -2  -3 1690.82   80.71   4
  -5   2   3 1486.09   95.90   1
  -5   2   3 1517.47   74.48   5
  -2  -3  -3 1715.80   97.30   1
   3  -5   3 1446.57   95.41   1
  -3  -3  -3    1.19   16.96   1
  -6   3   3   16.97   19.84   1
   3  -6   3   25.65   18.67   1
  -7   4   3  667.33   57.36   1
  -4  -3  -3  720.48   57.52   1
   3  -7   3  607.40   55.44   1
   2  -6   3  990.02   68.78   1
  -6   4   3  969.97   68.86   1
  -4  -2  -3  936.25   68.05   1
  -4  -1  -3    9.37   17.30   1
  -5   4   3   27.03   16.17   1
  -4   4   3 1847.10  106.42   1
   0   4  -3 1739.90   84.39   2
   0  -4   3 1781.80  105.68   1
  -4   0  -3 1795.53  106.01   1
  -4   0  -3 1716.40   83.52   2
  -1  -3   3 2093.65  131.25   1
  -3   4   3 2180.37  114.58   4
   3  -4  -3 2401.12  107.40   5
  -4   1  -3 2403.64  132.85   1
   1   3  -3 2424.22  105.83   2
  -1  -3   3 2152.36  108.99   3
   3  -4  -3 2382.84  132.70   1
  -4   2  -3    5.39    3.31   5
  -4   2  -3   33.17   14.28   1
   2  -4  -3   24.38   12.96   1
   4  -2   3   -5.77    4.84   4
  -2  -2   3   -4.25    8.27   1
   3   1  -3 2224.55  108.94   3
  -3  -1   3 2181.24  104.73   2
  -4   3  -3 2413.25  132.50   1
  -3  -1   3 2167.38  131.48   1
   1  -4  -3 2420.53  132.01   1
  -4   0   3 1898.58  109.83   1
   0  -4  -3 1868.26   89.88   3
   0  -4  -3 1792.46  109.20   1
  -4   4  -3 1879.34  110.51   1
   4   0  -3 1797.65   91.14   3
  -1  -4  -3   17.48   16.97   1
  -5   1   3   13.22   12.37   1
  -4   5  -3   26.42   13.84   1
   4  -5   3   16.00    3.99   5
   4  -6   3 1032.05   49.96   5
   4  -6   3 1005.59   69.96   1
  -6   2   3  941.68   69.63   1
  -2  -4  -3  977.59   69.46   1
  -6   2   3 1000.53   49.40   5
   4  -7   3  638.93   55.61   1
  -3  -4  -3  665.70   55.08   1
  -7   3   3  670.28   56.87   1
  -4  -4  -3   21.15   20.77   1
   4  -8   3    2.04   25.31   1
  -8   4   3   24.19   28.02   1
   3  -8   3  384.80   49.45   1
  -8   5   3  465.93   50.73   1
  -5  -3  -3  500.31   47.06   1
  -5  -2  -3   36.97   26.35   1
  -7   5   3   39.32   28.03   1
   2  -7   3   18.25   26.76   1
   1  -6   3  837.52   63.96   1
  -6   5   3  806.78   63.37   1
  -5  -1  -3  984.42   64.78   1
  -5   0  -3 1194.89   75.93   1
   0  -5   3 1026.46   73.33   1
   0  -5   3 1136.93   56.15   3
  -5   5   3 1034.83   73.37   1
  -4   5   3   36.43   15.83   1
  -1  -4   3   15.98   12.21   1
   1   4  -3   11.59    4.24   2
  -4   5   3   15.71    4.38   4
  -5   1  -3   17.21   16.62   1
   5  -2   3 1635.42   84.31   4
  -5   2  -3 1705.32  101.17   1
   3  -5  -3 1689.31  100.69   1
  -2  -3   3 1456.26   99.22   1
  -5   2  -3 1766.02   78.42   5
   2  -5  -3 1603.15   99.56   1
  -5   3  -3 1768.38  101.21   1
  -3  -2   3 1503.00   98.51   1
  -5   4  -3   23.38   18.58   1
  -4  -1   3   11.87   11.43   1
   1  -5  -3   22.19   17.48   1
   0  -5  -3 1245.61   79.01   1
  -5   5  -3 1246.03   79.06   1
  -5   0   3 1069.39   76.80   1
  -5   0   3 1116.47   56.92   2
  -5   6  -3 1038.62   70.04   1
  -1  -5  -3  948.34   66.59   1
  -6   1   3  815.35   66.32   1
  -7   2   3   37.53   26.94   1
  -5   7  -3   62.86   27.38   1
  -2  -5  -3   40.78   22.60   1
  -3  -5  -3  515.53   52.19   1
  -8   3   3  393.47   50.50   1
  -5   8  -3  469.53   52.57   1
  -8   6   3  339.29   49.41   1
  -6  -2  -3  433.96   50.69   1
   2  -8   3  469.64   49.55   1
   1  -7   3  566.49   51.69   1
  -7   6   3  573.99   52.51   1
  -6  -1  -3  672.58   56.33   1
  -6   0  -3  -13.64   23.23   1
   0  -6   3   -7.63   22.97   1
  -6   6   3   24.41   25.41   1
  -5   6   3  822.23   62.68   1
  -6   1  -3  912.77   63.38   1
  -1  -5   3  820.53   63.17   1
   4  -6  -3 1000.87   70.66   1
  -6   2  -3 1014.52   71.15   1
  -2  -4   3 1016.77   70.36   1
  -4   6   3 1008.88   54.13   4
   6  -2   3 1030.09   54.96   4
  -3  -3   3    4.47   13.36   1
   3  -6  -3   30.47   19.17   1
  -6   3  -3   33.72   21.33   1
   2  -6  -3 1000.00   69.94   1
  -6   4  -3 1033.66   71.10   1
  -4  -2   3  959.63   69.50   1
  -5  -1   3  807.15   65.26   1
   1  -6  -3  983.69   66.14   1
  -6   5  -3  955.68   67.24   1
   0  -6  -3   13.87   23.17   1
  -6   0   3   23.84   22.97   1
  -6   6  -3   17.98   24.98   1
  -7   1   3  604.13   57.71   1
  -1  -6  -3  596.82   57.89   1
  -6   7  -3  659.31   58.37   1
  -6   8  -3  364.68   46.41   1
  -8   2   3  427.07   45.74   1
  -2  -6  -3  377.75   47.69   1
   0  -7   3  493.17   53.79   1
  -7   0  -3  504.47   53.29   1
  -7   7   3  494.45   53.47   1
  -6   7   3  537.89   53.90   1
  -1  -6   3  517.15   54.50   1
  -7   1  -3  695.86   58.10   1
  -7   2  -3  -20.66   25.35   1
  -5   7   3   32.42   25.89   1
  -2  -5   3    7.47   23.91   1
  -7   3  -3  705.48   58.67   1
   4  -7  -3  615.28   55.86   1
  -3  -4   3  749.73   58.35   1
   3  -7  -3  707.86   58.45   1
  -4  -3   3  646.61   57.08   1
  -7   4  -3  796.10   62.18   1
  -7   5  -3   10.10   27.15   1
   2  -7  -3   54.48   25.93   1
  -6  -1   3  544.96   52.82   1
   1  -7  -3  689.79   58.46   1
  -7   6  -3  702.50   57.86   1
   0  -7  -3  538.08   52.89   1
  -7   0   3  492.56   55.05   1
  -7   7  -3  517.27   54.93   1
  -8   2  -3  408.07   50.21   1
  -2  -6   3  446.77   46.40   1
  -6   8   3  471.40   51.91   1
  -3  -5   3  488.01   52.89   1
  -5   8   3  467.38   53.21   1
  -8   3  -3  540.11   54.54   1
  -4  -4   3  -21.55   27.33   1
   4  -8  -3   -3.70   20.36   1
  -8   4  -3  -29.18   23.50   1
   3  -8  -3  472.06   46.67   1
  -8   5  -3  428.32   48.46   1
  -5  -3   3  452.43   50.81   1
   2  -8  -3  464.72   52.58   1
  -6  -2   3  474.00   49.00   1
  -8   6  -3  321.30   49.92   1
   0   0   4  106.95    9.46   4
   0   0   4  115.21    8.38   2
   0   0   4  129.41    8.88   3
   0   0   4  122.72    8.42   5
  -1   1   4 2128.84  111.52   1
  -1   1   4 2133.12  102.70   4
  -1   0  -4 2010.56   95.85   5
  -1   0  -4 1918.37   94.89   2
   1   0   4 2171.02   98.61   3
   0   1  -4 1839.86  102.52   4
   0  -1   4 2158.28  111.49   1
   1   0   4 2283.22   95.71   2
   0   1  -4 1884.61   94.93   2
  -1   0  -4 1958.53  111.54   1
   0  -1   4 2109.14   98.65   3
  -1   1   4 2191.10   95.95   5
   1  -1  -4 1957.69   98.93   3
   1   0   4 2128.96  111.46   1
   1  -1  -4 1955.14   95.42   5
   1   0   4 2121.91  103.04   4
   1  -1  -4 1899.37  102.12   4
  -1   1   4 2131.83  111.32   1
   0   1  -4 1848.54  111.07   1
  -1   1  -4 1929.21  101.08   4
  -1   0   4 2165.73   94.54   2
   0   1   4 2151.79   94.59   2
   1  -1   4 2230.12   95.03   5
   0  -1  -4 1951.80  110.28   1
  -1   1  -4 1931.76  110.15   1
  -1   0   4 2169.16   95.31   5
   0  -1  -4 1877.87   94.91   5
   1  -1   4 2111.02  101.52   4
  -1   1  -4 1847.16   94.35   2
  -1   1  -4 1891.37   94.26   5
  -1   0   4 2237.05   98.13   3
   0   1   4 2186.69   97.71   3
   0   1   4 2113.83  110.22   1
  -1   1  -4 1972.40  110.47   1
   0  -1  -4 1954.12   97.21   3
   1   0  -4 1972.74  101.73   4
   1   0  -4 1893.77  110.04   1
  -1   0   4 2102.34  110.31   1
   1   0  -4 1765.29   97.14   3
  -2   1   4 3085.60  171.18   1
  -1  -1  -4 3271.45  171.57   1
   1   1   4 2929.12  170.45   1
   2  -1  -4 3127.54  170.88   1
   1   1   4 3111.26  148.50   3
  -2   1   4 3059.58  144.96   5
   1  -2   4 3082.78  171.22   1
   1   1   4 3136.18  143.97   2
   2  -1  -4 3211.53  155.27   4
  -1   2  -4 3170.17  170.98   1
  -1  -1  -4 3296.80  143.91   2
  -1   2  -4 3118.36  155.66   4
  -2  -1  -4  656.83   35.61   2
   1  -3   4  804.65   47.18   1
  -2  -1  -4  618.54   45.94   1
  -3   2   4  808.23   47.34   1
   2   1   4  794.22   37.29   3
  -3   2   4  827.31   36.70   5
   3  -2  -4  661.79   38.66   4
   0   2  -4  584.32   28.31   2
  -2   0  -4  582.81   34.89   1
   2  -2  -4  594.18   27.90   5
   0  -2   4  518.32   29.47   3
   2   0   4  503.61   33.62   1
  -2   2   4  527.77   29.82   4
  -2   0  -4  603.24   28.20   2
   0   2  -4  588.06   33.93   1
  -2   2   4  484.34   33.46   1
  -2   2   4  500.48   33.89   1
   0  -2   4  493.87   33.90   1
  -1  -1   4 3172.27  146.62   2
   2  -1   4 3042.93  173.56   1
   1  -2  -4 3175.52  148.07   5
  -2   1  -4 3192.84  174.43   1
   1  -2  -4 3371.07  174.51   1
   1   1  -4 3146.91  151.24   3
  -1  -1   4 3175.11  151.60   3
   1   1  -4 3441.46  146.64   2
  -1  -1   4 3074.38  173.90   1
   1   1  -4 3208.62  173.71   1
   2  -1   4 3144.39  157.82   4
  -2   1  -4 3249.81  147.29   5
  -1   2   4 3038.98  173.44   1
  -2   2  -4  593.49   34.80   1
   0   2   4  494.87   28.45   2
  -2   2  -4  609.86   35.90   1
   2   0  -4  584.26   29.96   3
   2  -2   4  519.25   28.08   5
   2   0  -4  574.25   34.67   1
   0  -2  -4  621.13   29.69   3
  -2   2  -4  603.13   30.30   4
  -2   0   4  490.51   28.31   2
   0  -2  -4  585.78   35.35   1
  -2   0   4  509.13   34.53   1
   0   2   4  486.59   33.84   1
   3  -1  -4  662.90   39.78   4
  -3   1   4  785.92   37.63   5
  -2   3  -4  687.42   39.58   4
  -1  -2  -4  678.50   36.60   3
   2  -3   4  765.40   46.78   1
  -1  -2  -4  631.25   45.45   1
   1   2   4  841.92   36.35   2
  -3   1   4  843.09   47.49   1
  -4   2   4  113.59    8.78   5
   2  -4   4  120.76   17.60   1
  -4   2   4  100.35   16.90   1
  -3  -2  -4  445.72   39.61   1
   2  -5   4  521.33   40.83   1
  -5   3   4  584.47   40.65   1
   1  -4   4  650.07   42.59   1
  -3  -1  -4  582.69   43.07   1
  -4   3   4  635.12   43.53   1
  -3  -1  -4  521.87   29.53   2
   3   1   4  652.37   31.21   3
   0   3  -4 1751.02   81.03   2
   0  -3   4 1691.45   83.91   3
   3  -3  -4 1746.02   80.05   5
   0  -3   4 1556.19   98.10   1
  -3   0  -4 1713.57   80.55   2
  -3   3   4 1617.03   98.74   1
  -3   0  -4 1884.63   99.96   1
  -3   3   4 1676.08   85.71   4
   2  -3  -4  629.54   44.03   1
  -3   1  -4  649.76   44.45   1
   1   2  -4  694.61   34.40   2
  -3   1  -4  658.53   35.36   5
   2  -3  -4  648.94   35.44   5
  -2   3   4  799.73   38.94   4
  -1  -2   4  794.44   45.08   1
  -3   2  -4  653.38   34.71   5
  -2  -1   4  782.32   45.74   1
  -2  -1   4  806.04   35.56   2
   3  -2   4  780.87   38.03   4
   1  -3  -4  650.51   44.97   1
   2   1  -4  658.34   36.41   3
  -3   2  -4  658.15   45.54   1
  -3   3  -4 1880.28  103.60   1
   0  -3  -4 1864.14   86.39   3
   3  -3   4 1748.11   83.00   5
  -3   3  -4 1842.02   88.72   4
  -3   0   4 1593.57  101.68   1
   3   0  -4 1852.86   87.63   3
   0  -3  -4 1730.37  102.40   1
  -3   0   4 1653.43   83.84   2
   3  -4   4  661.18   43.59   1
  -4   1   4  644.69   43.14   1
   1   3   4  690.59   31.40   2
   3  -4   4  671.50   32.69   5
  -1  -3  -4  541.08   30.93   3
  -1  -3  -4  540.18   43.02   1
   5  -2  -4  487.11   31.45   4
  -5   2   4  543.47   28.10   5
   3  -5   4  557.46   41.21   1
  -5   2   4  513.15   40.78   1
  -3  -3  -4  618.07   46.75   1
   3  -6   4  546.41   47.82   1
  -6   3   4  596.70   48.10   1
  -7   4   4  171.13   26.66   1
   3  -7   4  135.19   24.77   1
  -4  -3  -4  107.99   27.45   1
  -6   4   4   74.39   18.50   1
   2  -6   4   89.92   19.40   1
  -4  -2  -4   80.58   21.31   1
  -4  -1  -4  806.74   54.65   1
  -5   4   4  739.31   54.63   1
   1  -5   4  733.01   53.71   1
   0  -4   4  116.01   18.62   1
  -4   4   4  130.49   19.89   1
   0  -4   4  118.04   12.20   3
  -4   0  -4  152.07   20.87   1
  -4   0  -4  118.53   10.29   2
  -3   4   4  641.34   32.26   4
  -4   1  -4  562.27   41.42   1
   1   3  -4  546.11   28.59   2
  -4   1  -4  523.35   30.82   5
   3  -4  -4  498.50   29.35   5
  -1  -3   4  648.71   40.62   1
   3  -4  -4  528.97   40.31   1
   2  -4  -4  231.79   23.10   1
  -4   2  -4  240.02   14.03   5
  -4   2  -4  228.38   23.83   1
  -4   3  -4  521.89   41.58   1
  -3  -1   4  667.13   41.75   1
  -3  -1   4  650.52   29.35   2
   3   1  -4  492.99   30.27   3
   1  -4  -4  539.62   41.18   1
  -4   4  -4  169.52   22.48   1
   0  -4  -4  109.68   10.80   3
  -4   0   4  139.89   19.19   1
   0  -4  -4  147.60   20.39   1
  -4   0   4  117.26   10.71   2
   1   4   4  809.28   38.36   2
  -5   1   4  700.32   55.14   1
   4  -5   4  757.39   39.11   5
  -4   5  -4  845.47   57.87   1
  -1  -4  -4  860.55   57.28   1
  -4   6  -4   48.93   15.93   1
  -6   2   4   61.67   17.48   1
  -6   2   4   62.58    9.28   5
  -2  -4  -4   53.45   20.44   1
   4  -6   4   64.55    9.62   5
   4  -6   4   79.01   17.98   1
  -7   3   4  125.59   29.64   1
   4  -7   4  118.69   30.08   1
   4  -7   4  148.64   15.35   5
  -3  -4  -4   75.48   26.78   1
  -4  -4  -4   59.18   32.80   1
  -8   4   4   39.89   30.67   1
   4  -8   4   36.59   32.14   1
  -8   5   4  181.08   38.12   1
   3  -8   4  149.67   37.92   1
   2  -7   4  268.64   37.44   1
  -7   5   4  303.99   40.41   1
  -5  -2  -4  366.25   41.23   1
   1  -6   4  278.33   34.07   1
  -6   5   4  284.09   35.46   1
   0  -5   4  225.62   25.83   1
  -5   5   4  243.67   29.87   1
   0  -5   4  252.55   17.94   3
  -1  -4   4  732.20   53.24   1
  -1  -4   4  769.84   38.15   3
  -4   5   4  678.70   53.40   1
  -5   1  -4  844.09   55.98   1
  -4   5   4  723.91   39.75   4
  -2  -3   4  557.07   38.15   1
  -5   2  -4  408.03   23.92   5
   3  -5  -4  419.18   36.04   1
  -5   2  -4  391.14   36.97   1
  -3  -2   4  538.17   38.80   1
   2  -5  -4  420.84   36.70   1
  -5   3  -4  424.70   36.65   1
   1  -5  -4  849.37   55.79   1
  -4  -1   4  794.12   56.07   1
  -4  -1   4  722.28   37.78   2
  -5   4  -4  799.20   57.07   1
   0  -5  -4  172.53   27.17   1
  -5   0   4  215.77   15.47   2
  -5   5  -4  165.16   27.25   1
   0   5   4  266.88   16.88   2
  -5   0   4  260.00   28.38   1
  -5   6  -4  211.66   31.45   1
  -6   1   4  246.20   32.92   1
  -1  -5  -4  165.62   28.88   1
  -2  -5  -4  293.44   38.01   1
  -7   2   4  289.34   38.09   1
  -5   7  -4  289.89   39.41   1
  -3  -5  -4  109.60   35.22   1
  -8   3   4  139.91   35.51   1
  -5   8  -4  131.68   38.43   1
  -8   6   4  -27.75   29.76   1
   2  -8   4   20.11   32.61   1
  -6  -2  -4   35.56   26.64   1
  -7   6   4  215.03   37.73   1
   1  -7   4  252.78   38.04   1
  -6   6   4   35.48   19.40   1
   0  -6   4   52.90   25.36   1
  -1  -5   4  255.55   33.36   1
  -5   6   4  268.05   34.49   1
  -6   1  -4  202.47   31.15   1
  -6   2  -4   89.30   22.99   1
   4  -6  -4   35.47   18.59   1
  -2  -4   4   72.45   18.09   1
   6  -2   4   68.81   11.10   4
  -4   6   4   53.56    9.79   4
  -6   3  -4  606.85   48.71   1
  -3  -3   4  567.23   48.80   1
   3  -6  -4  697.55   49.38   1
  -6   4  -4  100.40   19.71   1
   2  -6  -4   23.68   17.46   1
  -4  -2   4   60.48   19.30   1
   1  -6  -4  111.56   25.36   1
  -6   5  -4  181.47   30.39   1
  -6   6  -4   91.04   22.56   1
   0  -6  -4  124.60   23.08   1
  -7   1   4  250.32   37.57   1
  -7   1   4  234.84   21.09   5
  -1  -6  -4  166.21   36.71   1
  -6   7  -4  149.00   37.18   1
  -8   2   4    0.67   33.51   1
  -6   8  -4   28.58   35.30   1
  -2  -6  -4   34.07   25.73   1
  -7   7   4  196.40   39.19   1
  -7   0  -4  123.13   37.82   1
   0  -7   4  228.54   39.72   1
  -7   1  -4  184.92   37.72   1
  -6   7   4  199.17   36.04   1
  -1  -6   4  227.80   37.82   1
  -2  -5   4  300.43   37.56   1
  -5   7   4  343.83   41.10   1
  -7   2  -4  331.98   38.87   1
  -7   3  -4   68.25   25.37   1
   4  -7  -4   73.82   27.12   1
  -4  -3   4  123.24   23.35   1
  -7   4  -4   92.99   26.38   1
   3  -7  -4  163.48   30.04   1
   2  -7  -4  273.31   38.36   1
  -5  -2   4  273.85   35.44   1
  -7   5  -4  348.20   40.19   1
  -7   6  -4  169.47   36.08   1
   1  -7  -4  152.19   33.08   1
  -6  -1   4  244.76   37.73   1
   0  -7  -4  130.04   36.39   1
  -7   7  -4   84.61   37.36   1
  -6   8   4   83.42   34.96   1
  -8   2  -4   14.27   30.41   1
  -2  -6   4    5.60   31.84   1
  -5   8   4  178.40   37.78   1
  -3  -5   4  237.42   36.21   1
  -8   3  -4  111.00   36.29   1
   4  -8  -4  123.33   34.39   1
  -8   4  -4   35.58   32.62   1
  -4  -4   4  -27.20   30.03   1
   3  -8  -4  102.09   36.21   1
  -8   5  -4   51.22   33.22   1
  -5  -3   4  160.90   35.10   1
   2  -8  -4   41.91   27.43   1
  -8   6  -4  122.58   31.38   1
  -6  -2   4   70.65   33.79   1
   0   0   5  -15.59    6.05   4
   0   0  -5  -11.35    4.43   3
   0   0   5   -5.36    3.70   2
   0   0   5  -12.91    5.72   3
   0   0   5   -5.70    4.09   5
   0   0  -5   -4.54    3.02   5
   0   0  -5    2.04    3.15   2
   0   0  -5   -1.17    4.50   4
   1  -1  -5 2003.60  102.96   4
   0  -1   5 2083.85   99.53   3
  -1   1   5 2059.41  103.25   4
   1   0   5 2083.88   96.09   2
   1   0   5 2031.94  111.23   1
   0  -1   5 2087.87  111.35   1
   0   1  -5 1973.68  111.09   1
  -1   1   5 2046.43   96.41   5
  -1   0  -5 2036.52   95.68   2
   0  -1   5 2147.87   96.29   2
   1  -1  -5 1975.28   99.29   3
  -1   0  -5 2073.84  111.54   1
   1   0   5 2138.35   99.40   3
   1   0   5 2057.22  103.72   4
   0   1  -5 1996.55  103.32   4
   1  -1  -5 2013.70   95.99   5
   0  -1   5 2065.32   96.98   5
  -1   1   5 1987.95  111.22   1
  -1   1   5 2001.46  111.04   1
   0   1  -5 1961.70   95.56   2
  -1   1   5 2058.25   96.59   2
  -1   0  -5 2102.81   96.62   5
  -1   0   5 2115.30   94.91   2
  -1   0   5 2065.36   98.15   3
   0   1   5 1933.65  109.35   1
  -1   1  -5 2094.69  110.03   1
   0   1   5 2068.35   94.72   2
   0  -1  -5 2024.67  109.75   1
   1  -1   5 2047.77   95.01   5
   0   1   5 2017.59  102.35   4
  -1   1  -5 1976.35  109.61   1
  -1   1  -5 2009.33  101.33   4
   0  -1  -5 1939.93   97.27   3
   1   0  -5 2033.82   97.72   3
  -1   1  -5 2004.44   94.67   5
  -1   0   5 2045.50   95.47   5
   1   0  -5 1954.57  101.65   4
  -1   1  -5 1918.74   94.46   2
   0   1   5 2040.01   97.88   3
   1  -1   5 1964.76  101.58   4
   0  -1  -5 2017.13   95.27   5
  -1   0   5 2049.29  109.61   1
   1   0  -5 1975.54  109.49   1
   1   1   5   -5.98    4.98   2
   1  -2   5  -10.64    6.30   5
   1   1   5    2.68    4.40   1
  -1  -1  -5   -2.10    6.07   1
   2  -1  -5   -1.90    3.85   1
   2  -1  -5   -1.05    4.55   3
  -1   2  -5   -4.49    4.16   1
  -2   1   5   -2.60    5.82   1
   2  -1  -5   -1.05    5.57   4
  -1   2  -5    4.29    4.42   4
  -2   1   5   -7.33    4.59   5
   1  -2   5  -11.07    5.83   1
   1   1   5    2.00    3.33   3
  -1  -1  -5   -7.29    3.86   2
  -2  -1  -5 1271.64   76.81   1
  -3   2   5 1309.56   63.04   5
   2   1   5 1369.57   64.68   3
   3  -2  -5 1274.71   67.39   4
   1  -3   5 1346.13   76.95   1
  -2  -1  -5 1276.15   62.33   2
  -3   2   5 1321.87   76.96   1
   2  -2  -5 4956.80  228.67   5
   2   0   5 5193.24  236.00   3
   0  -2   5 4852.99  269.55   1
   0   2  -5 4968.51  227.95   2
   0  -2   5 4958.86  235.79   3
   0   2  -5 4913.44  269.31   1
  -2   0  -5 4898.22  229.77   5
  -2   2   5 4932.87  269.07   1
  -2   0  -5 4950.78  227.72   2
  -2   2   5 4942.56  269.74   1
   2   0   5 4967.95  269.29   1
  -2   2   5 5104.27  245.12   4
  -2   0  -5 4995.58  269.95   1
   2  -1   5    3.31    5.77   1
   1  -2  -5   -3.09    4.42   5
  -1  -1   5   -4.10    5.93   3
  -1   2   5   -1.52    4.85   1
   2  -1   5   -0.37    5.68   4
  -1   2   5    0.24    6.50   4
   1   1  -5   -4.80    4.70   3
  -1  -1   5   -0.79    6.01   1
   1  -2  -5   -1.31    5.26   1
  -2   1  -5    4.96    4.35   2
   1  -2  -5    7.10    4.98   3
   1   1  -5   -2.45    3.73   2
   1   1  -5   -5.55    4.64   1
  -2   1  -5   -0.93    3.63   5
  -2   1  -5   -5.51    5.76   1
   0  -2  -5 5032.19  273.25   1
  -2   2  -5 4966.12  272.81   1
  -2   2  -5 5134.88  273.76   1
   2  -2   5 5210.34  231.88   5
   2   0  -5 4894.61  249.00   4
   2   0  -5 5040.83  238.92   3
   0   2   5 5128.91  231.25   2
  -2   2  -5 4988.21  247.71   4
   0  -2  -5 4978.32  238.13   3
   2   0  -5 4919.45  272.69   1
  -2   0   5 5012.27  273.13   1
   0   2   5 4856.68  272.42   1
  -2   0   5 5321.15  231.56   2
   2  -3   5 1303.49   76.05   1
   1   2   5 1331.96   62.05   2
  -2   3  -5 1266.77   67.16   4
   2  -3   5 1407.31   63.86   5
  -3   1   5 1354.74   76.31   1
  -3   1   5 1364.28   63.69   5
  -1  -2  -5 1171.97   63.25   3
   3  -1  -5 1236.01   67.31   4
  -1  -2  -5 1222.77   75.60   1
  -2  -2  -5   13.47    9.50   1
  -4   2   5   -1.22   11.73   1
  -4   2   5   -9.08    5.24   5
   4  -2  -5    5.93    6.57   4
  -5   3   5 1150.11   73.66   1
  -3  -2  -5 1113.42   73.96   1
   2  -5   5 1147.91   73.72   1
   3   1   5 1311.73   62.95   3
  -4   3   5 1314.00   78.64   1
  -3  -1  -5 1212.49   60.63   2
  -3  -1  -5 1218.29   78.41   1
   1  -4   5 1326.65   78.53   1
   0  -3   5    7.54    9.85   1
  -3   0  -5   12.46    6.14   2
   0  -3   5   -1.57    6.99   3
  -3   3   5    9.70   10.34   1
  -3   0  -5   14.58   10.42   1
   3  -3  -5   10.09    5.03   5
   0   3  -5   -0.57    7.05   2
   2  -3  -5 1211.41   74.36   1
   1   2  -5 1256.51   60.76   2
  -1  -2   5 1309.96   74.57   1
   2  -3  -5 1211.84   61.74   5
  -2   3   5 1303.01   66.96   4
  -3   1  -5 1250.75   61.71   5
  -3   1  -5 1182.09   74.46   1
   3  -1   5 1366.19   67.11   4
  -1  -2   5 1318.43   63.43   3
   2   1  -5 1224.91   64.25   3
  -2  -1   5 1310.39   76.06   1
   1  -3  -5 1230.17   75.89   1
  -3   2  -5 1274.48   61.92   5
  -2  -1   5 1361.97   62.40   2
   3  -2   5 1372.24   67.06   4
  -3   2  -5 1300.28   76.71   1
  -3   3  -5   14.85   11.32   1
   0   3   5    5.95    6.61   2
  -3   0   5   19.58    6.86   2
  -3   0   5    9.12    9.66   1
   0  -3  -5   17.15    6.70   3
   0  -3  -5   -6.51    9.11   1
  -3   3  -5    5.37    5.23   4
   3  -3   5    3.41    4.50   5
  -4   1   5 1270.43   77.68   1
  -1  -3  -5 1283.81   62.00   3
   3  -4   5 1278.94   61.90   5
  -4   1   5 1269.82   63.22   5
   3  -4   5 1308.43   78.22   1
  -1  -3  -5 1254.14   77.91   1
  -3   4  -5 1185.41   65.82   4
   1   3   5 1284.07   60.75   2
  -5   2   5 1121.86   55.66   5
  -2  -3  -5 1116.32   72.21   1
   3  -5   5 1119.21   57.19   5
  -5   2   5 1141.32   73.33   1
   3  -5   5 1119.63   72.68   1
  -3  -3  -5    1.44   17.58   1
  -6   3   5   30.13   19.95   1
   3  -6   5   22.65   18.76   1
   3  -7   5  343.53   40.04   1
  -7   4   5  394.89   42.68   1
  -4  -3  -5  321.41   39.78   1
  -6   4   5 1306.95   85.74   1
  -4  -2  -5 1233.13   85.03   1
   2  -6   5 1297.89   85.33   1
   4   1   5    7.13    4.58   3
  -4  -1  -5   11.30   15.25   1
   1  -5   5   -8.03   11.54   1
  -5   4   5   -6.29   15.36   1
   0  -4   5 2201.27  108.90   3
  -4   4   5 2210.40  129.75   1
  -4   0  -5 2174.89  129.62   1
   0  -4   5 2280.85  129.89   1
  -1  -3   5 1359.54   62.97   3
   3  -4  -5 1207.40   76.89   1
   1   3  -5 1270.05   60.29   2
  -3   4   5 1303.35   65.95   4
  -4   1  -5 1145.06   76.75   1
   3  -4  -5 1197.50   61.28   5
  -1  -3   5 1257.30   76.52   1
   4  -2   5    7.41    5.85   4
  -4   2  -5   11.72   11.61   1
  -2  -2   5   11.27   11.99   1
   2  -4  -5    0.52    8.26   1
  -4   2  -5    9.02    5.37   5
  -3  -1   5 1314.10   77.34   1
  -4   3  -5 1221.26   77.67   1
  -3  -1   5 1273.13   60.29   2
   1  -4  -5 1230.89   77.00   1
   3   1  -5 1222.75   62.70   3
   0   4   5 2352.85  107.80   2
  -4   4  -5 2247.79  133.06   1
   4  -4   5 2343.67  105.60   5
  -4   0   5 2275.82  132.48   1
   0  -4  -5 2180.72  110.02   3
  -4   0   5 2291.48  107.67   2
   0  -4  -5 2166.57  131.69   1
   4  -5   5    1.69    5.47   5
  -1  -4  -5    1.63   15.14   1
  -4   5  -5    1.35   12.23   1
  -5   1   5    4.70   11.71   1
   1   4   5   -4.22    5.48   2
   4  -6   5 1201.73   60.64   5
  -6   2   5 1256.72   60.64   5
  -2  -4  -5 1206.00   81.45   1
  -4   6  -5 1154.09   81.88   1
  -6   2   5 1253.17   82.09   1
   4  -7   5  365.15   24.89   5
  -3  -4  -5  333.63   36.20   1
  -7   3   5  392.81   41.39   1
   4  -7   5  267.98   39.09   1
  -8   4   5   33.34   23.57   1
  -4  -4  -5  -37.58   31.42   1
   4  -8   5   15.49   21.71   1
  -8   5   5  334.59   39.50   1
   3  -8   5  337.26   39.13   1
  -5  -3  -5  258.74   42.91   1
  -5  -2  -5   21.46   18.68   1
   2  -7   5   25.30   28.78   1
  -7   5   5    8.39   26.73   1
   1  -6   5  520.82   32.86   3
  -5  -1  -5  463.04   42.58   1
  -6   5   5  476.65   42.64   1
   1  -6   5  517.99   45.30   1
   5   0   5  623.04   34.94   3
   0  -5   5  637.77   35.22   3
   0  -5   5  638.28   48.84   1
  -5   0  -5  563.15   47.33   1
  -5   5   5  560.18   47.19   1
  -4   5   5   16.65   14.64   1
  -1  -4   5    3.82   13.81   1
  -5   1  -5    1.10   15.12   1
  -1  -4   5   -7.37    6.33   3
  -4   5   5   -3.02    6.67   4
   5  -2   5 1198.90   60.73   4
  -3   5   5 1119.32   61.91   4
  -2  -3   5 1116.01   72.88   1
   3  -5  -5 1092.99   72.35   1
  -5   2  -5 1126.52   73.32   1
  -5   3  -5 1125.93   74.92   1
  -3  -2   5 1163.93   73.77   1
   2  -5  -5 1155.17   74.80   1
  -5   4  -5   41.57   18.06   1
   1  -5  -5   19.90   18.19   1
  -4  -1   5    1.62    9.66   1
  -4  -1   5    4.53    5.22   2
   0   5   5  656.13   34.49   2
  -5   0   5  631.00   49.22   1
  -5   0   5  638.98   34.00   2
  -5   5  -5  583.67   49.08   1
   0  -5  -5  579.09   47.04   1
  -1  -5  -5  521.15   43.66   1
  -6   1   5  512.14   31.71   5
  -6   1   5  482.05   30.58   2
  -6   1   5  519.42   45.28   1
  -5   6  -5  468.23   43.92   1
  -7   2   5  -38.93   26.38   1
  -2  -5  -5   22.32   19.98   1
  -5   7  -5   36.19   24.98   1
  -3  -5  -5  311.58   37.75   1
  -5   8  -5  281.42   44.04   1
  -8   3   5  309.85   43.91   1
  -7   6   5  444.15   46.84   1
   1  -7   5  399.56   44.39   1
  -6  -1  -5  361.81   44.70   1
  -6   0  -5   32.69   25.91   1
   0  -6   5   10.93   24.80   1
  -6   6   5  -15.76   26.77   1
  -1  -5   5  490.45   44.36   1
  -6   1  -5  468.22   41.66   1
  -5   6   5  478.20   42.22   1
  -6   2  -5 1140.15   82.79   1
  -4   6   5 1240.11   66.87   4
  -2  -4   5 1264.14   83.79   1
   6  -2   5 1291.58   67.48   4
  -4   6   5 1339.08   84.80   1
  -3  -3   5    2.27   13.51   1
   3  -6  -5    7.65   19.02   1
  -6   3  -5   17.40   19.94   1
  -4  -2   5 1238.09   80.95   1
   2  -6  -5 1221.94   80.91   1
  -6   4  -5 1107.89   80.55   1
  -6   5  -5  472.61   42.64   1
  -5  -1   5  552.40   45.49   1
   1  -6  -5  423.73   41.69   1
  -6   6  -5   19.24   25.67   1
  -6   0   5   -7.03   26.98   1
   0  -6  -5   50.38   25.36   1
  -1  -6  -5  393.05   43.73   1
  -7   1   5  479.37   32.09   5
  -7   1   5  466.67   49.53   1
  -6   7  -5  444.00   48.08   1
   0  -7   5  424.34   47.20   1
  -7   7   5  436.15   45.77   1
  -7   0  -5  363.03   46.35   1
  -6   7   5  405.84   43.32   1
  -1  -6   5  423.47   48.07   1
   7  -1   5  453.16   35.98   4
  -7   1  -5  526.70   47.72   1
  -2  -5   5  -14.49   25.76   1
  -7   2  -5   -2.90   17.49   1
  -5   7   5   34.98   20.59   1
  -3  -4   5  396.99   41.95   1
   4  -7  -5  332.56   37.46   1
  -7   3  -5  357.18   38.23   1
  -4  -3   5  372.78   39.87   1
   3  -7  -5  338.22   39.21   1
  -7   4  -5  275.35   39.27   1
  -7   5  -5   11.34   25.11   1
  -5  -2   5  -14.58   26.31   1
   2  -7  -5   13.17   19.63   1
  -6  -1   5  420.03   44.72   1
   1  -7  -5  428.03   48.20   1
  -7   6  -5  417.72   48.95   1
   0  -7  -5  406.26   48.58   1
  -7   7  -5  436.76   47.38   1
  -7   0   5  476.46   49.45   1
  -3  -5   5  378.71   45.24   1
  -8   3  -5  273.54   38.21   1
  -5   8   5  358.26   40.13   1
  -4  -4   5  -11.95   20.51   1
  -8   4  -5  -43.23   32.62   1
   4  -8  -5  -16.54   32.25   1
  -5  -3   5  265.02   37.60   1
   3  -8  -5  276.15   41.58   1
  -8   5  -5  232.14   39.30   1
   0   0   6 2433.45  128.37   5
   0   0  -6 3051.57  128.02   2
   0   0   6 2430.82  127.62   2
   0   0  -6 3025.49  137.89   4
   0   0   6 2458.50  137.47   4
   0   0   6 2435.37  131.96   3
   0   0  -6 3049.92  132.21   3
   0   0  -6 3060.66  128.63   5
   1  -1  -6  854.36   45.94   4
  -1   0  -6  881.76   42.98   5
   0   1  -6  851.38   42.53   2
  -1   1   6  840.77   47.25   1
   1  -1  -6  836.01   42.40   5
   1   0   6  832.88   42.64   2
   1  -1  -6  846.38   44.61   3
   0   1  -6  830.03   47.28   1
   0  -1   6  853.41   47.50   1
   0  -1   6  820.42   42.94   2
   1   0   6  825.32   46.18   4
  -1   0  -6  855.30   42.55   2
  -1   1   6  851.92   43.09   5
  -1   1   6  846.83   46.02   4
  -1   1   6  864.04   43.66   2
   1   0   6  833.58   44.45   3
   1   0   6  845.23   47.46   1
   0  -1   6  849.15   43.38   5
  -1   1   6  852.59   47.40   1
  -1   0  -6  882.02   47.80   1
   0   1  -6  855.89   46.20   4
   0  -1   6  836.74   44.66   3
   1  -1   6  855.90   46.67   4
   0  -1  -6  850.27   43.67   5
  -1   0   6  847.02   47.94   1
  -1   0   6  876.32   43.96   5
   1   0  -6  865.02   46.49   4
  -1   1  -6  903.41   48.41   1
   1   0  -6  852.65   44.62   3
  -1   0   6  848.28   45.26   3
  -1   1  -6  867.17   48.04   1
  -1   1  -6  866.75   46.08   4
   0   1   6  811.35   44.47   3
   0  -1  -6  885.89   48.25   1
   0  -1  -6  862.04   44.54   3
  -1   1  -6  879.73   43.18   5
   1   0  -6  873.97   47.92   1
   1  -1   6  827.02   45.45   3
   1  -1   6  845.46   43.26   5
  -1   0   6  867.23   43.63   2
   0   1   6  836.39   47.85   1
   0   1   6  859.34   43.58   2
   0   1   6  850.37   47.04   4
  -1   1  -6  834.98   43.17   2
   2  -1  -6 4861.98  222.03   4
   2  -1  -6 4698.79  242.38   1
  -1   2  -6 4561.08  221.96   4
  -1  -1  -6 4850.44  243.08   1
  -2   1   6 4297.42  207.00   2
  -2   1   6 4374.49  242.32   1
   1  -2   6 4307.53  242.44   1
  -1   2  -6 4626.77  242.42   1
   1   1   6 4105.87  241.75   1
  -1  -1  -6 4723.40  205.77   2
   1   1   6 4300.47  205.76   2
   1   1   6 4232.88  212.32   3
  -2   1   6 4230.11  207.09   5
  -3   2   6  448.51   24.72   5
   1  -3   6  441.66   30.43   1
  -3   2   6  396.56   30.13   1
   3  -2  -6  456.91   26.49   4
  -2  -1  -6  442.62   31.13   1
   2   1   6  461.72   25.29   3
  -2  -1  -6  436.54   24.15   2
  -2   0  -6 1587.02   93.16   1
  -2   2   6 1643.61   92.37   1
   0  -2   6 1668.25   82.53   3
  -2   0  -6 1671.69   78.94   2
   2  -2  -6 1668.17   79.15   5
   0   2  -6 1542.19   92.21   1
  -2   2   6 1785.79   85.55   4
   0  -2   6 1681.06   93.00   1
   2   0   6 1643.11   92.60   1
   0   2  -6 1593.28   78.98   2
   2   0   6 1639.64   81.93   3
  -2   2   6 1697.08   93.13   1
   1   1  -6 4652.06  215.31   3
  -2   1  -6 4994.58  246.33   1
   1  -2  -6 4698.57  210.15   5
   2  -1   6 4305.69  224.32   4
  -1  -1   6 4261.88  245.14   1
   1   1  -6 4668.83  245.33   1
   1  -2  -6 4771.48  216.51   3
  -1  -1   6 4328.65  208.54   2
   1  -2  -6 4951.00  246.08   1
  -2   1  -6 4766.12  209.59   5
   1   1  -6 4747.92  208.54   2
  -1   2   6 4367.34  225.11   4
   2  -1   6 4049.63  244.77   1
  -1   2   6 4207.69  244.78   1
  -1  -1   6 4196.22  215.43   3
   0  -2  -6 1632.74   93.85   1
  -2   0   6 1661.35   81.27   5
   2  -2   6 1820.62   80.50   5
   2  -2   6 1794.32   86.30   4
  -2   0   6 1628.40   93.53   1
   2   0  -6 1560.95   93.13   1
   0   2   6 1636.88   93.01   1
  -2   2  -6 1598.70   93.26   1
  -2   2  -6 1632.70   85.15   4
  -2   2  -6 1668.91   94.20   1
   2   0  -6 1642.45   82.94   3
  -2   0   6 1650.56   80.02   2
   0   2   6 1732.98   80.22   2
   0  -2  -6 1674.77   82.34   3
  -1  -2  -6  427.90   30.25   1
   1   2   6  425.08   23.93   2
   2  -3   6  449.17   30.53   1
   2  -3   6  438.08   25.17   5
  -3   1   6  424.59   30.12   1
  -3   1   6  425.36   24.69   5
  -1  -2  -6  436.08   24.48   3
  -2   3  -6  430.06   26.72   4
  -4   2   6  771.62   52.25   1
  -4   2   6  828.19   41.67   5
   2  -4   6  825.11   53.12   1
  -3  -2  -6  383.63   33.08   1
   2  -5   6  383.04   33.50   1
  -5   3   6  347.00   32.98   1
  -3  -1  -6  405.39   31.34   1
   3   1   6  414.85   23.53   3
  -4   3   6  436.10   32.87   1
   1  -4   6  412.48   32.39   1
  -3  -1  -6  376.24   22.45   2
  -3   3   6 2586.63  148.85   1
  -3   3   6 2547.84  132.91   4
   3   0   6 2636.49  129.00   3
   0  -3   6 2590.17  129.04   3
   3  -3  -6 2842.99  124.34   5
   0  -3   6 2461.88  148.16   1
  -3   0  -6 2857.06  149.80   1
  -1  -2   6  418.45   25.32   3
  -2   3   6  437.07   27.25   4
   2  -3  -6  429.94   30.43   1
   3  -1   6  422.46   27.18   4
  -3   1  -6  439.18   31.02   1
  -3   1  -6  420.54   24.37   5
   1   2  -6  427.63   24.03   2
  -1  -2   6  456.03   29.94   1
  -2  -1   6  422.76   23.84   2
   1  -3  -6  453.19   30.61   1
   3  -2   6  428.92   25.68   4
   2   1  -6  421.45   24.55   3
  -3   2  -6  438.64   23.72   5
  -2  -1   6  398.63   29.47   1
  -3   2  -6  428.89   30.86   1
  -3   0   6 2505.64  130.56   2
  -3   0   6 2537.09  155.79   1
   0  -3  -6 3003.83  135.27   3
  -3   3  -6 3040.24  158.09   1
  -3   3  -6 3007.55  139.96   4
   0  -3  -6 2894.80  156.84   1
   3  -3   6 2691.62  130.69   5
   0   3   6 2636.93  131.00   2
  -3   4  -6  392.58   32.87   1
   3  -4   6  411.75   23.97   5
  -1  -3  -6  418.07   23.33   3
  -4   1   6  433.22   25.10   5
  -3   4  -6  379.05   25.89   4
  -1  -3  -6  429.32   31.99   1
   1   3   6  425.66   23.26   2
  -4   1   6  376.52   31.89   1
   3  -5   6  388.92   24.88   5
  -5   2   6  377.43   33.34   1
   3  -5   6  377.88   33.17   1
  -5   2   6  373.72   23.13   5
  -2  -3  -6  415.04   35.18   1
  -6   3   6 1078.93   75.31   1
   3  -6   6 1023.13   74.80   1
  -3  -3  -6 1279.88   77.76   1
   3  -7   6  124.15   27.53   1
  -4  -3  -6   66.00   26.95   1
  -7   4   6   84.11   23.01   1
  -4  -2  -6  374.20   35.88   1
   2  -6   6  395.48   39.03   1
  -6   4   6  415.25   39.42   1
  -5   4   6 1198.25   80.48   1
   4   1   6 1297.18   62.97   3
   1  -5   6 1293.74   80.98   1
   4   0   6  752.59   42.40   3
  -4   4   6  758.11   51.84   1
  -4   4   6  767.82   42.15   4
   0  -4   6  761.18   52.93   1
  -4   0  -6  772.42   53.46   1
   0  -4   6  831.47   43.64   3
  -3   4   6  380.33   25.76   4
  -1  -3   6  413.01   24.83   3
  -4   1  -6  443.05   33.75   1
  -1  -3   6  412.05   32.69   1
  -3   4   6  413.54   32.51   1
   1   3  -6  428.62   23.83   2
   4  -1   6  415.47   27.71   4
  -4   2  -6 1223.24   59.54   5
  -4   2  -6 1176.67   74.32   1
   2  -4  -6 1252.82   74.73   1
   1  -4  -6  388.91   30.24   1
  -3  -1   6  391.26   22.13   2
  -3  -1   6  402.31   31.00   1
  -4   3  -6  369.14   32.09   1
  -4   0   6  712.41   51.72   1
   0  -4  -6  753.88   52.89   1
  -4   0   6  765.17   40.28   2
  -4   4  -6  739.20   51.77   1
   0   4   6  789.85   40.99   2
   4  -4   6  795.28   38.52   5
  -5   1   6 1301.96   70.31   2
   1   4   6 1391.94   66.90   2
  -4   5  -6 1640.20   91.00   1
  -5   1   6 1244.59   85.95   1
   4  -5   6 1326.88   67.61   5
  -1  -4  -6 1521.68   88.75   1
  -5   1   6 1350.15   70.57   5
  -6   2   6  405.26   38.32   1
  -4   6  -6  376.72   37.48   1
  -2  -4  -6  339.70   37.02   1
  -6   2   6  415.75   24.80   5
   4  -6   6  386.72   24.35   5
   4  -7   6  106.92   28.73   1
   4  -7   6   96.45   15.14   5
  -7   3   6   84.06   28.13   1
  -3  -4  -6   87.77   28.05   1
  -8   4   6  154.27   36.11   1
   4  -8   6   92.90   34.85   1
  -5  -3  -6  150.38   37.22   1
  -8   5   6   41.41   34.05   1
   3  -8   6  103.67   35.43   1
  -7   5   6  519.16   53.87   1
  -5  -2  -6  763.54   58.93   1
   2  -7   6  623.54   52.82   1
   1  -6   6  143.54   27.72   1
   1  -6   6  142.58   17.76   3
  -6   5   6  199.85   30.92   1
  -5  -1  -6  161.87   28.44   1
   0  -5   6  223.65   27.71   1
   0  -5   6  202.33   17.75   3
  -5   5   6  201.91   24.50   1
  -5   0  -6  172.34   26.98   1
   5   0   6  187.82   16.24   3
  -5   1  -6 1592.54   88.86   1
   5  -1   6 1324.69   74.65   4
  -1  -4   6 1403.37   68.94   3
  -4   5   6 1239.68   85.60   1
  -1  -4   6 1284.57   84.64   1
  -4   5   6 1358.47   71.53   4
   5  -2   6  361.02   24.47   4
  -2  -3   6  365.68   32.97   1
   3  -5  -6  373.57   32.89   1
  -3   5   6  363.73   25.10   4
  -5   2  -6  365.81   33.45   1
  -5   3  -6  383.24   35.64   1
   2  -5  -6  385.21   34.63   1
  -3  -2   6  388.31   34.58   1
   5  -3   6  405.54   23.23   4
  -4  -1   6 1379.02   70.35   2
  -5   4  -6 1578.70   94.04   1
   1  -5  -6 1609.72   93.26   1
  -4  -1   6 1324.03   90.32   1
   0  -5  -6  179.34   27.57   1
  -5   0   6  226.01   27.20   1
  -5   0   6  168.08   15.63   2
   0   5   6  201.93   16.03   2
  -5   5  -6  184.14   24.60   1
  -1  -5  -6  192.37   29.99   1
  -6   1   6  152.63   17.84   5
  -5   6  -6  133.53   28.04   1
  -6   1   6  123.29   26.37   1
  -6   1   6  171.31   16.67   2
  -7   2   6  534.67   36.03   2
  -7   2   6  508.98   49.67   1
  -5   8  -6  104.15   38.96   1
  -3  -5  -6  101.33   35.38   1
  -8   3   6  121.34   34.57   1
  -6  -1  -6   77.61   25.24   1
  -7   6   6  130.59   32.94   1
   1  -7   6  104.83   32.77   1
  -6   6   6  348.47   38.69   1
   0  -6   6  235.91   38.51   1
  -1  -5   6  145.04   23.80   1
   6  -1   6  181.65   21.09   4
  -6   1  -6  151.93   28.72   1
  -5   6   6  167.34   30.13   1
  -4   6   6  385.96   26.37   4
   6  -2   6  431.22   27.36   4
  -4   6   6  384.64   36.29   1
  -2  -4   6  403.21   39.48   1
  -6   2  -6  368.20   37.52   1
   3  -6  -6 1241.01   76.01   1
  -3   6   6 1016.49   62.55   4
   6  -3   6 1073.76   56.68   4
  -3  -3   6  975.95   73.31   1
  -6   3  -6 1206.59   76.43   1
  -6   4  -6  434.29   39.42   1
  -4  -2   6  444.67   40.39   1
   2  -6  -6  397.61   37.47   1
   1  -6  -6  161.61   29.12   1
  -6   5  -6  174.10   31.23   1
  -1   6   6  163.03   18.91   2
  -5  -1   6  148.93   25.19   1
  -6   6  -6  533.14   50.27   1
   0  -6  -6  509.77   46.18   1
  -1  -6  -6  163.07   35.92   1
  -7   1   6  145.11   21.01   5
  -6   7  -6  108.57   35.94   1
  -7   1   6  120.35   31.61   1
  -7   7   6  165.58   37.97   1
   0  -7   6  129.11   35.85   1
  -7   0  -6  187.37   40.68   1
   7  -1   6  157.68   24.91   4
  -6   7   6  108.92   34.05   1
  -1  -6   6   96.57   29.11   1
  -7   1  -6  123.63   35.40   1
  -5   7   6  488.17   50.32   1
  -2  -5   6  574.43   49.28   1
  -3  -4   6  103.44   24.23   1
  -7   3  -6  104.84   29.55   1
   4  -7  -6   91.06   28.52   1
  -7   4  -6   74.91   24.82   1
   3  -7  -6  104.83   26.62   1
  -3   7   6   53.25   18.78   4
  -4  -3   6   93.95   28.57   1
   2  -7  -6  789.08   64.52   1
  -7   5  -6  761.04   65.41   1
  -6  -1   6   92.40   30.61   1
   1  -7  -6  184.63   33.76   1
  -7   6  -6  114.59   36.53   1
   0  -7  -6  194.34   39.98   1
  -7   0   6  135.93   24.37   5
  -7   0   6  104.12   34.18   1
  -7   7  -6  183.20   41.61   1
  -5   8   6  135.13   36.10   1
  -8   3  -6   59.57   36.74   1
  -3  -5   6  100.60   30.07   1
   4  -8  -6  343.35   46.58   1
  -8   4  -6  366.18   49.49   1
  -3   8   6   86.70   25.03   4
   3  -8  -6   77.67   35.02   1
  -8   5  -6  109.30   38.42   1
  -5  -3   6   93.18   34.43   1
   0   0  -7   19.37    7.03   3
   0   0   7    9.64    7.85   3
   0   0   7    3.72    7.29   5
   0   0  -7   -3.22    5.08   4
   0   0  -7   10.32    6.39   2
   0   0  -7    6.20    6.53   5
   0   0   7   -1.43    6.23   2
   0   0   7   -6.48    5.81   4
   0  -1   7 1627.56   79.71   5
   0   1  -7 1511.38   88.83   1
   1  -1  -7 1379.04   78.05   5
   1   0   7 1686.96   89.12   1
   0  -1   7 1646.66   79.00   2
  -1   0  -7 1495.84   78.10   2
   1  -1  -7 1501.24   84.20   4
  -1   1   7 1677.44   79.45   5
   1   0   7 1676.07   85.26   4
  -1   1   7 1735.56   85.31   4
  -1   1   7 1768.16   88.98   1
  -1   0  -7 1608.13   89.31   1
  -1   1   7 1717.97   89.09   1
   0   1  -7 1477.87   78.27   2
  -1   1   7 1640.90   79.25   2
   1   0   7 1719.72   79.08   2
   1   0   7 1750.29   82.03   3
   0  -1   7 1691.42   89.08   1
   0  -1   7 1677.10   81.99   3
  -1   1  -7 1512.70   88.03   1
   1  -1   7 1674.98   81.49   3
  -1   0   7 1726.77   78.61   2
   1  -1   7 1692.33   78.73   5
  -1   0   7 1660.68   87.95   1
   0  -1  -7 1567.05   88.16   1
   0   1   7 1664.57   88.01   1
   0   1   7 1739.96   78.56   2
  -1   1  -7 1430.69   82.89   4
  -1   0   7 1701.44   81.35   3
   0  -1  -7 1474.71   80.07   3
  -1   1  -7 1439.55   77.35   5
   0   1   7 1655.14   81.06   3
   1  -1   7 1717.84   84.26   4
  -1   1  -7 1584.35   88.39   1
   1   0  -7 1466.67   87.76   1
   0   1   7 1662.75   84.79   4
  -1   0   7 1701.55   79.10   5
  -1   2  -7   -0.50    4.04   1
   1  -2   7   -1.97    9.43   3
   1  -2   7    1.04    7.12   5
   1   1   7   -1.44    5.13   2
  -2   1   7    9.42    5.34   1
  -2   1   7    4.48    6.89   5
  -1  -1  -7    2.81    5.44   1
  -2   1   7    7.69    8.58   2
   1  -2   7    1.35    4.97   1
   1   1   7  -12.01    6.92   3
  -2   1   7   13.95    5.53   1
  -1  -1  -7   -2.20    4.49   2
  -3   2   7  869.06   42.47   5
  -2  -1  -7  744.98   41.63   2
   2   1   7  875.51   43.68   3
  -3   2   7  878.37   50.95   1
  -2  -1  -7  700.27   49.97   1
   1  -3   7  837.60   50.76   1
  -2   0  -7 2077.60  109.06   1
  -2   2   7 1995.56  100.20   4
  -2   2   7 1936.11   93.41   5
   2   0   7 1916.14   96.20   3
   2   0   7 1960.49  101.31   4
  -2   2   7 1935.82  108.03   1
   0  -2   7 1956.97  108.24   1
   0   2  -7 1968.09  107.83   1
  -2   2   7 1828.08  107.23   1
   0  -2   7 1925.46   96.63   3
   2   0   7 1815.50  107.52   1
  -1   2   7    8.95    5.37   1
   2  -1   7   -3.14    7.77   4
  -1  -1   7    0.42    7.51   3
  -2   1  -7    3.69    5.04   1
   1   1  -7   -1.22    5.00   1
  -2   1  -7  -11.91    7.06   5
  -1   2   7   -0.56    6.09   2
  -1  -1   7    0.81    8.58   5
  -1   2   7   -6.96    6.05   4
   1  -2  -7    1.83    5.38   1
  -1  -1   7    6.61    5.26   1
   1   1  -7  -10.49    6.90   2
  -2   1  -7    4.75    5.37   1
  -1  -1   7   -9.55    7.23   2
  -2   2  -7 1991.20  100.31   4
   0   2   7 1912.12   93.70   2
   2  -2   7 1982.22   94.25   5
   0   2   7 1851.61  108.26   1
  -2   2  -7 2003.45  109.64   1
   0  -2  -7 2067.26  109.76   1
   2   0  -7 1917.32  108.80   1
  -2   0   7 1918.93   95.34   5
  -2   2  -7 1925.78  108.96   1
  -2   0   7 2016.68   94.23   2
  -2   0   7 1949.58  109.15   1
   2  -2   7 1958.20  100.98   4
  -1  -2  -7  749.26   51.64   1
   1   2   7  867.76   43.44   2
   2  -3   7  915.13   44.64   5
  -3   1   7  815.51   45.36   2
  -3   1   7  878.63   52.03   1
  -1  -2  -7  705.25   43.69   3
  -3   1   7  926.28   44.76   5
   2  -3   7  900.86   52.63   1
  -4   2   7  -10.99   11.89   1
  -4   2   7    5.13    7.51   5
   2  -4   7   -6.87    9.02   5
   2  -4   7    3.38   10.65   1
  -2  -2  -7   11.59   10.57   1
  -3  -2  -7  528.68   43.61   1
   2  -5   7  606.81   45.62   1
  -5   3   7  644.06   32.59   5
  -5   3   7  635.41   46.12   1
  -3  -1  -7  610.25   46.74   1
   1  -4   7  745.94   42.23   3
   3   1   7  728.23   38.65   3
   1  -4   7  742.98   48.43   1
  -4   3   7  747.41   48.55   1
   0  -3   7    8.82    9.91   1
   0  -3   7   23.98   10.02   3
  -3   0  -7    3.25    9.29   1
   3   0   7    8.50    7.62   3
   3  -1   7  873.81   47.36   4
  -2   3   7  866.88   47.41   4
   2  -3  -7  726.99   50.62   1
  -1  -2   7  914.98   45.35   3
  -1  -2   7  841.72   50.98   1
  -3   1  -7  743.67   50.94   1
   3  -2   7  898.48   45.67   4
  -1   3   7  867.33   47.78   4
  -3   2  -7  706.69   49.86   1
   1  -3  -7  686.73   49.50   1
  -3   2  -7  712.77   41.28   5
  -1   3   7  868.07   44.49   2
  -2  -1   7  949.01   51.11   1
  -2  -1   7  814.57   42.12   2
  -3   0   7   10.36    9.44   1
  -3   0   7   35.02   10.68   5
  -3   3  -7   18.36    8.65   4
   0   3   7   13.83    8.10   2
   3  -3   7    1.84    6.11   5
  -3   0   7    5.29    5.77   2
   0  -3  -7   30.63   11.11   1
   1   3   7  757.29   37.15   2
  -1  -3  -7  629.37   46.85   1
  -4   1   7  745.78   48.18   1
  -4   1   7  727.76   40.06   2
  -1  -3  -7  609.72   37.36   3
  -4   1   7  762.15   39.58   5
  -3   4  -7  643.44   47.59   1
   3  -4   7  729.48   37.75   5
  -5   2   7  604.03   43.51   1
  -2  -3  -7  534.99   44.22   1
  -5   2   7  625.57   33.35   5
   3  -5   7  550.23   33.68   5
   3  -5   7  597.29   43.49   1
  -3  -3  -7    4.45   16.47   1
  -6   3   7   20.52   20.48   1
   3  -6   7  -15.73   11.92   5
  -6   3   7    4.57    7.15   5
   3  -7   7  219.48   32.90   1
   3  -7   7  159.68   20.52   5
  -4  -3  -7  166.22   32.36   1
  -7   4   7  197.67   31.73   1
   2  -6   7  411.51   38.75   1
  -4  -2  -7  422.85   40.08   1
  -6   4   7  392.47   36.57   1
  -4  -1  -7   23.18   15.83   1
   1  -5   7   21.41   13.77   3
   1  -5   7   19.06   17.17   1
  -5   4   7   -3.87   17.19   1
  -4   4   7  819.51   54.59   1
   0  -4   7  867.84   55.97   1
   4   0   7  780.28   44.75   3
   0  -4   7  858.00   46.63   3
  -4   4   7  782.10   45.13   4
  -4   0  -7  835.48   56.62   1
   4  -1   7  754.71   45.38   4
  -3   4   7  747.99   43.44   4
  -1  -3   7  784.74   50.30   1
  -3   4   7  773.33   51.12   1
  -1  -3   7  753.10   41.84   3
   4  -2   7    9.59    8.09   4
   2  -4  -7   23.43    9.05   1
  -2   4   7   -3.19    9.55   4
  -4   2  -7   14.04   11.55   1
  -2  -2   7   -9.73   10.79   1
   1  -4  -7  586.38   44.96   1
  -1   4   7  732.24   38.91   2
  -3  -1   7  742.26   46.82   1
  -4   3  -7  597.09   46.27   1
  -3  -1   7  739.62   36.62   2
   0   4   7  845.67   44.15   2
  -4   0   7  791.53   43.91   2
  -4   4  -7  846.01   55.93   1
   0  -4  -7  811.33   56.02   1
   4  -4   7  830.92   42.18   5
  -4   0   7  818.30   55.65   1
  -5   1   7   14.44   16.89   1
  -5   1   7  -14.23   11.06   5
   4  -5   7   14.84    7.70   5
  -5   1   7    9.05    8.05   2
  -4   5  -7   13.12   17.87   1
  -6   2   7  438.17   26.62   5
   4  -6   7  414.41   26.47   5
  -2  -4  -7  376.03   39.82   1
  -6   2   7  453.90   38.80   1
  -4   6  -7  422.14   38.40   1
  -7   3   7  188.05   31.96   1
  -4   7  -7  184.21   35.27   1
   4  -7   7  154.33   18.85   5
  -3  -4  -7  133.35   29.34   1
  -7   5   7   -7.26   27.24   1
  -5  -2  -7   14.01   26.05   1
   2  -7   7   29.20   27.54   1
   2  -7   7    1.61   19.10   3
   1  -6   7  305.67   25.61   3
  -6   5   7  292.04   35.68   1
   1  -6   7  248.64   33.83   1
   0  -5   7  400.74   25.69   3
  -5   5   7  345.94   35.37   1
   0  -5   7  344.00   32.47   1
   5   0   7  303.55   23.65   3
  -4   5   7    4.42   16.62   1
  -4   5   7    2.28    7.68   4
  -1  -4   7    0.07    8.17   3
  -5   1  -7   18.75   17.85   1
  -1  -4   7  -11.40   15.19   1
  -3   5   7  598.23   36.00   4
  -5   2  -7  504.48   43.61   1
   3  -5  -7  492.40   42.56   1
   5  -2   7  655.79   35.87   4
  -2  -3   7  591.66   43.90   1
   5  -3   7  640.26   33.95   4
  -3  -2   7  631.36   45.40   1
  -5   3  -7  545.23   45.26   1
   2  -5  -7  522.40   42.73   1
  -5   4  -7    4.49   17.43   1
  -4  -1   7    5.27    6.95   2
  -4  -1   7   13.33   16.12   1
   1  -5  -7  -10.88   15.79   1
  -1   5   7  -14.59   11.86   2
  -5   0   7  332.70   22.03   2
   0  -5  -7  281.58   32.70   1
  -5   5  -7  287.81   34.03   1
   0   5   7  338.17   22.50   2
  -5   0   7  311.99   31.12   1
  -1  -5  -7  245.97   34.37   1
  -5   6  -7  197.77   32.02   1
  -6   1   7  268.13   22.91   5
  -6   1   7  261.70   21.89   2
  -6   1   7  300.59   35.02   1
  -7   2   7   42.62   28.25   1
  -5   7  -7   17.77   28.87   1
  -7   2   7   30.08   16.52   2
  -2  -5  -7   32.34   25.99   1
  -7   6   7  211.75   32.40   1
   1  -7   7  298.87   38.31   1
  -6   6   7   28.79   24.26   1
  -6   0  -7  -22.51   26.98   1
   0  -6   7   -5.06   22.62   1
  -5   6   7  337.33   36.72   1
  -1  -5   7  252.86   34.35   1
   6  -1   7  282.27   27.59   4
   6  -1   7  293.01   26.31   3
  -4   6   7  426.91   29.40   4
  -4   6   7  470.58   41.31   1
  -6   2  -7  396.10   40.56   1
   6  -2   7  480.16   30.50   4
  -2  -4   7  396.41   38.88   1
  -6   3  -7   24.64   15.32   1
  -3   6   7   12.28   14.44   4
   3  -6  -7   12.07   13.84   1
  -3  -3   7    0.42   19.13   1
   6  -3   7   -6.85    7.98   4
   2  -6  -7  358.04   37.13   1
  -6   4  -7  367.22   38.35   1
  -4  -2   7  404.98   38.86   1
  -5  -1   7  282.87   34.52   1
  -1   6   7  287.20   24.22   2
  -6   5  -7  181.84   32.01   1
   1  -6  -7  215.31   30.98   1
   0  -6  -7   -5.34   25.33   1
  -6   6  -7   -5.86   24.26   1
  -6   0   7   12.76   18.20   5
  -6   0   7   29.38   24.93   1
  -1  -6  -7  181.50   34.54   1
  -6   7  -7  222.53   38.93   1
  -7   1  -7  161.00   34.95   1
  -1  -6   7  216.60   38.06   1
  -6   7   7  199.79   36.99   1
  -5   7   7   38.99   28.96   1
  -2  -5   7   -9.42   26.81   1
  -7   2  -7   34.50   28.03   1
  -4   7   7  234.67   36.05   1
  -3  -4   7  229.91   35.80   1
  -4  -3   7  214.99   29.03   1
  -7   4  -7  225.98   36.20   1
  -3   7   7  221.29   26.38   4
  -2   7   7   10.70   17.21   2
   2  -7  -7    8.48   26.57   1
  -7   5  -7   44.41   32.33   1
  -5  -2   7   39.38   28.18   1
   1  -7  -7  117.25   32.91   1
  -7   6  -7  188.64   34.66   1
  -6  -1   7  216.25   35.82   1
   0   0   8 1033.50   53.98   5
   0   0   8 1069.35   57.67   4
   0   0   8 1020.75   55.19   3
   0   0   8 1074.01   53.74   2
   1   0   8 1762.96  100.30   1
   1   0   8 1861.31   96.92   4
   1   0   8 1791.21   92.48   3
   0  -1   8 1903.56  100.42   1
  -1   1   8 1839.98   89.82   2
   0  -1   8 1849.62   89.59   2
   0   1  -8 1878.45  100.31   1
   0  -1   8 1834.21   90.42   5
   0  -1   8 1784.63   92.44   3
  -1   1   8 1836.58  100.20   1
  -1   1   8 1881.39   90.03   5
  -1   0  -8 1982.75  100.75   1
   1   0   8 1860.49   89.50   2
  -1   1   8 1832.35  100.06   1
  -1   1   8 1838.85   96.40   4
   0   1   8 1781.64  101.07   1
  -1   0   8 1842.65   90.36   2
  -1   0   8 1846.44   93.66   3
   1  -1   8 1886.09   90.87   5
   0   1   8 1736.25   93.10   3
   1  -1   8 1921.18   97.61   4
   1   0  -8 1893.39  101.11   1
  -1   1  -8 1934.82  101.45   1
  -1   0   8 1873.01   97.71   4
   1  -1   8 1834.55   94.00   3
   0  -1  -8 1981.93  101.51   1
  -1   1  -8 2036.06  101.78   1
  -1   0   8 1816.39  101.00   1
  -1   0   8 1809.54   90.97   5
   0   1   8 1842.68   97.48   4
   0   1   8 1819.98   90.39   2
   1   1   8 1633.90   88.47   4
   1  -2   8 1597.17   83.94   3
  -2   1   8 1634.27   91.18   1
   1  -2   8 1640.79   91.86   1
  -2   1   8 1673.39   81.62   2
  -2   1   8 1629.53   91.63   1
  -1   2  -8 1738.96   91.92   1
  -1  -1  -8 1771.93   92.30   1
  -2   1   8 1644.03   86.93   4
  -2   1   8 1642.92   80.97   5
   1   1   8 1595.99   82.88   3
   1   1   8 1658.22   80.46   2
   1   1   8 1567.28   91.29   1
   1  -2   8 1638.43   81.38   5
  -3   2   8 1308.74   66.86   5
   1  -3   8 1310.82   68.92   5
   2   1   8 1298.42   68.28   3
   1  -3   8 1388.76   78.65   1
  -2  -1  -8 1421.00   79.22   1
  -3   2   8 1332.62   77.96   1
   1  -3   8 1326.78   71.23   3
  -2   2   8 2885.33  158.18   1
   2   0   8 2926.44  147.72   4
   2   0   8 2812.54  157.87   1
  -2   2   8 2844.78  157.61   1
   0   2  -8 2645.34  157.61   1
  -2   0  -8 2893.08  158.78   1
   0  -2   8 2852.94  158.06   1
   2   0   8 2983.21  141.26   3
   0  -2   8 2932.92  138.57   5
  -2   2   8 2875.78  136.92   5
   0  -2   8 2985.26  141.77   3
  -2   2   8 2894.43  137.81   2
  -2   2   8 2933.71  146.68   4
  -1  -1   8 1628.47   93.41   1
  -1   2   8 1653.66   83.26   2
   1  -2  -8 1786.05   94.01   1
  -1   2   8 1616.30   88.66   4
  -1   2   8 1588.71   93.02   1
  -2   1  -8 1793.65   94.41   1
  -2   1  -8 1726.72   93.70   1
  -1  -1   8 1612.63   84.71   3
   2  -1   8 1645.52   85.73   3
   1   1  -8 1775.18   93.64   1
  -1  -1   8 1689.89   82.06   2
   2  -1   8 1689.12   88.64   4
  -1  -1   8 1674.25   83.90   5
   0  -2  -8 2891.52  158.36   1
   2   0  -8 2650.30  157.41   1
   0   2   8 2822.36  157.52   1
  -2   2  -8 2840.90  158.60   1
   0   2   8 2993.01  148.77   4
  -2   0   8 2797.48  137.34   5
   2  -2   8 2913.83  146.49   4
  -2   0   8 2959.44  136.63   2
  -2   0   8 3028.47  158.18   1
   2  -2   8 2990.89  136.95   5
   0   2   8 2985.97  136.54   2
  -2   2  -8 2672.65  157.60   1
   1   2   8 1306.35   66.40   2
  -3   1   8 1319.59   67.82   5
  -3   1   8 1297.17   77.84   1
  -1  -2  -8 1339.74   78.50   1
   2  -3   8 1437.12   67.96   5
  -2   3  -8 1381.58   79.02   1
  -3   1   8 1315.40   68.77   2
  -4   2   8  809.44   41.92   5
  -2  -2  -8  849.76   51.79   1
  -4   2   8  741.18   50.22   1
   2  -4   8  723.37   43.05   5
   2  -4   8  727.29   49.77   1
   2  -5   8  774.55   45.10   5
  -5   3   8  792.65   40.83   5
  -5   3   8  742.69   53.73   1
   2  -5   8  723.77   53.40   1
  -3  -2  -8  812.66   54.11   1
   3   1   8  982.76   53.43   3
   1  -4   8 1005.81   56.63   3
  -3  -1  -8 1050.24   65.20   1
  -4   3   8 1025.66   64.47   1
   1  -4   8 1050.26   64.23   1
  -3   3   8 1223.77   74.06   1
  -3   3   8 1184.73   66.46   4
   3   0   8 1178.01   69.47   4
   3   0   8 1264.90   65.20   3
   0  -3   8 1230.86   73.87   1
   0  -3   8 1278.65   65.76   3
  -3   0  -8 1322.62   75.10   1
   3  -1   8 1369.61   70.95   3
  -2   3   8 1276.58   72.19   4
  -3   1  -8 1294.81   78.18   1
   2  -3  -8 1351.41   78.16   1
   3  -1   8 1377.76   72.62   4
  -1  -2   8 1308.37   77.53   1
  -1  -2   8 1349.96   69.19   3
  -2  -1   8 1383.44   79.75   1
  -2  -1   8 1364.94   68.18   2
   1  -3  -8 1358.10   80.11   1
   3  -2   8 1339.70   73.05   4
  -1   3   8 1400.77   70.11   2
  -3   2  -8 1331.37   80.38   1
  -1   3   8 1424.05   76.32   4
   0   3   8 1262.50   63.84   2
  -3   0   8 1259.94   65.86   5
   0  -3  -8 1324.90   75.67   1
  -3   0   8 1196.20   74.51   1
  -3   0   8 1235.49   63.97   2
   3  -3   8 1186.34   62.79   5
  -3   3  -8 1344.16   76.31   1
   1   3   8 1033.63   52.31   2
  -4   1   8 1015.68   54.58   5
  -4   1   8 1027.34   55.47   2
  -4   1   8  971.38   64.01   1
  -3   4  -8 1087.01   65.73   1
   3  -4   8 1048.17   53.70   5
  -1  -3  -8 1018.89   64.96   1
  -5   2   8  783.00   53.94   1
   3  -5   8  758.81   53.91   1
   3  -5   8  737.17   42.65   5
  -5   2   8  760.24   42.01   5
  -2  -3  -8  804.20   54.59   1
   3  -6   8  496.65   33.90   5
  -6   3   8  466.78   44.16   1
  -6   3   8  519.87   29.28   5
   3  -6   8  543.77   45.29   1
  -3  -3  -8  570.37   45.99   1
  -7   4   8  384.96   43.65   1
   3  -7   8  405.14   43.32   1
   3  -7   8  401.16   30.65   5
  -4  -3  -8  390.02   42.72   1
  -6   4   8  808.75   58.40   1
   2  -6   8  915.36   53.95   3
  -4  -2  -8  733.46   60.14   1
   2  -6   8  801.38   58.20   1
   1  -5   8  604.04   47.51   1
  -4  -1  -8  647.24   48.41   1
   1  -5   8  705.17   41.47   3
  -5   4   8  630.13   48.54   1
   4   1   8  641.14   35.90   3
   4   0   8 1420.32   80.17   4
  -4   4   8 1356.70   87.48   1
   0  -4   8 1457.01   87.75   1
  -4   0  -8 1431.82   88.47   1
  -4   4   8 1416.87   75.94   4
   4   0   8 1456.99   74.46   3
   0  -4   8 1494.60   75.74   3
  -1  -3   8 1037.84   64.47   1
  -3   4   8 1033.10   57.87   4
  -3   4   8  986.02   64.86   1
  -1  -3   8 1037.61   55.49   3
  -4   1  -8 1054.63   65.90   1
   4  -1   8 1044.72   59.22   4
   4  -2   8  756.68   45.25   4
  -2  -2   8  714.46   50.17   1
   2  -4  -8  830.77   51.93   1
  -2   4   8  792.92   47.48   4
  -4   2  -8  824.15   52.50   1
   1  -4  -8 1075.22   65.57   1
  -1   4   8  996.09   55.16   2
  -3  -1   8 1016.36   52.87   2
  -3  -1   8 1030.22   64.63   1
  -4   3  -8 1038.47   65.92   1
   4  -4   8 1457.02   70.30   5
   0   4   8 1443.24   71.95   2
  -4   0   8 1452.26   74.66   5
  -4   0   8 1390.63   71.83   2
  -4   4  -8 1330.87   87.92   1
   0  -4  -8 1383.36   87.46   1
  -4   0   8 1515.43   87.95   1
  -5   1   8  645.71   40.08   2
   4  -5   8  657.97   38.03   5
  -5   1   8  661.08   40.43   5
   1   4   8  738.97   37.92   2
  -5   1   8  651.53   49.84   1
  -1  -4  -8  774.68   52.23   1
  -4   5  -8  763.29   53.18   1
  -6   2   8  834.40   59.12   1
  -6   2   8  819.89   49.59   2
  -4   6  -8  811.48   61.64   1
   4  -6   8  888.61   45.78   5
  -6   2   8  804.19   45.16   5
  -2  -4  -8  791.30   61.15   1
  -7   3   8  417.17   44.52   1
  -7   3   8  484.94   36.85   2
  -4   7  -8  334.89   43.43   1
  -3  -4  -8  380.93   40.11   1
   2  -7   8  348.97   42.70   1
   2  -7   8  342.88   32.64   3
  -7   5   8  396.77   43.47   1
  -5  -2  -8  372.87   39.20   1
  -6   5   8  546.42   46.91   1
  -5  -1  -8  521.18   43.87   1
   1  -6   8  469.02   44.81   1
   1  -6   8  465.00   35.05   3
   0  -5   8  657.11   38.64   3
  -5   5   8  624.66   49.72   1
   5   0   8  613.32   37.84   3
   0  -5   8  653.46   48.21   1
  -5   0  -8  599.90   49.87   1
   5  -1   8  664.57   42.37   3
   5  -1   8  723.16   44.34   4
  -1  -4   8  628.96   47.86   1
  -1  -4   8  695.24   39.20   3
  -4   5   8  635.70   50.08   1
  -5   1  -8  765.45   52.23   1
  -4   5   8  665.47   40.36   4
  -3   5   8  722.81   46.80   4
  -2  -3   8  749.13   54.31   1
  -5   2  -8  798.87   55.38   1
   5  -2   8  852.07   46.61   4
   3  -5  -8  797.26   54.92   1
  -5   3  -8  802.85   56.07   1
   5  -3   8  842.94   44.82   4
  -2   5   8  760.69   49.92   4
  -3  -2   8  782.12   54.87   1
   2  -5  -8  767.55   54.45   1
  -5   4  -8  703.39   51.80   1
   1  -5  -8  717.38   50.60   1
  -4  -1   8  683.50   37.25   2
  -4  -1   8  655.56   49.24   1
  -1   5   8  652.93   40.87   2
   0  -5  -8  656.39   49.63   1
   0   5   8  653.99   36.65   2
  -5   5  -8  539.86   49.22   1
  -5   0   8  629.05   40.08   5
  -5   0   8  616.78   36.06   2
  -5   0   8  604.77   47.37   1
  -1  -5  -8  489.41   43.65   1
  -6   1   8  485.29   33.08   2
  -5   6  -8  497.08   47.51   1
  -6   1   8  503.21   45.77   1
  -6   1   8  476.04   33.24   5
  -7   2   8  437.45   44.35   1
  -7   2   8  341.80   30.84   2
  -2  -5  -8  341.63   40.37   1
  -5   7  -8  374.34   45.38   1
  -7   6   8  343.17   42.90   1
  -6  -1  -8  270.94   42.14   1
   1  -7   8  343.67   38.83   1
  -6   0  -8  259.63   37.68   1
   0  -6   8  326.17   34.20   1
  -6   6   8  310.37   39.17   1
   6   0   8  262.50   31.28   4
   6  -1   8  513.22   35.57   3
   6  -1   8  528.31   37.85   4
  -5   6   8  518.54   45.99   1
  -1  -5   8  469.40   45.43   1
  -6   1  -8  478.59   44.53   1
   6  -2   8  882.13   49.77   4
  -2  -4   8  830.61   59.16   1
  -6   2  -8  671.56   59.90   1
  -4   6   8  864.59   49.05   4
  -4   6   8  872.24   62.60   1
  -3  -3   8  550.89   45.94   1
   6  -3   8  569.25   32.92   4
   3  -6  -8  565.67   44.39   1
  -6   3  -8  568.54   45.27   1
  -3   6   8  453.11   36.89   4
  -4  -2   8  887.03   61.52   1
  -2   6   8  903.00   50.85   2
   2  -6  -8  741.73   59.78   1
  -6   4  -8  722.79   60.79   1
  -2   6   8  831.93   53.65   4
  -5  -1   8  457.70   44.08   1
  -6   5  -8  466.33   46.74   1
  -1   6   8  537.26   34.32   2
   1  -6  -8  470.04   42.07   1
  -6   0   8  354.83   31.36   5
  -6   0   8  308.10   34.74   1
   0  -6  -8  373.16   41.09   1
  -6   6  -8  302.03   41.24   1
  -7   1   8  295.14   42.58   1
  -1  -6  -8  389.35   41.74   1
  -6   7  -8  288.20   43.09   1
  -6   7   8  390.16   43.55   1
  -1  -6   8  392.66   45.83   1
  -7   1  -8  334.99   42.26   1
  -2  -5   8  347.24   41.84   1
  -5   7   8  325.56   39.48   1
  -7   2  -8  336.92   37.68   1
  -3  -4   8  468.84   46.79   1
  -7   3  -8  380.26   41.17   1
  -4   7   8  455.79   44.74   1
  -4  -3   8  380.65   40.19   1
   3  -7  -8  340.16   41.14   1
  -7   4  -8  401.90   44.98   1
  -3   7   8  366.67   32.11   4
  -2   7   8  335.59   31.26   2
  -7   5  -8  384.91   44.20   1
  -2   7   8  329.76   32.29   4
  -5  -2   8  342.54   41.24   1
   2  -7  -8  353.06   39.66   1
  -7   6  -8  317.18   45.65   1
  -6  -1   8  351.39   39.15   1
   1  -7  -8  350.55   44.74   1
  -6  -1   8  362.96   33.22   5
   0   0   9    5.37    7.31   3
   0   0   9   -2.26    6.63   5
   0   0   9    0.82    6.48   2
   0   0   9   14.45   10.92   4
  -1   1   9  483.77   29.35   2
   0  -1   9  445.82   29.69   3
   1   0   9  454.39   31.54   4
   1   0   9  473.59   29.66   3
  -1   1   9  466.20   31.03   4
  -1   1   9  456.21   28.81   5
   0  -1   9  503.14   28.91   5
   0  -1   9  465.91   28.81   2
   1   0   9  479.84   28.16   2
  -1   0   9  443.62   30.50   4
  -1   0   9  480.55   28.84   2
   1  -1   9  489.09   30.74   4
   0   1   9  467.86   28.03   2
  -1   0   9  456.76   28.25   5
   0   1   9  462.21   28.92   3
   1  -1   9  497.38   30.80   3
  -1   0   9  461.57   29.91   3
   1  -1   9  455.06   28.15   5
   0   1   9  460.55   30.99   4
   1   1   9   10.15    7.07   3
  -2   1   9   -3.11    9.71   5
   1  -2   9    0.20    9.85   5
   1  -2   9    6.46    5.14   1
   1   1   9    2.33    5.42   1
   1   1   9   -0.50    6.11   2
  -2   1   9   -8.46    8.19   4
   1   1   9    3.80   11.07   4
  -2   1   9   -6.48    5.39   1
  -1  -1  -9   -3.06    4.49   1
  -2   1   9   -6.14    5.24   1
  -2   1   9    3.20    7.18   2
   1  -2   9    2.80    8.14   3
  -1   2  -9    1.30    4.93   1
   1  -3   9  348.60   25.33   1
  -3   2   9  357.88   25.09   1
   2   1   9  306.14   21.82   3
  -3   2   9  345.65   25.95   2
   2   1   9  314.99   27.27   4
  -3   2   9  326.93   22.02   5
   1  -3   9  338.88   25.03   5
   1  -3   9  361.18   26.06   3
  -2   2   9  590.27   35.53   1
   2   0   9  573.91   34.63   3
   2   0   9  562.08   35.35   1
   0  -2   9  573.91   35.45   1
   0  -2   9  570.37   35.40   3
  -2   2   9  573.28   36.13   4
   2   0   9  561.82   37.34   4
  -2   2   9  609.51   34.23   5
  -2   2   9  558.06   35.10   2
  -2   2   9  588.87   35.18   1
   0  -2   9  576.67   34.71   5
  -2   1  -9    9.13    5.81   1
  -2   1  -9   -0.49    4.35   1
  -1  -1   9   -0.93    7.62   5
   1   1  -9    6.26    5.01   1
   2  -1   9   -1.87    6.92   5
   1  -2  -9   -5.01    4.82   1
   2  -1   9   -1.40   10.01   3
  -1   2   9  -11.29   10.11   2
  -1  -1   9   -0.17   10.16   3
   2  -1   9    1.70   10.04   4
  -1   2   9    0.41    5.06   1
  -1  -1   9    2.44    4.99   1
  -1   2   9   -2.83   10.37   4
  -2   0   9  535.71   34.99   5
  -2   0   9  603.34   34.50   2
   0   2   9  562.08   35.72   1
   2  -2   9  588.08   37.48   3
   2  -2   9  621.93   34.79   5
   0   2   9  557.15   34.14   2
  -2   0   9  585.97   35.90   1
   0   2   9  639.91   38.84   4
   2  -2   9  623.23   37.45   4
   1   2   9  368.51   24.28   2
  -1  -2  -9  433.13   27.81   1
  -3   1   9  348.05   26.52   1
   1   2   9  332.42   28.16   4
  -3   1   9  388.54   25.52   5
  -3   1   9  348.44   25.92   2
   2  -3   9  320.07   24.33   5
  -2   3  -9  429.67   27.98   1
   2  -4   9    1.94   11.98   1
  -2  -2  -9   16.09   11.32   1
  -4   2   9    6.37   12.84   2
   2  -4   9    3.58   10.49   5
  -4   2   9    7.67   11.06   1
  -4   2   9   -9.64    9.41   5
   2  -5   9  168.21   20.65   1
  -5   3   9  138.49   22.03   1
   2  -5   9  171.60   23.73   3
  -3  -2  -9  196.60   22.95   1
   2  -5   9  143.32   18.02   5
  -5   3   9  154.28   15.04   5
  -3  -1  -9  290.78   24.77   1
   1  -4   9  246.07   23.72   1
   1  -4   9  248.54   20.96   5
   1  -4   9  239.37   20.61   3
  -4   3   9  187.02   22.24   1
   3   1   9  226.53   18.26   3
   0  -3   9   24.08   12.06   3
  -3   3   9   13.35    9.08   1
  -3   0  -9    7.97    9.84   1
   0  -3   9   11.73   10.24   5
  -3   3   9   27.18   10.44   4
   3   0   9   15.91    9.43   3
   3   0   9    1.12   12.47   4
  -2   3   9  361.96   25.88   1
  -1  -2   9  364.21   24.31   3
   3  -1   9  301.42   25.07   3
  -2   3   9  303.94   24.51   4
  -2   3   9  365.36   26.49   2
   3  -1   9  353.58   26.14   4
  -3   1  -9  412.59   26.82   1
  -1  -2   9  331.26   26.58   5
  -1  -2   9  337.02   25.06   1
  -2  -1   9  361.24   26.67   5
   1  -3  -9  422.65   27.85   1
  -2  -1   9  358.68   26.66   1
  -1   3   9  348.88   26.19   2
   3  -2   9  356.51   25.76   4
  -1   3   9  323.85   27.98   4
  -2  -1   9  392.74   24.18   2
  -3   2  -9  434.32   28.52   1
  -3   3  -9  -13.90    9.52   1
   0   3   9   -1.06   10.60   4
  -3   0   9   12.37   11.68   5
  -3   0   9    5.55    9.70   1
   0   3   9   19.19   10.50   2
   0  -3  -9   -4.21    9.43   1
   3  -3   9   17.63    8.21   5
  -4   1   9  258.39   19.92   5
   3  -4   9  215.37   17.93   5
   1   3   9  222.28   17.40   2
  -1  -3  -9  270.26   23.23   1
  -4   1   9  252.45   21.01   2
  -4   1   9  207.16   22.22   1
  -5   2   9  181.46   15.82   5
  -3   5  -9  201.01   25.29   1
  -5   2   9  167.08   18.96   2
   3  -5   9  139.76   16.88   5
  -2  -3  -9  229.30   24.66   1
  -5   2   9  159.71   23.56   1
  -6   3   9  -12.02    9.60   5
  -3  -3  -9    6.23   19.56   1
   3  -6   9   10.33   21.90   1
   3  -6   9   17.73   11.32   5
  -6   3   9   30.87   22.81   1
   3  -7   9   97.34   19.86   5
  -7   4   9  107.29   30.60   1
   3  -7   9  137.53   30.69   1
  -4  -3  -9  151.06   30.50   1
   3  -7   9  151.00   30.24   3
   2  -6   9  133.17   22.53   3
  -6   4   9  164.87   23.23   1
   2  -6   9  120.94   21.07   5
   2  -6   9  149.27   26.64   1
  -5   4   9   12.87   18.17   1
   1  -5   9   -1.18   12.08   1
  -4  -1  -9   25.51   16.69   1
   1  -5   9   22.84   15.61   3
   4   1   9   10.46    8.14   3
  -4   4   9  258.47   20.56   4
   0  -4   9  222.94   21.84   3
  -4   4   9  267.32   26.43   1
   4   0   9  251.84   20.86   3
   0  -4   9  244.10   23.49   1
   4   0   9  255.35   23.59   4
  -1  -3   9  230.98   19.99   3
   4  -1   9  231.89   21.96   4
   4  -1   9  237.37   21.66   3
  -1  -3   9  260.34   22.99   1
  -3   4   9  223.38   23.09   1
  -4   1  -9  239.37   22.49   1
  -3   4   9  236.16   20.45   4
  -2   4   9   -4.73   13.18   2
   4  -2   9   -9.48   11.15   4
  -4   2  -9    0.00    9.95   1
  -2  -2   9  -15.45   11.60   1
   2  -4  -9    6.83    9.59   1
  -2   4   9   17.46   12.57   4
  -1   4   9  291.75   22.92   2
   1  -4  -9  282.09   24.68   1
  -3  -1   9  245.56   23.65   5
  -4   3  -9  286.07   24.91   1
  -3  -1   9  224.94   23.74   1
  -3  -1   9  241.54   18.63   2
  -1   4   9  262.92   26.37   4
   0   4   9  268.17   21.27   2
   4  -4   9  225.25   17.77   5
  -4   0   9  254.32   23.95   5
  -4   0   9  257.20   24.07   1
  -4   0   9  269.02   20.01   2
  -5   1   9    1.96   11.41   2
  -5   1   9   10.16   16.23   1
  -1  -4  -9   -9.28   15.59   1
   1   4   9   -1.43    9.70   2
  -4   5  -9   10.26   15.49   1
  -5   1   9    4.47   10.66   5
   4  -5   9   -9.37   10.04   5
   4  -6   9  106.85   15.30   5
  -6   2   9  134.24   17.01   5
  -6   2   9  164.94   23.24   1
  -6   2   9  157.31   21.93   2
  -3  -4  -9   84.63   28.89   1
  -4   7  -9  157.16   33.29   1
  -7   3   9   95.52   30.15   1
  -7   3   9   82.21   20.89   2
  -5  -2  -9    0.50   23.51   1
   2  -7   9   19.97   19.77   5
  -7   5   9   10.67   30.38   1
   2  -7   9   -3.46   27.42   1
   1  -6   9  110.92   21.11   3
   1  -6   9  125.60   26.61   1
  -5  -1  -9  170.19   24.65   1
  -6   5   9   95.53   27.39   1
   5   0   9  148.25   22.91   4
   5   0   9  113.25   16.97   3
  -5   5   9  159.97   25.27   1
   0  -5   9  138.30   18.86   3
   0  -5   9  134.34   25.29   1
  -5   0  -9  207.31   27.69   1
  -4   5   9   -9.99   10.65   4
   5  -1   9  -16.75   14.85   4
  -5   1  -9    9.58   15.44   1
  -4   5   9   29.89   19.03   1
   5  -1   9   14.34   13.55   3
  -1  -4   9   26.79   12.23   3
  -1  -4   9   20.29   17.05   1
  -2  -3   9  201.63   24.90   1
  -5   2  -9  184.10   21.31   1
   3  -5  -9  189.20   20.68   1
  -3   5   9  136.79   18.37   4
  -3   5   9  149.63   20.21   1
   5  -2   9  143.69   17.76   4
  -2   5   9  141.62   20.60   2
   2  -5  -9  166.05   22.28   1
  -5   3  -9  184.58   23.99   1
   5  -3   9  181.45   16.47   4
  -2   5   9  135.37   20.07   4
  -3  -2   9  150.73   21.38   1
  -4  -1   9    3.37    9.35   2
   1  -5  -9   -9.56   16.29   1
  -5   4  -9   18.09   17.80   1
  -4  -1   9    3.93   14.59   1
  -1   5   9    9.14   13.99   2
   0   5   9  136.31   16.86   2
   0  -5  -9  148.89   25.49   1
  -5   5  -9  211.19   27.42   1
  -5   0   9  151.52   21.79   5
  -5   0   9  139.79   25.52   1
  -5   0   9  147.36   15.56   2
  -5   6  -9  148.24   29.89   1
  -1  -5  -9  146.44   24.46   1
  -6   1   9   69.65   17.78   5
  -6   1   9  108.36   27.33   1
  -6   1   9  111.30   19.09   2
  -7   2   9   17.59   18.29   2
  -2  -5  -9   27.40   27.63   1
  -5   7  -9    0.27   28.88   1
  -7   2   9   25.64   29.01   1
   1  -7   9   61.26   28.85   1
   6   1   9   65.60   29.81   4
  -6  -1  -9   98.77   34.00   1
  -7   6   9   34.09   32.02   1
  -6   0  -9   39.60   26.98   1
   0  -6   9   -0.05   18.10   1
   6   0   9   -2.17   22.04   4
  -1  -5   9  106.43   27.20   1
   6  -1   9  116.99   20.45   3
  -5   6   9  143.26   28.97   1
   6  -1   9  189.37   23.69   4
  -6   1  -9  138.69   25.98   1
  -4   6   9  185.28   28.59   1
   6  -2   9  127.01   18.75   4
  -4   6   9  121.37   17.42   4
  -2  -4   9  178.88   27.18   1
   3  -6  -9  -13.14   14.35   1
   6  -3   9   -7.87   10.81   4
  -3  -3   9   34.95   21.54   1
  -6   3  -9   -1.98   15.00   1
  -3   6   9    1.02   14.60   4
  -2   6   9  140.39   21.44   4
  -2   6   9  148.85   22.34   2
   2  -6  -9  204.11   29.00   1
  -4  -2   9  175.79   27.78   1
  -6   4  -9  203.26   30.84   1
  -5  -1   9  173.44   30.26   1
  -1   6   9  112.61   18.90   2
   1  -6  -9  122.50   22.33   1
  -5  -1   9   79.18   23.05   5
  -6   0   9  -27.72   19.15   1
   0  -6  -9   10.29   26.08   1
  -6   0   9    4.08   19.10   5
  -7   1   9   66.30   32.58   1
  -1  -6  -9  128.22   33.48   1
  -6   7  -9  100.98   29.40   1
  -6   7   9   86.22   26.50   1
  -1  -6   9   80.16   33.28   1
  -7   1  -9   88.46   33.41   1
  -5   7   9  -18.00   21.73   1
  -7   2  -9   -6.45   24.76   1
   7  -2   9    0.77   18.79   3
  -2  -5   9   64.85   30.49   1
  -3  -4   9   56.54   27.26   1
  -4   7   9   53.40   22.25   1
   3  -7  -9  155.68   32.52   1
  -3   7   9   99.51   26.76   2
  -4  -3   9   92.25   27.16   1
  -3   7   9  110.03   22.84   4
  -7   4  -9  147.64   34.33   1
  -2   7   9   19.34   21.45   2
  -5  -2   9    9.76   28.26   1
  -2   7   9   -4.57   24.33   4
  -7   5  -9   13.25   27.15   1
   2  -7  -9   12.63   21.20   1
  -6  -1   9   42.47   23.92   5
  -6  -1   9   30.18   22.14   1
  -7   6  -9   75.48   36.88   1
   1  -7  -9   77.84   33.19   1
   0   0  10 3802.55  180.28   2
   0   0  10 3841.67  186.71   3
   0   0  10 3812.67  194.09   4
   0   0  10 3854.83  181.22   5
   0  -1  10 1527.67   74.58   2
   0  -1  10 1453.60   74.91   5
   1   0  10 1436.59   76.42   3
   1   0  10 1513.68   74.40   2
   1   0  10 1491.20   80.40   4
  -1   1  10 1455.45   74.59   5
   0  -1  10 1451.93   77.07   3
  -1   1  10 1444.45   74.21   2
  -1   1  10 1388.47   79.47   4
   1  -1  10 1405.63   75.65   5
  -1   0  10 1496.41   79.08   3
  -1   0  10 1463.22   76.20   2
   1  -1  10 1499.71   79.35   3
  -1   0  10 1526.38   76.77   5
   1  -1  10 1570.98   82.78   4
  -1   0  10 1494.01   82.05   4
   0   1  10 1518.49   76.35   2
   0   1  10 1533.88   82.84   4
   0   1  10 1553.29   79.11   3
  -2   1  10  678.35   40.47   2
  -2   1  10  686.26   42.16   4
  -2   1  10  687.40   39.71   1
   1   1  10  689.47   43.94   4
   1   1  10  696.11   40.24   3
   1   1  10  701.70   39.33   2
   1  -2  10  710.23   40.13   5
   1  -2  10  674.22   42.17   3
   1   1  10  638.23   39.72   1
  -2   1  10  695.37   39.61   1
  -2   1  10  688.04   39.71   5
  -3   2  10 1189.06   65.02   2
   2   1  10 1189.55   70.40   4
   1  -3  10 1185.88   70.34   1
  -3   2  10 1218.01   62.71   5
   2   1  10 1148.36   63.40   3
  -2  -1 -10 1273.96   71.12   1
  -3   2  10 1175.76   70.11   1
   1  -3  10 1219.47   64.29   5
   1  -3  10 1192.73   66.54   3
  -2   2  10 1120.93   64.41   1
  -2   2  10 1175.42   60.25   5
  -2   2  10 1153.99   64.91   1
  -2   2  10 1156.88   64.37   4
  -2   0 -10 1083.68   65.17   1
  -2   2  10 1155.71   61.44   2
   2   0  10 1170.90   62.07   3
   2   0  10 1076.03   64.80   1
   0  -2  10 1159.94   65.07   1
   0   2 -10 1072.01   64.69   1
   0  -2  10 1138.23   62.32   3
   2   0  10 1172.78   65.51   4
   0  -2  10 1193.33   61.06   5
  -1   2  10  692.33   38.47   1
   2  -1  10  649.81   39.64   3
  -1  -1  10  663.31   38.20   1
  -1   2  10  660.16   41.95   4
  -1   2  10  667.42   38.05   1
   2  -1  10  683.47   41.55   4
  -1  -1  10  672.05   38.78   5
  -1   2  10  671.77   38.91   2
  -1  -1  10  686.77   39.13   3
  -2   1 -10  531.92   38.23   1
  -1  -1  10  643.60   37.16   2
   0   2  10 1075.74   63.43   1
  -2   0  10 1083.19   59.58   5
   2  -2  10 1175.93   63.36   4
   0   2  10 1123.46   58.42   2
  -2   0  10 1120.60   58.96   2
   0   2  10 1152.87   65.05   4
   0  -2 -10 1163.26   64.33   1
   2  -2  10 1129.30   62.49   3
  -2   2 -10 1040.72   63.85   1
  -2   0  10 1128.94   63.64   1
   2  -2  10 1169.13   59.17   5
   2   0 -10 1071.29   63.51   1
  -2   2 -10 1117.27   64.43   1
  -3   1  10 1154.73   62.14   2
   1   2  10 1185.59   60.52   2
  -3   1  10 1171.13   61.51   5
  -3   1  10 1144.79   68.01   1
  -2   3 -10 1257.86   69.66   1
   1   2  10 1160.55   68.45   4
  -1  -2 -10 1091.45   68.00   1
   2  -3  10 1107.79   61.21   5
   2  -3  10 1196.48   66.01   3
   2  -4  10 1656.23   96.38   1
   2  -4  10 1594.23   83.74   5
  -4   2  10 1738.98   82.87   5
   2  -4  10 1715.94   89.75   3
  -4   2  10 1611.36   85.44   2
  -2  -2 -10 1548.52   96.22   1
  -4   2  10 1566.80   95.54   1
  -5   3  10  573.35   33.75   5
  -5   3  10  563.52   40.70   2
  -5   3  10  546.03   42.51   1
  -3  -2 -10  543.43   43.54   1
   2  -5  10  583.02   41.06   3
   2  -5  10  559.72   42.82   1
   2  -5  10  602.74   38.06   5
   1  -4  10  840.98   50.29   3
   1  -4  10  795.49   53.05   1
   3   1  10  814.95   53.61   4
   1  -4  10  820.30   48.27   5
  -4   3  10  801.07   52.73   1
   3   1  10  824.58   46.05   3
  -3  -1 -10  821.81   54.06   1
  -4   3  10  787.04   49.98   2
   0  -3  10  511.53   35.71   1
   3   0  10  549.27   37.68   4
  -3   3  10  580.26   36.88   2
  -3   3  10  535.29   36.32   1
   3   0  10  510.79   34.03   3
   0  -3  10  520.21   36.03   5
  -3   3  10  497.87   34.72   4
   0  -3  10  546.02   34.09   3
  -2   3  10 1238.06   67.97   4
   3  -1  10 1175.03   67.62   4
  -2   3  10 1146.72   69.61   1
   3  -1  10 1187.28   65.62   3
  -1  -2  10 1157.17   69.43   1
  -2   3  10 1189.30   64.69   2
  -1  -2  10 1276.11   66.32   5
  -1  -2  10 1156.36   64.26   3
  -3   1 -10 1200.65   70.35   1
  -2  -1  10 1231.24   71.65   1
  -2  -1  10 1253.53   66.26   5
  -2  -1  10 1213.90   63.50   2
  -1   3  10 1170.06   64.71   2
   3  -2  10 1236.99   68.60   4
   3  -2  10 1287.20   69.00   3
  -1   3  10 1140.08   70.10   4
   1  -3 -10 1257.27   72.34   1
  -3   2 -10 1262.43   72.55   1
   0   3  10  546.84   37.56   4
  -3   0  10  525.59   32.08   2
   0   3  10  517.59   31.83   2
  -3   0  10  516.99   33.77   5
  -3   0  10  519.16   34.74   1
   3  -3  10  524.14   30.54   5
  -3   3 -10  404.53   34.32   1
   1   3  10  822.95   44.47   2
  -1  -3 -10  772.32   52.47   1
  -4   1  10  802.11   46.76   2
  -4   1  10  786.94   46.46   5
  -3   4 -10  812.64   53.56   1
   3  -4  10  784.46   45.18   5
  -4   1  10  845.65   52.76   1
  -5   2  10  572.32   38.87   2
  -5   2  10  604.99   42.69   1
  -3   5 -10  589.20   44.28   1
  -2  -3 -10  554.05   43.57   1
   3  -5  10  533.72   35.78   5
  -5   2  10  585.17   35.79   5
  -6   3  10  196.12   26.73   2
   3  -6  10  251.52   27.36   3
  -6   3  10  236.18   19.57   5
  -6   3  10  215.74   29.47   1
   3  -6  10  217.71   22.99   5
   3  -6  10  231.82   30.17   1
   3  -7  10  371.47   42.80   1
  -4  -3 -10  357.14   41.42   1
  -7   4  10  401.00   42.25   1
   3  -7  10  404.99   36.19   3
   3  -7  10  297.38   30.92   5
  -7   4  10  352.65   36.42   2
  -4  -2 -10  354.35   38.03   1
  -6   4  10  369.14   38.41   1
   2  -6  10  376.90   33.00   5
   2  -6  10  437.29   39.07   1
   2  -6  10  418.19   36.22   3
  -5   4  10  330.15   31.14   1
   4   1  10  323.84   32.76   4
   1  -5  10  322.34   31.64   1
   1  -5  10  271.16   26.36   5
   1  -5  10  329.74   28.19   3
   4   1  10  295.39   22.22   3
   0  -4  10  674.43   41.52   3
  -4   4  10  626.29   39.96   4
   0  -4  10  673.36   46.24   1
  -4   4  10  665.01   46.37   1
   0  -4  10  695.23   42.68   5
   4   0  10  631.32   39.69   3
  -4   0 -10  599.63   46.25   1
   4   0  10  615.95   43.16   4
   4  -1  10  791.60   48.27   3
  -1  -3  10  830.36   53.07   1
   4  -1  10  861.61   50.95   4
  -3   4  10  791.61   48.44   4
  -3   4  10  799.69   52.86   1
  -3   4  10  772.66   48.83   2
  -1  -3  10  811.81   47.03   3
  -4   1 -10  821.46   53.71   1
  -2   4  10 1619.52   88.90   4
   4  -2  10 1648.93   87.49   4
  -4   2 -10 1582.92   95.53   1
  -2  -2  10 1592.44   94.44   1
   2  -4 -10 1520.19   94.79   1
  -2  -2  10 1590.07   85.86   5
  -2   4  10 1717.25   85.04   2
   4  -2  10 1623.47   87.62   3
  -3  -1  10  852.56   50.79   5
  -4   3 -10  855.75   55.45   1
  -3  -1  10  829.78   54.11   1
  -1   4  10  833.37   48.23   2
  -1   4  10  837.43   54.36   4
  -3  -1  10  809.82   45.78   2
   1  -4 -10  821.16   54.56   1
  -4   4 -10  585.09   45.90   1
   0   4  10  636.35   38.15   2
   0   4  10  622.98   45.00   4
  -4   0  10  591.32   38.00   2
   0  -4 -10  653.36   46.13   1
   4  -4  10  664.35   37.02   5
  -4   0  10  724.86   46.52   1
  -4   0  10  631.15   40.72   5
  -5   1  10  314.99   26.03   5
  -5   1  10  289.20   25.40   2
   4  -5  10  290.83   22.70   5
  -5   1  10  370.26   32.67   1
   1   4  10  309.29   22.76   2
  -2  -4 -10  347.22   38.05   1
  -6   2  10  377.62   37.67   1
  -6   2  10  411.45   28.47   5
  -6   2  10  432.25   33.90   2
   4  -6  10  404.93   28.38   5
  -4   6 -10  343.35   37.70   1
  -3  -4 -10  349.57   39.00   1
  -7   3  10  417.68   44.67   1
  -7   3  10  332.64   35.89   2
  -4   7 -10  389.57   45.82   1
   2  -7  10  231.67   28.57   5
   2  -7  10  202.94   31.47   3
   2  -7  10  149.58   35.47   1
  -7   5  10  241.24   38.10   1
   1  -6  10  423.77   35.61   3
   1  -6  10  476.76   43.55   1
  -6   5  10  511.00   45.33   1
   1  -6  10  394.99   38.14   5
  -5  -1 -10  449.16   42.67   1
   5   1  10  498.03   40.01   4
   5   0  10  561.83   36.40   3
   0  -5  10  527.07   45.20   1
   5   0  10  670.28   45.50   4
  -5   0 -10  553.81   46.40   1
  -5   5  10  524.99   45.30   1
   0  -5  10  591.26   39.03   3
  -1  -4  10  318.78   24.78   3
   5  -1  10  272.70   26.75   4
  -4   5  10  337.69   30.45   1
   5  -1  10  295.03   26.63   3
  -4   5  10  295.90   24.07   4
  -1  -4  10  314.86   31.62   1
  -3   5  10  558.88   42.97   1
   5  -2  10  501.96   39.39   3
  -3   5  10  557.32   38.52   2
   5  -2  10  554.99   37.33   4
  -2  -3  10  547.76   41.76   1
  -5   2 -10  556.85   43.43   1
  -3   5  10  554.63   37.02   4
  -2   5  10  571.75   39.45   2
  -5   3 -10  574.23   43.32   1
  -3  -2  10  535.23   42.53   1
   5  -3  10  595.56   36.51   4
   2  -5 -10  556.18   43.03   1
  -2   5  10  546.89   40.88   4
  -5   4 -10  241.32   27.40   1
  -4  -1  10  295.32   22.02   2
  -1   5  10  336.42   32.29   4
   1  -5 -10  221.93   27.97   1
  -1   5  10  321.05   25.44   2
  -4  -1  10  299.12   29.11   5
  -4  -1  10  319.59   30.25   1
   0   5  10  554.04   35.71   2
  -5   0  10  563.44   37.73   5
  -5   0  10  543.18   35.65   2
   0  -5 -10  586.98   46.85   1
  -5   0  10  555.30   45.90   1
  -5   5 -10  599.26   47.49   1
  -6   1  10  492.64   33.78   5
  -5   6 -10  443.40   45.85   1
  -1  -5 -10  449.46   43.62   1
  -6   1  10  415.28   32.24   2
  -6   1  10  502.44   42.57   1
  -2  -5 -10  136.61   32.57   1
  -7   2  10  205.03   36.63   1
  -7   2  10  231.92   24.89   2
  -6   0 -10  512.33   52.40   1
  -6   6  10  590.43   53.05   1
   0  -6  10  597.19   51.36   1
   6   0  10  632.48   47.38   4
   6  -1  10  485.75   37.57   4
  -1  -5  10  458.40   40.37   1
   6  -1  10  470.02   35.85   3
  -6   1 -10  378.19   42.73   1
  -5   6  10  454.67   43.82   1
   6  -2  10  443.28   31.28   4
  -2  -4  10  400.41   38.74   1
  -4   6  10  348.42   29.63   4
  -6   2 -10  323.57   37.15   1
  -4   6  10  367.73   36.60   1
   6  -2  10  395.30   34.82   3
  -3   6  10  226.27   26.30   4
   6  -3  10  260.89   21.17   4
  -3   6  10  227.04   28.54   2
   3  -6 -10  178.00   28.90   1
  -3  -3  10  251.58   28.76   1
  -4  -2  10  342.15   37.22   1
  -2   6  10  411.97   33.18   2
  -2   6  10  423.16   36.58   4
   2  -6 -10  420.66   38.92   1
  -6   4 -10  370.02   36.81   1
  -1   6  10  474.51   33.30   2
  -6   5 -10  447.70   45.29   1
   1  -6 -10  411.81   40.95   1
  -1   6  10  378.57   40.93   4
  -5  -1  10  411.64   37.67   5
  -5  -1  10  444.54   39.88   1
  -6   0  10  590.30   42.21   5
   0  -6 -10  536.28   53.21   1
  -6   6 -10  613.64   56.22   1
  -6   0  10  647.27   53.45   1
  -2  -5  10  223.73   38.38   1
   7  -2  10  238.23   29.48   3
  -5   7  10  238.08   35.87   1
  -7   2 -10  149.22   32.39   1
  -3  -4  10  337.79   41.36   1
  -7   3 -10  382.12   38.94   1
  -4   7  10  362.95   41.42   1
  -3   7  10  336.05   34.43   4
   3  -7 -10  343.18   41.72   1
  -3   7  10  426.64   38.74   2
  -7   4 -10  311.62   42.38   1
  -4  -3  10  352.18   36.82   1
  -2   7  10  215.61   27.97   2
  -2   7  10  173.42   32.86   4
  -5  -2  10  164.90   30.85   5
  -5  -2  10  219.01   36.44   1
   0   0  11   10.41   10.95   5
   0   0  11   21.90   12.27   4
   0   0  11   19.38   10.87   2
   0  -1  11 1356.50   72.61   5
   1   0  11 1377.70   77.94   4
  -1   1  11 1444.51   73.21   2
   0  -1  11 1422.32   75.62   3
   1   0  11 1304.88   74.50   3
   1   0  11 1424.39   72.48   2
  -1   1  11 1427.10   73.46   5
   0  -1  11 1497.79   72.84   2
  -1   1  11 1397.88   78.04   4
   0   1  11 1377.18   78.45   4
  -1   0  11 1332.61   74.65   3
   1  -1  11 1469.71   75.78   3
   1  -1  11 1389.32   72.79   5
  -1   0  11 1384.16   73.38   5
   0   1  11 1374.70   72.18   2
  -1   0  11 1472.31   73.06   2
   0   1  11 1383.83   75.01   3
   1  -1  11 1463.16   79.23   4
   1  -2  11    6.95   11.50   5
   1   1  11  -16.09   10.34   3
  -2   1  11   -1.23    3.83   1
   1   1  11    8.14   11.25   2
   1   1  11  -12.35   14.29   4
  -2   1  11   16.72   13.10   2
  -1  -1 -11   -0.47    3.98   1
  -2   1  11    4.91    3.85   1
   1  -2  11   -7.94   12.73   3
  -2   1  11    9.36   11.08   5
   1   1  11   -7.49    4.95   1
  -1   2 -11   -3.69    4.86   1
  -2  -1 -11 1278.87   72.43   1
  -3   2  11 1211.71   71.58   1
  -3   2  11 1239.86   65.47   5
   2   1  11 1203.06   72.43   4
   1  -3  11 1250.22   66.43   5
   2   1  11 1203.25   66.32   3
  -3   2  11 1258.01   67.60   2
   1  -3  11 1251.55   69.52   3
   1  -3  11 1229.08   71.99   1
   2   0  11  430.04   29.96   3
  -2   0 -11  518.38   29.32   1
   2   0  11  392.54   31.90   4
   2   0  11  422.70   28.22   1
  -2   2  11  449.76   28.04   1
   0  -2  11  445.03   30.58   5
  -2   2  11  476.37   32.30   2
  -2   2  11  424.44   27.61   1
   0  -2  11  481.57   28.52   1
  -2   2  11  437.68   28.99   5
   0  -2  11  433.18   31.63   3
   0   2 -11  521.84   28.52   1
  -2   2  11  463.35   32.28   4
  -1   2  11    2.58    8.38   2
  -1  -1  11   14.82   10.52   2
  -1  -1  11    5.86   11.83   3
  -1   2  11   -0.08    4.20   1
   1   1 -11    0.05    4.02   1
  -1   2  11    0.85   12.86   4
   2  -1  11   19.87   12.67   4
  -1  -1  11   -2.16    3.77   1
  -2   1 -11   -4.11    4.86   1
  -1   2  11   -0.06    4.13   1
   2  -1  11    2.96   11.44   3
   2  -2  11  442.37   32.86   3
  -2   0  11  454.96   31.55   5
   2  -2  11  449.84   33.71   4
   0   2  11  490.58   36.38   4
  -2   2 -11  552.64   30.95   1
  -2   2 -11  504.75   30.18   1
  -2   0  11  468.04   31.17   2
   2   0 -11  505.38   29.78   1
  -2   0  11  453.00   29.41   1
   0   2  11  484.45   31.50   2
   0  -2 -11  553.91   30.77   1
   2  -2  11  458.64   30.76   5
   0   2  11  452.50   29.50   1
  -1  -2 -11 1249.75   71.95   1
   1   2  11 1217.35   72.56   4
  -2   3 -11 1321.69   72.89   1
  -3   1  11 1199.56   66.13   2
   2  -3  11 1221.17   65.69   5
   2  -3  11 1235.08   69.65   3
  -3   1  11 1216.62   71.41   1
  -3   1  11 1245.35   65.72   5
   1   2  11 1170.55   63.57   2
   2  -4  11   -9.73   12.40   5
  -4   2  11   -4.24   11.46   5
  -4   2  11    2.69   11.42   1
   2  -4  11    4.61   16.72   3
  -2  -2 -11    5.63   11.49   1
  -2   4 -11   -2.67   11.83   1
   2   2  11   11.01   16.55   4
  -3  -2 -11  580.14   41.52   1
  -5   3  11  564.51   39.94   1
   2  -5  11  463.11   35.56   5
  -5   3  11  508.16   38.55   2
   3   2  11  557.70   44.41   4
   2  -5  11  445.33   38.84   1
   2  -5  11  484.11   38.46   3
   1  -4  11  823.62   49.28   5
  -4   3  11  810.48   50.84   2
   1  -4  11  769.29   50.37   3
  -3  -1 -11  889.65   54.12   1
   3   1  11  813.08   54.80   4
   3   1  11  766.43   46.36   3
   1  -4  11  810.94   52.87   1
  -4   3  11  788.87   52.10   1
   0  -3  11   14.45   14.02   5
   0  -3  11    5.16   13.37   3
  -3   3  11   11.83    9.79   1
   3   0  11   24.33   14.92   4
   0  -3  11   -4.70    9.56   1
   3   0  11    1.79    8.52   3
  -3   3  11    2.17    8.79   4
  -3   3  11   10.84   15.25   2
  -3   0 -11   13.06    9.28   1
  -1  -2  11 1215.23   68.18   5
  -1  -2  11 1225.12   67.37   3
   3  -1  11 1282.15   71.00   4
  -1  -2  11 1229.78   71.81   1
  -2   3  11 1248.72   67.55   2
  -2   3  11 1195.33   70.46   4
   3  -1  11 1253.21   69.31   3
  -2   3  11 1195.85   71.70   1
  -3   1 -11 1266.89   72.36   1
  -1   3  11 1235.15   66.57   2
  -2  -1  11 1224.62   65.17   2
   3  -2  11 1274.84   70.90   4
  -2  -1  11 1227.17   67.77   5
  -1   3  11 1087.48   71.03   4
   3  -2  11 1236.42   69.38   3
  -3   2 -11 1334.73   73.45   1
  -2  -1  11 1242.41   71.99   1
   1  -3 -11 1308.39   72.71   1
   3  -3  11   17.39   10.78   5
   0  -3 -11   -7.68    8.48   1
  -3   0  11    7.17   14.29   5
   0   3  11   -2.55   12.00   4
  -3   3 -11   11.68    9.84   1
   3  -3  11   44.78   17.61   3
  -3   0  11    5.40   10.80   2
   0   3  11   -1.60   11.77   2
   1   3  11  824.46   45.42   2
  -1  -3 -11  811.14   52.89   1
  -4   1  11  816.99   52.13   1
  -4   1  11  741.86   46.69   2
   3  -4  11  871.16   54.32   3
  -4   1  11  755.07   45.92   5
   3  -4  11  758.28   45.71   5
  -3   4 -11  819.61   53.08   1
   1   3  11  817.09   55.77   4
  -2  -3 -11  578.58   42.46   1
  -5   2  11  531.84   40.95   1
  -5   2  11  514.61   37.72   2
   2   3  11  489.09   42.12   4
   3  -5  11  494.52   33.83   5
   3  -5  11  582.92   44.06   3
  -3   5 -11  574.22   43.70   1
  -5   2  11  510.01   34.97   5
  -6   3  11   31.80   21.84   2
  -6   3  11   -6.52   12.34   5
  -3  -3 -11   33.09   21.78   1
   3  -6  11   21.37   24.15   3
   3  -6  11  -28.47   17.73   5
  -6   3  11   -7.24   19.87   1
  -3   6 -11   -5.16   18.39   1
  -7   4  11  408.89   42.96   1
   3  -7  11  374.36   34.87   5
  -7   4  11  479.10   42.45   2
   3  -7  11  420.92   42.36   3
  -4  -3 -11  437.86   44.97   1
  -3   7 -11  425.57   41.90   1
   2  -6  11  246.97   30.29   3
   4   2  11  194.01   32.52   4
  -4  -2 -11  232.50   26.73   1
  -6   4  11  182.01   28.25   1
  -6   4  11  147.29   26.69   2
   2  -6  11  147.19   23.01   5
   2  -6  11  193.43   27.79   1
   4   1  11  -14.67   21.67   4
   1  -5  11   32.74   20.26   3
  -5   4  11   60.49   22.41   2
   1  -5  11   35.19   15.21   1
   1  -5  11   -1.50   12.97   5
  -4  -1 -11   -6.01   14.30   1
   4   1  11   -4.94    9.59   3
  -5   4  11   -4.79   16.90   1
   0  -4  11  258.93   25.73   3
  -4   4  11  258.16   24.67   4
   0  -4  11  327.54   28.20   1
   4   0  11  266.81   23.43   3
   4   0  11  318.41   28.81   4
  -4   4  11  303.13   27.04   1
  -4   0 -11  327.85   28.45   1
   0  -4  11  329.27   28.78   5
  -4   4  11  290.90   29.01   2
   4  -1  11  806.66   51.34   4
  -4   1 -11  852.63   54.53   1
  -3   4  11  839.70   53.12   1
  -3   4  11  771.19   49.40   2
  -3   4  11  810.66   50.46   4
   4  -1  11  791.65   50.04   3
  -1  -3  11  824.30   52.27   5
  -1  -3  11  858.21   53.48   1
  -1  -3  11  774.93   48.29   3
  -2   4  11   39.27   15.73   2
  -2  -2  11    8.29   11.44   1
  -4   2 -11    5.89   11.80   1
   4  -2  11   -9.73   13.04   4
   4  -2  11   -1.81   11.07   3
  -2  -2  11   27.57   17.60   5
   2  -4 -11    4.62   10.75   1
  -2   4  11   16.68   14.64   4
  -3  -1  11  811.60   53.03   1
  -1   4  11  809.14   48.64   2
  -3  -1  11  833.42   50.82   5
  -3  -1  11  791.73   46.22   2
   1  -4 -11  844.05   54.03   1
  -4   3 -11  891.90   54.98   1
  -1   4  11  767.02   52.36   4
   0   4  11  319.70   31.78   4
  -4   0  11  223.60   22.74   2
  -4   0  11  282.40   27.19   1
  -4   0  11  248.09   23.62   5
   4  -4  11  280.48   21.39   5
  -4   4 -11  337.58   29.25   1
   0  -4 -11  316.24   27.77   1
   0   4  11  288.16   24.01   2
  -4   5 -11   16.43   18.81   1
   1   4  11   -6.68   11.57   2
  -5   1  11  -11.35   13.54   2
  -5   1  11   -9.33   15.04   5
   1   4  11  -21.49   18.11   4
  -5   1  11   34.29   19.09   1
   4  -5  11    5.54   11.34   5
  -1  -4 -11  -22.28   17.62   1
  -2  -4 -11  227.89   29.41   1
  -6   2  11  193.97   24.27   2
   4  -6  11  198.14   20.67   5
  -4   6 -11  226.91   32.40   1
  -6   2  11  216.37   29.09   1
  -6   2  11  226.82   22.59   5
  -7   3  11  500.76   45.19   1
  -7   3  11  427.28   39.32   2
  -4   7 -11  399.02   46.52   1
  -3  -4 -11  433.83   43.69   1
   4  -7  11  439.23   47.68   3
   1  -6  11  472.74   38.31   3
   1  -6  11  471.61   42.54   1
  -6   5  11  469.41   40.44   1
   5   1  11  420.07   43.22   4
   1  -6  11  416.51   40.20   5
  -5  -1 -11  487.44   45.36   1
   0  -5  11  615.02   46.33   5
   0  -5  11  586.04   46.99   1
  -5   5  11  569.25   48.68   1
  -5   0 -11  704.88   50.53   1
   5   0  11  576.77   39.79   3
   0  -5  11  627.96   41.82   3
   5   0  11  672.02   47.83   4
  -1  -4  11   16.53   11.21   3
  -1  -4  11   13.14   18.22   5
  -5   1 -11   18.38   18.46   1
  -4   5  11   12.76   19.12   1
   5  -1  11  -16.73   16.01   4
   5  -1  11   15.00   16.58   3
  -4   5  11   10.38   11.21   4
  -4   5  11    4.09   20.25   2
  -1  -4  11    7.57   18.19   1
  -3   5  11  474.18   37.35   4
   5  -2  11  549.14   36.39   4
  -3   5  11  571.30   41.69   1
  -2  -3  11  554.72   42.14   5
  -5   2 -11  550.82   41.73   1
  -3   5  11  499.06   37.65   2
   5  -2  11  527.50   39.60   3
  -2  -3  11  512.74   39.72   1
  -5   3 -11  556.89   43.33   1
   5  -3  11  552.30   36.31   4
  -2   5  11  545.73   39.82   2
  -2   5  11  454.67   37.58   4
   2  -5 -11  574.58   42.37   1
  -3  -2  11  527.21   41.30   1
  -3  -2  11  577.01   42.30   5
  -5   4 -11   25.76   18.53   1
   1  -5 -11   20.64   18.51   1
  -4  -1  11    7.81   16.74   1
  -4  -1  11  -22.13   21.22   5
  -4  -1  11    3.51   11.21   2
  -1   5  11   -9.48   12.47   2
   0  -5 -11  696.77   50.84   1
  -5   5 -11  741.90   53.63   1
  -5   0  11  605.55   44.18   5
  -5   0  11  630.47   40.22   2
   0   5  11  568.75   50.99   4
  -5   0  11  689.42   49.86   1
   0   5  11  635.73   40.46   2
  -6   1  11  430.89   35.76   5
  -6   1  11  472.28   44.03   1
  -5   6 -11  522.25   45.44   1
  -1  -5 -11  511.71   45.96   1
  -6   1  11  436.17   34.79   2
   6   0  11   17.26   23.06   4
   0  -6  11   -5.81   27.37   1
  -6   6  11   11.08   24.26   1
   0  -6  11   19.78   27.62   5
  -6   0 -11   13.45   25.94   1
  -1  -5  11  446.56   43.86   1
   6  -1  11  484.51   38.01   4
   6  -1  11  443.07   36.41   3
  -6   1 -11  492.00   46.85   1
  -5   6  11  502.59   43.79   1
  -2  -4  11  189.90   27.82   1
  -4   6  11  183.59   30.26   1
  -4   6  11  194.76   22.83   4
  -4   6  11  186.53   30.73   2
   6  -2  11  178.62   26.32   3
  -6   2 -11  233.49   27.50   1
   6  -2  11  261.62   26.56   4
  -3   6  11   59.03   24.57   1
  -3  -3  11   -6.20   17.70   5
   6  -3  11  -12.23   22.33   3
   6  -3  11   37.80   16.84   4
  -3  -3  11  -25.28   23.13   1
  -3   6  11   -3.94   22.24   2
  -6   3 -11    7.02   22.14   1
  -2   6  11  191.22   23.72   2
  -4  -2  11  190.90   26.51   1
  -2   6  11  165.21   27.51   4
  -4  -2  11  157.85   28.62   5
  -6   4 -11  193.04   30.18   1
   2  -6 -11  214.17   28.40   1
  -5  -1  11  439.25   37.03   5
   1  -6 -11  476.51   45.79   1
  -5  -1  11  480.48   45.73   1
  -1   6  11  458.15   45.04   4
  -1   6  11  509.27   35.93   2
  -6   5 -11  514.94   47.84   1
  -6   0  11   16.59   27.46   1
   0   6  11    2.40   31.22   4
  -6   0  11   13.17   23.60   5
   0  -6 -11    0.53   25.45   1
  -4   7  11  421.44   42.50   2
  -4   7  11  387.64   45.31   1
  -7   3 -11  409.22   43.59   1
  -3  -4  11  430.28   40.72   1
   7  -3  11  414.93   42.33   3
  -3   7  11  419.56   37.02   4
  -4  -3  11  446.57   42.82   5
   3  -7 -11  362.53   43.37   1
  -3   7  11  480.30   41.16   2
  -7   4 -11  458.50   46.34   1
  -4  -3  11  370.53   43.03   1
   0   0  12  821.29   48.25   2
   0   0  12  860.56   48.57   5
   0   0  12  840.36   52.07   4
   0   0  12  834.43   49.81   3
  -1   1  12  316.31   26.65   4
   0  -1  12  234.74   23.91   2
  -1   1  12  331.39   25.61   5
   0  -1  12  296.61   25.50   5
   1   0  12  296.22   26.51   4
   1   0  12  303.29   25.58   3
   0  -1  12  293.40   25.43   3
  -1   1  12  296.76   24.63   2
   1   0  12  325.41   25.09   2
   1  -1  12  266.20   23.46   5
  -1   0  12  287.82   25.04   3
  -1   0  12  289.33   22.47   5
   0   1  12  285.24   26.16   4
  -1   0  12  294.13   24.06   2
   1  -1  12  275.16   24.01   4
   1  -1  12  269.03   23.22   3
   0   1  12  273.57   23.26   2
   0   1  12  302.65   25.39   3
  -2   1  12  207.64   19.39   2
   1   1  12  199.81   20.75   4
   1  -2  12  208.46   19.95   3
   1  -2  12  169.10   19.66   5
   1   1  12  213.76   18.36   2
   1   1  12  180.89   18.29   3
  -2   1  12  234.19   20.86   5
  -2  -1 -12  281.14   20.80   1
  -3   2  12  280.31   19.86   1
  -3   2  12  241.51   22.40   5
   2   1  12  233.61   22.08   3
   1  -3  12  254.12   24.19   5
  -3   2  12  232.56   24.30   2
   2   1  12  274.40   25.48   4
   1  -3  12  283.87   25.85   3
   0  -2  12  340.23   26.53   3
   2   0  12  357.76   27.86   3
  -2   2  12  365.30   26.90   2
  -2   2  12  314.22   26.71   4
   2   0  12  386.93   30.58   4
   0  -2  12  324.23   27.65   5
   0  -2  12  361.36   22.05   1
   2  -1  12  217.06   22.01   4
  -1  -1  12  205.89   22.19   5
   2  -1  12  191.44   21.89   3
  -1   2  12  186.03   19.72   4
  -1  -1  12  174.07   20.11   3
  -1   2  12  195.10   20.24   2
  -1  -1  12  179.37   18.56   2
   0   2  12  322.77   20.80   1
  -2   0  12  318.60   24.35   2
   2  -2  12  372.15   29.13   4
   0   2  12  359.74   30.72   4
   2  -2  12  315.27   28.31   3
   0   2  12  310.60   25.60   2
   2  -2  12  325.26   24.44   5
  -2   0  12  338.99   26.74   5
   1   2  12  242.60   22.19   2
   2  -3  12  265.42   22.33   5
  -3   1  12  276.79   20.45   1
  -3   1  12  299.84   25.13   5
  -1  -2 -12  294.01   21.47   1
  -3   1  12  267.64   24.72   2
   2  -3  12  245.30   26.60   3
   1   2  12  251.18   25.70   4
  -2   3 -12  297.45   22.18   1
   2  -4  12  379.55   31.66   3
  -2  -2 -12  295.06   29.02   1
  -4   2  12  412.66   29.00   5
  -4   2  12  404.98   28.83   1
   2  -4  12  370.03   27.94   5
  -4   2  12  412.13   30.15   2
   2   2  12  415.43   36.28   4
   2  -5  12  115.52   17.93   1
  -5   3  12   83.47   18.00   1
  -3  -2 -12   98.45   18.18   1
   3   2  12   85.83   25.93   4
   2  -5  12   69.05   23.54   3
  -5   3  12  116.23   22.95   2
   2  -5  12  107.25   21.40   5
   3   1  12  145.94   18.02   3
  -4   3  12  174.73   18.88   1
   1  -4  12  182.42   19.34   1
   3   1  12  176.60   25.33   4
   1  -4  12  158.34   21.82   5
  -4   3  12  151.18   22.56   2
   1  -4  12  176.40   22.91   3
  -3  -1 -12  170.58   19.73   1
  -3   3  12  174.94   16.31   1
  -3   3  12  164.28   21.58   2
   0  -3  12  162.26   20.64   3
   0  -3  12  136.44   15.65   1
  -3   3  12  114.73   18.51   4
   0  -3  12  183.89   19.82   5
   3   0  12  151.63   20.47   4
   3   0  12  198.39   20.50   3
  -2   3  12  240.38   22.86   2
  -1  -2  12  283.71   20.72   1
   3  -1  12  271.28   26.56   4
  -1  -2  12  255.08   24.55   3
  -2   3  12  279.58   25.13   4
  -3   1 -12  278.18   21.65   1
  -1  -2  12  302.82   27.36   5
  -2   3  12  287.05   20.98   1
   3  -1  12  272.27   24.48   3
   3  -2  12  271.08   25.09   3
  -1   3  12  266.81   27.08   4
   1  -3 -12  303.80   21.44   1
   3  -2  12  274.00   25.80   4
  -2  -1  12  274.25   20.54   1
  -3   2 -12  279.42   21.73   1
  -1   3  12  269.67   24.72   2
  -2  -1  12  262.05   23.15   2
  -2  -1  12  290.72   26.49   5
   3  -3  12  185.98   21.43   3
   0   3  12  183.61   20.41   2
  -3   0  12  166.48   16.43   1
  -3   0  12  159.13   18.20   5
   3  -3  12  145.13   17.95   5
  -3   0  12  194.96   20.22   2
   0   3  12  183.76   21.66   4
   3  -4  12  164.09   17.54   5
   1   3  12  205.57   28.39   4
   3  -4  12  212.35   27.32   3
  -4   1  12  227.00   22.55   2
  -4   1  12  135.26   20.91   5
  -4   1  12  185.46   19.16   1
   1   3  12  179.61   19.81   2
  -1  -3 -12  168.05   20.36   1
  -3   4 -12  197.18   21.90   1
  -5   2  12   74.41   18.73   1
  -3   5 -12  127.40   22.83   1
   2   3  12  105.77   27.32   4
  -5   2  12  109.82   20.26   2
   3  -5  12   77.10   17.81   5
  -5   2  12   95.68   17.76   5
  -2  -3 -12  134.05   20.98   1
   3  -5  12   72.08   24.83   3
   3  -6  12   60.29   18.06   5
   3   3  12   77.48   28.21   4
  -3  -3 -12   16.52   20.50   1
  -6   3  12  111.89   22.48   1
  -6   3  12  106.61   24.74   2
   3  -6  12   95.53   28.64   3
  -3   6 -12   56.86   24.32   1
  -4  -2 -12  189.15   29.13   1
   2  -6  12  123.41   25.14   5
  -6   4  12  183.92   29.61   1
   2  -6  12  134.85   23.41   3
  -6   4  12  130.36   26.29   2
   2  -6  12  165.03   28.99   1
  -5   4  12  122.88   24.52   2
   4   1  12   92.67   15.93   3
   1  -5  12  121.28   22.15   3
   4   1  12  131.10   26.90   4
  -5   4  12  115.48   22.40   1
   1  -5  12  133.69   21.31   1
   1  -5  12   97.40   22.62   5
   0  -4  12  158.70   25.10   5
  -4   0 -12  249.46   24.23   1
  -4   4  12  201.21   27.84   2
   0  -4  12  211.55   21.68   3
   0  -4  12  201.17   22.81   1
   4   0  12  178.02   26.18   4
   4   0  12  212.80   22.52   3
  -4   4  12  215.29   22.63   1
  -4   4  12  189.12   22.47   4
  -1  -3  12  179.23   24.79   5
  -4   1 -12  158.92   19.73   1
  -3   4  12  173.00   19.58   1
  -3   4  12  179.38   21.59   2
  -1  -3  12  132.03   17.97   1
   4  -1  12  199.02   23.09   3
  -3   4  12  191.84   21.36   4
   4  -1  12  170.94   23.36   4
  -1  -3  12  197.79   22.52   3
  -2   4  12  410.04   30.19   1
  -2  -2  12  423.37   34.90   5
  -2   4  12  396.80   31.93   2
   4  -2  12  446.96   32.17   4
  -2  -2  12  411.68   29.73   1
   4  -2  12  420.29   31.66   3
  -4   2 -12  346.96   30.46   1
  -2   4  12  364.20   33.13   4
   1  -4 -12  209.14   20.90   1
  -3  -1  12  180.55   18.69   1
  -1   4  12  170.88   21.83   2
  -3  -1  12  162.34   19.15   2
  -1   4  12  178.64   25.04   4
   4  -3  12  164.20   25.15   3
  -4   3 -12  193.76   21.01   1
  -3  -1  12  168.71   20.91   5
   0  -4 -12  240.75   24.47   1
   4  -4  12  179.72   20.16   5
  -4   0  12  191.39   22.45   1
   0   4  12  204.64   19.77   2
  -4   0  12  191.64   24.79   5
  -4   0  12  219.41   19.74   2
  -4   4 -12  273.18   25.43   1
   0   4  12  176.73   27.32   4
   4  -4  12  253.41   32.00   3
   4  -5  12   90.99   16.90   5
  -5   1  12  124.91   20.74   2
  -1  -4 -12   68.98   17.54   1
   1   4  12  117.27   15.38   2
  -5   1  12   80.11   19.90   5
   4  -5  12  136.24   29.25   3
   1   4  12   97.99   28.50   4
  -5   1  12   84.06   20.31   1
  -6   2  12  176.19   26.12   2
  -6   2  12  145.42   27.85   1
  -2  -4 -12  198.56   30.19   1
   4  -6  12  196.26   27.65   3
  -4   6 -12  201.41   29.77   1
   2   4  12  153.18   33.71   4
  -6   2  12  132.92   21.70   5
   4  -6  12  121.41   21.25   5
  -6   5  12  116.87   29.41   1
   1  -6  12  106.55   21.95   5
  -6   5  12  107.89   29.55   2
   1  -6  12  133.24   27.41   1
   1  -6  12  137.76   21.56   3
  -5  -1 -12  100.75   26.38   1
   5   1  12  109.16   29.82   4
   0  -5  12  162.13   24.83   1
   5   0  12  141.20   20.05   3
   0  -5  12  150.71   23.88   3
  -5   5  12  171.83   29.72   2
   5   0  12  181.63   28.30   4
  -5   5  12  166.50   26.16   1
   0  -5  12  107.46   28.87   5
  -5   0 -12  142.85   26.05   1
  -4   5  12  121.62   22.17   1
  -4   5  12  101.08   22.10   2
  -1  -4  12  115.37   21.01   1
  -1  -4  12  111.31   20.67   3
  -4   5  12   82.10   17.10   4
  -1  -4  12   96.43   20.78   5
   5  -1  12   95.51   19.61   3
   5  -1  12  104.79   22.49   4
   5  -2  12  100.81   18.39   3
   5  -2  12   64.46   18.82   4
  -2  -3  12  137.41   18.63   1
  -2  -3  12   90.52   24.67   5
  -3   5  12  139.93   26.03   2
  -5   2 -12  103.76   21.02   1
  -3   5  12  134.49   19.62   1
  -3   5  12  100.80   18.89   4
   5  -3  12  136.52   19.80   4
  -2   5  12   98.07   22.09   2
   5  -3  12  135.74   26.15   3
  -3  -2  12  104.42   26.00   5
   2  -5 -12  142.84   21.72   1
  -5   3 -12  118.79   22.06   1
  -3  -2  12  129.72   20.91   1
  -2   5  12  113.28   23.79   4
  -1   5  12  135.73   22.18   2
  -4  -1  12   96.64   16.57   2
  -1   5  12  128.72   21.94   4
  -4  -1  12  144.79   21.73   1
  -4  -1  12  109.70   24.05   5
  -5   0  12  168.44   23.60   1
  -5   0  12  149.01   20.92   2
   0   5  12  166.27   21.82   2
   0   5  12  135.67   31.90   4
  -5   0  12  139.64   25.17   5
  -5   5 -12  130.96   26.30   1
   0  -5 -12  206.44   27.50   1
   1   5  12   52.26   30.22   4
  -1  -5 -12   70.52   22.30   1
  -5   6 -12  112.14   29.06   1
  -6   1  12   59.30   19.79   2
  -6   1  12  113.88   20.06   5
   6   0  12  179.43   31.35   4
  -6   6  12  203.18   30.36   2
  -6   0 -12  140.27   28.36   1
  -6   6  12  210.46   36.31   1
   0  -6  12  142.74   35.41   5
   0  -6  12  165.37   30.18   1
  -1  -5  12  129.62   29.02   5
   6  -1  12   91.87   25.26   4
  -5   6  12   76.70   29.50   2
  -6   1 -12  116.34   25.84   1
   6  -1  12  109.79   21.71   3
  -1  -5  12  113.89   24.34   1
  -5   6  12  162.84   30.62   1
  -4   6  12  104.52   18.55   4
  -4   6  12  144.76   26.73   1
  -4   6  12  124.51   28.36   2
  -2  -4  12  144.66   30.14   5
   6  -2  12  102.64   23.30   3
   6  -2  12  127.99   22.56   4
  -2  -4  12  118.42   27.16   1
  -6   2 -12  164.38   28.88   1
   6  -3  12  149.93   21.75   4
  -3  -3  12   97.74   29.15   5
  -3   6  12   73.69   26.08   2
  -3  -3  12  133.88   22.87   1
  -3   6  12  105.59   24.76   1
  -3   6  12   80.56   22.87   4
   6  -3  12  103.67   23.08   3
  -2   6  12  148.04   29.59   4
  -4  -2  12  138.95   28.45   5
   2  -6 -12  199.48   27.80   1
  -4  -2  12  158.32   27.73   1
  -2   6  12  127.11   26.73   2
   6  -4  12  113.08   23.95   3
  -6   4 -12  145.13   27.62   1
  -5  -1  12  128.92   24.72   1
  -6   5 -12   84.03   26.48   1
  -1   6  12   80.79   29.68   4
  -1   6  12   72.84   23.69   2
   1  -6 -12   84.88   19.89   1
  -5  -1  12  140.64   28.44   5
  -6   0  12  177.87   29.37   5
   0   6  12  165.95   39.11   4
  -6   6 -12  128.26   34.23   1
  -6   0  12  185.50   30.77   1
   0   0  13  -11.44   15.18   5
   0   0  13  -11.67   14.73   3
   0   0  13    0.80   10.23   4
   0   0  13  -15.68   13.81   2
  -1   1  13 1236.91   68.35   2
   1   0  13 1315.60   71.43   3
  -1   1  13 1274.55   74.15   4
   0  -1  13 1277.81   68.08   2
   1   0  13 1274.62   74.06   4
  -1   1  13 1238.66   67.85   5
   0  -1  13 1269.81   69.19   5
   1   0  13 1245.90   67.58   2
   0  -1  13 1239.48   70.98   3
   0   1  13 1280.75   67.47   2
  -1   0  13 1238.48   67.56   5
   1  -1  13 1271.49   72.80   4
   1  -1  13 1224.41   70.23   3
   1  -1  13 1191.70   67.42   5
   0   1  13 1216.21   73.01   4
  -1   0  13 1323.82   67.94   2
  -1   0  13 1229.22   69.33   3
   0   1  13 1190.78   69.12   3
   1  -2  13  -10.28   14.37   5
  -2   1  13  -20.68   15.27   2
   1   1  13    1.46   15.19   4
   1   1  13    2.11   11.39   2
   1   1  13   -5.69   14.16   3
   1  -2  13    9.13   15.85   3
  -2   1  13  -12.60   13.31   5
   1  -3  13 1047.07   60.66   5
   2   1  13 1017.95   66.06   4
   2   1  13 1015.74   59.78   3
  -1   3 -13 1089.65   61.49   1
   1  -3  13 1038.32   62.46   3
  -3   2  13 1056.37   60.18   1
  -3   2  13 1026.90   59.89   2
  -2  -1 -13 1053.49   61.26   1
  -3   2  13 1078.60   59.21   5
  -2   2  13  995.10   57.02   2
   0  -2  13 1004.99   58.21   3
   2   0  13  894.66   56.72   3
  -2   2  13  977.55   60.40   4
   0  -2  13  978.38   56.94   5
   2   0  13  994.04   60.64   4
  -1  -1  13    9.11    9.58   2
  -1  -1  13    5.80   10.24   3
  -1   2  13   11.20   13.78   2
  -1   2  13   -9.36   16.45   4
   2  -1  13   -9.74   13.90   4
  -1  -1  13   -6.50   11.15   5
   2  -1  13    9.45   11.24   3
   2  -2  13 1012.25   55.38   5
  -2   0  13  968.81   56.35   5
  -2   0  13  944.04   55.40   2
   0   2  13  970.81   54.94   2
   2  -2  13  967.88   59.77   3
   0   2  13  963.75   60.43   4
  -3   1  13 1056.31   60.11   5
   2  -3  13 1062.80   63.15   3
  -3   1  13 1046.33   60.36   1
  -3   1  13 1044.53   60.53   2
   1   2  13  986.51   65.98   4
  -2   3 -13 1055.94   61.73   1
   1   2  13 1046.94   58.64   2
  -1  -2 -13 1090.72   61.58   1
   2  -3  13 1085.26   60.19   5
   2  -4  13  -14.42   20.49   3
  -4   2  13    1.45   14.98   5
   2   2  13    0.18   19.23   4
  -4   2  13    5.00   15.82   2
  -2  -2 -13   -6.54   11.17   1
   2  -4  13    8.37   15.27   5
   3   2  13  539.01   47.34   4
   2  -5  13  528.34   43.55   3
  -2   5 -13  518.74   41.50   1
   2  -5  13  514.81   37.47   5
  -5   3  13  563.02   41.10   1
  -3  -2 -13  550.22   40.81   1
  -5   3  13  510.44   39.15   2
  -4   3  13  701.28   47.19   2
   1  -4  13  771.92   49.05   5
   3   1  13  658.54   44.79   3
  -4   3  13  727.72   47.73   1
   3   1  13  763.70   51.90   4
  -3  -1 -13  731.97   48.50   1
   1  -4  13  743.86   49.81   3
   1  -4  13  808.15   48.82   1
   3   0  13   23.65   14.90   3
  -3   3  13   -9.09   14.78   4
   0  -3  13   -1.58    8.98   1
   0  -3  13    1.43   16.19   3
  -3   3  13    6.96   11.55   2
  -3   0 -13   25.23    9.71   1
   3   0  13   18.66   18.69   4
  -3   3  13   13.53    8.86   1
   0  -3  13  -18.32   16.40   5
  -2   3  13  986.36   63.66   4
   3  -1  13 1083.91   62.87   3
  -3   1 -13 1113.63   61.76   1
  -1  -2  13  999.46   60.27   5
  -1  -2  13 1074.49   60.62   1
   3  -1  13 1084.50   64.35   4
  -2   3  13 1037.30   60.68   2
  -2   3  13 1038.16   60.36   1
  -1  -2  13  994.10   60.16   3
  -2  -1  13 1031.74   58.08   2
  -1   3  13 1010.42   60.41   1
  -1   3  13 1070.19   65.71   4
  -2  -1  13 1057.53   59.97   1
  -1   3  13 1019.94   59.45   2
  -3   2 -13 1052.66   61.25   1
   3  -2  13 1063.44   63.34   4
  -2  -1  13 1072.18   61.74   5
   3  -2  13 1021.00   63.25   3
  -3   0  13   16.02   16.78   5
   3  -3  13  -10.54   19.06   3
   0   3  13  -14.96   18.13   4
   3  -3  13   11.98   13.36   5
  -3   3 -13    9.69    9.09   1
  -3   0  13   43.55   15.16   2
   0  -3 -13    8.33    9.13   1
  -3   0  13   12.59    8.13   1
   0   3  13   13.33   11.25   2
   3  -4  13  720.96   50.48   3
  -3   4 -13  759.02   50.40   1
  -1  -3 -13  777.75   49.72   1
   3  -4  13  736.15   45.64   5
  -4   1  13  806.84   47.96   5
  -4   1  13  739.51   47.62   2
  -4   1  13  763.36   48.60   1
   1   3  13  757.62   53.87   4
   1   3  13  742.56   45.47   2
  -3   5 -13  512.05   41.44   1
   2   3  13  496.23   48.13   4
  -5   2  13  495.43   37.42   2
   3  -5  13  487.33   36.29   5
  -5   2  13  556.77   37.50   5
   3  -5  13  565.54   44.49   3
  -5   2  13  521.15   39.64   1
  -2  -3 -13  559.02   41.20   1
   3   3  13   -7.83   19.67   4
  -6   3  13  -13.33   19.55   2
  -3  -3 -13    6.89   20.88   1
  -6   3  13   46.27   22.61   1
   3  -6  13   48.94   19.84   5
  -3   6 -13    6.08   22.77   1
   3  -6  13   -8.47   20.17   3
  -6   4  13  346.15   39.25   2
   2  -6  13  382.29   39.22   1
  -6   4  13  337.85   38.39   1
   2  -6  13  364.20   36.15   5
  -4  -2 -13  337.81   35.86   1
   2  -6  13  451.00   41.70   3
   4   2  13  344.86   39.82   4
  -5   4  13   12.11   16.96   1
  -4  -1 -13   17.79   17.35   1
   4   1  13   28.65   22.62   4
   1  -5  13   -3.71   21.20   3
   4   1  13    9.78   14.02   3
   1  -5  13   19.99   15.73   1
   1  -5  13  -36.42   22.47   5
  -5   4  13  -14.35   21.59   2
  -4   0 -13  525.66   41.43   1
   4   0  13  555.19   38.35   3
   0  -4  13  619.67   41.67   1
  -4   4  13  568.03   45.12   2
   4   0  13  557.87   44.87   4
   0  -4  13  556.64   42.67   5
  -4   4  13  626.25   42.53   1
   0  -4  13  610.65   42.05   3
   4  -1  13  807.96   51.19   4
  -1  -3  13  778.85   48.89   3
  -3   4  13  726.20   49.52   2
  -1  -3  13  708.55   50.10   5
  -3   4  13  782.23   49.30   1
  -3   4  13  730.00   49.11   4
  -4   1 -13  786.44   50.33   1
  -1  -3  13  704.86   47.82   1
   4  -1  13  701.59   48.66   3
  -2   4  13    7.93   11.76   1
  -2  -2  13    7.28   14.04   5
   4  -2  13  -17.11   19.01   3
   4  -2  13   25.63   17.12   4
  -2  -2  13   -7.38   11.20   1
  -2   4  13   19.92   18.02   4
  -4   2 -13   -3.89   11.63   1
  -2   4  13  -10.87   13.16   2
  -4   3 -13  747.95   50.10   1
   4  -3  13  742.69   52.15   3
  -3  -1  13  716.67   44.95   2
  -1   4  13  833.18   48.79   2
  -1   4  13  685.79   52.20   4
  -3  -1  13  749.07   48.20   1
  -3  -1  13  782.41   50.76   5
   1  -4 -13  742.22   48.87   1
  -4   0  13  570.29   37.60   2
  -4   0  13  579.33   40.46   1
  -4   0  13  606.83   41.64   5
   0  -4 -13  485.68   39.92   1
  -4   4 -13  552.28   41.49   1
   0   4  13  496.04   44.80   4
   0   4  13  548.85   37.51   2
   4  -4  13  679.30   48.52   3
   4  -5  13   13.57   16.45   5
   1   4  13  -36.44   29.90   4
   1   4  13   11.26   14.53   2
  -5   1  13   -3.47   18.01   1
   4  -5  13   18.28   23.82   3
  -5   1  13   -4.07   16.68   5
  -4   5 -13   15.79   19.69   1
  -5   1  13   23.09   16.57   2
  -1  -4 -13  -12.88   15.16   1
   2   4  13  333.73   44.82   4
  -6   2  13  356.90   36.08   2
   4  -6  13  398.84   31.69   5
   4  -6  13  411.59   42.64   3
  -6   2  13  443.15   33.86   5
  -2  -4 -13  385.37   38.23   1
  -4   6 -13  365.96   38.49   1
  -6   2  13  401.83   40.36   1
  -5  -1 -13  448.39   44.63   1
   1  -6  13  465.83   42.08   3
   5   1  13  430.60   45.36   4
   1  -6  13  437.01   44.18   1
   1  -6  13  484.92   42.43   5
  -6   5  13  471.74   45.42   1
  -6   5  13  548.76   46.70   2
   0  -5  13  575.89   46.33   5
   0  -5  13  604.43   42.30   3
   5   0  13  489.25   38.39   3
   5   0  13  577.79   43.69   4
  -5   0 -13  531.30   45.18   1
  -5   5  13  516.76   45.51   2
  -5   5  13  545.86   45.77   1
   0  -5  13  561.93   45.07   1
  -4   5  13    4.80   19.65   1
  -5   1 -13    6.00   15.14   1
   5  -1  13  -34.47   19.51   3
  -1  -4  13  -10.17   25.60   5
  -1  -4  13  -15.36   19.07   1
  -1  -4  13   14.00   19.91   3
  -4   5  13  -28.40   19.58   2
  -4   5  13    9.17   16.67   4
   5  -2  13  556.43   40.64   4
  -2  -3  13  525.58   41.57   5
  -3   5  13  507.71   41.32   1
  -3   5  13  545.35   41.80   4
  -3   5  13  531.08   42.68   2
  -5   2 -13  534.98   41.53   1
  -2  -3  13  568.23   41.54   1
   5  -2  13  522.22   42.68   3
  -5   3 -13  533.09   40.97   1
  -3  -2  13  537.57   40.14   5
   5  -3  13  498.38   42.89   3
  -2   5  13  469.72   39.13   2
  -3  -2  13  550.42   40.12   1
  -2   5  13  532.06   40.86   1
  -2   5  13  457.68   42.14   4
  -4  -1  13    6.46   15.50   2
  -4  -1  13    0.60   16.63   1
  -1   5  13    1.84   17.29   2
  -5   4 -13   12.75   19.18   1
   1  -5 -13   -9.81   15.24   1
  -1   5  13   -9.72   24.23   4
   5  -4  13  -47.94   27.40   3
  -4  -1  13  -10.90   16.50   5
  -5   0  13  570.29   37.93   2
   0   5  13  592.92   39.22   2
   5  -5  13  542.34   46.24   3
  -5   5 -13  514.78   44.40   1
  -5   0  13  547.23   40.33   5
   0   5  13  516.75   49.09   4
  -5   0  13  517.92   42.95   1
   0  -5 -13  558.96   45.23   1
   1   5  13  378.11   45.45   4
  -6   1  13  496.61   39.30   5
   5  -6  13  506.63   49.25   3
  -5   6 -13  504.77   45.13   1
  -1  -5 -13  397.92   42.44   1
  -6   1  13  431.11   36.02   2
  -6   1  13  414.51   41.85   1
  -1  -5  13  384.14   39.40   5
  -5   6  13  461.84   44.58   1
   6  -1  13  369.00   37.21   3
   6  -1  13  540.12   40.01   4
  -1  -5  13  381.23   42.93   1
  -5   6  13  486.04   42.01   2
  -6   1 -13  494.06   44.77   1
  -2  -4  13  412.49   38.13   5
   6  -2  13  415.41   35.80   4
  -4   6  13  372.18   40.49   1
   6  -2  13  439.25   38.85   3
  -4   6  13  392.32   36.66   2
  -4   6  13  407.74   33.49   4
  -6   2 -13  345.22   39.03   1
  -2  -4  13  368.77   39.23   1
  -6   3 -13   16.56   20.07   1
  -3   6  13  -12.53   20.63   4
  -3  -3  13    6.26   25.60   5
   6  -3  13  -46.81   27.02   3
  -3   6  13   10.61   21.34   2
  -3  -3  13  -13.48   18.88   1
  -3   6  13  -18.84   22.87   1
  -6   4 -13  334.18   37.35   1
   2  -6 -13  314.50   36.43   1
  -4  -2  13  392.89   35.58   5
  -2   6  13  404.92   38.05   2
  -4  -2  13  405.27   39.28   1
  -2   6  13  438.34   39.63   4
   6  -4  13  406.72   43.42   3
   6  -5  13  413.57   48.20   3
  -6   5 -13  413.62   42.14   1
  -1   6  13  386.53   42.64   4
   1  -6 -13  430.95   42.65   1
  -5  -1  13  436.79   42.10   1
  -5  -1  13  493.35   43.10   5
  -1   6  13  456.15   34.83   2
   0   0  14  334.34   30.49   4
   0   0  14  362.45   29.61   3
   0   0  14  347.58   27.98   2
   0   0  14  306.96   28.37   5
   1   0  14  248.77   25.03   4
  -1   1  14  259.75   27.59   4
   1   0  14  246.97   25.48   3
  -1   1  14  201.35   22.86   2
  -1   1  14  215.36   23.25   5
   0  -1  14  253.36   23.30   5
   0  -1  14  205.28   25.17   3
  -1   0  14  209.56   24.75   3
   1  -1  14  198.00   24.35   4
   0   1  14  195.57   23.85   3
   1  -1  14  231.46   24.49   5
  -1   0  14  206.06   23.66   5
   1  -1  14  246.04   24.93   3
  -1   0  14  265.83   24.23   2
   0   1  14  226.58   27.15   4
   0   1  14  244.11   23.76   2
   1   1  14  462.04   32.60   2
   1  -2  14  430.64   35.71   3
  -2   1  14  416.09   33.07   2
   1   1  14  488.91   35.88   4
   1   1  14  428.44   33.79   3
   1  -2  14  467.21   34.06   5
  -2   1  14  403.33   32.64   5
   2   1  14  219.11   27.46   4
  -3   2  14  155.46   22.81   2
   1  -3  14  169.86   19.82   5
  -3   2  14  156.99   21.63   5
   2   1  14  179.08   21.57   3
   1  -3  14  214.10   25.84   3
   0  -2  14  721.84   49.91   3
   0  -2  14  806.48   49.79   5
  -2   2  14  778.35   52.54   4
  -2   2  14  751.28   48.52   2
   2   0  14  810.33   49.48   3
   2   0  14  815.21   53.50   4
  -1  -1  14  454.26   32.96   2
  -1  -1  14  466.13   35.34   5
   2  -1  14  485.52   36.98   4
  -1   2  14  461.11   34.47   2
  -1  -1  14  507.15   36.35   3
   2  -1  14  407.94   35.40   3
  -1   2  14  460.81   37.13   4
  -2   0  14  773.25   49.29   5
   0   2  14  712.74   52.49   4
   2  -2  14  833.27   50.70   3
   0   2  14  767.36   46.65   2
   2  -2  14  769.08   47.53   5
  -2   0  14  793.73   48.42   2
   1   2  14  194.91   23.15   2
  -3   1  14  218.25   23.54   2
   2  -3  14  165.55   22.10   5
   2  -3  14  209.35   27.62   3
   1   2  14  188.46   27.83   4
  -3   1  14  161.74   21.17   5
   2  -4  14  238.33   22.83   5
   2  -4  14  270.87   32.54   3
  -2   4 -14  203.24   20.89   1
  -4   2  14  205.03   19.90   1
  -4   2  14  201.28   24.75   5
  -2  -2 -14  206.40   20.60   1
   2   2  14  236.36   31.10   4
  -4   2  14  232.77   27.25   2
   2  -5  14   98.06   23.91   5
   2  -5  14  150.07   28.96   3
   3   2  14  161.47   28.80   4
  -5   3  14   82.64   24.88   2
  -3  -2 -14   83.40   20.05   1
   1  -4  14  187.61   26.95   3
   3   1  14  163.34   21.68   3
  -3  -1 -14  173.16   18.62   1
  -4   3  14  164.92   18.41   1
  -1   4 -14  166.74   19.14   1
   3   1  14  114.94   27.07   4
  -4   3  14  149.58   24.98   2
   1  -4  14  121.84   20.00   5
   3   0  14  334.22   32.92   4
   3   0  14  326.27   28.23   3
  -3   3  14  366.45   32.29   2
  -3   0 -14  289.14   23.17   1
   0  -3  14  368.43   30.85   3
   0  -3  14  323.45   23.09   1
  -3   3  14  339.60   30.50   4
   0  -3  14  299.31   30.43   5
  -1  -2  14  185.65   23.03   3
  -2   3  14  193.08   25.02   2
   3  -1  14  208.87   24.25   4
  -1  -2  14  247.50   26.97   5
   3  -1  14  220.03   22.32   3
  -2   3  14  168.06   24.12   4
  -1   3  14  230.21   26.95   4
  -2  -1  14  234.38   23.55   5
   3  -2  14  223.30   22.93   4
  -1   3  14  170.47   24.36   2
   3  -2  14  177.42   26.20   3
  -2  -1  14  222.64   20.74   2
  -3   0  14  274.92   25.22   2
  -3   3 -14  276.11   22.00   1
   3  -3  14  307.04   26.90   5
   0   3  14  308.04   33.45   4
   3  -3  14  330.45   34.67   3
   0   3  14  315.40   28.37   2
  -3   0  14  305.33   26.82   5
   3  -4  14  112.01   21.18   5
  -3   4 -14  165.20   18.70   1
  -4   1  14  121.65   22.26   2
  -4   1  14  179.95   18.07   1
  -4   1  14  156.93   23.62   5
   1   3  14  126.19   29.08   4
   1   3  14  162.17   21.34   2
  -1  -3 -14  151.33   18.19   1
   3  -4  14  143.41   29.03   3
  -2  -3 -14   95.33   20.17   1
  -3   5 -14  138.73   21.94   1
   2   3  14   69.03   29.67   4
  -5   2  14  103.25   24.81   2
   3  -5  14  139.81   29.66   3
  -5   2  14  152.40   22.75   5
   3  -5  14   92.95   22.82   5
   3   3  14  147.32   36.84   4
   3  -6  14  183.48   26.56   5
   3  -6  14  113.30   34.35   3
   2  -6  14  299.66   32.42   3
   2  -6  14  227.41   30.77   5
  -6   4  14  321.97   37.62   2
   4   2  14  329.89   39.97   4
   4   1  14  253.06   31.66   4
  -5   4  14  207.24   29.65   2
   1  -5  14  246.10   31.33   5
  -4  -1 -14  176.48   23.77   1
   1  -5  14  177.52   30.56   3
   4   1  14  251.56   25.11   3
   1  -5  14  175.26   25.80   1
  -4   0 -14  538.19   37.58   1
   0  -4  14  490.19   36.13   1
   4   0  14  448.10   36.61   3
  -4   4  14  454.63   35.51   1
   0  -4  14  509.35   39.64   3
   4   0  14  457.03   38.92   4
  -4   4  14  496.42   41.50   2
   0  -4  14  466.34   40.85   5
  -1  -3  14  155.04   21.20   3
   4  -1  14  110.08   23.81   3
  -3   4  14  198.61   19.85   1
  -4   1 -14  203.30   19.52   1
  -1  -3  14  168.04   18.81   1
  -3   4  14  119.63   25.44   2
  -1  -3  14  174.54   23.17   5
   4  -1  14  153.84   25.84   4
  -4   2 -14  204.96   20.36   1
  -2  -2  14  225.95   20.56   1
   4  -2  14  150.68   26.93   3
   4  -2  14  200.54   25.98   4
  -2   4  14  260.23   29.77   2
  -2  -2  14  179.59   28.16   5
  -2   4  14  199.98   27.03   4
  -2   4  14  242.96   20.48   1
  -1   4  14  142.97   19.86   2
  -1   4  14  149.78   24.77   4
  -3  -1  14  139.78   19.76   2
  -3  -1  14  149.97   26.69   5
   4  -3  14  158.15   28.57   3
  -3  -1  14  187.38   18.96   1
  -4   3 -14  176.98   19.83   1
  -4   4 -14  530.09   37.17   1
   0   4  14  444.59   42.94   4
  -4   0  14  533.46   39.81   5
   0  -4 -14  490.46   36.93   1
  -4   0  14  488.95   35.75   1
   0   4  14  462.19   35.85   2
  -4   0  14  456.96   35.95   2
   4  -4  14  409.48   40.44   3
   4  -5  14  181.97   32.15   3
  -5   1  14  223.12   28.74   5
   4  -5  14  235.96   25.30   5
  -5   1  14  223.24   27.50   2
   1   4  14  244.19   24.95   2
   1   4  14  246.64   37.88   4
  -4   5 -14  193.37   26.66   1
   2   4  14  361.52   43.59   4
  -6   2  14  351.83   32.43   5
   4  -6  14  293.44   27.85   5
  -6   2  14  263.52   30.79   2
   4  -6  14  271.79   39.93   3
  -5   5  14  100.58   27.90   2
   0  -5  14  121.68   23.57   5
   5   0  14  187.80   32.41   4
   0  -5  14  143.00   22.44   3
   5   0  14  103.62   21.60   3
  -4   5  14  199.18   31.20   2
  -1  -4  14  259.98   34.96   5
   5  -1  14  268.30   32.57   4
  -1  -4  14  244.91   27.31   1
   5  -1  14  194.56   28.92   3
  -5   1 -14  162.25   26.04   1
  -4   5  14  236.57   27.81   4
  -1  -4  14  266.40   29.66   3
  -3   5  14   93.65   23.29   4
   5  -2  14   75.89   25.66   3
   5  -2  14  129.77   24.62   4
  -2  -3  14  146.05   20.76   1
  -3   5  14  124.82   26.60   2
  -3   5  14  104.39   20.86   1
  -5   2 -14  130.59   21.52   1
  -2  -3  14  144.51   29.55   5
  -5   3 -14  144.70   21.61   1
  -3  -2  14  115.44   26.58   5
  -2   5  14  141.07   21.47   1
  -2   5  14  141.70   26.92   4
   5  -3  14   81.69   21.76   3
  -2   5  14  108.68   23.44   2
  -3  -2  14  156.68   22.37   1
  -4  -1  14  266.36   26.20   2
  -1   5  14  214.75   34.67   4
  -1   5  14  258.07   29.95   2
   5  -4  14  227.90   35.53   3
  -4  -1  14  227.40   32.52   5
   5  -5  14  191.84   34.66   3
  -5   0  14  100.95   17.81   2
  -5   0  14  181.64   29.63   5
   0   5  14  151.99   22.86   2
   0   5  14  125.08   26.44   4
   6  -2  14  305.68   35.38   4
   6  -2  14  265.71   36.47   3
  -4   6  14  298.86   36.19   2
  -2  -4  14  307.43   38.68   5
  -4   6  14  331.15   34.11   4
  -3   6  14  221.64   31.39   2
  -3   6  14  140.67   28.77   4
   6  -3  14  125.78   33.19   3
  -3  -3  14  193.49   32.53   5
   6  -4  14  300.22   41.09   3
  -2   6  14  203.16   35.13   4
  -4  -2  14  318.04   38.72   5
  -2   6  14  265.44   29.86   2
   0   0  15   -2.80   10.88   2
   0   0  15  -12.45   12.39   5
   0   0  15   -9.87   13.13   3
   0   0  15  -17.66   18.47   4
  -1   1  15  205.71   24.89   5
   0  -1  15  200.59   25.36   3
  -1   1  15  242.76   22.98   2
   1   0  15  233.28   25.40   3
   0  -1  15  207.76   25.45   5
   1   0  15  215.98   23.73   4
  -1   1  15  241.56   26.64   4
   1  -1  15  202.16   24.84   4
   1  -1  15  173.68   23.93   5
   1  -1  15  201.88   24.30   3
  -1   0  15  188.61   21.78   2
   0   1  15  216.93   24.04   2
   0   1  15  229.41   24.06   4
   0   1  15  196.12   21.92   3
  -1   0  15  223.35   25.10   5
   1   1  15    4.73   14.88   3
   1  -2  15    1.03   12.46   3
   1   1  15   -4.03   17.02   2
   1   1  15    8.86   19.76   4
   1  -2  15    3.37   11.84   5
  -2   1  15   -5.17   13.19   2
  -2   1  15   10.21   18.52   5
   2   1  15  165.35   22.84   3
   1  -3  15  182.38   26.12   3
  -3   2  15  133.12   23.63   2
   2   1  15  179.69   24.10   4
  -3   2  15  145.09   23.02   5
   1  -3  15  154.14   23.98   5
   0  -2  15  536.61   40.04   5
  -2   2  15  568.09   41.31   2
   0  -2  15  526.66   41.50   3
   2   0  15  544.96   38.68   3
  -2   2  15  521.21   42.33   4
   2   0  15  613.99   42.94   4
  -1  -1  15   27.08   18.83   3
  -1  -1  15   -0.67   12.25   5
  -1   2  15   22.69   17.41   4
   2  -1  15   -5.21   16.81   3
   2  -1  15   -3.42   18.66   4
  -1   2  15    5.19   12.28   2
  -1  -1  15   -8.93   15.55   2
   2  -2  15  498.83   37.21   5
   2  -2  15  532.49   40.69   3
   0   2  15  509.76   39.81   4
  -2   0  15  509.66   37.44   2
   0   2  15  487.05   37.45   2
  -2   0  15  566.65   40.46   5
  -3   1  15  150.50   19.69   5
   1   2  15  162.74   22.63   2
  -3   1  15  181.54   23.43   2
   2  -3  15  158.33   22.19   5
   1   2  15  130.13   23.00   4
   2  -3  15  156.75   25.81   3
   2   2  15  -16.59   17.69   4
   2  -4  15   32.89   20.03   5
  -4   2  15    7.62   19.39   2
   2  -4  15    6.27   22.98   3
  -4   2  15   11.28   18.69   5
   2  -5  15   80.03   27.26   3
   2  -5  15  143.87   24.98   5
  -5   3  15   68.17   26.66   2
   3   2  15  124.58   30.71   4
   1  -4  15   80.89   24.65   3
   1  -4  15  160.53   27.06   5
   3   1  15  175.22   29.25   4
   3   1  15  133.31   23.31   3
  -4   3  15  133.58   27.73   2
   0  -3  15   12.42   15.41   5
  -3   3  15   23.60   15.02   4
   3   0  15    0.62   19.86   4
   0  -3  15  -12.44   14.81   3
  -3   3  15   11.31   21.45   2
   3   0  15  -11.45   18.12   3
  -2   3  15  191.30   26.41   4
  -1  -2  15  177.17   26.06   3
  -1  -2  15  148.52   25.21   5
  -2   3  15  146.44   20.39   2
   3  -1  15  139.19   25.12   4
   3  -1  15  161.95   24.95   3
  -1   3  15  146.10   25.34   4
  -2  -1  15  154.11   25.99   5
   3  -2  15  169.11   24.16   3
   3  -2  15  191.50   25.34   4
  -1   3  15  134.96   23.53   2
  -2  -1  15  115.20   20.44   2
  -3   0  15  -19.46   21.54   5
   0   3  15    3.15   18.46   4
   3  -3  15   10.33   20.70   3
  -3   0  15  -18.04   13.16   2
   3  -3  15   22.29   16.46   5
   0   3  15   34.83   18.50   2
  -4   1  15  127.29   24.46   5
  -4   1  15  169.22   24.27   2
   1   3  15   79.98   29.87   4
   3  -4  15  109.47   28.52   3
   1   3  15  161.21   23.27   2
   3  -4  15  178.19   24.03   5
   3  -5  15  101.48   24.15   5
  -5   2  15  127.75   23.65   5
  -5   2  15  127.81   25.39   2
   2   3  15  122.74   26.08   4
   3  -5  15  205.40   34.11   3
   1  -5  15   -8.25   19.97   5
   4   1  15   36.19   27.55   4
   4   1  15  -20.86   18.67   3
   1  -5  15   13.57   17.86   3
  -5   4  15   26.07   25.14   2
   0  -4  15  327.68   32.29   5
   4   0  15  301.27   37.52   4
   0  -4  15  337.86   34.72   3
   4   0  15  383.73   33.77   3
  -4   4  15  310.31   32.27   2
   4  -1  15  153.97   26.38   3
  -3   4  15  125.78   26.95   4
   4  -1  15  170.45   26.39   4
  -1  -3  15  127.96   27.38   5
  -3   4  15  171.62   27.01   2
  -1  -3  15  135.12   25.20   3
  -2  -2  15  -43.94   24.05   5
   4  -2  15   -1.35   20.22   4
  -2   4  15  -23.20   22.21   4
   4  -2  15    1.89   15.88   3
  -2   4  15   36.81   22.82   2
  -1   4  15  179.19   31.34   4
  -1   4  15  136.68   25.37   2
  -3  -1  15  172.68   23.72   5
  -3  -1  15  111.70   18.51   2
   4  -3  15  183.99   25.86   3
   0   4  15  368.94   41.26   4
   0   4  15  357.26   30.97   2
  -4   0  15  317.82   35.06   5
  -4   0  15  358.33   32.41   2
   4  -4  15  368.76   40.54   3
   4  -5  15   17.74   29.72   3
  -5   1  15    5.02   20.24   5
   1   4  15   14.89   20.15   4
   4  -5  15   -5.48   18.32   5
  -5   1  15   23.77   16.16   2
   1   4  15    0.79   19.88   2
   5   0  15   93.28   30.05   4
   0  -5  15  149.44   33.42   5
   5   0  15  126.12   23.29   3
   0  -5  15   80.09   24.07   3
  -5   5  15   84.45   29.33   2
  -4   5  15  -23.91   21.88   4
  -4   5  15  -13.90   25.51   2
  -1  -4  15   14.09   17.82   3
   5  -1  15   11.12   20.56   3
  -1  -4  15   43.27   24.36   5
   5  -1  15   48.72   23.87   4
  -2  -3  15  165.26   32.69   5
  -3   5  15  118.17   22.78   2
  -3   5  15  131.08   25.70   4
   5  -2  15   99.05   27.91   3
   5  -2  15  135.53   28.08   4
  -3  -2  15  128.53   29.33   5
   5  -3  15  151.05   31.39   3
  -2   5  15  129.31   31.34   4
  -2   5  15  125.13   26.43   2
  -1   5  15   11.92   20.25   4
  -1   5  15   16.52   23.16   2
   5  -4  15   -2.42   20.38   3
  -4  -1  15    4.86   25.63   5
   5  -5  15   62.20   33.26   3
  -5   0  15   78.98   21.13   2
   0   5  15  119.98   27.73   2
   0   5  15  120.84   36.04   4
  -5   0  15  105.78   26.60   5
   0   0  16  344.77   32.19   3
   0   0  16  384.60   30.51   5
   0   0  16  359.62   29.63   2
   0   0  16  362.28   35.96   4
   0  -1  16  173.14   24.19   3
  -1   1  16  132.39   22.65   2
   0  -1  16  174.59   24.07   5
  -1   1  16  140.75   20.69   4
   1   0  16  179.67   22.64   4
   1   0  16  133.62   24.05   3
   0   1  16  162.99   22.52   4
   1  -1  16  145.11   21.75   3
   0   1  16  160.70   22.97   2
  -1   0  16  145.86   23.69   5
   1  -1  16  160.74   22.25   4
  -1   0  16  144.80   20.84   2
   1  -1  16  160.45   23.19   5
  -2   1  16 1458.46   78.14   5
  -2   1  16 1335.45   76.28   2
   1   1  16 1278.53   82.41   4
   1  -2  16 1312.02   79.45   3
   1  -2  16 1357.83   76.44   5
   1   1  16 1362.91   78.05   3
  -3   2  16  135.20   25.07   2
   2   1  16  103.71   22.70   3
   1  -3  16  127.76   26.82   3
   1  -3  16  107.30   23.55   5
   2   1  16   87.97   26.63   4
  -2   2  16  230.16   30.27   4
   0  -2  16  215.93   28.18   3
   2   0  16  258.72   27.55   3
  -2   2  16  267.10   26.47   2
   0  -2  16  254.46   29.61   5
   2   0  16  187.68   28.85   4
  -1   2  16 1398.69   77.75   2
  -1  -1  16 1421.29   78.96   5
  -1   2  16 1352.70   81.84   4
   2  -1  16 1368.68   83.25   4
   2  -1  16 1355.75   79.18   3
  -1  -1  16 1352.45   80.34   3
   0   2  16  258.63   28.48   2
  -2   0  16  273.73   28.09   2
   2  -2  16  225.63   26.74   3
   2  -2  16  260.94   27.92   5
  -2   0  16  278.59   30.00   5
   0   2  16  217.67   31.94   4
   1   2  16   77.38   21.53   2
   2  -3  16   86.04   17.17   5
   1   2  16   94.84   28.32   4
   2  -3  16  139.91   27.35   3
  -3   1  16  123.67   23.77   5
  -3   1  16   91.21   22.90   2
  -4   2  16  216.22   30.90   2
   2   2  16  312.81   37.68   4
   2  -4  16  209.42   28.39   5
   2  -4  16  269.13   34.87   3
  -4   2  16  266.64   29.01   5
   3   2  16  115.59   34.40   4
   2  -5  16  134.48   32.81   3
  -5   3  16  122.00   23.57   2
  -4   3  16  116.79   22.37   2
   3   1  16   82.43   22.69   3
   1  -4  16  121.90   28.38   3
   1  -4  16  129.35   27.32   5
  -3   3  16 1047.94   67.43   4
   0  -3  16 1079.54   66.35   5
   3   0  16 1066.72   65.73   3
   0  -3  16 1036.01   65.75   3
  -3   3  16  995.94   64.59   2
   3   0  16 1084.77   70.42   4
   3  -1  16  120.78   20.47   3
  -1  -2  16  131.47   24.09   5
  -2   3  16   95.36   23.39   4
   3  -1  16  114.43   24.73   4
  -2   3  16  138.30   25.88   2
  -1  -2  16   93.44   25.70   3
   3  -2  16  107.42   26.48   4
  -2  -1  16  127.01   22.81   2
  -1   3  16  116.32   23.52   2
   3  -2  16   91.55   25.24   3
  -2  -1  16  131.79   21.55   5
  -1   3  16  133.60   28.15   4
  -3   0  16 1038.43   64.29   5
   0   3  16 1102.08   72.67   4
   0   3  16 1080.55   63.12   2
   3  -3  16  951.90   68.39   3
   3  -3  16 1072.34   61.49   5
  -3   0  16 1026.03   62.90   2
   3  -4  16  100.97   24.37   3
  -4   1  16   90.73   25.33   2
   1   3  16  120.42   25.51   4
  -4   1  16  132.59   25.76   5
   3  -4  16  109.26   25.57   5
   1   3  16  103.04   25.09   2
   3  -5  16  105.35   25.43   3
  -5   2  16   69.59   23.54   5
   3  -5  16   91.93   20.27   5
   2   3  16  103.90   34.68   4
  -5   2  16   62.90   25.90   2
   4   1  16  677.98   47.41   3
   1  -5  16  737.58   54.87   3
  -5   4  16  666.05   52.47   2
   4   1  16  717.99   54.52   4
   1  -5  16  614.20   51.67   5
   4   0  16  189.56   27.00   4
   0  -4  16  162.60   29.82   3
  -4   4  16  199.71   32.80   2
   4   0  16  167.51   22.62   3
   0  -4  16  155.63   30.17   5
  -1  -3  16   72.29   28.87   5
  -3   4  16   97.89   26.89   4
  -3   4  16   99.64   26.71   2
   4  -1  16  119.34   26.77   3
  -1  -3  16  138.01   27.88   3
   4  -1  16   92.99   20.80   4
   4  -2  16  274.99   30.70   4
  -2   4  16  263.53   30.62   2
   4  -2  16  294.99   34.99   3
  -2   4  16  202.04   29.39   4
  -2  -2  16  237.96   28.44   5
  -1   4  16   95.92   20.24   2
  -1   4  16  111.46   29.48   4
  -3  -1  16   93.66   26.21   5
  -3  -1  16  125.62   23.00   2
   4  -3  16   96.99   30.40   3
   4  -4  16  153.87   33.37   3
   0   4  16  153.97   25.94   2
   0   4  16  183.61   35.15   4
  -4   0  16  159.38   26.53   2
  -4   0  16  167.21   28.89   5
   4  -5  16  641.09   45.63   5
  -5   1  16  616.32   47.51   2
   4  -5  16  735.26   57.12   3
  -5   1  16  686.74   49.30   5
   1   4  16  705.34   59.61   4
   5  -1  16  654.82   53.28   4
  -4   5  16  631.14   50.64   4
  -1  -4  16  663.15   49.86   3
  -1  -4  16  730.24   55.05   5
   5  -1  16  678.47   51.79   3
  -4   5  16  773.60   52.85   2
   5  -2  16   91.40   28.98   3
  -3   5  16  136.48   29.84   2
   5  -2  16  109.55   26.44   4
  -3   5  16   72.94   23.30   4
  -2  -3  16  124.33   26.17   5
   5  -3  16  164.95   35.29   3
  -3  -2  16   90.33   23.26   5
  -2   5  16  115.75   22.17   2
  -2   5  16   73.50   29.93   4
  -1   5  16  715.68   59.78   4
  -1   5  16  701.09   50.42   2
   5  -4  16  738.54   60.47   3
  -4  -1  16  656.58   52.60   5
   0   0  17   -8.01   20.50   3
   0   0  17   -7.72   18.10   2
   0   0  17  -35.19   23.47   4
   0   0  17   32.32   19.84   5
   1   0  17   62.16   21.72   3
  -1   1  17   61.84   18.95   4
  -1   1  17   32.88   21.63   2
   1   0  17   70.51   21.37   4
   0  -1  17   85.78   23.25   5
   0  -1  17   57.88   23.33   3
  -1   0  17   32.20   22.49   5
   0   1  17   50.90   25.29   4
  -1   0  17   51.84   16.38   2
   1  -1  17   73.52   22.89   3
   0   1  17   57.18   20.91   2
   1  -1  17   54.79   20.59   5
   1   1  17  -16.50   15.52   3
  -2   1  17   -5.95   20.45   2
  -2   1  17    1.04   20.86   5
   1  -2  17   18.03   22.96   3
   1  -3  17   35.71   21.33   5
  -3   2  17  -12.36   22.89   2
   2   1  17   22.47   21.42   3
   2   1  17   66.95   24.39   4
   1  -3  17   50.21   24.94   3
  -2   2  17  202.12   31.45   4
   2   0  17  231.68   29.18   3
   0  -2  17  239.01   31.50   3
   2   0  17  205.39   31.28   4
   0  -2  17  215.78   27.06   5
  -2   2  17  249.48   30.18   2
   2  -1  17  -19.67   21.47   4
  -1  -1  17   -2.04   16.22   3
   2  -1  17   -2.10   21.13   3
  -1   2  17   -2.37   22.03   4
  -1   2  17   -1.79   22.04   2
  -1  -1  17   22.95   22.14   5
   0   2  17  184.12   31.96   4
  -2   0  17  203.61   28.89   2
   0   2  17  306.23   31.46   2
   2  -2  17  249.64   32.87   3
   2  -2  17  217.06   28.64   5
  -2   0  17  238.27   25.70   5
   1   2  17   54.25   21.79   4
   2  -3  17   43.40   17.91   5
  -3   1  17   30.04   21.52   2
   2  -3  17   38.69   24.50   3
  -3   1  17   30.86   24.10   5
  -4   2  17   -1.41   22.95   2
   2   2  17   42.31   22.22   4
  -4   2  17  -22.88   23.80   5
   2  -4  17    4.88   26.50   3
   2  -4  17   11.49   21.79   5
   3   1  17   68.27   28.92   4
   1  -4  17   18.83   26.90   5
  -4   3  17   71.06   26.51   2
   1  -4  17   58.10   26.86   3
   3   0  17  -22.12   25.13   4
  -3   3  17   -1.48   24.09   2
   3   0  17   12.46   20.17   3
   0  -3  17   33.02   22.50   5
   0  -3  17   35.17   25.42   3
  -2   3  17   33.91   19.65   4
   3  -1  17    8.95   26.18   4
  -2   3  17   46.81   19.13   2
  -1  -2  17   31.22   25.00   3
   3  -1  17   49.57   25.19   3
  -1  -2  17   37.00   27.48   5
  -2  -1  17   63.04   27.99   5
   3  -2  17   22.04   23.04   3
  -1   3  17   30.22   22.90   2
  -1   3  17   -2.41   17.59   4
   0   3  17    0.22   15.36   2
   3  -3  17    7.99   26.51   3
   0   3  17   -1.51   20.32   4
  -3   0  17   -9.66   21.32   2
  -3   0  17   29.57   23.27   5
  -4   1  17    4.05   20.30   2
  -4   1  17   58.60   18.74   5
   1   3  17   46.42   32.36   4
   3  -4  17   66.80   25.00   5
   3  -4  17   56.88   29.74   3
   4   0  17  129.68   33.70   4
  -4   4  17  162.64   29.43   2
   0  -4  17  122.23   27.32   5
   4   0  17  126.80   26.60   3
   0  -4  17  152.04   31.37   3
  -1  -3  17   54.34   26.96   3
  -1  -3  17   82.50   22.81   5
  -3   4  17   22.04   25.01   2
   4  -1  17   24.90   25.28   4
   4  -2  17   -5.22   22.27   4
  -2   4  17  -20.04   25.72   4
  -2   4  17   37.13   24.50   2
   4  -2  17   -9.16   25.41   3
  -2  -2  17  -35.69   28.22   5
   4  -3  17   40.32   26.64   3
  -3  -1  17   28.14   18.49   5
  -1   4  17   23.96   30.30   4
  -1   4  17   21.41   22.87   2
   0   4  17  158.30   29.12   2
   0   4  17  151.13   29.93   4
  -4   0  17  150.91   30.61   5
  -4   0  17  185.18   27.12   2
   4  -4  17  177.51   29.59   3
   0   0  18  560.94   46.58   3
   1   0  18   -4.45   23.70   3
   0  -1  18  -10.25   23.18   3
   1   0  18   -7.56   23.39   4
  -1   1  18   11.33   17.02   4
   0  -1  18  -33.75   24.77   5
  -1   1  18    0.42   22.24   2
   0   1  18  -20.58   26.49   4
   0   1  18    7.80   21.22   2
  -1   0  18    6.96   15.65   2
  -1   0  18  101.52   27.92   5
   1  -1  18   46.35   25.12   3
  -2   1  18  872.47   55.30   2
   1  -2  18  780.99   57.15   5
   1   1  18  825.56   61.59   4
   1  -2  18  870.55   59.44   3
  -2   1  18  878.34   57.25   5
   1  -3  18   19.36   24.64   5
   2   1  18  -12.79   26.46   4
   1  -3  18   -6.19   18.17   3
  -3   2  18  -33.44   25.05   2
   0  -2  18   66.24   27.22   3
   2   0  18  104.01   27.50   3
  -2   2  18   49.26   22.98   2
   2   0  18   58.68   27.61   4
   0  -2  18   58.15   25.83   5
   2  -1  18  984.86   63.86   3
  -1  -1  18  874.64   58.68   5
  -1   2  18  902.96   59.19   2
  -1   2  18  864.23   64.62   4
   2  -1  18  871.34   61.92   4
  -2   0  18   74.89   25.38   5
  -2   0  18   68.87   24.03   2
   0   2  18  104.62   24.23   4
   0   2  18   68.48   24.13   2
   2  -2  18   62.65   27.29   3
   1   2  18   -2.28   28.94   4
  -3   1  18   20.20   22.28   2
   2  -3  18   50.61   28.62   3
   2  -3  18  -38.05   22.85   5
  -3   1  18  -10.68   25.24   5
   2   2  18  364.57   45.36   4
   2  -4  18  374.55   40.46   3
   2  -4  18  333.83   37.09   5
  -4   2  18  440.89   39.75   2
   1  -4  18  -22.14   26.82   5
   1  -4  18    1.57   22.32   3
   3   1  18   36.74   28.09   4
  -4   3  18   -6.20   19.31   2
   0  -3  18  737.09   55.72   5
   3   0  18  726.56   51.78   3
   0  -3  18  726.16   55.87   3
  -3   3  18  797.49   54.77   2
   3   0  18  709.88   54.00   4
   3  -1  18    4.87   24.52   4
  -2   3  18  -25.44   22.14   4
  -1  -2  18   33.28   24.71   5
   3  -1  18   12.03   26.01   3
  -2   3  18   -2.01   24.43   2
  -1   3  18   14.45   20.89   2
  -1   3  18   15.95   25.85   4
  -2  -1  18   42.70   27.59   5
   3  -2  18   19.52   25.67   3
   0   3  18  742.75   51.38   2
   3  -3  18  797.21   58.65   3
  -3   0  18  637.52   50.06   2
   0   3  18  689.06   58.32   4
  -3   0  18  785.20   54.77   5
   1   3  18   23.57   28.25   4
   3  -4  18    5.18   21.45   3
  -4   1  18    5.11   25.33   5
  -4   1  18   24.58   23.77   2
   3  -4  18  -24.67   20.73   5
   4  -1  18  -27.53   30.22   4
  -3   4  18   27.77   24.51   2
  -1  -3  18   -6.57   28.41   5
   4  -1  18  -46.14   29.38   3
  -3   4  18   16.62   27.71   4
  -2   4  18  402.15   39.48   2
  -2   4  18  452.56   44.54   4
   4  -2  18  403.03   40.54   4
  -2  -2  18  435.34   39.87   5
   4  -3  18    6.04   31.59   3
  -1   4  18   -9.62   25.92   2
  -1   4  18  -17.74   22.46   4
  -3  -1  18  -31.72   29.43   5
  -1   1  19  189.00   30.75   2
   0  -1  19  163.98   30.47   5
   1   0  19  169.73   32.48   3
   1   0  19  157.33   31.59   4
   0  -1  19  195.75   30.61   3
   1  -1  19  165.89   31.32   3
   0   1  19  151.08   28.60   2
  -1   0  19  190.94   30.61   5
   0   1  19  163.26   32.64   4
  -1   0  19  176.53   25.30   2
   1  -2  19  -23.29   24.80   5
   1  -2  19    0.86   19.00   3
   1   1  19   38.39   28.18   4
   2   1  19  137.05   31.80   4
  -3   2  19  149.30   25.71   2
   1  -3  19  130.31   30.13   5
   1  -3  19  113.04   31.21   3
   2   0  19  293.70   33.80   4
   2   0  19  326.37   38.01   3
  -2   2  19  280.11   33.81   2
   0  -2  19  238.66   33.76   5
   0  -2  19  297.30   37.34   3
   2  -1  19  -17.11   18.70   3
  -1   2  19   -2.25   17.74   2
  -1  -1  19   -3.01   23.03   5
  -1   2  19  -16.28   27.67   4
   2  -1  19   49.90   23.48   4
   0   2  19  278.63   39.30   4
   2  -2  19  250.94   31.71   3
   0   2  19  294.19   34.33   2
  -2   0  19  277.42   36.94   5
  -2   0  19  329.24   32.94   2
  -3   1  19   73.07   28.41   5
   2  -3  19   95.49   28.39   5
  -3   1  19  116.43   30.12   2
   1   2  19  129.13   32.53   4
   2  -3  19  117.49   26.11   3
   3   0  19  -22.78   28.90   4
   0  -3  19   10.66   30.36   3
  -3   3  19   -0.07   28.41   2
   0  -3  19   -9.54   20.67   5
   3   0  19   34.73   28.38   3
   3  -1  19  145.57   26.27   3
   3  -1  19  169.98   27.30   4
  -2   3  19  132.37   30.16   2
  -1  -2  19  121.04   30.69   5
  -2   3  19   89.71   31.33   4
   3  -2  19   99.34   33.81   3
  -1   3  19  165.13   28.84   2
  -1   3  19  199.70   35.84   4
  -2  -1  19  101.29   29.46   5
   0   3  19   -5.28   24.63   2
   3  -3  19   45.39   29.20   3
   0   3  19  -22.12   30.86   4
  -3   0  19   -2.24   24.24   5
  -1   1  20   29.66   24.86   2
   1   0  20  -46.26   28.25   3
   1   0  20  -13.33   28.99   4
   0  -1  20    4.47   18.12   5
   0  -1  20   21.78   27.95   3
   1  -1  20   76.11   30.07   3
   0   1  20    2.31   27.99   4
  -1   0  20   11.24   24.26   5
   1  -2  20  128.58   33.52   3
  -2   1  20  128.91   30.89   2
   1  -2  20  206.73   33.56   5
   1   1  20  157.95   30.21   4
   0  -2  20   70.33   25.16   5
   0  -2  20  136.42   30.87   3
   2   0  20   40.18   28.15   4
  -2   2  20   47.94   28.83   2
  -1   2  20  187.52   36.78   4
  -1   2  20  183.92   33.49   2
  -1  -1  20  187.68   34.87   5
   2  -1  20  146.61   33.25   3
  -2   0  20  123.23   32.58   5
   0   2  20   61.40   33.51   4
  -2   0  20   69.41   23.05   2
   0   2  20   87.96   28.65   2
   2  -2  20   39.00   28.63   3
   0   0   0    0.00    0.00
;
_shelx_hkl_checksum              76577
loop_
_space_group_symop_operation_xyz
'x, y, z'
'-x, -y, z+1/2'
'-y, x-y, z'
'-x+y, -x, z'
'x-y, x, z+1/2'
'y, -x+y, z+1/2'
'-x+y, y, z'
'x, x-y, z'
'-y, -x, z'
'y, x, z+1/2'
'-x, -x+y, z+1/2'
'x-y, -y, z+1/2'
loop_
_atom_site_label
_atom_site_type_symbol
_atom_site_fract_x
_atom_site_fract_y
_atom_site_fract_z
_atom_site_U_iso_or_equiv
_atom_site_adp_type
_atom_site_occupancy
_atom_site_site_symmetry_order
_atom_site_calc_flag
_atom_site_refinement_flags_posn
_atom_site_refinement_flags_adp
_atom_site_refinement_flags_occupancy
_atom_site_disorder_assembly
_atom_site_disorder_group
Ga Ga 0.6667 0.3333 0.40771(3) 0.00834(18) Uani 1 6 d S T P . .
P1 P 0.3333 0.6667 0.52878(12) 0.0073(3) Uani 1 6 d DS T P . .
P2 P 1.0000 1.0000 0.35575(13) 0.0081(3) Uani 1 6 d DS T P . .
O2 O 0.8410(3) 0.6821(6) 0.3172(2) 0.0128(5) Uani 1 2 d S T P . .
O1 O 0.4944(4) 0.5056(4) 0.4991(2) 0.0165(6) Uani 1 2 d S T P . .
N1 N 0.3333 0.6667 0.2039(5) 0.0178(12) Uani 1 6 d DS T P . .
H2 H 1.0000 1.0000 0.459(5) 0.021 Uiso 1 6 d DS U P . .
H1 H 0.3333 0.6667 0.625(5) 0.021 Uiso 1 6 d DS U P . .
HN1 H 0.3333 0.6667 0.126(5) 0.021 Uiso 1 6 d DS U P . .
HN2 H 0.4985 0.7492 0.2211 0.021 Uiso 1 2 d DS U P . .
loop_
_atom_site_aniso_label
_atom_site_aniso_U_11
_atom_site_aniso_U_22
_atom_site_aniso_U_33
_atom_site_aniso_U_23
_atom_site_aniso_U_13
_atom_site_aniso_U_12
Ga 0.0060(2) 0.0060(2) 0.0129(3) 0.000 0.000 0.00302(10)
P1 0.0063(4) 0.0063(4) 0.0092(6) 0.000 0.000 0.0031(2)
P2 0.0066(4) 0.0066(4) 0.0110(7) 0.000 0.000 0.0033(2)
O2 0.0158(11) 0.0063(11) 0.0130(10) -0.0008(11) -0.0004(5) 0.0032(5)
O1 0.0149(10) 0.0149(10) 0.0242(14) -0.0021(6) 0.0021(6) 0.0110(10)
N1 0.0190(18) 0.0190(18) 0.016(3) 0.000 0.000 0.0095(9)
loop_
_atom_type_symbol
_atom_type_description
_atom_type_scat_dispersion_real
_atom_type_scat_dispersion_imag
_atom_type_scat_source
O O 0.0106 0.0060 'International Tables Vol C Tables 4.2.6.8 and 6.1.1.4'
P P 0.1023 0.0942 'International Tables Vol C Tables 4.2.6.8 and 6.1.1.4'
Ga Ga 0.2307 1.6083 'International Tables Vol C Tables 4.2.6.8 and 6.1.1.4'
N N 0.0061 0.0033 'International Tables Vol C Tables 4.2.6.8 and 6.1.1.4'
H H 0.0000 0.0000 'International Tables Vol C Tables 4.2.6.8 and 6.1.1.4'
loop_
_geom_angle_atom_site_label_1
_geom_angle_atom_site_label_2
_geom_angle_atom_site_label_3
_geom_angle
_geom_angle_site_symmetry_1
_geom_angle_site_symmetry_3
O1 Ga O1 87.58(14) . 4_665
O1 Ga O1 87.58(14) . 3_655
O1 Ga O1 87.58(14) 4_665 3_655
O1 Ga O2 179.39(14) . 4_665
O1 Ga O2 91.97(7) 4_665 4_665
O1 Ga O2 91.97(7) 3_655 4_665
O1 Ga O2 91.97(7) . 3_655
O1 Ga O2 179.39(14) 4_665 3_655
O1 Ga O2 91.97(7) 3_655 3_655
O2 Ga O2 88.47(11) 4_665 3_655
O1 Ga O2 91.97(7) . .
O1 Ga O2 91.97(7) 4_665 .
O1 Ga O2 179.39(14) 3_655 .
O2 Ga O2 88.46(11) 4_665 .
O2 Ga O2 88.46(11) 3_655 .
O1 P1 O1 113.85(11) 4_565 3_665
O1 P1 O1 113.85(11) 4_565 .
O1 P1 O1 113.85(11) 3_665 .
O2 P2 O2 109.98(11) 3_765 .
O2 P2 O2 109.97(11) 3_765 4_675
O2 P2 O2 109.97(11) . 4_675
P2 O2 Ga 124.69(17) . .
P1 O1 Ga 157.7(2) . .
loop_
_geom_bond_atom_site_label_1
_geom_bond_atom_site_label_2
_geom_bond_distance
_geom_bond_site_symmetry_2
Ga O1 1.963(3) .
Ga O1 1.963(3) 4_665
Ga O1 1.963(3) 3_655
Ga O2 1.971(3) 4_665
Ga O2 1.971(3) 3_655
Ga O2 1.971(3) .
P1 O1 1.516(3) 4_565
P1 O1 1.516(3) 3_665
P1 O1 1.516(3) .
P2 O2 1.531(3) 3_765
P2 O2 1.531(3) .
P2 O2 1.531(3) 4_675
