#------------------------------------------------------------------------------
#$Date: 2021-02-18 12:02:33 +0200 (Thu, 18 Feb 2021) $
#$Revision: 262061 $
#$URL: file:///home/coder/svn-repositories/cod/cif/1/56/04/1560466.cif $
#------------------------------------------------------------------------------
#
# This file is available in the Crystallography Open Database (COD),
# http://www.crystallography.net/
#
# All data on this site have been placed in the public domain by the
# contributors.
#
data_1560466
loop_
_publ_author_name
'Iyer, Abishek K.'
'Yin, Wenlong'
'Lee, Emma J.'
'Lin, Xinsong'
'Mar, Arthur'
_publ_section_title
;
 Quaternary rare-earth sulfides RE 3 M 0.5 GeS 7 (RE=La--Nd, Sm; M=Co, Ni)
 and Y 3 Pd 0.5 SiS 7
;
_journal_name_full               'Journal of Solid State Chemistry'
_journal_page_first              14
_journal_page_last               23
_journal_paper_doi               10.1016/j.jssc.2017.03.009
_journal_volume                  250
_journal_year                    2017
_chemical_absolute_configuration ad
_chemical_formula_structural     'Sm3 Co0.5 Ge S7'
_chemical_formula_sum            'Co0.5 Ge S7 Sm3'
_chemical_formula_weight         777.53
_chemical_name_common
'samarium cobalt germanium sulfide (3/0.5/1/7)'
_chemical_name_systematic
'samarium cobalt germanium sulfide (3/0.5/1/7)'
_space_group_crystal_system      hexagonal
_space_group_IT_number           173
_space_group_name_Hall           'P 6c'
_space_group_name_H-M_alt        'P 63'
_atom_sites_solution_hydrogens   .
_cell_angle_alpha                90
_cell_angle_beta                 90
_cell_angle_gamma                120
_cell_formula_units_Z            2
_cell_length_a                   9.9742(14)
_cell_length_b                   9.9742(14)
_cell_length_c                   5.7393(8)
_cell_measurement_reflns_used    3555
_cell_measurement_temperature    296(2)
_cell_measurement_theta_max      32.55
_cell_measurement_theta_min      4.26
_cell_volume                     494.48(12)
_computing_cell_refinement       'Bruker SAINT 8.34A (Bruker, 2013)'
_computing_data_collection       'Bruker APEX 2 (Bruker, 2008)'
_computing_data_reduction        'Bruker SAINT 8.34A'
_computing_molecular_graphics    'ATOMS 5.1 (Dowty, 1999)'
_computing_publication_material  'SHELXL-2014/7 (Sheldrick, 2014)'
_computing_structure_refinement  'SHELXL-2014/7 (Sheldrick, 2014)'
_computing_structure_solution    'SHELXS-97 (Sheldrick, 2008)'
_diffrn_ambient_temperature      296(2)
_diffrn_measured_fraction_theta_full 1.000
_diffrn_measured_fraction_theta_max 0.999
_diffrn_measurement_device_type  'Bruker PLATFORM/SMART APEX II CCD'
_diffrn_measurement_method       '\w and \f scans'
_diffrn_radiation_type           MoK\a
_diffrn_radiation_wavelength     0.71073
_diffrn_reflns_av_R_equivalents  0.0416
_diffrn_reflns_av_unetI/netI     0.0277
_diffrn_reflns_Laue_measured_fraction_full 1.000
_diffrn_reflns_Laue_measured_fraction_max 0.999
_diffrn_reflns_limit_h_max       15
_diffrn_reflns_limit_h_min       -15
_diffrn_reflns_limit_k_max       15
_diffrn_reflns_limit_k_min       -15
_diffrn_reflns_limit_l_max       8
_diffrn_reflns_limit_l_min       -8
_diffrn_reflns_number            6985
_diffrn_reflns_point_group_measured_fraction_full 1.000
_diffrn_reflns_point_group_measured_fraction_max 0.999
_diffrn_reflns_theta_full        25.242
_diffrn_reflns_theta_max         33.119
_diffrn_reflns_theta_min         2.358
_diffrn_source                   'fine-focus sealed tube'
_exptl_absorpt_coefficient_mu    22.775
_exptl_absorpt_correction_T_max  0.553
_exptl_absorpt_correction_T_min  0.416
_exptl_absorpt_correction_type   numerical
_exptl_absorpt_process_details   'SHELXL-2014/7 (Sheldrick, 2014)'
_exptl_crystal_colour            grey
_exptl_crystal_density_diffrn    5.222
_exptl_crystal_description       irregular
_exptl_crystal_F_000             687
_exptl_crystal_size_max          0.054
_exptl_crystal_size_mid          0.052
_exptl_crystal_size_min          0.036
_refine_diff_density_max         1.352
_refine_diff_density_min         -1.020
_refine_diff_density_rms         0.221
_refine_ls_abs_structure_details
;
 Refined as an inversion twin.
;
_refine_ls_abs_structure_Flack   0.01(2)
_refine_ls_extinction_coef       0.00168(18)
_refine_ls_extinction_expression Fc^*^=kFc[1+0.001xFc^2^\l^3^/sin(2\q)]^-1/4^
_refine_ls_extinction_method     'SHELXL-2014/7 (Sheldrick 2014)'
_refine_ls_goodness_of_fit_ref   1.074
_refine_ls_hydrogen_treatment    undef
_refine_ls_matrix_type           full
_refine_ls_number_parameters     39
_refine_ls_number_reflns         1260
_refine_ls_number_restraints     1
_refine_ls_restrained_S_all      1.073
_refine_ls_R_factor_all          0.0234
_refine_ls_R_factor_gt           0.0196
_refine_ls_shift/su_max          0.000
_refine_ls_shift/su_mean         0.000
_refine_ls_structure_factor_coef Fsqd
_refine_ls_weighting_details
'w=1/[\s^2^(Fo^2^)+(0.0110P)^2^+0.1915P] where P=(Fo^2^+2Fc^2^)/3'
_refine_ls_weighting_scheme      calc
_refine_ls_wR_factor_gt          0.0327
_refine_ls_wR_factor_ref         0.0335
_reflns_Friedel_coverage         0.844
_reflns_Friedel_fraction_full    1.000
_reflns_Friedel_fraction_max     1.000
_reflns_number_gt                1169
_reflns_number_total             1260
_reflns_threshold_expression     'I > 2\s(I)'
_cod_data_source_file            mmc16.cif
_cod_data_source_block           5
_cod_original_cell_volume        494.48(15)
_cod_original_formula_sum        'Co0.50 Ge S7 Sm3'
_cod_database_code               1560466
_shelx_space_group_comment
;
The symmetry employed for this shelxl refinement is uniquely defined
by the following loop, which should always be used as a source of
symmetry information in preference to the above space-group names.
They are only intended as comments.
;
_shelx_estimated_absorpt_t_min   0.373
_shelx_estimated_absorpt_t_max   0.494
_shelx_res_file
;

    p63.res created by SHELXL-2014/7

TITL Sm3Co0.5GeS7 P6(3) lsf final refinement
CELL 0.71073   9.97420   9.97420   5.73930  90.0000  90.0000 120.0000
ZERR    2.00   0.00140   0.00140   0.00080   0.0000   0.0000   0.0000
LATT -1
SYMM -Y, X-Y, Z
SYMM -X+Y, -X, Z
SYMM -X, -Y, 0.5+Z
SYMM Y, -X+Y, 0.5+Z
SYMM X-Y, X, 0.5+Z
SFAC S CO GE SM
UNIT 14 1 2 6
TEMP 23
SIZE 0.036 0.052 0.054

L.S. 4
ACTA

TWIN

WGHT    0.011000    0.191500
EXTI    0.001679
BASF   0.01228
FVAR       0.10681
SM    4    0.129738    0.356278    0.022972    11.00000    0.00835    0.00675 =
         0.01048    0.00093    0.00094    0.00360
CO    2    0.000000    0.000000    0.252414    10.16667    0.00796    0.00796 =
         0.01987    0.00000    0.00000    0.00398
GE    3    0.333333    0.666667    0.604413    10.33333    0.00818    0.00818 =
         0.00702    0.00000    0.00000    0.00409
S1    1    0.246574    0.156035    0.000000    11.00000    0.01036    0.00861 =
         0.01706    0.00298    0.00120    0.00555
S2    1    0.519316    0.100372    0.259186    11.00000    0.00808    0.00779 =
         0.00972    0.00029   -0.00092    0.00314
S3    1    0.333333    0.666667    0.226960    10.33333    0.00957    0.00957 =
         0.00947    0.00000    0.00000    0.00479
HKLF 4

REM  Sm3Co0.5GeS7 P6(3) lsf final refinement
REM R1 =  0.0196 for    1169 Fo > 4sig(Fo)  and  0.0234 for all    1260 data
REM     39 parameters refined using      1 restraints

END

WGHT      0.0110      0.1975

REM Highest difference peak  1.352,  deepest hole -1.020,  1-sigma level  0.221
Q1    1   0.0000  0.0000  0.0254  10.33333  0.05    1.35
Q2    1   0.4607  0.7457  0.5217  11.00000  0.05    1.11
Q3    1   0.0000  0.0000  0.3964  10.33333  0.05    1.07
Q4    1   0.1696  0.4101  0.1842  11.00000  0.05    0.89
Q5    1   0.1979  0.3177  0.0993  11.00000  0.05    0.83
Q6    1   0.0423  0.3410  0.1152  11.00000  0.05    0.80
Q7    1   0.4633 -0.1011  0.2777  11.00000  0.05    0.79
Q8    1   0.3025  0.3740  0.0206  11.00000  0.05    0.77
Q9    1   0.1883  0.3446  0.2173  11.00000  0.05    0.77
Q10   1   0.5895  0.1022  0.5206  11.00000  0.05    0.76
Q11   1   0.1765  0.4160 -0.1439  11.00000  0.05    0.76
Q12   1   0.1118  0.3144  0.1674  11.00000  0.05    0.75
Q13   1   0.2116  0.3058 -0.0341  11.00000  0.05    0.72
Q14   1   0.5431  0.1441  0.5181  11.00000  0.05    0.71
Q15   1   0.2954  0.7083  0.4021  11.00000  0.05    0.70
Q16   1   0.0280  0.2810  0.1205  11.00000  0.05    0.70
Q17   1   0.2228  0.6348  0.4298  11.00000  0.05    0.70
Q18   1   0.3333  0.6667  0.4386  10.33333  0.05    0.69
Q19   1   0.2968  0.1251 -0.1432  11.00000  0.05    0.68
Q20   1   0.3485  0.0428  0.3827  11.00000  0.05    0.68
;
_shelx_res_checksum              40449
_shelx_hkl_file
;
   2  -6  -8    2.97    2.70
   3  -6  -8   30.02    5.01
   0  -5  -8    4.66    2.74
   1  -5  -8   11.26    3.47
   2  -5  -8   10.48    3.40
   3  -5  -8   -2.21    2.00
   4  -5  -8   37.90    5.14
   5  -5  -8    5.37    2.87
  -1  -4  -8   33.54    5.09
   0  -4  -8   10.39    3.22
   1  -4  -8   12.36    3.45
   2  -4  -8   39.48    5.38
   3  -4  -8   95.56    7.26
   4  -4  -8   14.08    3.55
   5  -4  -8    5.73    2.64
   6  -4  -8    1.66    2.55
  -2  -3  -8   -0.37    2.18
  -1  -3  -8   84.09    7.16
   0  -3  -8    9.44    3.28
   1  -3  -8    2.49    2.42
   2  -3  -8   50.34    5.78
   3  -3  -8   11.14    3.05
   4  -3  -8   14.67    3.61
   5  -3  -8   16.16    3.81
   6  -3  -8   30.09    4.85
  -3  -2  -8    9.77    3.27
  -2  -2  -8   41.91    5.66
  -1  -2  -8   54.66    6.22
   0  -2  -8    7.23    2.90
   1  -2  -8   32.91    4.77
   2  -2  -8    8.75    2.83
   3  -2  -8    1.23    2.25
   4  -2  -8   35.55    5.07
   5  -2  -8   -0.46    2.15
   6  -2  -8    0.47    2.43
  -4  -1  -8    5.63    2.86
  -3  -1  -8   18.36    4.09
  -2  -1  -8    2.29    2.25
  -1  -1  -8   31.67    4.83
   0  -1  -8    2.37    2.15
   1  -1  -8    2.36    2.16
   2  -1  -8   37.82    5.12
   3  -1  -8   43.85    5.59
   4  -1  -8   95.07    7.29
   5  -1  -8   49.64    6.04
  -4   0  -8    9.02    3.25
  -3   0  -8   11.92    3.44
  -2   0  -8    9.61    3.10
  -1   0  -8    0.79    1.99
   1   0  -8    2.54    2.14
   2   0  -8    5.02    2.51
   3   0  -8   12.46    3.29
   4   0  -8    7.65    2.95
  -5   1  -8   41.67    5.83
  -4   1  -8   87.80    7.42
  -3   1  -8   39.09    5.35
  -2   1  -8   38.08    5.19
  -1   1  -8    0.91    1.86
   0   1  -8    0.18    2.04
   1   1  -8   35.78    5.07
   2   1  -8    0.55    2.06
   3   1  -8    8.43    3.01
   4   1  -8    5.68    2.90
  -5   2  -8    0.95    2.04
  -4   2  -8   31.19    4.85
  -3   2  -8   -0.52    1.93
  -2   2  -8    4.20    2.42
  -1   2  -8   30.97    4.73
   0   2  -8    8.28    3.01
   1   2  -8   48.14    5.92
   2   2  -8   43.19    5.82
   3   2  -8   11.14    3.53
  -6   3  -8   20.44    4.45
  -5   3  -8   11.05    3.30
  -4   3  -8    6.99    2.96
  -3   3  -8    6.64    2.84
  -2   3  -8   45.90    5.75
  -1   3  -8    1.06    2.25
   0   3  -8   19.83    4.15
   1   3  -8   91.53    7.43
   2   3  -8    1.47    2.49
  -6   4  -8   -0.29    2.34
  -5   4  -8    2.23    2.38
  -4   4  -8    7.39    2.89
  -3   4  -8   94.79    7.62
  -2   4  -8   41.89    5.72
  -1   4  -8    7.53    3.11
   0   4  -8    5.00    2.94
   1   4  -8   38.75    5.72
  -5   5  -8    1.22    2.55
  -4   5  -8   29.46    4.82
  -3   5  -8    1.16    2.08
  -2   5  -8   13.80    3.89
  -1   5  -8   10.00    3.32
  -5   6  -8   -1.17    2.30
  -4   6  -8    1.60    2.70
  -3   6  -8   32.25    3.72
  -2   6  -8    2.82    2.03
   0  -8  -7    3.38    3.07
  -1  -7  -7    6.80    3.05
   0  -7  -7   12.79    3.35
   1  -7  -7   10.33    2.99
   2  -7  -7    8.15    2.71
  -2  -6  -7   17.06    3.96
  -1  -6  -7   91.18    7.23
   0  -6  -7   12.32    3.32
   1  -6  -7    1.84    1.90
   2  -6  -7   18.07    3.56
   3  -6  -7   79.62    6.09
   4  -6  -7    2.05    2.08
  -3  -5  -7    2.44    2.55
  -2  -5  -7    0.91    2.10
  -1  -5  -7   27.47    4.52
   0  -5  -7   19.70    3.67
   1  -5  -7   13.04    3.17
   2  -5  -7   67.41    5.55
   3  -5  -7    4.61    2.20
   4  -5  -7   87.55    6.19
   5  -5  -7   16.11    3.27
   6  -5  -7    1.63    2.05
  -4  -4  -7    9.50    3.23
  -3  -4  -7    0.77    1.98
  -2  -4  -7    3.53    2.23
  -1  -4  -7  100.94    7.03
   0  -4  -7   17.19    3.43
   1  -4  -7  148.30    7.96
   2  -4  -7   -0.35    1.50
   3  -4  -7    1.69    1.83
   4  -4  -7   19.18    3.39
   5  -4  -7    9.01    2.76
   6  -4  -7   16.47    3.41
   7  -4  -7   22.63    4.02
  -5  -3  -7   96.33    7.68
  -4  -3  -7   14.73    3.60
  -3  -3  -7   86.91    6.83
  -2  -3  -7    1.51    1.82
  -1  -3  -7    3.45    2.00
   0  -3  -7   20.75    3.55
   1  -3  -7    7.26    2.48
   2  -3  -7    0.28    1.57
   3  -3  -7   16.44    3.26
   4  -3  -7  146.60    7.80
   5  -3  -7   61.93    5.41
   6  -3  -7   89.95    6.38
   7  -3  -7    0.72    1.89
   8  -3  -7    1.11    2.21
  -6  -2  -7   16.69    4.15
  -5  -2  -7    7.45    3.00
  -4  -2  -7   17.95    3.77
  -3  -2  -7   71.66    6.01
  -2  -2  -7   -0.37    1.48
  -1  -2  -7   -0.93    1.42
   0  -2  -7   73.53    5.74
   1  -2  -7   20.41    3.51
   2  -2  -7   70.02    5.52
   3  -2  -7    7.93    2.54
   4  -2  -7   -0.30    1.70
   5  -2  -7    6.78    2.61
   6  -2  -7    1.55    2.06
   7  -2  -7    2.39    2.11
   8  -2  -7   14.25    3.68
  -7  -1  -7   78.18    8.97
  -6  -1  -7    9.56    3.07
  -5  -1  -7    3.12    2.33
  -4  -1  -7    9.39    2.85
  -3  -1  -7  142.73    8.22
  -2  -1  -7    7.32    2.38
  -1  -1  -7   17.50    3.39
   0  -1  -7   40.98    4.93
   1  -1  -7   33.85    4.43
   2  -1  -7   16.48    3.33
   3  -1  -7   -1.01    1.37
   4  -1  -7   -1.25    1.38
   5  -1  -7  103.92    6.97
   6  -1  -7   18.22    3.74
   7  -1  -7  107.23    7.66
   8  -1  -7    9.30    3.33
  -7   0  -7   11.49    3.54
  -6   0  -7   18.16    3.68
  -5   0  -7   19.52    3.85
  -4   0  -7   15.48    3.36
  -3   0  -7   18.79    3.44
  -2   0  -7   86.40    6.25
  -1   0  -7   38.60    4.75
   0   0  -7   -0.85    1.39
   1   0  -7   38.21    4.81
   2   0  -7   62.81    5.38
   3   0  -7   24.29    3.90
   4   0  -7   18.21    3.49
   5   0  -7   23.88    4.09
   6   0  -7   15.62    3.56
   7   0  -7   16.65    4.09
  -8   1  -7    6.71    3.06
  -7   1  -7  105.76    7.89
  -6   1  -7   21.35    4.30
  -5   1  -7   91.55    7.03
  -4   1  -7    2.16    1.85
  -3   1  -7    0.06    1.54
  -2   1  -7   22.63    3.71
  -1   1  -7   34.65    4.52
   0   1  -7   40.76    4.99
   1   1  -7   18.49    3.44
   2   1  -7    5.43    2.42
   3   1  -7  128.66    7.72
   4   1  -7    6.70    2.82
   5   1  -7    2.21    2.21
   6   1  -7   13.21    3.70
   7   1  -7   80.61    8.46
  -8   2  -7    7.65    3.05
  -7   2  -7   -0.04    2.01
  -6   2  -7    1.98    1.98
  -5   2  -7    4.92    2.18
  -4   2  -7   -1.44    1.52
  -3   2  -7    6.87    2.34
  -2   2  -7   71.13    5.64
  -1   2  -7   19.19    3.63
   0   2  -7   69.65    5.73
   1   2  -7   -0.17    1.55
   2   2  -7    0.92    1.82
   3   2  -7   63.14    6.60
   4   2  -7   15.41    3.64
   5   2  -7    8.58    3.19
   6   2  -7   22.95    4.81
  -9   3  -7   22.57    4.36
  -8   3  -7    2.14    2.23
  -7   3  -7    2.70    1.97
  -5   3  -7   57.51    6.10
  -4   3  -7  126.99    7.72
  -3   3  -7   16.02    3.25
  -2   3  -7    2.72    1.80
  -1   3  -7    5.04    2.18
   0   3  -7   20.30    3.73
   1   3  -7   -0.07    1.58
   2   3  -7    7.79    2.91
   3   3  -7   82.57    6.94
   4   3  -7   21.59    4.33
   5   3  -7  113.02    8.66
  -9   4  -7   57.05    6.69
  -8   4  -7    8.89    3.13
  -7   4  -7   16.24    3.57
  -6   4  -7   17.90    2.49
  -5   4  -7    7.94    1.84
  -4   4  -7   16.20    2.38
  -3   4  -7    0.81    1.19
  -2   4  -7    3.07    1.43
  -1   4  -7  139.95    5.59
   0   4  -7   16.43    3.46
   1   4  -7   99.68    7.32
   2   4  -7    3.71    2.47
   3   4  -7    2.96    2.43
   4   4  -7   12.76    3.79
  -8   5  -7   94.18    7.39
  -7   5  -7    7.55    1.95
  -6   5  -7    4.16    1.67
  -5   5  -7   16.96    2.55
  -4   5  -7   85.52    4.66
  -3   5  -7    8.07    1.98
  -2   5  -7   56.40    4.28
  -1   5  -7    9.60    2.05
   0   5  -7   21.11    2.71
   1   5  -7   37.92    5.49
   2   5  -7    1.83    2.38
   3   5  -7    0.91    2.49
  -8   6  -7   10.89    3.58
  -7   6  -7   12.98    3.66
  -6   6  -7   15.32    2.55
  -5   6  -7   28.83    3.18
  -4   6  -7    1.94    1.44
  -3   6  -7   84.35    4.66
  -2   6  -7   17.43    2.54
  -1   6  -7    5.21    1.78
   0   6  -7   16.64    3.90
   1   6  -7   94.35    7.84
   2   6  -7    7.27    3.26
  -7   7  -7   13.91    3.59
  -6   7  -7  103.82    7.76
  -5   7  -7    2.63    1.65
  -4   7  -7    1.07    1.46
  -3   7  -7   23.63    3.05
  -2   7  -7    7.23    2.00
  -1   7  -7   13.70    3.65
   0   7  -7   20.63    4.45
   1   7  -7    9.20    3.59
  -6   8  -7    8.31    3.31
  -5   8  -7    2.34    2.32
  -4   8  -7    9.39    3.30
  -3   8  -7   91.96    5.30
  -2   8  -7   20.16    3.04
  -1   8  -7   84.66    7.55
   0   8  -7    4.25    3.35
  -4   9  -7    6.22    3.02
  -3   9  -7    1.02    2.64
   4 -11  -6   35.26    6.57
   5 -11  -6   14.04    4.15
   6 -11  -6   -0.18    2.86
   1 -10  -6    2.43    3.06
   2 -10  -6   30.16    5.58
   3 -10  -6   59.67    7.20
   5 -10  -6   34.92    5.82
   6 -10  -6    6.38    3.40
   7 -10  -6    9.35    3.79
   8 -10  -6   54.00    6.96
   9 -10  -6    1.26    3.21
  -1  -9  -6    0.25    2.02
   0  -9  -6    7.33    3.39
   1  -9  -6    5.26    3.09
   2  -9  -6    5.00    2.91
   3  -9  -6   39.72    5.85
   4  -9  -6    8.15    3.25
   5  -9  -6    9.74    3.50
   6  -9  -6   33.94    5.87
   7  -9  -6   12.06    3.70
   9  -9  -6   14.56    4.04
  10  -9  -6    5.39    3.34
  -2  -8  -6   62.83    5.08
  -1  -8  -6   66.75    4.69
   0  -8  -6   84.38    4.98
   1  -8  -6   23.78    2.99
   2  -8  -6    4.07    2.67
   3  -8  -6   32.07    5.10
   4  -8  -6   14.00    3.83
   5  -8  -6   41.57    5.91
   6  -8  -6    3.75    2.47
   7  -8  -6   33.73    5.39
   8  -8  -6   76.73    7.13
   9  -8  -6    2.35    2.56
  10  -8  -6   43.10    6.34
  -4  -7  -6  111.70    9.13
  -3  -7  -6    8.04    2.36
  -2  -7  -6   13.74    2.67
  -1  -7  -6   35.94    3.59
   0  -7  -6   11.01    2.19
   1  -7  -6   -1.39    1.15
   2  -7  -6   10.88    2.04
   3  -7  -6   21.33    2.59
   4  -7  -6  105.42    7.69
   5  -7  -6   39.23    5.38
   6  -7  -6   27.79    4.62
   7  -7  -6   17.43    3.83
   8  -7  -6   24.23    4.62
  -4  -6  -6    6.65    2.07
  -3  -6  -6   41.64    4.01
  -2  -6  -6    0.81    1.47
  -1  -6  -6   17.99    2.53
   0  -6  -6    6.25    1.80
   1  -6  -6  210.48    6.61
   2  -6  -6    6.53    1.63
   3  -6  -6   98.57    4.48
   4  -6  -6    4.53    1.45
   5  -6  -6   50.70    4.34
  -5  -5  -6   34.81    5.34
  -4  -5  -6   13.94    3.59
  -3  -5  -6   39.91    5.09
  -2  -5  -6   41.39    5.05
  -1  -5  -6   47.28    5.12
   0  -5  -6    5.88    2.21
   1  -5  -6   27.39    3.77
   2  -5  -6   13.12    2.66
   3  -5  -6    2.94    1.74
   4  -5  -6   49.24    4.18
   5  -5  -6    6.99    2.09
   6  -5  -6  214.84    8.55
  -6  -4  -6   58.82    7.00
  -5  -4  -6    8.54    3.10
  -4  -4  -6   16.37    3.47
  -3  -4  -6   88.77    6.49
  -2  -4  -6    7.18    2.51
  -1  -4  -6   53.70    4.79
   0  -4  -6   19.70    3.21
   1  -4  -6   46.66    4.71
   2  -4  -6   54.57    4.40
   3  -4  -6   80.95    5.18
   4  -4  -6   18.41    3.00
   5  -4  -6   30.33    3.84
   6  -4  -6    9.40    2.38
   7  -4  -6   25.27    3.73
   8  -4  -6   22.78    3.54
  -7  -3  -6   60.98    7.05
  -6  -3  -6   44.38    5.98
  -5  -3  -6   25.61    4.35
  -4  -3  -6   20.84    3.74
  -3  -3  -6   95.17    6.43
  -2  -3  -6    6.81    2.37
  -1  -3  -6   78.79    5.50
   0  -3  -6   24.30    3.54
   1  -3  -6    3.58    1.66
   2  -3  -6  146.95    6.92
   3  -3  -6   23.07    3.39
   4  -3  -6   48.06    4.77
   5  -3  -6    9.95    2.50
   6  -3  -6   99.42    6.02
   7  -3  -6   94.08    6.16
   8  -3  -6   43.73    5.08
   9  -3  -6   49.58    5.60
  -8  -2  -6   41.96    6.21
  -7  -2  -6    1.96    2.15
  -6  -2  -6    4.97    2.35
  -5  -2  -6    9.87    2.76
  -4  -2  -6    7.76    2.47
  -3  -2  -6    8.00    2.43
  -2  -2  -6   50.30    4.46
  -1  -2  -6  137.19    6.99
   0  -2  -6   78.95    5.22
   1  -2  -6   90.34    5.50
   2  -2  -6   82.10    5.25
   3  -2  -6    5.50    1.90
   4  -2  -6   49.22    4.29
   5  -2  -6    9.32    2.43
   6  -2  -6    7.38    2.30
   7  -2  -6   58.28    5.80
   8  -2  -6   -0.02    1.73
   9  -2  -6   11.23    3.20
  10  -2  -6   71.44    7.10
  -8  -1  -6    1.21    2.35
  -7  -1  -6   26.97    4.73
  -6  -1  -6    1.31    1.88
  -5  -1  -6  201.18    9.51
  -4  -1  -6   25.73    3.85
  -3  -1  -6   49.67    5.14
  -2  -1  -6    2.45    1.48
  -1  -1  -6   92.94    5.66
   0  -1  -6   19.27    3.06
   1  -1  -6   20.30    3.11
   2  -1  -6   97.37    5.65
   3  -1  -6  140.96    6.92
   4  -1  -6   88.22    5.66
   5  -1  -6   51.56    5.22
   6  -1  -6   51.50    5.47
   7  -1  -6   26.00    4.11
   8  -1  -6   30.42    4.59
   9  -1  -6   77.04    7.61
  10  -1  -6    1.18    2.57
  -9   0  -6   12.28    3.72
  -8   0  -6   63.48    6.83
  -7   0  -6   20.36    3.96
  -6   0  -6    3.69    2.03
  -5   0  -6    6.20    2.16
  -4   0  -6   16.86    3.10
  -3   0  -6   20.75    3.26
  -2   0  -6   74.62    5.15
  -1   0  -6   15.17    2.75
   0   0  -6  168.13    7.48
   1   0  -6   21.25    3.23
   2   0  -6   81.79    5.34
   3   0  -6   28.22    3.83
   4   0  -6   15.16    3.02
   5   0  -6    4.54    1.97
   6   0  -6    6.74    2.38
   7   0  -6   16.62    3.73
   8   0  -6   75.59    6.69
   9   0  -6   16.68    4.08
 -10   1  -6    2.43    2.99
  -9   1  -6   59.96    6.83
  -8   1  -6   35.94    5.22
  -7   1  -6   21.19    3.76
  -6   1  -6   45.13    5.28
  -5   1  -6   46.00    5.03
  -4   1  -6   71.35    5.27
  -3   1  -6  147.39    7.24
  -2   1  -6   91.76    5.68
  -1   1  -6   19.74    3.17
   0   1  -6   21.64    3.28
   1   1  -6   91.81    5.62
   2   1  -6    1.41    1.45
   3   1  -6   40.80    4.73
   4   1  -6   29.77    4.20
   5   1  -6  194.54    9.25
   6   1  -6   -1.29    1.66
   7   1  -6   31.35    4.98
   8   1  -6    4.11    2.64
 -10   2  -6   55.39    6.67
  -9   2  -6   13.78    3.49
  -8   2  -6    1.40    1.96
  -7   2  -6   31.89    4.45
  -6   2  -6    4.63    1.98
  -5   2  -6    2.78    1.81
  -4   2  -6   48.71    5.06
  -3   2  -6    2.28    1.59
  -2   2  -6   79.06    5.30
  -1   2  -6   81.54    5.41
   0   2  -6   75.07    5.19
   1   2  -6  132.63    6.91
   2   2  -6   42.72    4.75
   3   2  -6    9.09    2.52
   4   2  -6    2.31    1.92
   5   2  -6   10.00    3.02
   6   2  -6    4.35    2.63
   7   2  -6    2.53    2.42
   8   2  -6   36.10    5.85
 -10   3  -6    6.71    3.14
  -9   3  -6   34.10    5.01
  -8   3  -6   28.54    4.35
  -7   3  -6   98.21    6.65
  -6   3  -6   89.73    4.33
  -5   3  -6    7.74    1.60
  -4   3  -6   45.65    3.51
  -3   3  -6   19.18    2.30
  -2   3  -6  136.24    4.88
  -1   3  -6    5.79    1.40
   0   3  -6   22.72    2.37
   1   3  -6   84.87    3.87
   2   3  -6    9.74    2.71
   3   3  -6   91.32    6.54
   4   3  -6   23.25    4.36
   5   3  -6   33.30    5.12
   6   3  -6   41.01    5.91
   7   3  -6   67.52    7.61
  -9   4  -6   11.99    3.24
  -8   4  -6   17.30    2.51
  -7   4  -6   21.74    2.55
  -6   4  -6    3.53    1.45
  -5   4  -6   27.92    2.74
  -4   4  -6   20.87    2.40
  -3   4  -6   79.02    3.85
  -2   4  -6   46.56    3.48
  -1   4  -6   49.62    3.29
   0   4  -6   21.23    2.47
   1   4  -6   54.74    3.45
   2   4  -6    5.31    2.28
   3   4  -6   98.61    7.15
   4   4  -6   19.27    4.21
   5   4  -6    7.16    2.98
   6   4  -6   62.81    7.54
 -10   5  -6   34.35    4.95
  -9   5  -6    7.23    2.62
  -8   5  -6   34.57    3.33
  -7   5  -6    8.62    1.81
  -6   5  -6  199.89    6.39
  -5   5  -6    5.99    1.58
  -4   5  -6   52.15    3.58
  -3   5  -6    5.79    1.50
  -2   5  -6   13.22    2.06
  -1   5  -6   26.25    2.73
   0   5  -6    6.24    1.52
   1   5  -6   58.61    6.15
   2   5  -6   50.09    5.85
   3   5  -6   38.09    5.56
   4   5  -6   14.25    3.80
   5   5  -6   42.74    6.30
 -11   6  -6   13.82    3.73
 -10   6  -6   59.88    6.82
  -9   6  -6   40.84    5.36
  -8   6  -6    6.54    2.68
  -7   6  -6   -0.92    0.98
  -6   6  -6    6.63    1.65
  -5   6  -6   50.14    3.56
  -4   6  -6    4.48    1.44
  -3   6  -6   97.31    4.47
  -2   6  -6    6.78    1.72
  -1   6  -6  203.80    6.51
   0   6  -6    4.38    1.53
   1   6  -6   24.82    4.39
   2   6  -6    1.07    2.20
   3   6  -6   45.75    6.33
   4   6  -6    6.18    3.27
 -11   7  -6   37.94    6.10
 -10   7  -6   57.75    6.54
  -9   7  -6    2.17    2.03
  -8   7  -6   29.95    4.69
  -7   7  -6   20.51    4.04
  -6   7  -6   22.24    4.09
  -5   7  -6   44.28    3.64
  -4   7  -6   93.12    4.53
  -3   7  -6   26.05    2.89
  -2   7  -6    9.46    1.93
  -1   7  -6    1.80    1.33
   0   7  -6   13.15    3.19
   1   7  -6   28.90    4.87
   2   7  -6    4.38    2.99
   3   7  -6    5.72    3.29
 -10   8  -6   32.09    5.11
  -9   8  -6    1.21    2.12
  -8   8  -6   72.55    6.45
  -7   8  -6   36.69    5.30
  -6   8  -6    0.09    2.11
  -5   8  -6   35.00    5.29
  -4   8  -6   21.09    4.07
  -3   8  -6   32.87    3.40
  -2   8  -6    4.38    1.72
  -1   8  -6   23.77    4.31
   0   8  -6   68.99    7.19
   1   8  -6   63.60    6.83
   2   8  -6   67.09    7.59
  -9   9  -6   12.06    3.72
  -8   9  -6   59.95    7.39
  -7   9  -6   14.14    3.71
  -6   9  -6   39.79    5.71
  -5   9  -6   17.10    3.97
  -4   9  -6   10.70    3.24
  -3   9  -6   40.61    5.59
  -2   9  -6    0.07    1.77
  -1   9  -6   -0.31    2.39
   0   9  -6   11.18    3.61
   1   9  -6    2.92    3.08
  -8  10  -6   53.45    6.84
  -7  10  -6    7.08    3.00
  -6  10  -6    5.15    2.86
  -5  10  -6   41.35    5.89
  -4  10  -6   67.54    7.66
  -3  10  -6   63.30    7.11
  -5  11  -6   14.56    4.70
  -4  11  -6   50.14    6.88
   4 -12  -5  114.53   10.01
   5 -12  -5    5.48    3.04
   6 -12  -5   12.57    4.33
   7 -12  -5   24.95    5.31
   8 -12  -5   22.59    5.17
   1 -11  -5   21.45    5.12
   2 -11  -5    5.43    3.45
   3 -11  -5   13.90    3.97
   4 -11  -5   18.02    4.44
   5 -11  -5   41.70    6.13
   6 -11  -5   31.81    5.56
   7 -11  -5    0.77    2.51
   8 -11  -5   32.61    5.68
   9 -11  -5   31.25    5.53
  10 -11  -5    3.91    3.04
  -1 -10  -5    7.66    3.49
   0 -10  -5  145.87   10.25
   1 -10  -5   61.14    7.26
   2 -10  -5  101.01    8.20
   3 -10  -5    8.03    3.17
   4 -10  -5    0.93    2.40
   5 -10  -5   21.67    4.48
   6 -10  -5   30.09    5.14
   7 -10  -5   29.42    5.16
   8 -10  -5   29.06    5.11
   9 -10  -5    8.84    3.27
  10 -10  -5  132.98    9.70
  11 -10  -5   14.64    4.06
  -2  -9  -5   33.34    5.70
  -1  -9  -5    6.20    2.10
   0  -9  -5    2.53    1.72
   1  -9  -5    3.16    2.60
   2  -9  -5    0.87    2.27
   3  -9  -5   -0.45    1.83
   4  -9  -5   10.76    3.28
   5  -9  -5   41.59    5.69
   6  -9  -5   20.63    4.12
   7  -9  -5   70.36    6.67
   8  -9  -5   13.78    3.96
   9  -9  -5    2.95    2.25
  10  -9  -5   46.61    6.23
  11  -9  -5    4.01    2.78
  12  -9  -5    4.00    2.91
  -4  -8  -5   27.77    5.45
  -3  -8  -5   31.96    3.69
  -2  -8  -5   22.20    3.06
  -1  -8  -5   15.11    2.61
   0  -8  -5    6.65    1.87
   1  -8  -5  110.85    4.98
   2  -8  -5   86.90    4.33
   3  -8  -5  257.09   11.53
   4  -8  -5   26.42    4.51
   5  -8  -5    8.54    2.82
   6  -8  -5   14.41    3.40
   7  -8  -5   10.40    3.07
   8  -8  -5    7.50    2.88
   9  -8  -5   -0.10    1.74
  10  -8  -5  104.57    7.73
  11  -8  -5    9.02    3.19
  12  -8  -5  128.93    9.40
  -5  -7  -5   41.06    6.48
  -4  -7  -5    1.90    1.75
  -3  -7  -5   33.74    3.66
  -2  -7  -5   69.52    4.36
  -1  -7  -5   16.82    2.52
   0  -7  -5   11.83    2.06
   1  -7  -5    9.20    1.77
   2  -7  -5   27.18    2.70
   3  -7  -5   30.79    2.86
   4  -7  -5   10.24    1.68
   5  -7  -5    1.79    1.81
   6  -7  -5  286.07   11.39
   7  -7  -5   11.95    3.03
   8  -7  -5  107.93    7.23
   9  -7  -5    0.04    1.77
  10  -7  -5    6.02    2.78
  11  -7  -5   23.78    4.55
  12  -7  -5    9.81    3.29
  -6  -6  -5   17.29    4.36
  -5  -6  -5   40.03    4.18
  -4  -6  -5   37.17    3.89
  -3  -6  -5   23.32    2.87
  -2  -6  -5   20.65    2.65
  -1  -6  -5  288.14    7.81
   0  -6  -5   16.08    2.23
   1  -6  -5   36.49    3.01
   2  -6  -5   26.66    2.56
   3  -6  -5  162.44    5.20
   4  -6  -5    0.72    0.90
   5  -6  -5   79.65    3.61
   6  -6  -5   13.90    2.98
   7  -6  -5    9.16    2.51
   8  -6  -5   91.37    6.39
   9  -6  -5    0.28    1.63
  10  -6  -5    2.47    1.90
  11  -6  -5   48.85    5.95
  12  -6  -5   17.17    4.02
  -7  -5  -5    7.95    3.78
  -6  -5  -5   55.29    4.93
  -5  -5  -5   20.18    2.90
  -4  -5  -5   48.00    3.99
  -3  -5  -5   10.07    2.00
  -2  -5  -5    5.06    1.51
  -1  -5  -5   73.69    3.80
   0  -5  -5    9.80    1.60
   1  -5  -5   15.72    2.00
   2  -5  -5  111.88    4.25
   3  -5  -5    5.52    1.30
   4  -5  -5  207.36    5.62
   5  -5  -5   15.30    1.88
   6  -5  -5   33.07    2.70
   7  -5  -5   25.25    2.40
   8  -5  -5  250.29   10.09
   9  -5  -5   18.88    3.51
  10  -5  -5   24.67    4.08
  11  -5  -5   32.19    4.79
  12  -5  -5   30.96    4.92
  -8  -4  -5  104.92    8.44
  -7  -4  -5   16.98    2.87
  -6  -4  -5    1.06    1.56
  -5  -4  -5   24.56    2.88
  -4  -4  -5   28.51    3.01
  -3  -4  -5   13.84    2.01
  -2  -4  -5    0.34    0.93
  -1  -4  -5  198.34    5.76
   0  -4  -5    8.35    1.43
   1  -4  -5  343.77    7.32
   2  -4  -5    2.77    1.04
   3  -4  -5   12.21    1.65
   4  -4  -5    6.87    1.28
   5  -4  -5   12.65    1.72
   6  -4  -5   27.78    2.43
   7  -4  -5   27.22    2.47
   8  -4  -5   30.54    2.73
   9  -4  -5   45.99    5.19
  10  -4  -5   31.99    4.50
  11  -4  -5    5.03    2.55
  -9  -3  -5    3.72    2.86
  -8  -3  -5    9.90    2.40
  -7  -3  -5    8.90    2.18
  -6  -3  -5    0.06    1.20
  -5  -3  -5  247.15    7.26
  -4  -3  -5   25.63    2.67
  -3  -3  -5  161.30    5.25
  -2  -3  -5    4.35    1.14
  -1  -3  -5   12.74    1.70
   0  -3  -5   62.25    3.00
   1  -3  -5   34.16    2.39
   2  -3  -5   30.79    2.43
   3  -3  -5   58.46    2.86
   4  -3  -5  341.85    7.00
   5  -3  -5  112.88    3.97
   6  -3  -5  164.79    4.96
   7  -3  -5   13.24    1.83
   8  -3  -5   10.68    1.78
   9  -3  -5   21.66    2.61
  -9  -2  -5    3.94    2.03
  -8  -2  -5  100.42    5.25
  -7  -2  -5    0.75    1.22
  -6  -2  -5   90.26    4.41
  -5  -2  -5   24.06    2.58
  -4  -2  -5   29.72    2.65
  -3  -2  -5  113.31    4.06
  -2  -2  -5    3.59    1.02
  -1  -2  -5   29.24    2.28
   0  -2  -5   95.38    3.42
   1  -2  -5   57.63    2.71
   2  -2  -5  100.61    3.64
   3  -2  -5   30.55    2.49
   4  -2  -5    4.63    1.60
   5  -2  -5    7.27    1.88
   6  -2  -5    0.37    1.13
   7  -2  -5    4.97    2.02
   8  -2  -5   17.62    3.23
   9  -2  -5   67.02    5.52
  10  -2  -5   24.37    4.11
  -9  -1  -5   58.77    6.92
  -8  -1  -5    1.27    1.34
  -7  -1  -5  105.89    4.72
  -6  -1  -5    8.92    1.71
  -5  -1  -5   33.78    2.53
  -4  -1  -5   13.84    1.70
  -3  -1  -5  329.37   10.34
  -2  -1  -5   30.70    3.51
  -1  -1  -5   55.78    3.98
   0  -1  -5   84.75    4.72
   1  -1  -5   83.53    4.68
   2  -1  -5   50.88    3.75
   3  -1  -5   34.22    3.61
   4  -1  -5   12.36    2.42
   5  -1  -5  200.74    7.87
   6  -1  -5   77.82    5.29
   7  -1  -5  279.48   10.35
   8  -1  -5   19.93    3.59
   9  -1  -5   21.02    3.97
  10  -1  -5    6.80    2.89
  11  -1  -5    7.31    3.32
 -10   0  -5  157.53   10.04
  -9   0  -5    2.33    2.30
  -8   0  -5    6.89    2.51
  -7   0  -5    9.22    2.49
  -6   0  -5   13.84    2.90
  -5   0  -5   14.68    2.85
  -4   0  -5    9.36    2.29
  -3   0  -5   57.61    4.18
  -2   0  -5   93.98    5.12
  -1   0  -5   91.33    4.94
   0   0  -5   -0.18    0.91
   1   0  -5   86.53    4.79
   2   0  -5   96.56    5.20
   3   0  -5   53.36    4.01
   4   0  -5   11.39    2.37
   5   0  -5   13.38    2.73
   6   0  -5   17.20    3.17
   7   0  -5   10.20    2.78
   8   0  -5    5.54    2.45
   9   0  -5    2.92    2.46
  10   0  -5  153.10    9.48
 -10   1  -5    7.80    2.95
  -9   1  -5   19.46    4.03
  -8   1  -5   12.95    3.10
  -7   1  -5  289.36   10.90
  -6   1  -5   71.68    5.29
  -5   1  -5  188.31    8.09
  -4   1  -5   13.75    2.54
  -3   1  -5   26.47    3.28
  -2   1  -5   50.81    3.81
  -1   1  -5   86.58    4.83
   0   1  -5   91.02    4.93
   1   1  -5   54.43    3.94
   2   1  -5   34.11    3.69
   3   1  -5  333.26   10.32
   4   1  -5   10.70    2.47
   5   1  -5   37.45    4.44
   6   1  -5   14.97    3.28
   7   1  -5  110.72    7.30
   8   1  -5    1.17    2.02
   9   1  -5   68.34    7.46
  10   1  -5   18.09    4.34
 -11   2  -5   30.84    5.06
 -10   2  -5   19.15    3.96
  -9   2  -5   75.13    6.28
  -8   2  -5   23.71    3.75
  -7   2  -5    4.63    1.83
  -6   2  -5    0.36    0.78
  -5   2  -5    5.30    1.27
  -4   2  -5    4.55    1.19
  -3   2  -5   36.92    2.56
  -2   2  -5   97.39    3.69
  -1   2  -5   51.10    2.69
   0   2  -5   95.99    3.58
   1   2  -5   26.77    2.26
   2   2  -5    1.27    1.35
   3   2  -5  106.35    6.15
   4   2  -5   27.13    3.83
   5   2  -5   32.50    4.52
   6   2  -5   93.44    6.89
   7   2  -5   -0.48    1.90
   8   2  -5  103.72    7.90
   9   2  -5    7.10    3.34
 -11   3  -5   34.98    5.38
 -10   3  -5   30.51    4.80
  -9   3  -5   24.70    4.06
  -8   3  -5   10.63    1.82
  -7   3  -5    8.84    1.58
  -6   3  -5  157.02    5.18
  -5   3  -5  120.26    4.32
  -4   3  -5  341.42    7.25
  -3   3  -5   55.42    2.89
  -2   3  -5   24.93    2.26
  -1   3  -5   32.15    2.51
   0   3  -5   59.66    2.89
   1   3  -5   11.74    1.57
   2   3  -5    3.91    1.12
   3   3  -5  151.50    7.61
   4   3  -5   35.86    4.82
   5   3  -5  238.05   10.69
   6   3  -5   -0.45    1.78
   7   3  -5    9.09    3.32
   8   3  -5   11.51    3.85
 -10   4  -5   35.69    3.31
  -9   4  -5   51.07    3.55
  -8   4  -5   29.60    2.85
  -7   4  -5   31.34    2.79
  -6   4  -5   28.68    2.66
  -5   4  -5   12.05    1.72
  -4   4  -5   10.82    1.65
  -3   4  -5   13.86    1.77
  -2   4  -5    3.40    1.02
  -1   4  -5  331.89    7.14
   0   4  -5   10.98    1.62
   1   4  -5  197.83    5.49
   2   4  -5   -1.06    1.10
   3   4  -5   13.44    3.04
   4   4  -5   28.60    4.59
   5   4  -5   12.78    3.57
   6   4  -5    5.24    2.73
   7   4  -5   22.07    4.69
 -11   5  -5   33.16    4.57
 -10   5  -5   27.41    4.26
  -9   5  -5   22.13    3.62
  -8   5  -5  237.30    6.74
  -7   5  -5   23.59    2.45
  -6   5  -5   32.85    2.79
  -5   5  -5   11.92    1.74
  -4   5  -5  197.68    5.66
  -3   5  -5    4.85    1.23
  -2   5  -5  110.28    4.17
  -1   5  -5   15.92    1.99
   0   5  -5    9.72    1.60
   1   5  -5   79.08    3.63
   2   5  -5    7.82    2.52
   3   5  -5   10.19    3.05
   4   5  -5   50.65    6.19
   5   5  -5   18.34    3.96
   6   5  -5   54.07    6.95
   7   5  -5   10.68    3.85
 -11   6  -5   58.59    6.08
 -10   6  -5    1.35    1.89
  -9   6  -5    1.46    1.61
  -8   6  -5   82.88    5.88
  -7   6  -5    8.04    1.56
  -6   6  -5   16.47    2.07
  -5   6  -5   74.45    3.58
  -4   6  -5   -0.35    0.81
  -3   6  -5  147.71    4.95
  -2   6  -5   25.61    2.51
  -1   6  -5   38.66    3.05
   0   6  -5   17.02    2.16
   1   6  -5  270.10   10.90
   2   6  -5   12.58    3.06
   3   6  -5   17.01    3.83
   4   6  -5   36.34    5.55
   5   6  -5   43.45    6.31
   6   6  -5   15.82    4.58
 -12   7  -5    8.61    2.19
 -11   7  -5   21.56    2.90
 -10   7  -5    4.66    1.72
  -9   7  -5   -0.63    1.16
  -8   7  -5  102.34    5.00
  -7   7  -5    8.78    2.60
  -6   7  -5  285.42   10.86
  -5   7  -5    5.99    1.46
  -4   7  -5   11.47    1.81
  -3   7  -5   26.35    2.60
  -2   7  -5   22.27    2.44
  -1   7  -5    7.55    1.65
   0   7  -5   11.42    1.91
   1   7  -5   17.47    3.76
   2   7  -5   73.50    6.54
   3   7  -5   37.79    5.51
   4   7  -5    4.24    2.89
   5   7  -5   40.18    6.25
 -12   8  -5  116.81    5.94
 -11   8  -5   10.22    2.32
 -10   8  -5  101.93    5.45
  -9   8  -5    1.50    1.44
  -8   8  -5    6.23    1.78
  -7   8  -5   17.13    2.55
  -6   8  -5   19.75    3.66
  -5   8  -5    7.60    2.51
  -4   8  -5   30.39    2.89
  -3   8  -5  237.43    6.87
  -2   8  -5   85.17    4.24
  -1   8  -5  105.26    4.69
   0   8  -5    5.82    2.47
   1   8  -5   19.85    3.76
   2   8  -5   24.93    4.61
   3   8  -5   29.76    5.28
   4   8  -5   26.37    5.18
 -12   9  -5    1.87    2.40
 -11   9  -5    5.95    2.10
 -10   9  -5   60.63    5.03
  -9   9  -5    0.27    1.47
  -8   9  -5   14.35    2.48
  -7   9  -5   76.01    4.95
  -6   9  -5   24.41    4.27
  -5   9  -5   45.34    5.56
  -4   9  -5   22.92    4.23
  -3   9  -5    2.09    1.88
  -2   9  -5    2.48    1.38
  -1   9  -5    2.27    1.56
   0   9  -5    3.75    2.39
   1   9  -5   10.61    3.38
   2   9  -5   35.22    5.69
   3   9  -5   13.63    4.23
 -11  10  -5   14.48    3.04
 -10  10  -5  141.89    6.86
  -9  10  -5    4.98    1.97
  -8  10  -5   19.70    3.02
  -7  10  -5   31.72    3.68
  -6  10  -5   27.58    4.76
  -5  10  -5   28.78    4.87
  -4  10  -5    4.37    2.51
  -3  10  -5    4.31    2.45
  -2  10  -5   78.48    6.57
   1  10  -5   15.28    3.85
 -10  11  -5    9.76    3.75
  -9  11  -5   24.22    3.53
  -8  11  -5   29.19    3.76
  -7  11  -5    0.51    2.29
  -6  11  -5   31.38    5.36
  -5  11  -5   52.44    6.73
  -4  11  -5   17.61    4.19
  -3  11  -5   12.27    3.59
  -8  12  -5   27.83    5.49
  -7  12  -5   31.90    5.76
  -6  12  -5   10.90    3.85
  -5  12  -5    8.74    3.68
  -4  12  -5  118.74    8.92
   5 -13  -4   68.29    8.14
   6 -13  -4   70.08    8.05
   7 -13  -4   15.77    4.44
   8 -13  -4   18.89    4.94
   2 -12  -4  122.43    9.53
   3 -12  -4    2.02    2.51
   4 -12  -4   24.86    4.90
   5 -12  -4   -0.12    2.47
   6 -12  -4   20.51    4.75
   7 -12  -4    1.05    2.59
   8 -12  -4    7.96    3.21
   9 -12  -4   27.12    5.18
  10 -12  -4  110.24    9.25
   0 -11  -4    9.60    3.73
   1 -11  -4    3.44    2.51
   2 -11  -4    8.85    3.42
   3 -11  -4   33.60    5.62
   4 -11  -4    0.97    2.40
   5 -11  -4   33.95    5.37
   6 -11  -4   21.24    4.37
   7 -11  -4  238.79   12.15
   8 -11  -4    3.37    2.67
   9 -11  -4   33.06    5.48
  10 -11  -4    8.91    3.49
  11 -11  -4    5.25    3.02
  -2 -10  -4  109.26    9.04
  -1 -10  -4    8.12    3.28
   0 -10  -4   14.51    4.03
   1 -10  -4   31.88    5.36
   2 -10  -4   31.80    5.04
   3 -10  -4   71.16    6.65
   4 -10  -4   55.59    6.50
   5 -10  -4   32.49    5.35
   6 -10  -4   29.05    4.92
   7 -10  -4   19.96    4.21
   8 -10  -4    6.29    2.69
   9 -10  -4    8.12    2.87
  10 -10  -4   18.52    4.27
  11 -10  -4    2.28    2.24
  12 -10  -4  148.80    9.93
  -3  -9  -4   28.96    5.52
  -2  -9  -4   40.61    6.14
  -1  -9  -4    7.59    3.14
   0  -9  -4   72.88    4.65
   1  -9  -4    5.51    2.57
   2  -9  -4   29.32    4.86
   3  -9  -4  105.88    7.53
   4  -9  -4    1.41    1.95
   5  -9  -4   63.59    5.93
   6  -9  -4   22.25    3.96
   7  -9  -4   41.04    5.23
   8  -9  -4   73.08    6.27
   9  -9  -4   70.50    6.39
  10  -9  -4   28.66    4.70
  11  -9  -4    7.35    3.02
  12  -9  -4    2.15    2.35
  13  -9  -4    4.22    2.81
  -5  -8  -4   16.20    4.67
  -4  -8  -4   12.88    4.17
  -3  -8  -4    7.01    3.19
  -2  -8  -4   12.17    2.32
  -1  -8  -4   64.07    4.31
   0  -8  -4  156.43    5.74
   1  -8  -4   31.44    2.98
   2  -8  -4   24.22    2.53
   3  -8  -4   42.20    5.27
   4  -8  -4   23.53    4.03
   5  -8  -4  153.96    8.42
   6  -8  -4    2.81    1.81
   7  -8  -4    2.67    1.91
   8  -8  -4  159.22    8.65
   9  -8  -4    1.71    2.02
  10  -8  -4   26.54    4.35
  11  -8  -4   32.80    4.87
  12  -8  -4   26.51    4.81
  13  -8  -4   65.13    7.34
  -6  -7  -4   23.60    5.16
  -5  -7  -4    0.13    2.33
  -4  -7  -4  206.72   11.16
  -3  -7  -4   23.91    3.06
  -2  -7  -4   45.75    3.79
  -1  -7  -4    0.91    1.15
   0  -7  -4   26.93    2.73
   1  -7  -4   20.31    2.33
   2  -7  -4    1.62    0.95
   3  -7  -4   33.88    2.50
   4  -7  -4  171.92    4.91
   5  -7  -4   94.37    6.19
   6  -7  -4   68.41    5.34
   7  -7  -4   23.49    3.73
   8  -7  -4   35.74    4.62
   9  -7  -4   27.29    4.06
  10  -7  -4   77.54    6.19
  11  -7  -4    0.54    1.77
  12  -7  -4    4.06    2.60
  13  -7  -4   97.32    7.85
  -7  -6  -4   87.94    9.31
  -6  -6  -4   24.68    4.86
  -5  -6  -4   22.65    4.67
  -4  -6  -4   32.04    3.42
  -3  -6  -4   25.68    2.92
  -2  -6  -4    5.02    1.47
  -1  -6  -4   79.50    3.90
   0  -6  -4    4.22    1.27
   1  -6  -4  346.12    7.50
   2  -6  -4    0.26    0.86
   3  -6  -4   13.06    1.63
   4  -6  -4    6.47    1.20
   5  -6  -4    8.84    1.34
   6  -6  -4    4.00    1.74
   7  -6  -4   20.02    3.37
   8  -6  -4   17.42    3.11
   9  -6  -4   98.46    6.39
  10  -6  -4   65.84    5.68
  11  -6  -4   41.61    5.33
  12  -6  -4   19.00    3.96
  13  -6  -4   19.93    4.30
  -8  -5  -4   80.31    8.76
  -7  -5  -4    5.16    2.72
  -6  -5  -4   43.34    5.84
  -5  -5  -4   28.28    3.29
  -4  -5  -4   59.09    4.00
  -3  -5  -4  156.59    5.59
  -2  -5  -4   98.16    4.21
  -1  -5  -4    8.10    1.52
   0  -5  -4    2.04    0.93
   1  -5  -4   12.17    1.63
   2  -5  -4   45.35    2.52
   3  -5  -4   14.26    1.63
   4  -5  -4   61.34    2.79
   5  -5  -4    1.37    0.74
   6  -5  -4  350.35    6.91
   7  -5  -4    0.92    0.81
   8  -5  -4   35.82    4.27
   9  -5  -4    2.64    1.55
  10  -5  -4   28.44    4.21
  11  -5  -4   28.63    4.47
  12  -5  -4    1.04    1.86
  13  -5  -4   25.61    4.67
  -9  -4  -4    4.29    2.98
  -8  -4  -4   31.49    5.53
  -7  -4  -4    3.51    2.27
  -6  -4  -4   63.44    4.09
  -5  -4  -4    2.24    1.26
  -4  -4  -4   21.12    2.51
  -3  -4  -4  161.54    5.29
  -2  -4  -4    6.06    1.32
  -1  -4  -4   62.63    3.07
   0  -4  -4   48.54    2.61
   1  -4  -4   69.13    2.99
   2  -4  -4  207.86    5.02
   3  -4  -4  352.33    6.65
   4  -4  -4   44.41    2.32
   5  -4  -4   12.37    1.50
   6  -4  -4    1.65    0.79
   7  -4  -4   36.73    2.36
   8  -4  -4   20.59    2.13
   9  -4  -4   56.32    3.18
  10  -4  -4   34.90    4.54
  11  -4  -4  231.22   10.48
  12  -4  -4   14.64    3.49
  13  -4  -4   17.20    4.10
  -9  -3  -4    2.94    2.49
  -8  -3  -4   41.00    5.60
  -7  -3  -4   75.45    4.74
  -6  -3  -4  103.73    4.80
  -5  -3  -4   45.11    3.49
  -4  -3  -4   40.46    2.89
  -3  -3  -4   12.91    1.71
  -2  -3  -4   12.79    1.61
  -1  -3  -4  352.74    6.92
   0  -3  -4   35.31    2.11
   1  -3  -4    3.24    0.89
   2  -3  -4  164.86    4.32
   3  -3  -4   36.23    2.03
   4  -3  -4   69.23    2.77
   5  -3  -4   46.19    2.34
   6  -3  -4   14.95    1.68
   7  -3  -4  166.20    4.79
   8  -3  -4  156.76    4.92
   9  -3  -4   28.05    2.70
  10  -3  -4   17.98    2.36
  11  -3  -4    6.39    2.63
  12  -3  -4   33.26    5.04
  13  -3  -4    1.60    2.29
 -10  -2  -4  133.23    8.82
  -9  -2  -4   13.73    3.75
  -8  -2  -4   34.98    3.59
  -7  -2  -4   29.11    3.05
  -6  -2  -4   28.79    2.84
  -5  -2  -4    1.43    0.98
  -4  -2  -4   -0.10    0.65
  -3  -2  -4   49.20    2.57
  -2  -2  -4  210.59    4.96
  -1  -2  -4  171.89    4.34
   0  -2  -4   43.38    2.14
   1  -2  -4   83.52    2.94
   2  -2  -4   41.52    2.09
   3  -2  -4    3.40    0.80
   4  -2  -4  202.53    4.66
   5  -2  -4   15.04    1.63
   6  -2  -4    7.59    1.27
   7  -2  -4   94.82    3.76
   8  -2  -4    5.87    1.29
   9  -2  -4   51.19    3.43
  10  -2  -4    7.18    1.61
  11  -2  -4   44.97    3.85
  12  -2  -4  110.47    7.80
 -11  -1  -4    5.70    3.09
 -10  -1  -4    1.19    2.04
  -9  -1  -4   28.51    3.26
  -8  -1  -4    6.68    1.65
  -7  -1  -4   35.09    3.10
  -6  -1  -4   20.66    2.27
  -5  -1  -4  342.16    7.27
  -4  -1  -4   11.31    1.50
  -3  -1  -4   63.98    2.66
  -2  -1  -4    2.69    0.79
  -1  -1  -4   83.19    2.74
   0  -1  -4   22.08    1.56
   1  -1  -4   17.59    1.56
   2  -1  -4   82.95    2.74
   3  -1  -4  166.80    3.99
   4  -1  -4  349.42    6.30
   5  -1  -4   62.23    2.69
   6  -1  -4    7.83    1.30
   7  -1  -4   83.07    3.51
   8  -1  -4    2.30    1.06
   9  -1  -4   67.03    3.75
  10  -1  -4    7.40    1.81
  11  -1  -4    4.77    1.78
  12  -1  -4   66.23    5.50
 -11   0  -4   14.59    3.84
 -10   0  -4   23.96    4.07
  -9   0  -4   71.37    4.18
  -8   0  -4  150.63    5.41
  -7   0  -4   24.50    2.50
  -6   0  -4    7.07    1.36
  -5   0  -4    1.31    0.71
  -4   0  -4   48.17    2.36
  -3   0  -4   37.91    1.91
  -2   0  -4   44.41    1.90
  -1   0  -4   22.00    1.32
   0   0  -4  994.97   10.71
   1   0  -4   18.38    1.31
   2   0  -4   42.06    1.85
   3   0  -4   38.68    1.88
   4   0  -4   44.77    2.19
   5   0  -4    1.54    0.76
   6   0  -4    6.33    1.21
   7   0  -4   25.84    2.48
   8   0  -4  158.41    5.40
   9   0  -4   79.05    4.18
  10   0  -4   20.14    2.74
  11   0  -4   12.65    3.69
 -12   1  -4   79.31    6.96
 -11   1  -4    5.89    2.64
 -10   1  -4    6.74    1.78
  -9   1  -4   65.89    4.00
  -8   1  -4    1.85    0.97
  -7   1  -4   81.82    3.51
  -6   1  -4    7.24    1.26
  -5   1  -4   59.94    2.16
  -4   1  -4  354.61    5.10
  -3   1  -4  162.68    3.09
  -2   1  -4   79.63    1.90
  -1   1  -4   20.93    1.78
   0   1  -4   20.45    1.73
   1   1  -4   80.33    2.79
   2   1  -4    3.40    0.68
   3   1  -4   59.69    2.31
   4   1  -4   12.04    1.39
   5   1  -4  332.87    6.75
   6   1  -4   19.77    2.11
   7   1  -4   26.75    2.57
   8   1  -4    5.26    2.34
   9   1  -4   20.91    4.15
  10   1  -4    0.86    2.30
  11   1  -4    7.30    3.28
 -12   2  -4  123.15    7.96
 -11   2  -4   39.97    5.17
 -10   2  -4    7.25    1.77
  -9   2  -4   50.55    3.33
  -8   2  -4    4.85    1.23
  -7   2  -4  102.18    3.07
  -6   2  -4    5.69    0.91
  -5   2  -4   14.42    1.23
  -4   2  -4  201.60    3.50
  -3   2  -4    3.15    0.84
  -2   2  -4   42.01    2.18
  -1   2  -4   75.94    2.82
   0   2  -4   42.50    2.15
   1   2  -4  165.42    4.15
   2   2  -4  197.37    4.59
   3   2  -4   44.33    2.19
   4   2  -4    0.48    1.17
   5   2  -4    1.68    1.47
   6   2  -4   26.17    3.96
   7   2  -4   28.17    4.59
   8   2  -4   29.17    4.78
   9   2  -4    5.60    3.06
  10   2  -4  146.41    9.84
 -11   3  -4    6.17    2.29
 -10   3  -4   22.74    2.66
  -9   3  -4   28.44    2.13
  -8   3  -4  152.97    3.91
  -7   3  -4  167.72    3.83
  -6   3  -4   11.83    1.60
  -5   3  -4   46.22    2.44
  -4   3  -4   71.80    2.91
  -3   3  -4   33.94    2.04
  -2   3  -4  167.79    4.31
  -1   3  -4    2.35    0.77
   0   3  -4   38.88    2.10
   1   3  -4  355.71    6.52
   2   3  -4   17.49    1.74
   3   3  -4   13.84    2.60
   4   3  -4   35.14    4.34
   5   3  -4   48.64    5.51
   6   3  -4  105.10    7.13
   7   3  -4   83.55    6.75
   8   3  -4   35.02    5.50
   9   3  -4    1.05    2.64
 -10   4  -4   33.61    2.23
  -9   4  -4   55.88    2.65
  -8   4  -4   24.79    1.98
  -7   4  -4   35.30    2.13
  -6   4  -4    0.58    0.62
  -5   4  -4   12.75    1.33
  -4   4  -4   47.82    2.45
  -3   4  -4  352.46    6.64
  -2   4  -4  193.90    4.82
  -1   4  -4   61.53    2.73
   0   4  -4   48.22    2.44
   1   4  -4   61.06    2.76
   2   4  -4    6.97    1.21
   3   4  -4  169.94    7.96
   4   4  -4   25.19    4.08
   5   4  -4    1.56    1.79
   6   4  -4   70.21    7.20
   7   4  -4    1.11    1.99
   8   4  -4   35.85    5.73
 -11   5  -4   25.44    3.12
 -10   5  -4   26.23    2.30
  -9   5  -4    2.46    1.17
  -8   5  -4   44.98    2.39
  -7   5  -4    2.25    0.81
  -6   5  -4  337.00    5.89
  -5   5  -4    1.34    0.64
  -4   5  -4   61.54    2.38
  -3   5  -4   16.23    1.76
  -2   5  -4   42.16    2.39
  -1   5  -4   12.02    1.53
   0   5  -4    0.69    0.76
   1   5  -4    9.94    1.46
   2   5  -4   96.95    6.09
   3   5  -4  164.73    8.24
   4   5  -4   60.07    6.39
   5   5  -4   36.90    5.24
   6   5  -4   52.67    6.54
   7   5  -4    4.16    2.68
   8   5  -4   84.63    8.85
 -12   6  -4   21.26    3.07
 -11   6  -4   45.60    3.18
 -10   6  -4   63.12    3.73
  -9   6  -4  106.59    4.65
  -8   6  -4   23.96    2.56
  -7   6  -4   20.88    1.81
  -6   6  -4    5.47    1.00
  -5   6  -4    7.76    1.12
  -4   6  -4    4.94    0.96
  -3   6  -4   12.86    1.69
  -2   6  -4   -0.09    0.75
  -1   6  -4  343.33    7.27
   0   6  -4    5.09    1.23
   1   6  -4   74.35    3.43
   2   6  -4    5.35    2.14
   3   6  -4   34.39    4.79
   4   6  -4   30.41    4.75
   5   6  -4   33.02    5.27
   6   6  -4   21.46    4.66
   7   6  -4   84.66    8.71
 -13   7  -4   74.06    8.58
 -12   7  -4    3.96    2.53
 -11   7  -4    0.87    1.29
 -10   7  -4   79.56    4.32
  -9   7  -4   29.06    3.02
  -8   7  -4   34.97    3.17
  -7   7  -4   27.81    2.82
  -6   7  -4   76.41    3.93
  -5   7  -4   95.34    3.20
  -4   7  -4  165.22    4.16
  -3   7  -4   36.48    2.81
  -2   7  -4    1.99    1.02
  -1   7  -4   19.31    2.18
   0   7  -4   22.43    2.36
   1   7  -4    1.52    1.53
   2   7  -4   49.07    5.70
   3   7  -4   20.12    3.91
   4   7  -4  211.25   10.90
   5   7  -4    2.29    2.49
   6   7  -4   20.25    4.70
 -13   8  -4   65.17    7.68
 -12   8  -4   25.98    3.19
 -11   8  -4   38.33    3.71
 -10   8  -4   30.58    3.26
  -9   8  -4    5.79    1.72
  -8   8  -4  144.29    5.73
  -7   8  -4    1.03    1.17
  -6   8  -4    3.77    1.43
  -5   8  -4  144.35    5.48
  -4   8  -4   22.99    1.96
  -3   8  -4   41.16    3.14
  -2   8  -4   25.83    2.52
  -1   8  -4   34.47    2.97
   0   8  -4  150.18    5.37
   1   8  -4   62.36    5.61
   2   8  -4   12.81    3.31
   3   8  -4    6.30    2.69
   4   8  -4   13.61    3.71
   5   8  -4   16.86    4.19
 -13   9  -4    3.42    3.36
 -12   9  -4    0.75    1.52
 -11   9  -4   10.79    2.39
 -10   9  -4   22.74    3.03
  -9   9  -4   77.40    4.57
  -8   9  -4   65.28    4.14
  -7   9  -4   49.63    4.16
  -6   9  -4   28.02    3.14
  -5   9  -4   61.36    3.81
  -4   9  -4    3.54    1.41
  -3   9  -4   90.91    6.40
  -2   9  -4   29.12    2.93
  -1   9  -4    4.05    1.47
   0   9  -4   76.64    6.10
   1   9  -4    7.22    2.77
   2   9  -4   34.44    5.19
   3   9  -4   39.60    5.83
   4   9  -4   33.97    5.56
 -13  10  -4    3.91    2.81
 -12  10  -4  129.72    6.33
 -11  10  -4    2.40    1.63
 -10  10  -4   17.06    2.77
  -9  10  -4    9.11    2.15
  -8  10  -4    6.53    1.85
  -7  10  -4   17.67    2.65
  -6  10  -4   34.09    3.58
  -5  10  -4   27.36    3.20
  -4  10  -4   67.87    6.04
  -3  10  -4   71.74    6.16
  -2  10  -4   30.84    4.70
   0  10  -4   16.07    3.65
   1  10  -4    2.47    2.47
   2  10  -4  117.89    8.35
   3  10  -4    4.72    3.01
 -12  11  -4    3.63    2.61
 -11  11  -4    5.01    2.06
 -10  11  -4    3.17    1.87
  -9  11  -4   35.62    4.00
  -8  11  -4    3.52    1.78
  -7  11  -4  224.59    7.92
  -6  11  -4   19.70    2.80
  -5  11  -4   41.30    3.93
  -4  11  -4    1.13    2.19
  -3  11  -4   37.31    5.67
  -2  11  -4   13.49    3.38
 -11  12  -4   57.14    7.62
 -10  12  -4  108.94    6.24
  -9  12  -4   28.84    3.86
  -8  12  -4   11.26    2.43
  -7  12  -4    0.77    1.55
  -6  12  -4   20.03    3.01
  -5  12  -4    2.25    2.47
  -4  12  -4   22.44    4.80
  -3  12  -4    2.01    2.51
  -9  13  -4   25.79    5.30
  -8  13  -4   24.80    3.67
  -7  13  -4   23.03    3.47
  -6  13  -4   76.86    5.36
  -5  13  -4   73.99    8.39
  -4  13  -4    4.05    2.91
   7 -14  -3   23.04    5.71
   3 -13  -3   47.28    6.67
   4 -13  -3   31.45    5.54
   5 -13  -3   -0.96    2.20
   6 -13  -3    2.20    2.59
   7 -13  -3   72.48    8.23
   8 -13  -3   16.52    4.37
   9 -13  -3   87.22    8.29
  10 -13  -3   10.04    3.66
   0 -12  -3   75.72    8.23
   1 -12  -3   34.48    5.75
   2 -12  -3   14.35    3.91
   3 -12  -3    3.74    2.84
   4 -12  -3  114.37    8.40
   5 -12  -3    0.97    2.27
   6 -12  -3   29.08    5.12
   7 -12  -3   22.47    4.38
   8 -12  -3   11.93    3.72
   9 -12  -3   19.32    4.50
  10 -12  -3    6.03    3.07
  11 -12  -3   12.94    3.95
  12 -12  -3   66.22    7.70
  -1 -11  -3   10.23    3.83
   0 -11  -3   37.23    5.90
   1 -11  -3   10.25    3.10
   2 -11  -3   41.56    5.65
   3 -11  -3   41.24    5.63
   4 -11  -3   23.09    4.43
   5 -11  -3  113.70    8.30
   6 -11  -3   25.97    4.58
   7 -11  -3    4.38    2.51
   8 -11  -3   15.97    3.89
   9 -11  -3  108.00    8.18
  10 -11  -3   13.97    3.69
  11 -11  -3   26.86    4.93
  12 -11  -3   22.78    4.57
  -3 -10  -3    9.21    3.75
  -2 -10  -3    4.99    2.91
  -1 -10  -3   16.24    4.06
   0 -10  -3  143.44    9.19
   1 -10  -3   48.45    5.96
   2 -10  -3  142.75    8.74
   3 -10  -3    3.28    2.12
   4 -10  -3    2.27    2.04
   5 -10  -3   33.33    4.96
   6 -10  -3   22.68    4.09
   7 -10  -3   16.22    3.38
   8 -10  -3   28.67    4.55
   9 -10  -3   -0.16    1.58
  10 -10  -3  151.21    9.06
  11 -10  -3    8.55    3.07
  12 -10  -3    8.74    3.23
  13 -10  -3   33.34    5.51
  -4  -9  -3   59.44    7.45
  -3  -9  -3   19.50    4.52
  -2  -9  -3  118.92    8.36
  -1  -9  -3    1.35    2.10
   0  -9  -3    3.50    2.00
   1  -9  -3   43.47    5.57
   2  -9  -3   19.11    3.72
   3  -9  -3    1.27    1.72
   4  -9  -3    6.40    2.46
   5  -9  -3  224.62   10.19
   6  -9  -3   38.58    4.90
   7  -9  -3  140.31    8.00
   8  -9  -3    1.78    1.50
   9  -9  -3    4.07    2.02
  10  -9  -3   46.99    5.77
  11  -9  -3   36.34    5.03
  12  -9  -3    7.04    2.65
  13  -9  -3   33.92    5.42
  -5  -8  -3   12.90    3.88
  -4  -8  -3    8.41    3.19
  -3  -8  -3   29.54    5.01
  -2  -8  -3   38.27    5.30
  -1  -8  -3   -0.41    1.44
   0  -8  -3    5.64    1.55
   1  -8  -3  217.83    6.20
   2  -8  -3   75.12    3.49
   3  -8  -3  256.92   10.58
   4  -8  -3   54.94    4.97
   5  -8  -3   11.31    2.69
   6  -8  -3    3.44    1.80
   7  -8  -3   29.34    4.11
   8  -8  -3    2.78    1.70
   9  -8  -3   40.08    4.97
  10  -8  -3  152.42    8.43
  11  -8  -3   37.38    5.04
  12  -8  -3  111.18    7.93
  13  -8  -3   -0.58    1.59
  -6  -7  -3   78.49    7.44
  -5  -7  -3   32.61    5.49
  -4  -7  -3    4.01    2.38
  -3  -7  -3   19.99    4.05
  -2  -7  -3  148.64    5.56
  -1  -7  -3   32.66    2.91
   0  -7  -3   97.95    4.09
   1  -7  -3   92.10    3.76
   2  -7  -3   30.11    2.29
   3  -7  -3  116.20    3.80
   4  -7  -3   21.91    1.75
   5  -7  -3   11.76    2.63
   6  -7  -3  291.32   10.26
   7  -7  -3   96.61    6.07
   8  -7  -3  207.26    8.84
   9  -7  -3   22.08    3.71
  10  -7  -3    5.93    2.17
  11  -7  -3   27.77    4.29
  12  -7  -3    1.91    1.79
  13  -7  -3    2.63    2.23
  14  -7  -3   18.31    4.34
  -7  -6  -3    2.31    2.64
  -6  -6  -3   25.23    4.73
  -5  -6  -3   23.67    4.61
  -4  -6  -3   29.70    4.64
  -3  -6  -3   44.76    3.64
  -2  -6  -3    4.28    1.35
  -1  -6  -3  295.07    7.07
   0  -6  -3   42.85    2.78
   1  -6  -3   24.68    2.22
   2  -6  -3   77.31    3.09
   3  -6  -3  268.55    5.62
   4  -6  -3   67.36    2.62
   5  -6  -3   55.67    2.33
   6  -6  -3   40.97    3.81
   7  -6  -3   76.76    5.05
   8  -6  -3   69.78    5.07
   9  -6  -3    0.66    1.17
  10  -6  -3    4.89    2.01
  11  -6  -3  112.66    7.26
  12  -6  -3   27.62    4.35
  13  -6  -3  101.20    7.57
  14  -6  -3    0.99    2.12
  -8  -5  -3    2.64    2.38
  -7  -5  -3    1.70    2.11
  -6  -5  -3  118.76    7.78
  -5  -5  -3   35.61    5.11
  -4  -5  -3  224.54    6.81
  -3  -5  -3   14.03    1.99
  -2  -5  -3    9.22    1.59
  -1  -5  -3   56.12    2.90
   0  -5  -3  134.84    4.19
   1  -5  -3   19.48    1.86
   2  -5  -3   89.05    3.08
   3  -5  -3   48.32    2.19
   4  -5  -3  306.94    5.60
   5  -5  -3  136.57    3.60
   6  -5  -3   23.72    1.67
   7  -5  -3   29.14    1.97
   8  -5  -3  246.31    9.03
   9  -5  -3    7.97    2.16
  10  -5  -3   33.14    4.29
  11  -5  -3   23.00    3.85
  12  -5  -3   21.49    3.99
  13  -5  -3   22.51    4.28
  -9  -4  -3   28.47    5.42
  -8  -4  -3  106.32    8.04
  -7  -4  -3   41.60    5.68
  -6  -4  -3    5.52    2.19
  -5  -4  -3    8.29    1.74
  -4  -4  -3   55.61    3.21
  -3  -4  -3   23.84    2.34
  -2  -4  -3   68.81    3.14
  -1  -4  -3  299.83    6.27
   0  -4  -3  148.67    4.05
   1  -4  -3  390.68    6.73
   2  -4  -3    7.68    1.07
   3  -4  -3   30.63    1.71
   4  -4  -3  146.04    3.65
   5  -4  -3   20.74    1.68
   6  -4  -3   78.18    2.80
   7  -4  -3  116.06    3.63
   8  -4  -3   54.41    2.72
   9  -4  -3  221.77    5.77
  10  -4  -3   27.22    3.93
  11  -4  -3    2.41    1.57
  12  -4  -3   14.94    3.51
  13  -4  -3   76.79    6.78
 -10  -3  -3   44.74    6.45
  -9  -3  -3    7.73    3.12
  -8  -3  -3   49.54    6.11
  -7  -3  -3    4.33    2.05
  -6  -3  -3    2.84    1.27
  -5  -3  -3  258.13    6.78
  -4  -3  -3  118.24    4.28
  -3  -3  -3  259.55    6.00
  -2  -3  -3   48.25    2.43
  -1  -3  -3   27.54    1.90
   0  -3  -3   95.66    3.02
   1  -3  -3   30.75    1.72
   2  -3  -3   77.72    2.55
   3  -3  -3   97.20    2.82
   4  -3  -3  389.27    6.22
   5  -3  -3   90.20    2.91
   6  -3  -3  274.40    5.53
   7  -3  -3   23.46    2.06
   8  -3  -3   16.16    1.87
   9  -3  -3   41.62    2.64
  10  -3  -3   17.50    2.20
  11  -3  -3   22.59    3.83
  12  -3  -3   26.81    4.49
  13  -3  -3    4.54    2.53
 -11  -2  -3   19.38    4.81
 -10  -2  -3   21.12    4.35
  -9  -2  -3   42.88    5.74
  -8  -2  -3  157.14    8.27
  -7  -2  -3   26.35    2.85
  -6  -2  -3   75.36    3.68
  -5  -2  -3   29.93    2.57
  -4  -2  -3   73.84    3.11
  -3  -2  -3   94.02    3.26
  -2  -2  -3    8.45    1.18
  -1  -2  -3   78.80    2.64
   0  -2  -3  363.21    5.94
   1  -2  -3   79.43    2.53
   2  -2  -3  379.83    5.83
   3  -2  -3   29.58    1.55
   4  -2  -3    7.18    0.97
   5  -2  -3   47.14    2.16
   6  -2  -3   68.33    2.73
   7  -2  -3   11.75    1.51
   8  -2  -3    3.54    1.05
   9  -2  -3  145.68    4.94
  10  -2  -3   35.26    3.11
  11  -2  -3  111.02    4.98
  12  -2  -3    4.53    2.27
  13  -2  -3    1.52    2.15
 -11  -1  -3   38.24    5.86
 -10  -1  -3   13.25    3.54
  -9  -1  -3   56.63    6.06
  -8  -1  -3   47.96    4.42
  -7  -1  -3  203.62    6.06
  -6  -1  -3   89.39    3.68
  -5  -1  -3   24.86    2.24
  -4  -1  -3   17.13    1.70
  -3  -1  -3  393.29    6.51
  -2  -1  -3   30.84    1.63
  -1  -1  -3   83.07    2.47
   0  -1  -3   55.46    1.99
   1  -1  -3   58.79    2.01
   2  -1  -3   85.59    2.40
   3  -1  -3   77.54    2.37
   4  -1  -3   28.90    1.61
   5  -1  -3  301.47    5.71
   6  -1  -3   55.10    2.57
   7  -1  -3  293.50    6.49
   8  -1  -3   35.14    2.91
   9  -1  -3    0.49    0.87
  10  -1  -3    3.07    1.25
  11  -1  -3   22.58    2.92
  12  -1  -3   15.30    2.71
 -12   0  -3   78.80    7.09
 -11   0  -3   38.10    5.52
 -10   0  -3  143.79    8.11
  -9   0  -3    3.91    1.93
  -8   0  -3    6.10    1.52
  -7   0  -3   96.96    3.91
  -6   0  -3   48.76    2.04
  -5   0  -3  135.63    3.09
  -4   0  -3  149.49    3.81
  -3   0  -3   98.07    2.78
  -2   0  -3  367.93    4.57
  -1   0  -3   55.95    1.53
   0   0  -3    0.38    0.33
   1   0  -3   57.99    1.82
   2   0  -3  366.19    5.29
   3   0  -3   96.00    2.63
   4   0  -3  142.65    3.62
   5   0  -3  136.69    3.86
   6   0  -3   43.97    2.45
   7   0  -3  100.46    3.89
   8   0  -3    5.99    1.38
   9   0  -3    4.88    1.45
  10   0  -3  135.57    5.56
  11   0  -3   38.98    3.89
  12   0  -3   88.54    5.26
 -12   1  -3   15.17    3.83
 -11   1  -3   22.47    4.13
 -10   1  -3    1.98    1.70
  -9   1  -3    1.73    1.15
  -8   1  -3   35.86    2.98
  -7   1  -3  310.30    5.38
  -6   1  -3   55.90    1.80
  -5   1  -3  314.38    4.13
  -4   1  -3   29.13    1.32
  -3   1  -3   74.28    1.87
  -2   1  -3   80.67    1.75
  -1   1  -3   54.39    2.04
   0   1  -3   57.95    2.08
   1   1  -3   83.33    1.67
   2   1  -3   31.26    1.13
   3   1  -3  384.81    6.01
   4   1  -3   17.25    2.51
   5   1  -3   23.76    3.32
   6   1  -3   92.16    5.52
   7   1  -3  206.85    8.88
   8   1  -3   57.79    6.03
   9   1  -3   70.27    7.21
  10   1  -3    9.16    3.22
  11   1  -3   35.62    3.78
 -13   2  -3    0.03    2.02
 -12   2  -3    6.20    2.66
 -11   2  -3  112.25    7.07
 -10   2  -3   29.13    4.11
  -9   2  -3  149.60    4.20
  -8   2  -3    4.04    0.65
  -7   2  -3   10.41    0.92
  -6   2  -3   68.81    1.76
  -5   2  -3   48.38    1.40
  -4   2  -3    8.61    0.75
  -3   2  -3   29.65    1.10
  -2   2  -3  372.63    5.89
  -1   2  -3   82.85    2.54
   0   2  -3  366.78    5.81
   1   2  -3   75.88    1.58
   2   2  -3    7.54    0.99
   3   2  -3   97.60    4.90
   4   2  -3   81.28    4.89
   5   2  -3   33.48    3.96
   6   2  -3   70.24    5.23
   7   2  -3   18.97    3.71
   8   2  -3  145.22    8.47
   9   2  -3   45.79    6.08
  10   2  -3   16.39    4.09
  11   2  -3   22.81    4.90
 -13   3  -3    7.87    2.95
 -12   3  -3   21.15    3.96
 -11   3  -3   23.12    3.85
 -10   3  -3   17.94    2.32
  -9   3  -3   46.39    1.79
  -8   3  -3   17.11    1.23
  -7   3  -3   22.79    1.31
  -6   3  -3  266.16    3.53
  -5   3  -3   91.66    2.05
  -4   3  -3  384.41    4.24
  -3   3  -3   96.37    2.40
  -2   3  -3   75.54    2.48
  -1   3  -3   28.63    1.59
   0   3  -3   96.81    2.85
   1   3  -3   30.64    1.69
   2   3  -3   47.33    2.08
   3   3  -3  268.48    8.95
   4   3  -3  115.96    6.17
   5   3  -3  256.79    9.87
   6   3  -3    1.85    1.67
   7   3  -3    8.40    2.75
   8   3  -3   66.16    7.30
   9   3  -3   14.26    3.83
  10   3  -3   58.81    7.50
 -14   4  -3   17.56    4.26
 -13   4  -3   63.70    5.93
 -12   4  -3   15.06    3.32
 -11   4  -3    6.28    1.66
 -10   4  -3   27.53    1.66
  -9   4  -3  226.49    3.80
  -8   4  -3   56.43    1.82
  -7   4  -3  117.48    2.42
  -6   4  -3   76.83    2.18
  -5   4  -3   20.70    1.49
  -4   4  -3  145.63    3.16
  -3   4  -3   29.95    1.47
  -2   4  -3    5.85    0.80
  -1   4  -3  381.54    6.41
   0   4  -3  141.41    3.75
   1   4  -3  310.84    5.80
   2   4  -3   70.94    2.70
   3   4  -3   18.18    3.01
   4   4  -3   54.61    4.66
   5   4  -3    9.87    2.61
   6   4  -3    4.06    2.13
   7   4  -3   42.35    5.94
   8   4  -3  106.79    8.13
   9   4  -3   32.72    5.73
 -12   5  -3   30.92    5.29
 -11   5  -3   28.10    3.07
 -10   5  -3   33.93    2.43
  -9   5  -3    7.40    1.23
  -8   5  -3  257.47    4.45
  -7   5  -3   31.11    1.66
  -6   5  -3   24.27    1.58
  -5   5  -3  138.39    3.22
  -4   5  -3  304.31    4.85
  -3   5  -3   49.21    1.91
  -2   5  -3   85.40    2.50
  -1   5  -3   22.18    1.87
   0   5  -3  144.80    4.06
   1   5  -3   55.88    2.60
   2   5  -3    9.67    1.41
   3   5  -3   13.48    2.79
   4   5  -3  212.41    9.45
   5   5  -3   26.69    4.31
   6   5  -3  114.19    7.84
   7   5  -3    2.55    2.41
   8   5  -3    0.19    2.32
 -14   6  -3   -0.13    2.64
 -13   6  -3   78.77    7.23
 -12   6  -3   31.49    3.56
 -11   6  -3  113.73    4.03
 -10   6  -3    1.67    0.87
  -9   6  -3    1.57    0.86
  -8   6  -3   73.55    3.00
  -7   6  -3   87.76    2.51
  -6   6  -3   40.00    1.94
  -5   6  -3   55.85    2.13
  -4   6  -3   66.80    2.31
  -3   6  -3  260.82    4.69
  -2   6  -3   76.87    2.51
  -1   6  -3   24.32    2.11
   0   6  -3   42.40    2.46
   1   6  -3  300.84    6.55
   2   6  -3    3.26    1.78
   3   6  -3   46.28    5.21
   4   6  -3   32.85    4.77
   5   6  -3   28.59    4.81
   6   6  -3   19.89    4.32
   7   6  -3    6.30    3.02
 -14   7  -3   22.48    5.15
 -13   7  -3    2.38    1.79
 -12   7  -3   -0.72    1.39
 -11   7  -3   31.30    2.58
 -10   7  -3    4.81    1.22
  -9   7  -3   22.60    2.16
  -8   7  -3  198.45    5.16
  -7   7  -3   92.38    4.14
  -6   7  -3  293.21    7.24
  -5   7  -3    8.55    1.07
  -4   7  -3   21.98    1.65
  -3   7  -3  119.39    3.25
  -2   7  -3   30.21    2.01
  -1   7  -3   84.42    3.51
   0   7  -3   94.81    3.81
   1   7  -3   32.01    2.67
   2   7  -3  140.31    7.61
   3   7  -3   21.28    3.78
   4   7  -3    3.91    2.36
   5   7  -3   29.99    4.93
   6   7  -3   91.79    7.65
   7   7  -3   19.73    5.10
 -14   8  -3   11.36    2.78
 -13   8  -3    0.38    1.60
 -12   8  -3  111.40    4.40
 -11   8  -3   45.53    3.18
 -10   8  -3  150.17    4.84
  -9   8  -3   45.64    2.90
  -8   8  -3   10.55    1.96
  -7   8  -3   28.28    2.84
  -6   8  -3    1.60    1.16
  -5   8  -3   17.02    2.21
  -4   8  -3   56.71    3.29
  -3   8  -3  257.99    5.13
  -2   8  -3   76.02    2.82
  -1   8  -3  199.15    5.73
   0   8  -3    4.01    1.28
   1   8  -3    0.63    1.60
   2   8  -3   23.99    4.07
   3   8  -3   19.74    3.84
   4   8  -3   15.37    3.74
   5   8  -3   16.72    4.00
   6   8  -3   -0.96    2.37
 -14   9  -3   12.41    3.04
 -13   9  -3   26.43    3.70
 -12   9  -3    9.73    1.80
 -11   9  -3   37.11    3.07
 -10   9  -3   50.35    4.19
  -9   9  -3    5.46    1.69
  -8   9  -3    0.31    1.14
  -7   9  -3  151.60    5.74
  -6   9  -3   48.49    3.78
  -5   9  -3  226.07    6.79
  -4   9  -3    8.37    1.67
  -3   9  -3    1.44    0.93
  -2   9  -3   23.19    2.44
  -1   9  -3   47.74    3.28
   0   9  -3    5.03    1.42
   1   9  -3    3.43    1.89
   2   9  -3  122.87    7.80
   3   9  -3   13.63    3.51
   4   9  -3   63.84    7.06
   5   9  -3    0.40    2.81
 -13  10  -3   37.61    4.48
 -12  10  -3   15.30    2.23
 -11  10  -3    7.95    2.10
 -10  10  -3  128.82    5.91
  -9  10  -3    0.77    1.29
  -8  10  -3   30.40    3.35
  -7  10  -3   16.09    2.48
  -6  10  -3   29.42    3.23
  -5  10  -3   32.51    3.23
  -4  10  -3    5.23    1.55
  -3  10  -3    6.64    1.60
  -2  10  -3  157.29    8.32
  -1  10  -3   51.14    5.53
   0  10  -3  134.97    7.59
   1  10  -3   17.30    3.59
   2  10  -3    5.23    2.74
   3  10  -3    7.02    3.13
 -13  11  -3   12.14    2.73
 -12  11  -3   32.34    3.82
 -11  11  -3   30.68    3.77
 -10  11  -3   23.73    3.25
  -9  11  -3  104.36    5.52
  -8  11  -3   20.57    2.97
  -7  11  -3    1.63    1.53
  -6  11  -3   21.57    2.92
  -5  11  -3  114.56    5.28
  -4  11  -3   39.27    3.72
  -3  11  -3   44.74    5.78
  -2  11  -3   41.72    5.46
 -12  12  -3   81.51    5.64
 -11  12  -3   18.24    3.12
 -10  12  -3    1.83    1.86
  -9  12  -3   20.59    3.08
  -8  12  -3   13.96    2.62
  -7  12  -3   31.55    3.53
  -6  12  -3   24.00    3.08
  -5  12  -3   -1.05    1.11
  -4  12  -3  102.98    7.74
  -3  12  -3    5.40    2.67
  -2  12  -3    8.36    2.92
 -11  13  -3    1.62    1.90
 -10  13  -3    4.06    2.25
  -9  13  -3   72.96    5.79
  -8  13  -3   22.21    3.31
  -7  13  -3   88.52    5.32
  -6  13  -3    3.88    1.92
  -5  13  -3   -1.19    2.03
  -4  13  -3   22.67    4.71
  -3  13  -3   45.12    6.14
  -9  14  -3   -0.34    2.58
  -8  14  -3    2.68    2.74
  -7  14  -3   22.26    3.44
  -6  14  -3   16.35    4.49
  -5  14  -3   11.83    3.87
  -4  14  -3   70.08    8.03
   4 -14  -2    6.72    3.18
   5 -14  -2    4.32    3.02
   6 -14  -2   53.83    6.99
   7 -14  -2    1.09    2.68
   8 -14  -2    4.40    3.18
   9 -14  -2   63.86    7.74
  10 -14  -2   12.96    4.13
   1 -13  -2   14.92    4.12
   2 -13  -2    4.35    2.67
   3 -13  -2    1.68    2.28
   4 -13  -2   28.75    5.29
   5 -13  -2   86.96    7.64
   6 -13  -2   35.66    5.73
   7 -13  -2   65.06    7.33
   8 -13  -2   38.29    5.71
   9 -13  -2   47.67    6.53
  10 -13  -2    4.46    2.91
  11 -13  -2   52.28    7.17
  12 -13  -2    2.88    2.80
  -1 -12  -2    1.68    2.88
   0 -12  -2   25.57    4.94
   1 -12  -2    1.84    2.55
   2 -12  -2  136.02    8.97
   3 -12  -2    4.73    2.62
   4 -12  -2   37.48    5.37
   5 -12  -2    2.54    2.26
   6 -12  -2   34.07    5.39
   7 -12  -2    4.10    2.37
   8 -12  -2    7.23    2.83
   9 -12  -2   34.85    5.26
  10 -12  -2   21.00    4.39
  11 -12  -2  104.07    8.45
  12 -12  -2   26.13    5.00
  13 -12  -2   13.02    3.95
  -2 -11  -2   57.20    7.27
  -1 -11  -2  102.54    8.04
   0 -11  -2   30.93    5.25
   1 -11  -2    8.12    2.83
   2 -11  -2    4.34    2.36
   3 -11  -2   42.73    5.49
   4 -11  -2   57.44    6.32
   5 -11  -2   67.12    6.26
   6 -11  -2    1.99    1.96
   7 -11  -2  363.77   13.88
   8 -11  -2    3.12    2.13
   9 -11  -2   42.48    5.64
  10 -11  -2    5.46    2.55
  11 -11  -2   17.37    3.78
  12 -11  -2    3.02    2.41
  13 -11  -2    3.13    2.60
  -4 -10  -2   16.24    4.57
  -3 -10  -2    2.86    2.47
  -2 -10  -2   15.39    4.05
  -1 -10  -2    5.13    2.58
   0 -10  -2  110.18    7.90
   1 -10  -2   31.25    4.88
   2 -10  -2   35.19    4.71
   3 -10  -2  109.93    7.29
   4 -10  -2   84.07    6.49
   5 -10  -2   43.99    5.39
   6 -10  -2   10.09    2.80
   7 -10  -2    7.48    2.37
   8 -10  -2  100.55    6.92
   9 -10  -2   15.11    3.26
  10 -10  -2  109.40    7.62
  11 -10  -2    8.97    2.85
  12 -10  -2  146.12    9.05
  13 -10  -2    0.92    2.03
  14 -10  -2    4.76    2.91
  -5  -9  -2   82.03    8.80
  -4  -9  -2   52.36    6.94
  -3  -9  -2   33.93    5.41
  -2  -9  -2   55.48    6.28
  -1  -9  -2   17.63    3.70
   0  -9  -2   75.17    6.15
   1  -9  -2    2.10    1.95
   2  -9  -2    8.10    2.58
   3  -9  -2  180.64    8.83
   4  -9  -2   40.70    4.89
   5  -9  -2   67.21    5.35
   6  -9  -2   60.86    5.12
   7  -9  -2   65.99    5.31
   8  -9  -2  101.25    6.49
   9  -9  -2   86.98    6.34
  10  -9  -2   31.49    4.57
  11  -9  -2    4.94    2.25
  12  -9  -2    2.18    1.98
  13  -9  -2   24.18    4.53
  14  -9  -2    3.47    2.49
  -6  -8  -2   10.37    3.60
  -5  -8  -2   41.98    6.24
  -4  -8  -2    6.52    2.83
  -3  -8  -2    3.45    2.32
  -2  -8  -2   88.49    6.64
  -1  -8  -2  103.46    6.88
   0  -8  -2  148.34    7.85
   1  -8  -2   21.71    3.57
   2  -8  -2   31.90    4.20
   3  -8  -2  138.34    7.33
   4  -8  -2   22.88    3.54
   5  -8  -2   49.94    4.44
   6  -8  -2   29.68    3.85
   7  -8  -2   50.92    4.44
   8  -8  -2  137.03    7.12
   9  -8  -2    2.92    1.58
  10  -8  -2   33.69    4.39
  11  -8  -2   37.50    4.86
  12  -8  -2   28.52    4.53
  13  -8  -2   98.17    7.57
  14  -8  -2   38.93    5.68
  -7  -7  -2    9.26    3.78
  -6  -7  -2   74.18    8.04
  -5  -7  -2    3.66    2.48
  -4  -7  -2  387.48   14.17
  -3  -7  -2   11.48    2.90
  -2  -7  -2   65.30    5.36
  -1  -7  -2   51.63    4.74
   0  -7  -2   73.23    5.29
   1  -7  -2    8.70    1.46
   2  -7  -2   23.10    2.05
   3  -7  -2  116.11    3.46
   4  -7  -2  181.13    4.18
   5  -7  -2  213.74    8.24
   6  -7  -2  109.52    5.90
   7  -7  -2   80.35    5.04
   8  -7  -2   16.81    3.03
   9  -7  -2    8.87    2.34
  10  -7  -2  121.27    6.92
  11  -7  -2   69.93    5.66
  12  -7  -2    6.05    2.40
  13  -7  -2   33.34    4.97
  14  -7  -2    8.16    3.13
  -8  -6  -2   60.26    7.84
  -7  -6  -2   33.12    5.65
  -6  -6  -2   50.75    6.37
  -5  -6  -2    1.23    1.87
  -4  -6  -2    8.55    2.71
  -3  -6  -2   62.95    5.20
  -2  -6  -2   31.39    4.16
  -1  -6  -2  114.94    4.20
   0  -6  -2   18.84    1.95
   1  -6  -2  393.40    5.07
   2  -6  -2    5.64    1.00
   3  -6  -2  152.30    3.68
   4  -6  -2    9.85    1.05
   5  -6  -2  204.87    3.85
   6  -6  -2   18.80    2.66
   7  -6  -2   10.57    2.23
   8  -6  -2   24.53    3.37
   9  -6  -2  168.17    7.70
  10  -6  -2   92.45    6.01
  11  -6  -2   64.88    5.39
  12  -6  -2   33.20    4.74
  13  -6  -2   62.86    6.93
  14  -6  -2    5.80    2.81
  -9  -5  -2    4.71    3.05
  -8  -5  -2   94.47    7.92
  -7  -5  -2    2.64    2.28
  -6  -5  -2   61.64    5.70
  -5  -5  -2   38.21    4.93
  -4  -5  -2   65.69    5.18
  -3  -5  -2   43.61    4.04
  -2  -5  -2  222.85    5.81
  -1  -5  -2  202.53    5.15
   0  -5  -2    2.41    0.84
   1  -5  -2   46.49    1.42
   2  -5  -2   67.14    2.41
   3  -5  -2   11.87    1.16
   4  -5  -2   66.86    2.07
   5  -5  -2    4.23    0.70
   6  -5  -2  387.17    5.92
   7  -5  -2   22.24    1.48
   8  -5  -2  128.51    6.24
   9  -5  -2   45.11    3.99
  10  -5  -2   47.81    4.39
  11  -5  -2    0.92    1.37
  12  -5  -2    5.87    2.21
  13  -5  -2   37.57    5.26
  14  -5  -2   79.75    8.29
 -10  -4  -2   12.65    3.99
  -9  -4  -2   29.83    5.23
  -8  -4  -2   42.23    5.82
  -7  -4  -2   70.08    5.94
  -6  -4  -2   83.43    5.96
  -5  -4  -2   50.14    4.49
  -4  -4  -2   28.82    2.65
  -3  -4  -2  185.66    5.14
  -2  -4  -2   10.25    1.47
  -1  -4  -2   65.07    2.70
   0  -4  -2  138.51    3.66
   1  -4  -2  272.03    4.91
   2  -4  -2  309.73    5.02
   3  -4  -2  163.59    3.28
   4  -4  -2  136.10    2.98
   5  -4  -2   44.35    1.78
   6  -4  -2    6.56    0.95
   7  -4  -2  110.74    3.25
   8  -4  -2   26.74    1.91
   9  -4  -2   63.65    2.95
  10  -4  -2    8.96    2.25
  11  -4  -2  369.68   12.59
  12  -4  -2    4.89    2.03
  13  -4  -2   47.86    6.01
  14  -4  -2   10.79    3.48
 -10  -3  -2    2.03    2.04
  -9  -3  -2    5.32    2.56
  -8  -3  -2   44.85    5.80
  -7  -3  -2   95.59    6.33
  -6  -3  -2  170.80    7.95
  -5  -3  -2  138.54    6.60
  -4  -3  -2  113.38    3.99
  -3  -3  -2  142.13    4.16
  -2  -3  -2   10.01    1.35
  -1  -3  -2  161.88    3.87
   0  -3  -2   46.17    1.93
   1  -3  -2   66.74    2.14
   2  -3  -2  300.62    4.64
   3  -3  -2   48.44    1.70
   4  -3  -2  266.43    4.42
   5  -3  -2   71.93    2.32
   6  -3  -2  153.47    3.71
   7  -3  -2  171.45    4.29
   8  -3  -2   44.97    2.40
   9  -3  -2   60.17    3.00
  10  -3  -2   11.73    1.84
  11  -3  -2    7.73    2.52
  12  -3  -2   41.78    5.51
  13  -3  -2    2.86    2.13
 -11  -2  -2    2.69    2.54
 -10  -2  -2  142.15    8.81
  -9  -2  -2    9.94    2.98
  -8  -2  -2   41.18    5.06
  -7  -2  -2    8.66    2.48
  -6  -2  -2   29.73    3.79
  -5  -2  -2   22.93    1.44
  -4  -2  -2    4.99    0.69
  -3  -2  -2   66.56    1.66
  -2  -2  -2  310.25    5.43
  -1  -2  -2  299.60    4.99
   0  -2  -2  439.69    6.06
   1  -2  -2  196.85    3.50
   2  -2  -2  444.32    5.68
   3  -2  -2   69.30    1.99
   4  -2  -2  308.65    4.95
   5  -2  -2   10.04    1.13
   6  -2  -2   10.28    1.29
   7  -2  -2  220.50    5.19
   8  -2  -2   32.89    2.59
   9  -2  -2   66.83    3.32
  10  -2  -2   90.52    4.14
  11  -2  -2   57.55    4.30
  12  -2  -2   30.17    4.74
  13  -2  -2   71.30    6.57
 -12  -1  -2   11.79    3.79
 -11  -1  -2    1.52    2.09
 -10  -1  -2   11.24    2.98
  -9  -1  -2   34.37    4.61
  -8  -1  -2    5.40    2.03
  -7  -1  -2   22.95    3.37
  -6  -1  -2   10.47    1.18
  -5  -1  -2  392.59    5.44
  -4  -1  -2   46.42    1.59
  -3  -1  -2  261.21    3.57
  -2  -1  -2   66.92    2.13
  -1  -1  -2  199.11    3.54
   0  -1  -2   44.45    1.56
   1  -1  -2   47.75    1.52
   2  -1  -2  205.07    3.34
   3  -1  -2  307.67    4.61
   4  -1  -2  164.78    3.53
   5  -1  -2   68.57    2.46
   6  -1  -2  201.39    6.86
   7  -1  -2  111.28    5.47
   8  -1  -2   53.55    4.18
   9  -1  -2  112.44    6.37
  10  -1  -2   24.13    4.04
  11  -1  -2    8.73    1.91
  12  -1  -2  102.99    5.27
  13  -1  -2    3.82    2.50
 -12   0  -2   34.83    5.56
 -11   0  -2   22.17    4.27
 -10   0  -2  102.22    6.81
  -9   0  -2   78.59    5.51
  -8   0  -2  128.91    4.36
  -7   0  -2   75.45    2.61
  -6   0  -2   24.24    1.55
  -5   0  -2    4.22    0.58
  -4   0  -2  135.05    2.22
  -3   0  -2   46.95    1.21
  -2   0  -2  443.11    4.63
  -1   0  -2   45.33    1.18
   0   0  -2  874.40    7.15
   1   0  -2   46.08    1.12
   2   0  -2  447.97    5.51
   3   0  -2   49.24    2.73
   4   0  -2  132.57    5.00
   5   0  -2    2.14    1.00
   6   0  -2   20.76    2.92
   7   0  -2   72.06    4.79
   8   0  -2  136.34    7.05
   9   0  -2   75.77    5.74
  10   0  -2  108.84    7.19
  11   0  -2   32.62    5.28
  12   0  -2   31.21    5.39
 -13   1  -2    0.04    1.93
 -12   1  -2   96.89    7.34
 -11   1  -2    9.42    2.87
 -10   1  -2   18.79    3.57
  -9   1  -2  108.92    4.27
  -8   1  -2   53.64    2.78
  -7   1  -2  117.74    2.61
  -6   1  -2  201.35    2.80
  -5   1  -2   65.55    1.46
  -4   1  -2  165.07    2.20
  -3   1  -2  301.23    2.92
  -2   1  -2  197.74    2.30
  -1   1  -2   43.82    1.54
   0   1  -2   45.37    1.54
   1   1  -2  197.90    2.44
   2   1  -2   67.36    3.17
   3   1  -2  270.55    7.31
   4   1  -2   45.47    3.24
   5   1  -2  387.00   10.59
   6   1  -2    8.99    2.20
   7   1  -2   26.96    3.96
   8   1  -2    2.76    1.85
   9   1  -2   40.01    5.48
  10   1  -2    6.93    2.80
  11   1  -2    0.73    1.96
  12   1  -2   16.20    4.25
 -13   2  -2   66.04    7.62
 -12   2  -2   27.86    4.57
 -11   2  -2   56.90    3.96
 -10   2  -2   96.38    4.32
  -9   2  -2   63.47    3.25
  -8   2  -2   31.78    1.40
  -7   2  -2  221.46    3.17
  -6   2  -2   10.55    0.81
  -5   2  -2   12.13    0.80
  -4   2  -2  313.67    3.22
  -3   2  -2   66.34    1.26
  -2   2  -2  441.08    4.79
  -1   2  -2  192.81    3.43
   0   2  -2  452.95    5.78
   1   2  -2  302.74    4.56
   2   2  -2  311.83    7.89
   3   2  -2   76.46    4.11
   4   2  -2    5.84    1.67
   5   2  -2   24.03    3.51
   6   2  -2   31.67    4.11
   7   2  -2    5.09    2.02
   8   2  -2   50.99    6.13
   9   2  -2    6.55    2.79
  10   2  -2  147.92    9.20
  11   2  -2    7.81    3.16
 -13   3  -2    5.65    2.43
 -12   3  -2   33.43    3.49
 -11   3  -2    7.55    1.68
 -10   3  -2   11.15    1.80
  -9   3  -2   61.32    2.04
  -8   3  -2   45.71    1.55
  -7   3  -2  178.08    2.82
  -6   3  -2  150.62    2.43
  -5   3  -2   69.00    1.52
  -4   3  -2  261.70    2.90
  -3   3  -2   47.33    1.47
  -2   3  -2  296.13    3.89
  -1   3  -2   66.83    1.73
   0   3  -2   48.45    1.83
   1   3  -2  164.41    3.48
   2   3  -2   12.31    2.11
   3   3  -2  149.46    6.29
   4   3  -2  107.23    5.78
   5   3  -2  131.35    6.84
   6   3  -2  163.42    8.13
   7   3  -2  104.07    6.94
   8   3  -2   44.98    5.85
   9   3  -2    2.63    2.31
  10   3  -2   -0.10    2.00
 -14   4  -2   16.42    3.86
 -13   4  -2   52.61    4.69
 -12   4  -2    8.67    1.90
 -11   4  -2  380.02    8.95
 -10   4  -2   12.29    1.54
  -9   4  -2   71.94    2.29
  -8   4  -2   27.43    1.40
  -7   4  -2  113.17    2.27
  -6   4  -2    4.76    0.67
  -5   4  -2   48.64    1.51
  -4   4  -2  131.61    2.38
  -3   4  -2  162.40    2.90
  -2   4  -2  308.38    4.21
  -1   4  -2  257.40    3.85
   0   4  -2  136.51    3.39
   1   4  -2   66.17    2.45
   2   4  -2   10.30    1.23
   3   4  -2  156.21    6.89
   4   4  -2   29.10    4.01
   5   4  -2   46.96    5.38
   6   4  -2   91.72    6.43
   7   4  -2   72.29    6.14
   8   4  -2   38.63    5.65
   9   4  -2   26.62    5.09
  10   4  -2    8.34    3.47
 -14   5  -2   72.87    8.42
 -13   5  -2   31.94    5.32
 -12   5  -2    2.01    1.94
 -11   5  -2    2.31    1.36
 -10   5  -2   45.27    2.51
  -9   5  -2   49.54    2.39
  -8   5  -2  131.88    2.93
  -7   5  -2   21.98    1.38
  -6   5  -2  382.23    4.79
  -5   5  -2    2.85    0.54
  -4   5  -2   65.07    1.89
  -3   5  -2   12.42    1.03
  -2   5  -2   64.85    1.98
  -1   5  -2   43.94    1.70
   0   5  -2    2.37    0.75
   1   5  -2  209.77    4.82
   2   5  -2  228.12    5.10
   3   5  -2   44.90    4.69
   4   5  -2   65.80    5.19
   5   5  -2   39.61    5.00
   6   5  -2   69.18    5.91
   7   5  -2    1.57    2.21
   8   5  -2   88.14    7.49
   9   5  -2    3.74    3.03
 -14   6  -2    4.59    3.07
 -13   6  -2   67.08    6.40
 -12   6  -2   49.94    4.36
 -11   6  -2   65.80    4.31
 -10   6  -2   83.17    3.17
  -9   6  -2  174.04    4.43
  -8   6  -2   29.88    2.14
  -7   6  -2   12.68    1.44
  -6   6  -2   21.12    1.21
  -5   6  -2  198.22    3.56
  -4   6  -2    9.50    0.95
  -3   6  -2  153.56    3.19
  -2   6  -2    4.55    0.77
  -1   6  -2  391.84    5.60
   0   6  -2   21.17    1.95
   1   6  -2  121.42    3.96
   2   6  -2   34.36    2.35
   3   6  -2   63.28    4.97
   4   6  -2    6.81    2.34
   5   6  -2    2.54    2.02
   6   6  -2   43.75    5.82
   7   6  -2   32.20    5.22
   8   6  -2   57.24    7.30
 -14   7  -2    4.60    3.02
 -13   7  -2   39.04    4.16
 -12   7  -2    4.42    1.81
 -11   7  -2   68.13    3.21
 -10   7  -2  103.89    3.71
  -9   7  -2    7.43    1.31
  -8   7  -2   23.55    2.04
  -7   7  -2   74.63    2.95
  -6   7  -2  129.49    3.75
  -5   7  -2  223.52    5.91
  -4   7  -2  173.94    3.53
  -3   7  -2  114.68    2.93
  -2   7  -2   19.70    1.49
  -1   7  -2    8.83    1.11
   0   7  -2   74.87    3.28
   1   7  -2   50.82    2.89
   2   7  -2   59.20    4.81
   3   7  -2   11.54    2.85
   4   7  -2  380.25   13.29
   5   7  -2    8.56    2.95
   6   7  -2   64.77    7.11
   7   7  -2    8.18    3.31
 -14   8  -2   51.49    5.02
 -13   8  -2   88.65    5.75
 -12   8  -2   34.21    3.88
 -11   8  -2   40.41    2.92
 -10   8  -2   44.03    3.01
  -9   8  -2    3.66    1.13
  -8   8  -2  133.19    4.19
  -7   8  -2   51.36    2.77
  -6   8  -2   28.16    2.73
  -5   8  -2   38.52    3.08
  -4   8  -2   27.86    2.56
  -3   8  -2  128.50    3.33
  -2   8  -2   30.73    1.98
  -1   8  -2   23.10    1.77
   0   8  -2  135.02    4.63
   1   8  -2  105.67    4.24
   2   8  -2  100.37    6.41
   3   8  -2    5.63    2.38
   4   8  -2    6.55    2.57
   5   8  -2   39.78    5.58
   6   8  -2    9.08    3.23
 -14   9  -2    3.31    1.94
 -13   9  -2   22.05    3.28
 -12   9  -2    5.38    1.42
 -11   9  -2    7.40    1.57
 -10   9  -2   33.76    2.79
  -9   9  -2   76.86    3.47
  -8   9  -2  108.18    4.00
  -7   9  -2   67.30    3.85
  -6   9  -2   60.32    3.56
  -5   9  -2   70.39    3.72
  -4   9  -2   50.43    3.15
  -3   9  -2  168.64    5.38
  -2   9  -2    5.09    1.01
  -1   9  -2    3.42    1.18
   0   9  -2   75.65    3.69
   1   9  -2   24.21    3.87
   2   9  -2   48.82    5.34
   3   9  -2   32.12    4.69
   4   9  -2   53.95    6.33
   5   9  -2   76.62    7.89
 -14  10  -2   10.02    2.72
 -13  10  -2    1.87    1.92
 -12  10  -2  143.82    5.19
 -11  10  -2   13.45    1.92
 -10  10  -2  108.24    4.32
  -9  10  -2   21.38    2.34
  -8  10  -2   92.30    4.78
  -7  10  -2    9.28    1.95
  -6  10  -2    6.07    1.72
  -5  10  -2   42.44    3.50
  -4  10  -2   78.94    4.01
  -3  10  -2  107.28    4.46
  -2  10  -2   40.06    4.85
  -1  10  -2   40.27    4.79
   0  10  -2  119.35    4.97
   1  10  -2    4.30    2.08
   2  10  -2   25.03    4.25
   3  10  -2    2.98    2.53
   4  10  -2   10.72    3.59
 -13  11  -2    4.28    1.67
 -12  11  -2    0.09    1.27
 -11  11  -2   19.66    2.47
 -10  11  -2    3.57    1.82
  -9  11  -2   55.92    4.62
  -8  11  -2    2.93    1.52
  -7  11  -2  376.64    9.66
  -6  11  -2    2.06    1.33
  -5  11  -2   68.03    4.01
  -4  11  -2   68.36    3.91
  -3  11  -2   42.52    5.28
  -2  11  -2    6.58    2.41
  -1  11  -2    8.17    2.67
   3  11  -2   34.07    5.19
 -13  12  -2   11.52    2.22
 -12  12  -2   25.10    2.97
 -11  12  -2   94.22    5.54
 -10  12  -2   24.74    3.34
  -9  12  -2   27.75    3.45
  -8  12  -2    5.35    1.81
  -7  12  -2    3.24    1.53
  -6  12  -2   44.23    4.06
  -5  12  -2    2.48    1.53
  -4  12  -2   30.59    4.79
  -3  12  -2    6.33    2.53
  -2  12  -2  134.13    8.10
 -12  13  -2    1.19    1.93
 -11  13  -2   67.19    5.63
 -10  13  -2    5.23    2.03
  -9  13  -2   43.05    4.43
  -8  13  -2   32.54    3.82
  -7  13  -2   62.17    4.93
  -6  13  -2   30.29    3.41
  -5  13  -2   80.75    7.12
  -4  13  -2   21.16    4.40
  -3  13  -2    1.68    2.47
 -10  14  -2   11.72    2.71
  -9  14  -2   68.41    5.53
  -8  14  -2    4.80    2.18
  -7  14  -2    8.92    3.35
  -6  14  -2   61.79    7.51
  -5  14  -2    0.89    2.29
  -4  14  -2    5.68    3.13
  -3  14  -2   55.97    6.92
   7 -15  -1   17.98    4.62
   8 -15  -1   55.17    7.41
   9 -15  -1    0.34    3.13
   3 -14  -1   47.62    6.35
   4 -14  -1   63.97    7.29
   5 -14  -1   14.26    3.83
   6 -14  -1    0.29    2.23
   7 -14  -1   19.47    4.43
   8 -14  -1    2.43    2.69
   9 -14  -1    3.36    2.65
  10 -14  -1   17.12    4.26
  11 -14  -1   53.39    4.73
   0 -13  -1   18.41    4.39
   1 -13  -1    6.54    3.36
   2 -13  -1   12.66    3.67
   3 -13  -1   42.95    5.89
   4 -13  -1   21.52    4.14
   5 -13  -1    3.78    2.40
   6 -13  -1    1.23    2.26
   7 -13  -1   96.58    7.75
   8 -13  -1   16.35    3.88
   9 -13  -1   90.67    5.08
  10 -13  -1    0.00    2.06
  11 -13  -1   -0.73    2.05
  12 -13  -1   10.52    3.64
  -1 -12  -1   23.44    4.66
   0 -12  -1  100.68    7.85
   1 -12  -1   48.80    6.34
   2 -12  -1    2.93    2.36
   3 -12  -1    9.46    3.19
   4 -12  -1  102.09    7.42
   5 -12  -1    0.45    1.94
   6 -12  -1   18.71    3.81
   7 -12  -1   14.07    3.46
   8 -12  -1    5.25    1.66
   9 -12  -1   24.97    4.57
  10 -12  -1    0.66    1.79
  11 -12  -1    0.45    1.95
  12 -12  -1  101.95    7.99
  13 -12  -1    5.15    2.98
  -3 -11  -1   69.33    7.69
  -2 -11  -1    4.45    2.68
  -1 -11  -1    1.36    2.23
   0 -11  -1   47.01    6.15
   1 -11  -1   14.03    3.43
   2 -11  -1   63.11    5.81
   3 -11  -1   80.32    6.24
   4 -11  -1   38.69    5.06
   5 -11  -1  171.16    9.17
   6 -11  -1    8.50    1.74
   7 -11  -1    4.57    1.47
   8 -11  -1    9.74    2.90
   9 -11  -1  141.58    8.40
  10 -11  -1   22.41    4.16
  11 -11  -1   39.09    5.35
  12 -11  -1   38.27    5.41
  13 -11  -1   18.96    4.02
  14 -11  -1   50.48    6.75
  -4 -10  -1   25.20    4.93
  -3 -10  -1    2.51    2.50
  -2 -10  -1   -0.50    2.02
  -1 -10  -1   23.62    4.31
   0 -10  -1  138.59    8.38
   1 -10  -1   39.00    5.03
   2 -10  -1  173.99    8.80
   3 -10  -1    4.57    2.20
   4 -10  -1    5.00    2.11
   5 -10  -1   43.52    3.02
   6 -10  -1   12.72    2.84
   7 -10  -1   10.76    2.83
   8 -10  -1   29.88    4.22
   9 -10  -1    4.73    1.96
  10 -10  -1  134.13    7.97
  11 -10  -1   17.64    3.55
  12 -10  -1    1.29    1.80
  13 -10  -1   39.26    5.62
  14 -10  -1   71.50    7.86
  -5  -9  -1    0.47    2.21
  -4  -9  -1   89.15    7.66
  -3  -9  -1   29.52    5.00
  -2  -9  -1  143.12    8.45
  -1  -9  -1    3.39    2.03
   0  -9  -1    2.98    1.88
   1  -9  -1   47.22    5.17
   2  -9  -1   31.98    4.25
   3  -9  -1    1.53    0.94
   4  -9  -1    0.31    0.81
   5  -9  -1  249.00    9.63
   6  -9  -1   54.31    4.60
   7  -9  -1  242.69    9.58
   8  -9  -1    9.42    2.30
   9  -9  -1    7.51    2.26
  10  -9  -1   24.96    3.95
  11  -9  -1   67.99    5.76
  12  -9  -1   10.81    3.04
  13  -9  -1   20.05    3.91
  14  -9  -1   15.06    3.81
  -6  -8  -1    2.75    2.71
  -5  -8  -1   23.99    4.74
  -4  -8  -1    3.73    2.34
  -3  -8  -1   12.07    3.20
  -2  -8  -1   35.45    4.77
  -1  -8  -1    6.02    2.23
   0  -8  -1   12.20    2.80
   1  -8  -1  246.43    9.54
   2  -8  -1   41.56    2.48
   3  -8  -1  280.81    6.17
   4  -8  -1   75.70    5.03
   5  -8  -1    2.98    1.52
   6  -8  -1    1.31    1.20
   7  -8  -1   34.48    3.94
   8  -8  -1   12.93    2.54
   9  -8  -1   47.43    4.33
  10  -8  -1  189.47    8.67
  11  -8  -1   70.12    5.60
  12  -8  -1  122.24    7.63
  13  -8  -1    2.19    1.99
  14  -8  -1    5.75    2.86
  -7  -7  -1   22.85    4.96
  -6  -7  -1  101.02    7.97
  -5  -7  -1   11.02    3.12
  -4  -7  -1    4.39    2.23
  -3  -7  -1   11.11    2.97
  -2  -7  -1  241.79    9.75
  -1  -7  -1   36.47    4.28
   0  -7  -1  132.94    6.67
   1  -7  -1  132.72    3.78
   2  -7  -1   41.29    2.23
   3  -7  -1  206.40    4.90
   4  -7  -1    5.79    1.75
   5  -7  -1   15.37    2.54
   6  -7  -1  324.91    9.82
   7  -7  -1  128.14    6.08
   8  -7  -1  244.42    8.81
   9  -7  -1   23.16    3.35
  10  -7  -1    4.41    1.87
  11  -7  -1   38.75    4.83
  12  -7  -1    0.62    1.60
  13  -7  -1    4.31    2.34
  14  -7  -1   27.63    4.95
  -8  -6  -1    3.16    2.56
  -7  -6  -1    1.02    2.01
  -6  -6  -1   31.73    5.15
  -5  -6  -1    7.93    2.56
  -4  -6  -1   12.76    3.02
  -3  -6  -1   50.29    4.42
  -2  -6  -1    0.55    1.24
  -1  -6  -1  317.03    5.82
   0  -6  -1   46.10    2.05
   1  -6  -1    8.29    1.14
   2  -6  -1  195.41    4.36
   3  -6  -1  372.58    9.88
   4  -6  -1   68.78    4.01
   5  -6  -1   28.28    2.70
   6  -6  -1   43.97    3.35
   7  -6  -1  138.41    5.95
   8  -6  -1   42.87    3.59
   9  -6  -1    1.55    1.23
  10  -6  -1    8.75    2.22
  11  -6  -1  152.32    7.94
  12  -6  -1   27.84    4.41
  13  -6  -1  101.86    7.29
  14  -6  -1    1.49    2.09
  -9  -5  -1   11.75    3.78
  -8  -5  -1    0.82    1.94
  -7  -5  -1    2.38    1.96
  -6  -5  -1  164.27    8.76
  -5  -5  -1   44.47    4.99
  -4  -5  -1  244.31    9.39
  -3  -5  -1    1.54    1.29
  -2  -5  -1   15.00    1.26
  -1  -5  -1   31.72    1.65
   0  -5  -1  204.64    3.95
   1  -5  -1   24.20    1.14
   2  -5  -1   94.74    2.55
   3  -5  -1   88.78    2.13
   4  -5  -1  451.36   10.19
   5  -5  -1  195.06    6.39
   6  -5  -1    7.16    0.73
   7  -5  -1   43.80    1.72
   8  -5  -1  259.85    8.73
   9  -5  -1    0.41    0.86
  10  -5  -1   45.33    4.13
  11  -5  -1   12.87    2.76
  12  -5  -1   14.37    3.06
  13  -5  -1   21.43    3.92
  14  -5  -1    6.18    2.79
 -10  -4  -1   93.99    7.96
  -9  -4  -1   29.31    5.10
  -8  -4  -1  121.45    7.93
  -7  -4  -1   48.09    5.60
  -6  -4  -1    8.51    2.50
  -5  -4  -1   -0.41    0.94
  -4  -4  -1   71.68    2.65
  -3  -4  -1    4.03    0.79
  -2  -4  -1   71.37    2.16
  -1  -4  -1  459.45    5.16
   0  -4  -1  207.58    3.02
   1  -4  -1  473.51    4.95
   2  -4  -1   11.75    0.87
   3  -4  -1   14.20    0.79
   4  -4  -1  207.74    3.04
   5  -4  -1   24.26    1.10
   6  -4  -1  189.28    3.66
   7  -4  -1  206.80    4.29
   8  -4  -1   69.92    2.68
   9  -4  -1  257.36    5.71
  10  -4  -1   12.79    2.74
  11  -4  -1    6.27    2.08
  12  -4  -1    4.12    2.23
  13  -4  -1   87.58    6.76
  14  -4  -1   21.52    4.33
 -11  -3  -1   63.82    8.06
 -10  -3  -1   51.78    6.72
  -9  -3  -1    4.91    2.42
  -8  -3  -1   71.43    5.77
  -7  -3  -1    3.30    1.79
  -6  -3  -1    0.52    1.01
  -5  -3  -1  268.58    5.58
  -4  -3  -1  208.81    4.44
  -3  -3  -1  361.96    5.54
  -2  -3  -1   89.86    1.91
  -1  -3  -1   13.32    0.70
   0  -3  -1  186.12    2.47
   1  -3  -1   13.50    0.93
   2  -3  -1   40.24    1.23
   3  -3  -1  190.74    2.86
   4  -3  -1  484.70    5.76
   5  -3  -1   99.03    2.47
   6  -3  -1  355.58    5.72
   7  -3  -1    4.45    0.88
   8  -3  -1    4.57    1.00
   9  -3  -1   50.44    2.68
  10  -3  -1   14.27    1.93
  11  -3  -1   11.64    1.97
  12  -3  -1   26.64    4.46
  13  -3  -1    1.42    1.97
  14  -3  -1   69.65    7.95
 -11  -2  -1   22.10    4.63
 -10  -2  -1    1.89    1.78
  -9  -2  -1   63.33    5.41
  -8  -2  -1  180.33    8.44
  -7  -2  -1   34.15    2.44
  -6  -2  -1   46.11    2.36
  -5  -2  -1   41.32    2.05
  -4  -2  -1  186.25    3.92
  -3  -2  -1   97.77    2.11
  -2  -2  -1   13.85    0.74
  -1  -2  -1   41.70    1.59
   0  -2  -1  584.21    6.77
   1  -2  -1  138.37    2.34
   2  -2  -1  600.67    6.18
   3  -2  -1   15.36    0.90
   4  -2  -1   14.98    1.04
   5  -2  -1   85.45    2.51
   6  -2  -1   66.80    3.37
   7  -2  -1   12.63    2.11
   8  -2  -1    1.98    1.10
   9  -2  -1  254.90    8.88
  10  -2  -1   41.54    4.70
  11  -2  -1  145.21    7.56
  12  -2  -1    0.31    1.03
  13  -2  -1    3.35    2.23
 -12  -1  -1   11.75    3.72
 -11  -1  -1   53.32    6.66
 -10  -1  -1   12.44    3.13
  -9  -1  -1   32.36    4.57
  -8  -1  -1   47.79    2.76
  -7  -1  -1  243.34    5.76
  -6  -1  -1  128.97    3.76
  -5  -1  -1    8.20    1.10
  -4  -1  -1   25.24    1.22
  -3  -1  -1  471.22    5.04
  -2  -1  -1   14.77    0.70
  -1  -1  -1  137.05    2.55
   0  -1  -1   50.93    1.31
   1  -1  -1   51.45    1.19
   2  -1  -1  138.73    2.30
   3  -1  -1   40.61    1.98
   4  -1  -1   13.00    1.67
   5  -1  -1  449.85    9.73
   6  -1  -1   30.59    3.26
   7  -1  -1  301.95    9.23
   8  -1  -1   42.63    3.77
   9  -1  -1   11.11    2.55
  10  -1  -1    1.86    1.60
  11  -1  -1   22.97    4.12
  12  -1  -1    3.61    2.39
  13  -1  -1   23.53    3.41
 -12   0  -1  102.75    7.84
 -11   0  -1   45.32    5.84
 -10   0  -1  145.08    5.40
  -9   0  -1    7.75    1.55
  -8   0  -1   12.99    1.77
  -7   0  -1  132.66    3.96
  -6   0  -1   46.26    2.16
  -5   0  -1  192.63    3.42
  -4   0  -1  211.80    2.65
  -3   0  -1  188.66    1.98
  -2   0  -1  606.97    3.96
  -1   0  -1   49.12    0.98
   0   0  -1    0.85    0.19
   1   0  -1   49.68    0.89
   2   0  -1  609.18    9.49
   3   0  -1  185.67    5.07
   4   0  -1  203.17    6.09
   5   0  -1  201.83    6.62
   6   0  -1   53.76    3.74
   7   0  -1  115.93    5.95
   8   0  -1   15.65    3.02
   9   0  -1    5.17    2.19
  10   0  -1  139.46    8.00
  11   0  -1   39.31    5.47
  12   0  -1  106.66    7.93
  13   0  -1   19.51    4.96
 -13   1  -1   19.51    4.52
 -12   1  -1    8.41    3.07
 -11   1  -1   33.14    3.47
 -10   1  -1    1.23    0.90
  -9   1  -1   12.13    1.81
  -8   1  -1   40.70    1.85
  -7   1  -1  319.57    4.97
  -6   1  -1   30.86    1.41
  -5   1  -1  459.90    4.06
  -4   1  -1   14.19    0.70
  -3   1  -1   42.05    0.89
  -2   1  -1  140.77    1.49
  -1   1  -1   48.40    0.75
   0   1  -1   50.65    1.22
   1   1  -1  140.33    3.69
   2   1  -1   14.51    1.69
   3   1  -1  472.32    9.87
   4   1  -1   24.59    2.85
   5   1  -1    4.25    1.51
   6   1  -1  136.55    6.39
   7   1  -1  234.59    9.03
   8   1  -1   51.25    5.66
   9   1  -1   26.59    4.49
  10   1  -1   14.85    3.75
  11   1  -1   42.60    6.25
  12   1  -1    9.41    3.69
 -13   2  -1    5.30    2.59
 -12   2  -1   -0.43    1.11
 -11   2  -1  136.66    5.39
 -10   2  -1   40.91    3.43
  -9   2  -1  247.40    4.96
  -8   2  -1    0.79    0.52
  -7   2  -1   15.50    1.36
  -6   2  -1   69.88    1.68
  -5   2  -1   88.32    1.60
  -4   2  -1   14.04    0.73
  -3   2  -1   15.01    0.62
  -2   2  -1  596.66    4.63
  -1   2  -1  136.27    1.97
   0   2  -1  612.95    5.28
   1   2  -1   40.02    1.38
   2   2  -1   11.18    1.76
   3   2  -1   98.07    4.46
   4   2  -1  190.26    7.02
   5   2  -1   45.11    3.85
   6   2  -1   44.19    3.98
   7   2  -1   32.51    4.44
   8   2  -1  178.60    8.85
   9   2  -1   68.76    7.35
  10   2  -1    1.23    1.99
  11   2  -1   23.95    4.97
 -14   3  -1   77.62    8.29
 -13   3  -1    3.25    1.47
 -12   3  -1   28.17    3.31
 -11   3  -1   10.38    1.96
 -10   3  -1   10.47    1.42
  -9   3  -1   50.64    2.29
  -8   3  -1    5.07    0.94
  -7   3  -1    4.58    0.64
  -6   3  -1  360.35    3.78
  -5   3  -1   98.14    1.70
  -4   3  -1  474.01    4.44
  -3   3  -1  183.52    2.30
  -2   3  -1   39.26    1.00
  -1   3  -1   15.48    0.86
   0   3  -1  183.23    2.71
   1   3  -1   13.29    1.15
   2   3  -1   82.60    4.08
   3   3  -1  363.64    9.79
   4   3  -1  204.42    7.78
   5   3  -1  257.59    9.38
   6   3  -1    2.21    1.65
   7   3  -1    0.28    1.26
   8   3  -1   68.34    5.94
   9   3  -1   10.56    3.23
  10   3  -1   50.92    6.60
  11   3  -1   59.77    7.61
 -14   4  -1   27.10    5.53
 -13   4  -1   89.87    4.90
 -12   4  -1    7.25    1.72
 -11   4  -1    5.95    1.25
 -10   4  -1   10.57    1.46
  -9   4  -1  254.52    5.20
  -8   4  -1   73.94    2.10
  -7   4  -1  209.77    3.99
  -6   4  -1  187.23    2.95
  -5   4  -1   24.32    1.00
  -4   4  -1  206.47    2.63
  -3   4  -1   12.87    0.68
  -2   4  -1   14.36    0.87
  -1   4  -1  469.66    5.19
   0   4  -1  212.50    3.19
   1   4  -1  457.19    6.90
   2   4  -1   71.37    2.54
   3   4  -1    4.44    1.61
   4   4  -1   73.64    4.92
   5   4  -1    1.21    1.33
   6   4  -1   12.33    2.88
   7   4  -1   44.99    5.73
   8   4  -1  118.75    7.88
   9   4  -1   25.91    5.05
  10   4  -1   84.35    8.70
 -14   5  -1    3.68    2.67
 -13   5  -1   24.23    4.72
 -12   5  -1   11.31    2.14
 -11   5  -1   12.78    2.12
 -10   5  -1   45.61    3.30
  -9   5  -1    0.49    0.59
  -8   5  -1  255.81    4.88
  -7   5  -1   45.27    1.97
  -6   5  -1    5.97    0.65
  -5   5  -1  200.36    2.71
  -4   5  -1  458.13    4.48
  -3   5  -1   89.70    1.94
  -2   5  -1   97.55    2.20
  -1   5  -1   23.04    1.24
   0   5  -1  196.11    3.34
   1   5  -1   32.57    2.09
   2   5  -1   13.93    1.57
   3   5  -1    5.96    1.90
   4   5  -1  245.21    9.34
   5   5  -1   44.31    5.17
   6   5  -1  176.07    8.93
   7   5  -1    4.08    2.22
   8   5  -1    1.85    2.24
   9   5  -1   14.23    3.94
 -15   6  -1    0.15    2.30
 -14   6  -1    0.55    1.87
 -13   6  -1  103.81    7.61
 -12   6  -1   35.49    3.76
 -11   6  -1  156.16    5.96
 -10   6  -1   10.34    1.39
  -9   6  -1    2.33    0.78
  -8   6  -1   41.94    2.19
  -7   6  -1  126.11    3.45
  -6   6  -1   46.47    2.06
  -5   6  -1   31.55    1.90
  -4   6  -1   69.43    1.54
  -3   6  -1  356.99    4.72
  -2   6  -1  185.32    3.43
  -1   6  -1    6.52    0.84
   0   6  -1   46.24    1.78
   1   6  -1  326.22    6.52
   2   6  -1    1.44    0.87
   3   6  -1   55.81    4.55
   4   6  -1   10.42    2.71
   5   6  -1   13.05    3.23
   6   6  -1   26.73    4.47
   7   6  -1    1.47    2.06
   8   6  -1    3.46    2.69
 -15   7  -1   57.47    7.59
 -14   7  -1   24.47    5.08
 -13   7  -1    2.75    1.68
 -12   7  -1    2.13    1.44
 -11   7  -1   44.65    3.95
 -10   7  -1    1.43    0.82
  -9   7  -1   30.89    2.28
  -8   7  -1  254.81    5.32
  -7   7  -1  128.42    3.66
  -6   7  -1  320.64    5.80
  -5   7  -1   17.05    1.54
  -4   7  -1    4.89    0.68
  -3   7  -1  208.35    3.73
  -2   7  -1   44.69    1.87
  -1   7  -1  131.02    3.12
   0   7  -1  129.49    4.11
   1   7  -1   37.43    2.60
   2   7  -1  254.62    6.17
   3   7  -1    9.66    2.67
   4   7  -1    4.15    2.01
   5   7  -1   12.96    3.27
   6   7  -1   87.88    7.04
   7   7  -1   24.92    4.72
 -14   8  -1    3.23    1.86
 -13   8  -1    0.13    1.43
 -12   8  -1  110.80    5.54
 -11   8  -1   78.80    3.38
 -10   8  -1  181.74    4.95
  -9   8  -1   46.64    2.66
  -8   8  -1   12.43    1.52
  -7   8  -1   37.19    2.50
  -6   8  -1    0.74    0.69
  -5   8  -1    2.42    1.09
  -4   8  -1   70.60    3.36
  -3   8  -1  255.93    4.54
  -2   8  -1   44.75    2.01
  -1   8  -1  253.24    4.65
   0   8  -1   10.97    1.62
   1   8  -1   13.03    1.84
   2   8  -1   38.24    4.49
   3   8  -1    9.95    2.64
   4   8  -1    6.63    2.43
   5   8  -1   17.31    3.69
   6   8  -1    2.06    2.37
 -15   9  -1   99.53   10.39
 -14   9  -1   14.36    2.96
 -13   9  -1   20.09    3.16
 -12   9  -1   11.00    2.35
 -11   9  -1   59.36    3.28
 -10   9  -1   27.41    2.46
  -9   9  -1    4.47    1.22
  -8   9  -1    9.56    1.49
  -7   9  -1  243.76    5.63
  -6   9  -1   54.07    3.32
  -5   9  -1  252.91    6.77
  -4   9  -1   -0.44    0.79
  -3   9  -1    1.59    0.95
  -2   9  -1   30.94    2.01
  -1   9  -1   43.80    2.90
   0   9  -1    6.24    1.46
   1   9  -1    3.31    1.31
   2   9  -1  134.14    7.35
   3   9  -1   12.21    2.96
   4   9  -1   84.30    6.67
   5   9  -1    2.82    2.31
 -14  10  -1   79.69    5.86
 -13  10  -1   44.52    4.59
 -12  10  -1    0.87    1.14
 -11  10  -1   15.66    2.05
 -10  10  -1  147.07    4.91
  -9  10  -1    2.96    1.13
  -8  10  -1   38.09    2.85
  -7  10  -1   12.52    2.10
  -6  10  -1    7.74    1.71
  -5  10  -1   44.32    3.26
  -4  10  -1    6.40    1.56
  -3  10  -1    2.30    1.12
  -2  10  -1  185.67    8.61
  -1  10  -1   31.62    4.36
   0  10  -1  151.35    5.28
   1  10  -1   23.24    3.67
   2  10  -1   -0.57    1.57
   3  10  -1    4.99    2.52
   4  10  -1   21.24    4.17
 -14  11  -1   50.05    5.12
 -13  11  -1   18.08    3.20
 -12  11  -1   48.64    3.66
 -11  11  -1   44.34    3.45
 -10  11  -1   26.11    2.66
  -9  11  -1  140.55    4.87
  -8  11  -1    5.42    1.71
  -7  11  -1    2.86    1.47
  -6  11  -1   10.99    2.06
  -5  11  -1  166.02    5.95
  -4  11  -1   38.98    3.39
  -3  11  -1   90.92    6.46
  -2  11  -1   64.96    5.56
  -1  11  -1   12.52    3.05
   3  11  -1   66.09    6.81
 -13  12  -1    6.78    1.95
 -12  12  -1  106.22    4.85
 -11  12  -1    3.97    1.49
 -10  12  -1   -0.30    1.15
  -9  12  -1   23.08    3.18
  -8  12  -1    4.34    1.63
  -7  12  -1    9.76    2.09
  -6  12  -1   29.88    3.30
  -5  12  -1    1.29    1.30
  -4  12  -1  110.02    7.56
  -3  12  -1    8.51    2.80
  -2  12  -1    0.78    1.66
  -1  12  -1   48.42    5.79
 -13  13  -1    7.24    3.30
 -12  13  -1   12.26    2.26
 -11  13  -1    3.60    1.85
 -10  13  -1    1.95    1.75
  -9  13  -1   93.16    5.29
  -8  13  -1   20.19    2.93
  -7  13  -1  104.55    5.40
  -6  13  -1    1.26    1.47
  -5  13  -1    0.43    2.08
  -4  13  -1   18.42    4.07
  -3  13  -1   40.48    5.59
  -2  13  -1   23.68    4.40
 -11  14  -1   63.67    5.56
 -10  14  -1   17.21    3.14
  -9  14  -1    3.76    2.07
  -8  14  -1    1.04    1.61
  -7  14  -1   21.26    4.60
  -6  14  -1    2.47    2.58
  -5  14  -1   20.91    4.29
  -4  14  -1   83.04    7.25
  -3  14  -1   57.17    6.82
  -9  15  -1   -1.04    2.72
   6 -15   0    4.98    3.15
   7 -15   0   13.36    3.73
   8 -15   0   39.61    6.04
  10 -15   0   33.62    5.62
   2 -14   0   32.40    5.31
   3 -14   0   13.50    3.80
   4 -14   0    3.73    2.62
   5 -14   0   -0.18    2.14
   6 -14   0   33.90    5.37
   7 -14   0    1.43    2.48
   8 -14   0    4.53    2.89
   9 -14   0   58.13    4.45
  10 -14   0   10.75    2.44
  11 -14   0   34.00    3.85
  12 -14   0   12.12    2.84
   0 -13   0   -0.73    2.35
   1 -13   0   30.56    5.03
   2 -13   0    3.94    2.70
   3 -13   0   -0.81    1.89
   4 -13   0    4.79    2.63
   5 -13   0  191.20   10.06
   6 -13   0   87.12    7.06
   7 -13   0   41.02    3.76
   8 -13   0    3.08    1.65
   9 -13   0   55.53    4.60
  10 -13   0   15.36    2.74
  11 -13   0  102.22    5.64
  12 -13   0    0.70    2.42
  13 -13   0    0.97    2.40
  -2 -12   0   17.64    4.29
  -1 -12   0   -0.42    2.28
   0 -12   0    5.58    2.83
   1 -12   0    2.64    2.29
   2 -12   0  152.42    8.84
   3 -12   0   25.00    4.39
   4 -12   0   68.46    5.90
   5 -12   0   11.34    3.07
   6 -12   0    2.43    1.41
   7 -12   0   -0.17    1.21
   8 -12   0    4.38    1.63
   9 -12   0    6.89    1.86
  10 -12   0  117.23    7.88
  11 -12   0   71.89    6.48
  12 -12   0    1.19    2.05
  13 -12   0   30.74    5.37
  14 -12   0   37.74    5.76
  -3 -11   0   37.74    6.07
  -2 -11   0   96.68    7.83
  -1 -11   0   85.41    6.94
   0 -11   0   26.95    4.48
   1 -11   0   12.93    3.28
   2 -11   0    6.00    2.38
   3 -11   0   87.36    6.32
   4 -11   0   16.25    2.18
   5 -11   0  111.34    4.82
   6 -11   0   16.26    2.28
   7 -11   0  524.16   10.83
   8 -11   0    0.96    1.17
   9 -11   0   80.71    6.22
  10 -11   0    2.27    1.84
  11 -11   0   21.39    4.06
  12 -11   0   -0.19    1.64
  13 -11   0    5.02    2.43
  14 -11   0    9.99    3.17
  -4 -10   0    5.40    3.10
  -3 -10   0   15.72    3.91
  -2 -10   0  121.96    8.11
  -1 -10   0    0.67    1.65
   0 -10   0   52.13    5.76
   1 -10   0   80.01    5.98
   2 -10   0    3.19    1.82
   3 -10   0   80.65    3.82
   4 -10   0   55.01    3.27
   5 -10   0    1.99    1.08
   6 -10   0   20.88    2.39
   7 -10   0   11.88    2.79
   8 -10   0    0.50    1.33
   9 -10   0   26.49    3.91
  10 -10   0   43.00    5.01
  11 -10   0   13.16    3.00
  12 -10   0  141.19    8.40
  13 -10   0    0.69    1.71
  14 -10   0    4.73    2.64
  -6  -9   0  152.63   10.26
  -5  -9   0   42.06    6.18
  -4  -9   0   57.17    6.83
  -3  -9   0    9.60    3.09
  -2  -9   0   85.82    6.47
  -1  -9   0   32.79    4.49
   0  -9   0  263.11   10.31
   1  -9   0    1.19    0.86
   2  -9   0   13.68    1.82
   3  -9   0  344.26    7.57
   4  -9   0    2.32    1.00
   5  -9   0  146.35    4.86
   6  -9   0    1.67    1.28
   7  -9   0  126.05    6.46
   8  -9   0   59.33    4.74
   9  -9   0  240.09    9.46
  10  -9   0   73.92    5.49
  11  -9   0    3.89    1.96
  12  -9   0   22.59    3.87
  13  -9   0    4.73    2.29
  14  -9   0   -0.94    1.64
  -7  -8   0   44.30    6.46
  -6  -8   0    3.08    2.53
  -5  -8   0    6.45    2.74
  -4  -8   0    6.28    2.56
  -3  -8   0    0.64    1.63
  -2  -8   0   -0.60    1.14
  -1  -8   0   57.95    4.88
   0  -8   0  185.85    5.25
   1  -8   0    1.41    0.81
   2  -8   0   76.49    3.28
   3  -8   0  126.37    4.20
   4  -8   0    1.68    0.86
   5  -8   0  170.66    7.04
   6  -8   0   26.43    3.18
   7  -8   0   27.47    3.45
   8  -8   0  179.35    7.47
   9  -8   0    0.19    1.06
  10  -8   0    1.84    1.52
  11  -8   0   77.46    5.76
  12  -8   0   73.81    5.86
  13  -8   0  206.20   10.30
  14  -8   0   39.17    5.58
  15  -8   0   15.19    4.16
  -8  -7   0    8.79    3.58
  -7  -7   0    1.05    2.18
  -6  -7   0   53.28    6.67
  -5  -7   0    4.16    2.20
  -4  -7   0  530.43   15.95
  -3  -7   0   12.76    2.96
  -2  -7   0  116.84    4.26
  -1  -7   0   30.61    2.23
   0  -7   0   76.39    3.15
   1  -7   0    6.27    1.10
   2  -7   0   60.39    2.79
   3  -7   0  117.43    3.76
   4  -7   0  197.01    7.12
   5  -7   0  374.85    9.90
   6  -7   0  210.56    7.21
   7  -7   0   69.03    4.34
   8  -7   0    1.52    1.16
   9  -7   0   12.80    2.44
  10  -7   0   79.38    5.38
  11  -7   0   19.95    3.43
  12  -7   0   12.90    3.02
  13  -7   0   75.60    6.19
  14  -7   0   -0.30    1.67
  -8  -6   0   42.48    6.19
  -7  -6   0   77.64    6.84
  -6  -6   0    1.05    1.91
  -5  -6   0   14.79    3.29
  -4  -6   0   21.41    3.53
  -3  -6   0    0.64    0.73
  -2  -6   0   30.62    2.17
  -1  -6   0  204.46    5.01
   0  -6   0   32.81    2.06
   1  -6   0  456.05    7.46
   2  -6   0    8.00    1.21
   3  -6   0   14.91    1.51
   4  -6   0    2.92    1.06
   5  -6   0   19.12    2.47
   6  -6   0   31.89    2.75
   7  -6   0    4.26    1.35
   8  -6   0   76.76    4.58
   9  -6   0  335.03   10.41
  10  -6   0   58.30    4.47
  11  -6   0  103.37    6.39
  12  -6   0    3.91    1.94
  13  -6   0   50.33    5.88
  14  -6   0    4.39    2.51
  -9  -5   0    0.25    1.90
  -8  -5   0  222.31   10.93
  -7  -5   0   19.89    3.99
  -6  -5   0  105.77    6.82
  -5  -5   0    0.40    1.17
  -4  -5   0  147.87    4.54
  -3  -5   0  169.98    4.60
  -2  -5   0  375.11    6.78
  -1  -5   0   24.36    1.91
   0  -5   0    5.19    0.96
   1  -5   0  158.36    3.82
   2  -5   0  155.32    3.67
   3  -5   0    3.04    1.00
   4  -5   0    3.37    1.02
   5  -5   0    4.35    1.16
   6  -5   0  450.13   10.28
   7  -5   0   58.51    1.92
   8  -5   0  126.02    5.74
   9  -5   0    3.76    1.46
  10  -5   0    1.32    1.20
  11  -5   0   13.10    2.89
  12  -5   0    1.15    1.45
  13  -5   0    2.56    1.99
  14  -5   0   52.43    6.54
 -10  -4   0    4.98    2.87
  -9  -4   0    3.71    2.25
  -8  -4   0   59.64    5.59
  -7  -4   0   22.31    3.94
  -6  -4   0   57.15    3.07
  -5  -4   0    2.93    1.00
  -4  -4   0    0.54    0.58
  -3  -4   0  192.47    4.52
  -2  -4   0    2.73    0.73
  -1  -4   0    3.28    0.73
   0  -4   0  181.74    3.79
   1  -4   0  254.75    4.47
   2  -4   0  908.08   14.47
   3  -4   0  550.53   10.06
   4  -4   0  183.60    5.23
   5  -4   0  161.42    5.20
   6  -4   0    9.32    0.94
   7  -4   0  115.47    3.14
   8  -4   0    0.07    0.51
   9  -4   0  147.44    4.35
  10  -4   0   23.04    3.42
  11  -4   0  519.65   14.86
  12  -4   0    3.38    2.03
  13  -4   0   59.43    5.67
  14  -4   0   14.05    3.64
 -11  -3   0   15.47    4.15
 -10  -3   0    4.96    2.74
  -9  -3   0   23.28    4.30
  -8  -3   0   80.35    6.01
  -7  -3   0   76.06    3.57
  -6  -3   0  354.17    7.32
  -5  -3   0  121.50    3.89
  -4  -3   0  122.00    3.56
  -3  -3   0   15.40    1.43
  -2  -3   0    0.05    0.37
  -1  -3   0  564.79    7.06
   0  -3   0    1.37    0.49
   1  -3   0   60.96    1.82
   2  -3   0  202.75    4.80
   3  -3   0    1.31    0.62
   4  -3   0  243.85    3.53
   5  -3   0  160.93    3.19
   6  -3   0   16.09    1.44
   7  -3   0  191.48    6.10
   8  -3   0  158.28    6.03
   9  -3   0    0.11    0.81
  10  -3   0   14.45    2.68
  11  -3   0    0.66    0.85
  12  -3   0   12.31    3.08
  13  -3   0   14.76    3.64
  14  -3   0   41.86    6.14
 -11  -2   0    7.89    2.94
 -10  -2   0  145.43    8.66
  -9  -2   0    5.16    1.43
  -8  -2   0    4.07    1.17
  -7  -2   0   15.59    1.94
  -6  -2   0   75.12    3.08
  -5  -2   0   63.00    2.59
  -4  -2   0    8.70    1.19
  -3  -2   0  149.69    3.34
  -2  -2   0  924.37    9.71
  -1  -2   0  205.59    3.23
   0  -2   0  206.52    3.10
   1  -2   0    9.79    1.11
   2  -2   0  215.24    4.30
   3  -2   0   59.72    1.50
   4  -2   0  929.77   13.30
   5  -2   0   -0.08    0.55
   6  -2   0    1.33    0.92
   7  -2   0  363.68    9.61
   8  -2   0   38.38    3.38
   9  -2   0  128.86    6.26
  10  -2   0    3.33    1.76
  11  -2   0   85.83    6.05
  12  -2   0  142.99    8.09
 -12  -1   0   52.60    7.21
 -11  -1   0    0.96    1.61
 -10  -1   0   13.36    2.32
  -9  -1   0   70.93    3.65
  -8  -1   0   -0.25    0.60
  -7  -1   0    0.41    0.57
  -6  -1   0    7.72    1.24
  -5  -1   0  449.20    7.09
  -4  -1   0  161.54    3.56
  -3  -1   0  256.52    4.17
  -2  -1   0   60.89    1.63
  -1  -1   0    8.52    0.61
   0  -1   0    4.66    0.40
   1  -1   0    3.95    0.49
   2  -1   0    7.99    0.84
   3  -1   0  194.80    4.63
   4  -1   0  558.14   10.33
   5  -1   0    1.32    0.88
   6  -1   0   17.13    2.49
   7  -1   0  200.18    7.41
   8  -1   0   28.00    3.83
   9  -1   0   56.05    4.53
  10  -1   0   36.34    4.86
  11  -1   0    1.59    1.89
  12  -1   0   75.01    6.37
  13  -1   0   -0.35    2.08
 -12   0   0    2.09    2.03
 -11   0   0   28.45    3.34
 -10   0   0   50.69    3.33
  -9   0   0  247.68    6.66
  -8   0   0  182.89    5.26
  -7   0   0   78.80    3.17
  -6   0   0   34.72    1.93
  -5   0   0    4.70    0.84
  -4   0   0  187.87    3.67
  -3   0   0    2.08    0.39
  -2   0   0  208.34    2.33
  -1   0   0    4.32    0.36
   1   0   0    4.01    0.55
   2   0   0  203.17    4.63
   3   0   0    2.18    0.93
   5   0   0    3.65    1.29
   6   0   0   31.37    3.62
   7   0   0   81.47    5.03
   8   0   0  175.29    7.94
   9   0   0  238.65    9.74
  10   0   0   42.04    5.57
  11   0   0   24.89    4.48
  12   0   0    1.98    2.31
  13   0   0   -0.28    2.25
 -13   1   0    5.84    2.79
 -12   1   0   80.29    4.60
 -11   1   0    4.86    1.44
 -10   1   0   35.24    3.24
  -9   1   0   63.02    3.27
  -8   1   0   29.98    2.04
  -7   1   0  206.97    3.98
  -6   1   0   22.08    1.54
  -5   1   0    3.91    0.67
  -4   1   0  573.98    5.81
  -3   1   0  202.22    2.71
  -2   1   0    9.04    0.47
  -1   1   0    3.98    0.31
   0   1   0    3.46    0.36
   1   1   0    9.51    1.15
   2   1   0   61.42    2.81
   3   1   0  252.65    6.70
   4   1   0  150.99    5.72
   5   1   0  448.14   11.23
   6   1   0    7.34    2.03
   7   1   0    0.39    1.16
   8   1   0    1.67    1.27
   9   1   0   66.52    5.53
  10   1   0   12.23    3.33
  11   1   0    0.81    1.92
  12   1   0   34.59    5.82
 -13   2   0   98.51    5.35
 -12   2   0  114.88    5.38
 -11   2   0   83.12    4.24
 -10   2   0    0.94    0.84
  -9   2   0  121.75    3.47
  -8   2   0   33.03    1.83
  -7   2   0  378.27    5.66
  -6   2   0    2.68    0.63
  -5   2   0    1.20    0.45
  -4   2   0  918.79    6.86
  -3   2   0   58.90    1.42
  -2   2   0  210.02    2.65
  -1   2   0    7.09    0.54
   0   2   0  209.74    2.42
   1   2   0  203.51    3.36
   2   2   0  922.58   15.01
   3   2   0  156.13    5.71
   4   2   0    6.50    1.67
   5   2   0   61.72    4.32
   6   2   0   69.09    4.88
   7   2   0   21.44    3.62
   8   2   0    4.77    2.08
   9   2   0    0.56    1.54
  10   2   0  146.68    9.04
  11   2   0    4.27    2.54
 -14   3   0   55.80    5.05
 -13   3   0   19.15    2.98
 -12   3   0   14.79    2.49
 -11   3   0    0.78    0.91
 -10   3   0   15.77    1.75
  -9   3   0    1.19    0.62
  -8   3   0  168.48    3.90
  -7   3   0  194.15    3.95
  -6   3   0   17.91    1.40
  -5   3   0  156.18    2.86
  -4   3   0  256.73    3.63
  -3   3   0    1.02    0.42
  -2   3   0  197.44    2.90
  -1   3   0   59.12    1.40
   0   3   0    1.45    0.40
   1   3   0  570.18    7.28
   2   3   0    0.07    0.44
   3   3   0   17.03    2.54
   4   3   0  120.16    5.81
   5   3   0  123.65    6.35
   6   3   0  348.19   11.57
   7   3   0   78.53    5.78
   8   3   0   80.23    6.22
   9   3   0   24.50    4.77
  10   3   0    3.03    2.37
  11   3   0   15.45    4.11
 -14   4   0   10.12    3.70
 -13   4   0   68.70    7.58
 -12   4   0    6.08    2.54
 -11   4   0  539.79   10.83
 -10   4   0   24.26    2.68
  -9   4   0  142.80    4.90
  -8   4   0   -0.40    0.56
  -7   4   0  119.76    2.88
  -6   4   0    7.18    0.89
  -5   4   0  162.68    3.16
  -4   4   0  182.48    3.25
  -3   4   0  565.59    6.19
  -2   4   0  906.55    6.85
  -1   4   0  251.28    3.46
   0   4   0  181.45    3.84
   1   4   0    4.93    0.88
   2   4   0    1.49    0.66
   3   4   0  194.83    7.29
   4   4   0   -0.25    0.94
   5   4   0    1.65    1.51
   6   4   0   57.73    4.99
   7   4   0   21.67    4.05
   8   4   0   68.05    6.06
   9   4   0    4.24    2.65
  10   4   0    1.25    2.53
 -14   5   0   57.24    7.47
 -13   5   0    2.21    2.24
 -12   5   0    1.85    1.30
 -11   5   0   20.29    2.63
 -10   5   0    1.63    1.11
  -9   5   0    2.17    1.00
  -8   5   0  121.42    3.20
  -7   5   0   60.67    2.23
  -6   5   0  453.86    6.24
  -5   5   0    2.49    0.66
  -4   5   0    3.48    0.69
  -3   5   0    0.71    0.41
  -2   5   0  153.92    2.74
  -1   5   0  158.47    2.91
   0   5   0    3.14    0.81
   1   5   0   20.53    1.81
   2   5   0  388.31    6.95
   3   5   0  173.26    7.26
   4   5   0  145.36    7.17
   5   5   0    1.08    1.40
   6   5   0  119.78    7.20
   7   5   0   13.11    3.57
   8   5   0  188.96   10.38
   9   5   0    2.59    2.34
 -15   6   0  148.63   10.97
 -14   6   0    1.37    2.31
 -13   6   0   49.14    4.49
 -12   6   0    2.56    1.44
 -11   6   0  113.64    5.09
 -10   6   0   56.44    3.80
  -9   6   0  334.75    5.99
  -8   6   0   73.74    2.66
  -7   6   0    6.76    1.03
  -6   6   0   31.21    1.84
  -5   6   0   18.72    1.50
  -4   6   0    1.29    0.55
  -3   6   0   14.55    0.86
  -2   6   0    8.72    0.91
  -1   6   0  456.85    5.73
   0   6   0   33.50    2.06
   1   6   0  209.59    5.11
   2   6   0   34.63    2.38
   3   6   0    0.70    0.82
   4   6   0   19.73    3.40
   5   6   0   20.77    3.81
   6   6   0    0.71    1.76
   7   6   0   87.14    7.22
   8   6   0   37.27    5.83
 -15   7   0   37.81    7.05
 -14   7   0   -0.35    1.88
 -13   7   0   89.32    5.13
 -12   7   0   12.26    2.27
 -11   7   0   16.36    2.55
 -10   7   0   73.03    3.00
  -9   7   0   15.60    1.69
  -8   7   0    1.30    0.76
  -7   7   0   80.22    2.87
  -6   7   0  202.56    4.44
  -5   7   0  387.49    6.12
  -4   7   0  196.04    4.14
  -3   7   0  121.76    2.71
  -2   7   0   60.45    2.07
  -1   7   0    6.31    0.89
   0   7   0   79.25    3.23
   1   7   0   30.56    2.54
   2   7   0  126.50    4.33
   3   7   0   10.90    2.69
   4   7   0  552.82   15.59
   5   7   0    3.49    2.02
   6   7   0   52.38    6.46
   7   7   0    1.29    2.14
 -14   8   0   38.10    4.33
 -13   8   0  209.20    7.80
 -12   8   0   64.63    5.01
 -11   8   0   80.82    4.50
 -10   8   0    2.21    0.92
  -9   8   0    0.69    0.74
  -8   8   0  176.34    4.62
  -7   8   0   26.40    2.10
  -6   8   0   29.67    2.17
  -5   8   0  170.68    4.19
  -4   8   0    0.49    0.85
  -3   8   0  122.66    2.95
  -2   8   0   72.84    2.41
  -1   8   0    0.48    0.59
   0   8   0  175.97    5.11
   1   8   0   61.51    3.19
   2   8   0    0.87    0.98
   3   8   0    1.89    1.63
   4   8   0    7.01    2.51
   5   8   0    3.36    2.44
   6   8   0    1.02    2.27
 -15   9   0    2.60    3.02
 -14   9   0   -0.21    1.65
 -13   9   0    3.25    1.77
 -12   9   0   25.68    3.27
 -11   9   0    3.00    1.21
 -10   9   0   68.52    3.22
  -9   9   0  250.66    5.90
  -8   9   0   58.68    2.99
  -7   9   0  116.55    3.85
  -6   9   0    3.18    1.00
  -5   9   0  146.74    5.09
  -4   9   0    2.49    1.09
  -3   9   0  342.40    7.46
  -2   9   0   15.27    1.44
  -1   9   0    0.55    0.89
   0   9   0  246.93    6.43
   1   9   0   30.89    2.80
   2   9   0   85.73    6.06
   3   9   0    8.34    2.65
   4   9   0   64.89    6.78
   5   9   0   52.04    6.59
 -14  10   0    2.38    2.03
 -13  10   0    1.24    1.67
 -12  10   0  151.48    6.59
 -11  10   0   14.18    1.93
 -10  10   0   53.55    3.26
  -9  10   0   30.66    2.55
  -8  10   0    0.68    0.85
  -7  10   0    9.45    1.48
  -6  10   0   23.97    2.76
  -5  10   0    1.36    1.10
  -4  10   0   57.35    3.56
  -3  10   0   79.18    3.76
  -2  10   0    4.93    2.02
  -1  10   0   68.57    5.44
   0  10   0   49.60    3.40
   1  10   0    2.42    1.82
   2  10   0  126.82    7.58
   3  10   0   14.54    3.50
   4  10   0   11.54    3.64
 -14  11   0    9.18    2.79
 -13  11   0    9.19    2.48
 -12  11   0    0.49    1.15
 -11  11   0   23.79    2.49
 -10  11   0    2.97    1.28
  -9  11   0   80.41    3.69
  -8  11   0    1.53    1.03
  -7  11   0  527.04   11.20
  -6  11   0   17.04    2.42
  -5  11   0  119.23    4.95
  -4  11   0   18.41    2.38
  -3  11   0   82.12    6.15
  -2  11   0    3.02    2.11
  -1  11   0   12.69    3.00
   0  11   0   22.41    3.94
   3  11   0   45.82    5.94
 -13  12   0   32.26    4.18
 -12  12   0    1.84    1.42
 -11  12   0   78.96    4.04
 -10  12   0  125.16    4.83
  -9  12   0    9.52    1.77
  -8  12   0    5.42    1.78
  -7  12   0    1.42    1.27
  -6  12   0    2.17    1.48
  -5  12   0   15.92    2.39
  -4  12   0   59.91    6.62
  -3  12   0   14.47    3.46
  -2  12   0  149.78    8.69
  -1  12   0    0.48    1.66
 -13  13   0    1.17    2.09
 -12  13   0   -0.85    1.38
 -11  13   0  105.44    4.78
 -10  13   0   14.23    2.22
  -9  13   0   54.18    4.72
  -8  13   0    5.04    1.86
  -7  13   0   59.90    4.71
  -6  13   0   82.59    6.97
  -5  13   0  199.95   10.52
  -4  13   0    2.20    2.20
  -3  13   0    0.88    2.10
  -2  13   0    3.12    2.29
 -12  14   0   13.14    3.08
 -11  14   0   41.11    4.44
 -10  14   0    8.85    2.37
  -9  14   0   44.70    4.47
  -8  14   0    1.62    1.81
  -7  14   0    0.05    2.05
  -6  14   0   31.33    5.26
  -5  14   0    0.33    2.25
  -4  14   0    2.41    2.61
  -3  14   0    9.08    3.44
  -2  14   0   43.01    6.14
 -10  15   0   40.14    6.47
  -9  15   0  156.72    9.81
   9 -15   1   -0.88    2.94
   7 -14   1   17.44    4.12
   8 -14   1   -0.56    2.42
   9 -14   1    4.11    2.82
  10 -14   1   19.73    4.68
  11 -14   1   63.55    7.75
   6 -13   1    2.62    2.32
   7 -13   1   97.63    7.55
   8 -13   1   17.14    4.01
   9 -13   1   83.89    7.28
  10 -13   1    3.93    2.84
  11 -13   1    2.67    2.78
  12 -13   1   12.91    4.03
   2 -12   1    2.01    2.03
   3 -12   1    5.66    2.51
   4 -12   1  110.73    5.02
   5 -12   1    0.43    1.13
   6 -12   1   29.34    3.18
   7 -12   1   15.91    2.43
   8 -12   1    8.73    2.05
   9 -12   1   16.65    2.60
  10 -12   1    0.32    1.37
  11 -12   1    1.99    1.53
  12 -12   1   94.89    7.24
  13 -12   1    5.49    3.04
  14 -12   1   89.47    7.87
  -2 -11   1    2.20    2.48
  -1 -11   1    3.75    2.49
   0 -11   1   40.70    5.27
   1 -11   1   15.08    3.34
   2 -11   1   56.97    3.59
   3 -11   1   84.61    4.23
   4 -11   1   38.88    3.34
   5 -11   1  168.26    5.90
   6 -11   1   10.46    1.95
   7 -11   1    5.22    1.54
   8 -11   1   12.80    2.09
   9 -11   1  138.76    5.68
  10 -11   1   26.44    4.14
  11 -11   1   32.23    4.65
  12 -11   1   47.16    5.47
  13 -11   1   16.03    3.68
  14 -11   1   44.81    5.86
  -4 -10   1   25.18    4.81
  -3 -10   1    1.15    2.02
  -2 -10   1   -0.77    1.56
  -1 -10   1   28.05    4.36
   0 -10   1  148.58    7.82
   1 -10   1   35.32    3.12
   2 -10   1  181.17    5.76
   3 -10   1    0.87    0.93
   4 -10   1    8.01    1.65
   5 -10   1   49.35    3.18
   6 -10   1   10.95    1.84
   7 -10   1    8.72    1.75
   8 -10   1   38.65    3.30
   9 -10   1    3.49    1.77
  10 -10   1  150.10    7.65
  11 -10   1   23.13    3.86
  12 -10   1    0.74    1.58
  13 -10   1   32.18    4.77
  14 -10   1   88.64    7.23
  -6  -9   1    0.53    2.42
  -5  -9   1    2.44    2.48
  -4  -9   1   97.88    7.28
  -3  -9   1   23.13    4.25
  -2  -9   1  136.40    7.74
  -1  -9   1    1.56    1.11
   0  -9   1    4.94    1.41
   1  -9   1   37.06    3.02
   2  -9   1   34.74    2.88
   3  -9   1    2.43    1.08
   4  -9   1    0.51    0.91
   5  -9   1  233.85    6.26
   6  -9   1   50.05    3.00
   7  -9   1  251.56    6.56
   8  -9   1   12.56    2.52
   9  -9   1    5.31    1.84
  10  -9   1   32.97    4.19
  11  -9   1   60.51    5.12
  12  -9   1    4.30    2.18
  13  -9   1   20.59    3.94
  14  -9   1   10.01    3.21
  15  -9   1   89.62    7.78
  -7  -8   1   61.26    7.53
  -6  -8   1    0.43    2.17
  -5  -8   1   13.17    3.61
  -4  -8   1    9.95    2.82
  -3  -8   1   13.13    3.08
  -2  -8   1   38.06    3.20
  -1  -8   1   12.15    1.80
   0  -8   1   12.01    1.78
   1  -8   1  232.21    5.94
   2  -8   1   52.79    2.81
   3  -8   1  273.73    6.41
   4  -8   1   65.93    3.14
   5  -8   1    3.33    1.06
   6  -8   1    0.57    0.75
   7  -8   1   40.60    3.37
   8  -8   1    8.81    1.97
   9  -8   1   42.66    3.79
  10  -8   1  182.55    7.93
  11  -8   1   79.96    5.66
  12  -8   1  108.29    6.97
  13  -8   1   -1.09    1.46
  14  -8   1    2.81    2.29
  15  -8   1   31.00    5.37
  -8  -7   1   25.62    5.11
  -7  -7   1   24.59    4.80
  -6  -7   1   90.28    7.21
  -5  -7   1   19.50    3.74
  -4  -7   1   10.90    2.76
  -3  -7   1   10.45    1.78
  -2  -7   1  255.64    6.52
  -1  -7   1   38.94    2.52
   0  -7   1  129.32    4.22
   1  -7   1  120.34    4.01
   2  -7   1   47.70    2.50
   3  -7   1  206.50    5.14
   4  -7   1    2.82    0.87
   5  -7   1   13.12    1.53
   6  -7   1  329.18    8.90
   7  -7   1  128.82    5.58
   8  -7   1  214.24    7.67
   9  -7   1   29.40    3.61
  10  -7   1    4.44    1.70
  11  -7   1   48.17    4.38
  12  -7   1    0.97    1.47
  13  -7   1   -0.60    1.56
  14  -7   1   21.38    4.29
  15  -7   1   64.49    8.21
  -9  -6   1   88.98    8.18
  -8  -6   1    4.04    2.52
  -7  -6   1    2.25    1.94
  -6  -6   1   33.58    4.90
  -5  -6   1   14.23    2.15
  -4  -6   1   10.82    1.52
  -3  -6   1   42.10    2.69
  -2  -6   1    0.94    0.78
  -1  -6   1  323.11    6.66
   0  -6   1   40.44    2.28
   1  -6   1    8.27    1.20
   2  -6   1  190.61    4.66
   3  -6   1  360.39    6.44
   4  -6   1   62.52    2.54
   5  -6   1   37.47    2.64
   6  -6   1   41.11    2.90
   7  -6   1  118.71    5.20
   8  -6   1   53.89    3.66
   9  -6   1    3.91    1.46
  10  -6   1    7.52    2.03
  11  -6   1  169.75    7.96
  12  -6   1   27.27    3.98
  13  -6   1  104.02    7.01
  14  -6   1    2.02    1.88
  -9  -5   1    7.68    3.02
  -8  -5   1    0.72    1.67
  -7  -5   1   -0.33    1.38
  -6  -5   1  169.15    5.73
  -5  -5   1   48.34    2.98
  -4  -5   1  229.71    5.98
  -3  -5   1    3.07    0.97
  -2  -5   1   16.44    1.73
  -1  -5   1   35.21    2.02
   0  -5   1  188.44    4.39
   1  -5   1   23.92    1.67
   2  -5   1   91.47    2.88
   3  -5   1   87.37    2.75
   4  -5   1  457.56    9.14
   5  -5   1  196.04    5.72
   6  -5   1   10.26    1.70
   7  -5   1   48.30    1.96
   8  -5   1  268.37    8.29
   9  -5   1    0.47    0.98
  10  -5   1   52.22    4.22
  11  -5   1   15.70    3.11
  12  -5   1   23.53    3.92
  13  -5   1   19.32    3.83
  14  -5   1    4.01    2.24
 -10  -4   1   82.36    7.30
  -9  -4   1   28.11    4.98
  -8  -4   1  107.53    4.92
  -7  -4   1   43.06    3.62
  -6  -4   1    7.36    1.50
  -5  -4   1    2.21    0.92
  -4  -4   1   72.11    3.10
  -3  -4   1    3.38    0.90
  -2  -4   1   62.36    2.52
  -1  -4   1  459.43    6.99
   0  -4   1  199.89    4.14
   1  -4   1  473.59    6.71
   2  -4   1   13.45    1.22
   3  -4   1   13.54    1.50
   4  -4   1  196.73    5.16
   5  -4   1   19.08    1.77
   6  -4   1  194.04    3.85
   7  -4   1  208.61    4.53
   8  -4   1   67.29    2.78
   9  -4   1  233.53    5.76
  10  -4   1   13.77    2.67
  11  -4   1    6.13    2.13
  12  -4   1    7.86    2.45
  13  -4   1   82.06    6.59
  14  -4   1   18.09    4.12
 -11  -3   1   60.08    7.55
 -10  -3   1   26.09    4.86
  -9  -3   1    6.35    1.69
  -8  -3   1   79.04    4.07
  -7  -3   1    4.46    1.26
  -6  -3   1    3.39    1.09
  -5  -3   1  265.93    6.07
  -4  -3   1  216.02    4.99
  -3  -3   1  360.97    6.22
  -2  -3   1   88.23    2.69
  -1  -3   1   12.61    0.87
   0  -3   1  195.04    3.58
   1  -3   1   15.02    1.10
   2  -3   1   37.35    1.38
   3  -3   1  193.73    4.33
   4  -3   1  473.67    8.50
   5  -3   1   94.02    3.69
   6  -3   1  353.65    7.96
   7  -3   1    1.81    0.95
   8  -3   1    1.92    1.13
   9  -3   1   42.17    3.76
  10  -3   1    9.85    2.45
  11  -3   1   12.60    3.00
  13  -3   1    2.64    2.14
  14  -3   1   73.73    6.88
 -11  -2   1   17.36    4.26
 -10  -2   1    0.97    1.19
  -9  -2   1   59.03    3.63
  -8  -2   1  176.78    5.75
  -7  -2   1   31.14    2.81
  -6  -2   1   49.83    2.67
  -5  -2   1   45.46    2.33
  -4  -2   1  196.05    4.42
  -3  -2   1   91.22    2.69
  -2  -2   1   14.52    0.81
  -1  -2   1   36.21    1.07
   0  -2   1  594.95    6.52
   1  -2   1  148.08    2.34
   2  -2   1  598.08    8.27
   6  -2   1   64.64    3.48
   7  -2   1   15.20    2.34
   8  -2   1    0.15    0.95
   9  -2   1  243.96    9.26
  10  -2   1   37.10    4.84
  11  -2   1  128.73    7.60
  12  -2   1    0.45    1.43
 -12  -1   1   10.75    3.50
 -11  -1   1   53.19    4.68
 -10  -1   1   24.49    3.04
  -9  -1   1   40.89    3.63
  -8  -1   1   40.84    2.70
  -7  -1   1  226.72    5.84
  -6  -1   1  127.95    3.98
  -5  -1   1   10.34    1.34
  -4  -1   1   22.01    1.43
  -3  -1   1  470.72    4.93
  -2  -1   1   14.63    0.73
  -1  -1   1  139.48    1.87
   0  -1   1   48.58    1.36
   1  -1   1   50.03    2.06
   5  -1   1  466.10    9.87
   6  -1   1   35.57    2.88
   7  -1   1  323.23    9.67
   8  -1   1   35.62    4.18
   9  -1   1   16.45    3.10
  10  -1   1    2.41    1.66
  11  -1   1   22.94    4.19
  12  -1   1    6.27    2.73
  13  -1   1   19.07    4.29
 -12   0   1  100.50    5.38
 -11   0   1   43.02    3.99
 -10   0   1  147.02    5.59
  -9   0   1    6.56    1.48
  -8   0   1   14.56    1.95
  -7   0   1  125.25    4.10
  -6   0   1   41.17    1.71
  -5   0   1  195.37    3.40
  -4   0   1  200.94    3.17
  -3   0   1  195.92    2.77
  -2   0   1  604.07    5.29
  -1   0   1   47.64    0.80
   0   0   1    0.64    0.28
   1   0   1   49.83    1.16
   4   0   1  201.64    4.44
   5   0   1  201.94    6.54
   6   0   1   40.49    3.31
   7   0   1  120.99    6.17
   8   0   1   14.38    3.00
   9   0   1    4.88    2.12
  10   0   1  138.62    8.15
  11   0   1   42.30    6.16
  12   0   1   99.97    7.78
  13   0   1   15.18    4.45
 -13   1   1   22.79    3.35
 -12   1   1    5.28    1.58
 -11   1   1   25.02    3.03
 -10   1   1    0.17    0.83
  -9   1   1   11.44    1.81
  -8   1   1   41.98    2.02
  -7   1   1  332.84    5.34
  -6   1   1   35.74    1.59
  -5   1   1  466.34    5.60
  -4   1   1   14.25    1.05
  -3   1   1   37.34    1.18
  -2   1   1  145.34    1.97
  -1   1   1   47.55    0.99
   0   1   1   48.77    0.87
   1   1   1  141.36    2.14
   2   1   1   15.73    1.18
   3   1   1  476.38    7.82
   4   1   1   24.96    1.30
   5   1   1    6.74    1.77
   6   1   1  125.68    6.13
   7   1   1  239.86    9.22
   8   1   1   44.01    5.16
   9   1   1   40.39    5.47
  10   1   1   19.87    4.27
  11   1   1   45.20    6.28
  12   1   1    7.93    3.34
 -14   2   1   22.69    5.37
 -13   2   1    2.66    1.52
 -12   2   1    0.81    1.18
 -11   2   1  136.80    5.47
 -10   2   1   43.69    3.61
  -9   2   1  247.31    5.19
  -8   2   1    0.23    0.44
  -7   2   1   14.27    1.35
  -6   2   1   67.89    2.16
  -5   2   1   89.58    2.25
  -4   2   1   13.35    1.24
  -3   2   1   14.65    0.86
  -2   2   1  600.35    6.51
  -1   2   1  140.83    2.51
   0   2   1  604.64    6.30
   1   2   1   33.21    1.85
   2   2   1   13.92    1.47
   3   2   1   98.44    2.60
   4   2   1  198.86    4.04
   5   2   1   45.27    3.61
   6   2   1   50.59    4.18
   7   2   1   28.89    4.12
   8   2   1  182.29    8.98
   9   2   1   71.37    6.08
  10   2   1    0.31    1.78
  11   2   1   24.61    5.17
 -14   3   1   74.88    8.92
 -13   3   1    5.91    2.63
 -12   3   1   16.65    3.73
 -11   3   1   16.42    2.23
 -10   3   1    9.96    1.49
  -9   3   1   48.91    2.34
  -8   3   1    1.90    0.68
  -7   3   1    2.76    0.85
  -6   3   1  362.88    6.56
  -5   3   1   92.22    2.24
  -4   3   1  475.30    5.42
  -3   3   1  184.39    5.19
  -2   3   1   34.18    1.15
  -1   3   1   14.97    0.74
   0   3   1  196.89    3.18
   1   3   1   10.79    1.42
   2   3   1   86.36    2.56
   3   3   1  358.22    5.94
   4   3   1  207.69    7.50
   5   3   1  287.63    9.72
   6   3   1    0.83    1.22
   7   3   1    2.33    1.71
   8   3   1   82.05    6.43
   9   3   1    2.90    2.28
  10   3   1   39.25    6.04
  11   3   1   61.92    7.74
 -14   4   1   26.93    5.33
 -13   4   1   84.12    7.08
 -12   4   1   15.39    3.59
 -11   4   1    5.03    1.53
 -10   4   1   14.90    2.20
  -9   4   1  241.31    6.46
  -8   4   1   73.38    3.30
  -7   4   1  209.76    5.29
  -6   4   1  202.49    3.73
  -5   4   1   25.07    1.40
  -4   4   1  188.41    3.39
  -3   4   1   10.36    0.89
  -2   4   1   13.09    0.87
  -1   4   1  478.11    4.93
   0   4   1  205.81    3.66
   1   4   1  456.58    6.83
   2   4   1   60.89    2.46
   3   4   1    1.25    0.67
   4   4   1   67.13    2.84
   5   4   1    2.91    1.56
   6   4   1    6.37    2.23
   7   4   1   46.59    5.85
   8   4   1  110.34    7.79
   9   4   1   26.59    5.17
  10   4   1   86.97    9.19
 -14   5   1    5.72    3.05
 -13   5   1   15.88    3.82
 -12   5   1   18.33    2.72
 -11   5   1   14.87    2.40
 -10   5   1   52.30    3.60
  -9   5   1    0.58    0.78
  -8   5   1  267.99    6.53
  -7   5   1   45.61    1.99
  -6   5   1   10.61    1.15
  -5   5   1  183.78    3.67
  -4   5   1  468.55    5.92
  -3   5   1   84.92    2.20
  -2   5   1   91.36    2.17
  -1   5   1   25.86    1.21
   0   5   1  188.41    4.27
   1   5   1   37.55    2.06
   2   5   1   11.18    1.44
   3   5   1    3.95    1.01
   4   5   1  234.75    5.81
   5   5   1   50.08    5.53
   6   5   1  164.67    8.74
   7   5   1    1.60    1.94
   8   5   1   -0.38    1.59
   9   5   1   11.19    3.74
 -14   6   1    0.04    2.08
 -13   6   1  100.68    5.44
 -12   6   1   36.25    3.86
 -11   6   1  157.04    6.06
 -10   6   1    7.99    1.75
  -9   6   1    1.69    0.69
  -8   6   1   52.24    2.39
  -7   6   1  124.82    3.39
  -6   6   1   43.20    1.99
  -5   6   1   32.38    1.79
  -4   6   1   64.42    2.17
  -3   6   1  361.39    4.06
  -2   6   1  193.17    3.41
  -1   6   1    8.98    0.94
   0   6   1   37.81    2.18
   1   6   1  321.71    6.60
   2   6   1    0.94    0.82
   3   6   1   49.87    2.85
   4   6   1    9.93    2.75
   5   6   1   18.29    3.76
   6   6   1   43.37    5.58
   7   6   1    1.32    2.11
   8   6   1    1.82    2.45
 -14   7   1   28.59    3.83
 -13   7   1    2.15    1.54
 -12   7   1   -0.14    1.17
 -11   7   1   40.42    3.77
 -10   7   1    5.57    1.62
  -9   7   1   31.93    2.33
  -8   7   1  234.64    5.12
  -7   7   1  115.78    3.44
  -6   7   1  330.86    5.73
  -5   7   1   13.21    1.32
  -4   7   1    2.07    0.67
  -3   7   1  210.89    3.22
  -2   7   1   44.70    1.81
  -1   7   1  125.42    3.01
   0   7   1  124.37    4.08
   1   7   1   40.48    2.73
   2   7   1  259.84    6.49
   3   7   1    9.42    1.66
   4   7   1    4.99    2.23
   5   7   1   19.13    4.10
   6   7   1   91.01    7.28
   7   7   1   25.86    4.94
 -14   8   1    2.00    1.76
 -13   8   1    0.37    1.34
 -12   8   1  105.52    5.38
 -11   8   1   83.68    4.56
 -10   8   1  188.53    4.97
  -9   8   1   43.16    2.79
  -8   8   1    9.98    1.45
  -7   8   1   41.48    2.40
  -6   8   1    0.93    0.67
  -5   8   1    2.39    0.74
  -4   8   1   70.51    2.56
  -3   8   1  276.31    4.65
  -2   8   1   52.37    2.10
  -1   8   1  236.37    5.81
   0   8   1   11.89    1.68
   1   8   1   11.68    1.79
   2   8   1   39.14    3.19
   3   8   1   13.48    3.13
   4   8   1    6.55    2.58
   5   8   1   15.63    3.77
   6   8   1    0.25    1.99
 -15   9   1   97.55    8.85
 -14   9   1    7.83    2.42
 -13   9   1   27.85    3.63
 -12   9   1    8.31    2.21
 -11   9   1   68.97    4.63
 -10   9   1   37.37    2.80
  -9   9   1    5.07    1.21
  -8   9   1   15.20    1.78
  -7   9   1  251.73    5.53
  -6   9   1   46.46    2.60
  -5   9   1  225.60    4.99
  -4   9   1    0.47    0.89
  -3   9   1    2.43    1.13
  -2   9   1   21.53    3.47
  -1   9   1   44.36    2.95
   0   9   1    6.47    1.49
   1   9   1    2.66    1.26
   2   9   1  127.82    7.49
   3   9   1   16.85    3.45
   4   9   1   97.36    7.18
   5   9   1    2.63    2.55
 -14  10   1   81.58    5.87
 -13  10   1   38.18    4.30
 -12  10   1    2.04    1.60
 -11  10   1   20.88    2.31
 -10  10   1  144.91    4.78
  -9  10   1    2.36    1.11
  -8  10   1   39.70    2.83
  -7  10   1   10.19    1.47
  -6  10   1   11.70    1.51
  -5  10   1   45.97    3.60
  -4  10   1   10.13    1.78
  -3  10   1    4.16    1.99
  -2  10   1  187.60    8.81
  -1  10   1   40.90    5.02
   0  10   1  149.39    5.36
   1  10   1   24.93    2.75
   2  10   1   -0.24    1.73
   3  10   1    0.88    2.25
   4  10   1   22.80    4.50
 -14  11   1   50.90    5.10
 -13  11   1   16.18    3.08
 -12  11   1   47.53    4.65
 -11  11   1   33.78    2.99
 -10  11   1   22.71    2.42
  -9  11   1  135.24    4.67
  -8  11   1   14.66    1.87
  -7  11   1    5.70    1.35
  -6  11   1   13.58    2.22
  -5  11   1  175.71    6.04
  -4  11   1   41.55    5.31
  -3  11   1   73.78    5.98
  -2  11   1   59.62    5.47
  -1  11   1   24.39    4.14
   0  11   1   28.44    4.44
   3  11   1   64.10    6.91
 -13  12   1    6.50    2.38
 -12  12   1  100.16    4.59
 -11  12   1    2.82    1.37
 -10  12   1    0.04    1.10
  -9  12   1   16.05    2.15
  -8  12   1    5.47    1.43
  -7  12   1   13.83    2.37
  -6  12   1   32.98    3.40
  -5  12   1    2.00    2.01
  -4  12   1  111.17    7.59
  -3  12   1    5.37    2.59
  -2  12   1    2.49    1.96
  -1  12   1   43.85    5.79
   0  12   1  117.16    8.35
 -13  13   1   10.15    3.84
 -12  13   1   19.71    2.56
 -11  13   1    4.18    1.58
 -10  13   1    2.39    1.42
  -9  13   1   87.53    5.21
  -8  13   1   17.64    2.85
  -7  13   1   91.69    5.06
  -6  13   1    0.18    2.03
  -5  13   1   -1.20    1.66
  -4  13   1   24.36    4.76
  -3  13   1   29.33    5.04
  -2  13   1   14.62    3.91
  -1  13   1    5.00    3.05
 -12  14   1   20.15    3.30
 -11  14   1   71.56    5.80
 -10  14   1   15.02    2.86
  -9  14   1    5.67    2.19
  -8  14   1    1.45    1.72
  -7  14   1   19.04    4.52
  -6  14   1    1.92    2.38
  -5  14   1   11.86    3.79
  -4  14   1   84.79    7.62
  -3  14   1   47.52    6.45
  -2  14   1   81.29    7.50
  -9  15   1   -0.67    2.72
   6 -14   2   57.38    7.12
   7 -14   2    5.53    3.12
   8 -14   2    4.17    2.99
   9 -14   2   57.39    7.39
  10 -14   2   12.28    4.24
   4 -13   2   25.65    4.67
   5 -13   2   83.85    6.92
   6 -13   2   35.14    5.42
   7 -13   2   61.73    7.04
   8 -13   2   32.37    5.55
   9 -13   2   42.36    6.11
  10 -13   2    5.01    3.00
  11 -13   2   65.87    7.88
  12 -13   2    3.19    3.38
   2 -12   2  129.83    8.19
   3 -12   2    4.53    2.33
   4 -12   2   32.24    4.94
   5 -12   2    1.15    1.86
   6 -12   2   46.12    5.87
   7 -12   2    3.15    2.36
   8 -12   2    2.96    2.39
   9 -12   2   29.30    5.16
  10 -12   2   15.11    4.16
  11 -12   2   95.93    8.05
  12 -12   2   21.84    5.02
  13 -12   2   14.08    4.55
   1 -11   2    9.48    3.04
   2 -11   2    5.74    2.51
   3 -11   2   43.00    5.35
   4 -11   2   66.34    5.67
   5 -11   2   64.49    5.71
   6 -11   2    3.48    2.27
   7 -11   2  386.54   14.04
   8 -11   2    4.98    2.55
   9 -11   2   48.43    6.33
  10 -11   2    6.23    2.82
  11 -11   2   24.57    5.03
  12 -11   2   -0.93    2.32
  -1 -10   2    6.35    2.37
   0 -10   2  113.09    7.22
   1 -10   2   34.41    4.63
   2 -10   2   46.94    5.44
   3 -10   2  107.78    6.75
   4 -10   2   74.77    5.82
   5 -10   2   33.69    4.73
   6 -10   2   11.86    3.08
   7 -10   2    8.56    2.64
   8 -10   2  100.32    7.12
   9 -10   2   19.47    4.05
  10 -10   2  101.88    5.18
  -2  -9   2   42.40    5.26
  -1  -9   2   13.95    3.15
   0  -9   2   85.46    6.15
   1  -9   2    6.40    2.25
   2  -9   2    8.42    1.62
   3  -9   2  170.82    5.24
   4  -9   2   49.83    3.01
   5  -9   2   74.49    3.59
   6  -9   2   60.15    3.29
   7  -9   2   66.92    3.48
   8  -9   2  114.20    4.59
   9  -9   2   87.07    4.11
  10  -9   2   36.08    4.14
  11  -9   2    4.85    1.98
  12  -9   2    6.69    2.42
  13  -9   2   27.78    4.38
  14  -9   2    1.14    2.29
  -4  -8   2    4.30    2.21
  -3  -8   2    3.25    1.37
  -2  -8   2   95.87    4.37
  -1  -8   2  102.92    4.31
   0  -8   2  127.42    4.57
   1  -8   2   21.61    2.19
   2  -8   2   28.01    2.41
   3  -8   2  137.34    4.44
   4  -8   2   32.94    2.46
   5  -8   2   47.90    2.72
   6  -8   2   34.79    2.48
   7  -8   2   57.64    3.05
   8  -8   2  129.72    5.91
   9  -8   2    7.99    1.98
  10  -8   2   38.24    4.25
  11  -8   2   42.08    4.69
  12  -8   2   33.31    4.53
  13  -8   2   93.09    6.82
  14  -8   2   52.26    6.24
  -6  -7   2   65.33    6.05
  -5  -7   2    5.97    1.63
  -4  -7   2  365.82    8.81
  -3  -7   2   13.01    1.99
  -2  -7   2   66.77    3.43
  -1  -7   2   54.40    3.01
   0  -7   2   74.78    2.52
   1  -7   2   10.37    1.47
   2  -7   2   29.17    2.10
   3  -7   2  118.08    3.85
   4  -7   2  172.72    4.65
   5  -7   2  222.30    5.34
   6  -7   2  120.31    3.90
   7  -7   2   71.51    3.99
   8  -7   2   23.72    2.88
   9  -7   2    9.47    2.10
  10  -7   2  101.17    5.79
  11  -7   2   75.26    5.34
  12  -7   2    4.13    1.84
  13  -7   2   34.24    4.78
  14  -7   2    5.74    2.51
  -8  -6   2   51.16    6.61
  -7  -6   2   40.60    5.41
  -6  -6   2   39.41    3.61
  -5  -6   2    1.73    1.12
  -4  -6   2    8.07    1.54
  -3  -6   2   62.12    3.29
  -2  -6   2   29.67    2.56
  -1  -6   2  121.13    3.04
   0  -6   2   23.05    1.54
   1  -6   2  396.06    7.03
   2  -6   2    7.50    1.17
   3  -6   2  156.47    4.07
   4  -6   2   13.86    1.48
   5  -6   2  203.83    4.73
   6  -6   2   25.89    2.25
   7  -6   2   11.94    1.97
   8  -6   2   32.22    2.92
   9  -6   2  180.02    7.10
  10  -6   2   83.14    5.14
  11  -6   2   60.66    4.80
  12  -6   2   41.07    4.94
  13  -6   2   67.51    5.78
  14  -6   2   10.40    3.15
  -9  -5   2    1.93    2.23
  -8  -5   2  101.01    5.21
  -7  -5   2    2.86    1.32
  -6  -5   2   64.64    3.75
  -5  -5   2   44.88    3.18
  -4  -5   2   69.00    3.37
  -3  -5   2   45.31    2.64
  -2  -5   2  226.76    4.06
  -1  -5   2  201.89    3.73
   0  -5   2    3.89    0.69
   1  -5   2   56.38    2.25
   2  -5   2   72.79    2.50
   3  -5   2   16.62    1.31
   4  -5   2   66.23    2.36
   5  -5   2    2.98    0.74
   6  -5   2  388.02    8.76
   7  -5   2   27.54    2.41
   8  -5   2  127.43    5.49
   9  -5   2   44.06    3.61
  10  -5   2   52.90    4.24
  11  -5   2    0.47    1.29
  12  -5   2    7.62    2.46
  13  -5   2   41.80    5.42
  14  -5   2   65.73    7.08
 -10  -4   2   11.44    3.52
  -9  -4   2   29.10    3.38
  -8  -4   2   37.72    3.72
  -7  -4   2   78.67    4.10
  -6  -4   2   85.90    3.98
  -5  -4   2   45.14    2.77
  -4  -4   2   31.78    2.37
  -3  -4   2  177.96    4.69
  -2  -4   2   13.45    1.11
  -1  -4   2   65.14    1.92
   0  -4   2  133.92    2.61
   1  -4   2  247.29    7.62
   2  -4   2  317.62    4.96
   3  -4   2  165.03    3.32
   4  -4   2  138.40    3.21
   5  -4   2   53.72    2.64
   6  -4   2    2.87    1.00
   7  -4   2  114.94    4.87
   8  -4   2   28.56    3.23
   9  -4   2   67.67    4.43
  11  -4   2  376.46   12.35
  12  -4   2    6.80    2.38
  13  -4   2   47.14    5.90
  14  -4   2   23.08    4.46
 -11  -3   2   55.93    7.40
 -10  -3   2    1.16    1.41
  -9  -3   2    5.76    1.75
  -8  -3   2   46.57    3.95
  -7  -3   2  107.87    4.56
  -6  -3   2  173.93    5.36
  -5  -3   2  127.29    4.24
  -4  -3   2  110.79    3.66
  -3  -3   2  151.45    3.02
  -2  -3   2   18.17    1.12
  -1  -3   2  160.37    2.77
   0  -3   2   51.48    2.07
   1  -3   2   59.90    3.46
   2  -3   2  299.34    4.13
   3  -3   2   48.85    1.58
   4  -3   2  266.00    5.66
   8  -3   2   42.04    3.41
   9  -3   2   56.30    4.33
  10  -3   2    6.92    2.28
  11  -3   2    3.83    2.06
 -11  -2   2    7.75    2.23
 -10  -2   2  138.50    6.00
  -9  -2   2    5.01    1.55
  -8  -2   2   46.76    3.76
  -7  -2   2   10.61    1.79
  -6  -2   2   37.49    2.42
  -5  -2   2   25.22    1.53
  -4  -2   2    5.84    0.78
  -3  -2   2   71.38    1.92
  -2  -2   2  314.08    4.05
  -1  -2   2  289.29    3.58
   0  -2   2  433.42    6.23
   1  -2   2  189.10    3.83
   2  -2   2  447.56    5.14
   3  -2   2   59.87    3.16
   8  -2   2   28.68    3.55
   9  -2   2   66.66    4.87
  10  -2   2   97.54    6.33
  11  -2   2   48.59    5.97
  12  -2   2   21.21    4.24
 -12  -1   2   18.38    3.15
 -11  -1   2    0.48    1.18
 -10  -1   2   10.55    2.14
  -9  -1   2   35.07    3.33
  -8  -1   2    9.18    1.72
  -7  -1   2   23.78    2.42
  -6  -1   2   10.47    1.21
  -5  -1   2  385.18    5.47
  -4  -1   2   54.31    1.76
  -3  -1   2  262.75    3.75
  -2  -1   2   65.14    1.61
  -1  -1   2  194.55    2.57
   0  -1   2   47.68    1.74
   1  -1   2   47.64    1.74
   2  -1   2  196.63    3.67
   7  -1   2  118.48    3.50
   8  -1   2   59.70    4.51
   9  -1   2  114.11    6.63
  10  -1   2   16.14    3.48
  11  -1   2    9.26    3.09
  12  -1   2   97.04    7.64
  13  -1   2   -0.38    2.43
 -12   0   2   27.06    3.56
 -11   0   2   19.10    2.89
 -10   0   2  102.85    4.82
  -9   0   2   85.27    4.08
  -8   0   2  125.62    4.56
  -7   0   2   75.91    2.59
  -6   0   2   26.54    1.80
  -5   0   2    4.88    0.76
  -4   0   2  139.75    2.77
  -3   0   2   48.87    1.49
  -2   0   2  437.64    4.61
  -1   0   2   47.07    1.29
   0   0   2  897.90    9.19
   1   0   2   48.98    1.56
   2   0   2  444.73    5.57
   3   0   2   50.06    1.70
   4   0   2  135.08    2.94
   5   0   2    5.56    1.15
   6   0   2   24.46    1.98
   7   0   2   75.96    2.83
   8   0   2  123.93    6.91
   9   0   2   85.37    6.30
  10   0   2  117.94    7.72
  11   0   2   21.90    4.41
  12   0   2   22.93    4.77
 -13   1   2    2.99    1.65
 -12   1   2   99.22    5.26
 -11   1   2    9.94    2.16
 -10   1   2   14.98    2.27
  -9   1   2  103.60    4.35
  -8   1   2   56.76    2.41
  -7   1   2  118.11    3.20
  -6   1   2  206.67    3.97
  -5   1   2   60.79    1.97
  -4   1   2  160.97    3.77
  -3   1   2  300.71    4.98
  -2   1   2  198.48    2.81
  -1   1   2   45.22    1.24
   0   1   2   48.01    1.21
   1   1   2  197.58    2.50
   2   1   2   67.82    1.43
   3   1   2  257.91    4.07
   4   1   2   56.45    1.78
   5   1   2  389.30    8.31
   6   1   2    8.75    1.22
   7   1   2   22.45    3.71
   8   1   2    7.96    2.43
   9   1   2   33.89    5.22
  10   1   2   12.53    3.50
  11   1   2   -0.62    1.67
  12   1   2    6.92    3.43
 -13   2   2   76.27    8.63
 -12   2   2   21.83    4.59
 -11   2   2   58.43    6.67
 -10   2   2   96.51    4.40
  -9   2   2   63.85    2.73
  -8   2   2   33.55    2.30
  -7   2   2  217.85    5.45
  -6   2   2   12.81    1.55
  -5   2   2   17.23    1.65
  -4   2   2  315.56    4.18
  -3   2   2   66.15    1.71
  -2   2   2  434.08    4.71
  -1   2   2  199.64    2.71
   0   2   2  451.30    4.21
   1   2   2  300.31    4.44
   2   2   2  320.62    4.58
   3   2   2   70.90    3.20
   4   2   2    5.72    1.24
   5   2   2   23.74    1.79
   6   2   2   29.15    2.10
   7   2   2    7.71    2.35
   8   2   2   51.00    5.87
   9   2   2    5.64    2.44
  10   2   2  136.35    9.00
  11   2   2   14.19    4.26
 -13   3   2    1.81    2.34
 -12   3   2   36.12    5.51
 -11   3   2    4.31    2.17
 -10   3   2   11.89    2.02
  -9   3   2   62.34    3.36
  -8   3   2   49.76    2.86
  -7   3   2  168.46    4.81
  -6   3   2  155.39    4.31
  -5   3   2   74.18    2.13
  -4   3   2  267.28    4.74
  -3   3   2   49.48    1.54
  -2   3   2  303.02    3.81
  -1   3   2   66.18    1.46
   0   3   2   51.70    1.82
   1   3   2  160.17    3.19
   2   3   2   13.55    1.83
   3   3   2  157.81    5.27
   4   3   2  115.80    4.64
   5   3   2  138.51    4.12
   6   3   2  178.25    8.34
   7   3   2   99.98    6.89
   8   3   2   43.29    5.68
   9   3   2    9.29    3.11
  10   3   2    3.88    2.61
 -14   4   2   16.86    4.51
 -13   4   2   58.07    7.03
 -12   4   2    9.88    3.10
 -11   4   2  367.11    9.27
 -10   4   2    9.90    1.93
  -9   4   2   72.01    3.63
  -8   4   2   29.99    2.69
  -7   4   2  108.31    3.89
  -6   4   2    5.61    0.89
  -5   4   2   54.49    1.95
  -4   4   2  132.17    2.82
  -3   4   2  158.78    2.93
  -2   4   2  320.32    4.04
  -1   4   2  263.85    3.30
   0   4   2  137.76    3.19
   1   4   2   65.64    2.12
   2   4   2   14.40    2.09
   3   4   2  177.21    6.18
   4   4   2   27.06    2.25
   5   4   2   42.48    2.73
   6   4   2   83.51    6.14
   7   4   2   74.35    6.20
   8   4   2   31.42    5.10
   9   4   2   24.57    5.04
  10   4   2    7.60    3.60
 -14   5   2   74.99    8.79
 -13   5   2   44.07    6.21
 -12   5   2    5.78    1.83
 -11   5   2    1.31    1.22
 -10   5   2   47.19    3.44
  -9   5   2   49.28    3.33
  -8   5   2  127.85    4.57
  -7   5   2   27.06    1.89
  -6   5   2  384.31    5.89
  -5   5   2    2.51    0.64
  -4   5   2   59.86    2.00
  -3   5   2   15.78    1.10
  -2   5   2   73.82    1.90
  -1   5   2   56.19    2.27
   0   5   2    4.22    0.87
   1   5   2  204.36    6.90
   2   5   2  224.73    5.36
   3   5   2   43.58    2.55
   4   5   2   68.45    3.28
   5   5   2   41.85    5.30
   6   5   2   70.21    5.97
   7   5   2    4.87    2.58
   8   5   2   93.20    7.78
   9   5   2    4.13    3.02
 -14   6   2    8.11    3.46
 -13   6   2   72.39    5.69
 -12   6   2   44.76    4.29
 -11   6   2   69.48    4.13
 -10   6   2   80.85    4.17
  -9   6   2  173.77    5.70
  -8   6   2   34.84    2.31
  -7   6   2    9.74    1.26
  -6   6   2   24.74    1.85
  -5   6   2  199.29    4.06
  -4   6   2   12.11    1.18
  -3   6   2  154.85    3.16
  -2   6   2    5.43    0.74
  -1   6   2  400.16    6.81
   0   6   2   23.32    3.02
   1   6   2  122.81    4.06
   2   6   2   30.85    2.59
   3   6   2   65.72    3.29
   4   6   2    9.91    1.79
   5   6   2    3.90    2.27
   6   6   2   53.66    6.58
   7   6   2   35.20    5.54
   8   6   2   50.20    6.97
 -14   7   2    5.20    2.15
 -13   7   2   38.03    4.18
 -12   7   2    1.56    1.39
 -11   7   2   74.71    4.33
 -10   7   2  104.86    4.79
  -9   7   2    9.55    1.41
  -8   7   2   21.98    1.90
  -7   7   2   70.06    2.75
  -6   7   2  115.29    3.36
  -5   7   2  224.07    4.46
  -4   7   2  175.28    3.75
  -3   7   2  114.30    2.88
  -2   7   2   25.62    2.23
  -1   7   2   11.61    1.20
   0   7   2   75.95    3.30
   1   7   2   57.18    3.08
   2   7   2   65.65    3.40
   3   7   2   12.15    1.97
   4   7   2  390.98   13.49
   5   7   2    1.24    2.15
   6   7   2   62.62    7.32
   7   7   2    6.05    3.09
 -14   8   2   57.00    5.32
 -13   8   2   94.22    5.58
 -12   8   2   33.58    3.77
 -11   8   2   43.90    4.06
 -10   8   2   43.87    3.04
  -9   8   2    5.01    1.15
  -8   8   2  127.58    3.96
  -7   8   2   47.74    2.49
  -6   8   2   27.42    2.05
  -5   8   2   49.19    2.24
  -4   8   2   28.78    1.82
  -3   8   2  139.10    3.36
  -2   8   2   34.58    1.85
  -1   8   2   17.69    2.08
   0   8   2  136.35    4.71
   1   8   2  105.54    4.47
   2   8   2  101.08    4.51
   3   8   2    3.88    2.18
   4   8   2    3.39    2.20
   5   8   2   32.66    5.25
   6   8   2    3.05    2.83
 -14   9   2    2.52    2.02
 -13   9   2   29.77    3.72
 -12   9   2    8.17    2.16
 -11   9   2    3.98    1.68
 -10   9   2   38.41    2.88
  -9   9   2   85.08    3.50
  -8   9   2  109.12    3.80
  -7   9   2   66.42    2.89
  -6   9   2   61.03    2.70
  -5   9   2   74.08    2.83
  -4   9   2   42.79    3.06
  -3   9   2  177.45    5.43
  -2   9   2    6.59    2.34
  -1   9   2    7.54    1.58
   0   9   2   80.11    3.97
   1   9   2   15.55    2.25
   2   9   2   55.42    3.82
   3   9   2   29.19    4.79
   4   9   2   51.11    6.40
   5   9   2   68.85    7.60
 -14  10   2    6.75    2.47
 -13  10   2    1.77    1.77
 -12  10   2  137.70    6.46
 -11  10   2   10.51    2.28
 -10  10   2  106.82    4.19
  -9  10   2   17.14    2.02
  -8  10   2  102.34    3.80
  -7  10   2   10.62    1.57
  -6  10   2   10.87    2.00
  -5  10   2   44.14    3.56
  -4  10   2   89.18    4.19
  -3  10   2  110.58    7.14
  -2  10   2   41.45    5.25
  -1  10   2   36.16    4.89
   0  10   2  112.04    4.88
   1  10   2    9.34    2.00
   2  10   2   22.59    4.07
   3  10   2    3.72    2.70
   4  10   2   19.55    4.28
 -13  11   2    9.74    2.54
 -12  11   2    1.66    1.60
 -11  11   2   24.04    2.62
 -10  11   2    7.40    1.66
  -9  11   2   51.60    3.26
  -8  11   2    4.53    1.32
  -7  11   2  370.20    9.48
  -6  11   2    2.20    1.40
  -5  11   2   68.59    4.06
  -4  11   2   69.69    6.12
  -3  11   2   40.45    5.47
  -2  11   2    2.87    2.25
  -1  11   2   11.01    3.33
   0  11   2   25.94    4.67
   1  11   2  107.59    7.70
   3  11   2   34.64    5.62
 -13  12   2   11.37    2.78
 -12  12   2   28.36    3.66
 -11  12   2   91.56    4.35
 -10  12   2   25.60    2.66
  -9  12   2   31.93    3.68
  -8  12   2    4.43    1.82
  -7  12   2    7.68    1.96
  -6  12   2   42.83    3.96
  -5  12   2    6.40    2.65
  -4  12   2   41.85    5.87
  -3  12   2    3.19    2.22
  -2  12   2  130.22    8.51
  -1  12   2    5.50    2.68
   0  12   2   27.75    5.03
 -12  13   2    1.78    1.59
 -11  13   2   61.24    5.39
 -10  13   2    4.52    2.13
  -9  13   2   44.49    4.36
  -8  13   2   36.04    3.87
  -7  13   2   73.66    5.43
  -6  13   2   27.06    4.83
  -5  13   2   88.20    7.44
  -4  13   2   25.35    4.76
  -3  13   2    2.26    2.35
  -2  13   2    5.41    2.69
  -1  13   2   17.42    4.22
 -11  14   2   32.04    5.65
 -10  14   2   18.05    3.28
  -9  14   2   61.32    5.24
  -8  14   2    4.06    2.02
  -7  14   2    9.55    3.50
  -6  14   2   52.33    6.86
  -5  14   2    2.54    2.61
  -4  14   2   13.43    3.92
  -3  14   2   55.46    7.67
   4 -14   3   48.44    6.35
   5 -14   3   13.51    3.95
   6 -14   3   15.18    4.37
   7 -14   3   14.74    4.22
   8 -14   3    0.11    2.57
   2 -13   3   16.41    4.44
   3 -13   3   33.63    5.24
   4 -13   3   20.45    4.56
   5 -13   3    0.14    2.09
   6 -13   3    2.59    2.50
   7 -13   3   80.75    7.66
   8 -13   3   14.84    4.29
   9 -13   3   71.29    8.25
  10 -13   3   10.71    4.12
   1 -12   3   21.36    4.56
   2 -12   3   14.46    3.71
   3 -12   3   10.70    3.19
   4 -12   3  115.92    8.15
   5 -12   3    1.97    2.29
   6 -12   3   24.04    4.63
   7 -12   3   18.91    4.33
   8 -12   3   16.22    4.13
   9 -12   3   20.38    4.60
  10 -12   3    2.37    2.73
  11 -12   3    9.34    3.82
  12 -12   3   93.54    8.70
  -1 -11   3   14.40    3.70
   0 -11   3   27.40    4.80
   1 -11   3    5.00    2.47
   2 -11   3   32.03    4.98
   3 -11   3   49.21    5.99
   4 -11   3   31.83    5.20
   5 -11   3  120.61    7.94
   6 -11   3   19.31    4.13
   7 -11   3    7.04    2.88
   8 -11   3   18.43    4.23
   9 -11   3  117.33    8.62
  10 -11   3   19.02    4.42
  11 -11   3   33.38    5.79
  12 -11   3   26.92    5.48
  13 -11   3   13.73    4.25
  -2 -10   3    0.06    2.19
  -1 -10   3   14.88    3.68
   0 -10   3  136.53    8.62
   1 -10   3   39.41    5.38
   2 -10   3  151.29    8.59
   3 -10   3    4.48    2.28
   4 -10   3    1.67    1.83
   5 -10   3   19.65    4.01
   6 -10   3   25.90    4.53
   7 -10   3   17.05    3.84
   8 -10   3   29.27    4.84
   9 -10   3    1.24    2.17
  10 -10   3  128.81    8.83
  11 -10   3    3.29    2.76
  12 -10   3   19.18    4.87
  13 -10   3   45.67    7.06
  -4  -9   3   68.44    8.06
  -3  -9   3   21.85    4.30
  -2  -9   3  130.63    8.36
  -1  -9   3    1.40    2.04
   0  -9   3    3.58    2.17
   1  -9   3   44.86    5.48
   2  -9   3   21.76    2.49
   3  -9   3    3.94    2.05
   4  -9   3    7.14    2.52
   5  -9   3  234.61   10.36
   6  -9   3   48.90    5.78
   7  -9   3  140.30    8.28
   8  -9   3    1.08    1.83
   9  -9   3    1.71    2.12
  10  -9   3   38.57    5.67
  11  -9   3   33.81    5.43
  12  -9   3   12.31    3.79
  13  -9   3   32.42    5.88
  -5  -8   3   22.81    4.53
  -4  -8   3   18.10    3.93
  -3  -8   3   26.13    4.62
  -2  -8   3   31.00    4.76
  -1  -8   3    1.02    1.56
   0  -8   3    4.73    2.15
   1  -8   3  218.44    6.10
   2  -8   3   67.30    3.58
   3  -8   3  246.36   10.01
   4  -8   3   53.07    4.86
   5  -8   3   16.47    3.32
   6  -8   3    1.97    1.74
   7  -8   3   27.62    4.34
   8  -8   3    7.55    2.66
   9  -8   3   52.07    6.09
  10  -8   3  167.60    9.25
  -6  -7   3   86.75    7.39
  -5  -7   3   14.98    3.75
  -4  -7   3    3.19    1.88
  -3  -7   3   14.04    3.24
  -2  -7   3  137.05    7.84
  -1  -7   3   27.89    4.46
   0  -7   3   97.23    3.95
   1  -7   3   87.26    3.74
   2  -7   3   24.02    2.44
   3  -7   3  113.54    6.56
   4  -7   3   29.38    4.13
   5  -7   3    7.85    2.46
   6  -7   3  289.82   10.98
   7  -7   3   89.53    6.21
   8  -7   3  226.06    9.86
   9  -7   3   23.72    4.13
  -8  -6   3   15.02    4.62
  -7  -6   3    3.44    2.52
  -6  -6   3   24.77    4.53
  -5  -6   3   23.73    4.32
  -4  -6   3   23.04    4.09
  -3  -6   3   48.44    5.64
  -2  -6   3    3.33    1.81
  -1  -6   3  291.79    6.68
   0  -6   3   48.34    2.76
   1  -6   3   26.16    2.37
   2  -6   3   68.41    3.26
   3  -6   3  252.13    9.36
   4  -6   3   75.02    5.23
   5  -6   3   53.92    4.55
   6  -6   3   48.51    4.40
   7  -6   3   80.30    3.25
   8  -6   3   61.89    3.02
   9  -6   3    0.21    0.94
  10  -6   3    2.76    1.51
  11  -6   3  119.51    6.57
  12  -6   3   18.26    3.42
  -9  -5   3    9.99    3.54
  -8  -5   3   -1.86    1.51
  -7  -5   3    3.68    2.46
  -6  -5   3  102.38    7.30
  -5  -5   3   29.34    4.46
  -4  -5   3  235.44   10.06
  -3  -5   3   11.38    2.89
  -2  -5   3   10.28    1.57
  -1  -5   3   52.22    2.69
   0  -5   3  131.74    4.21
   1  -5   3   24.38    2.22
   2  -5   3   93.65    3.57
   3  -5   3   44.96    3.93
   4  -5   3  304.51    5.50
   5  -5   3  135.59    3.50
   6  -5   3   28.11    1.85
   7  -5   3   28.22    2.03
   8  -5   3  241.74    7.61
   9  -5   3    7.96    1.93
  10  -5   3   33.96    3.95
  11  -5   3   18.04    3.28
  12  -5   3   24.00    4.04
  13  -5   3   20.32    3.90
  14  -5   3    1.26    2.22
 -10  -4   3   47.72    7.02
  -9  -4   3   34.58    5.91
  -8  -4   3  104.24    7.86
  -7  -4   3   21.98    4.24
  -6  -4   3    2.33    1.18
  -5  -4   3    7.10    1.48
  -4  -4   3   58.01    2.93
  -3  -4   3   23.33    1.63
  -2  -4   3   69.24    2.20
  -1  -4   3  299.19    4.41
   0  -4   3  141.29    4.16
   1  -4   3  389.50    7.22
   2  -4   3    6.22    1.19
   3  -4   3   31.73    3.62
   4  -4   3  151.10    3.26
   5  -4   3   23.30    1.52
   6  -4   3   68.24    2.71
   7  -4   3  113.82    4.81
  11  -4   3    3.32    1.80
  12  -4   3   10.54    2.77
  13  -4   3   79.96    6.52
  14  -4   3   14.40    3.78
 -10  -3   3   36.42    6.10
  -9  -3   3    9.26    2.09
  -8  -3   3   51.56    3.86
  -7  -3   3    5.23    1.42
  -6  -3   3    2.02    0.94
  -5  -3   3  253.80    6.27
  -4  -3   3  110.39    2.96
  -3  -3   3  264.39    4.45
  -2  -3   3   47.50    1.68
  -1  -3   3   27.45    1.18
   0  -3   3   90.63    3.16
   1  -3   3   24.04    2.01
   2  -3   3   75.17    2.89
   3  -3   3   91.51    1.90
   4  -3   3  395.93    5.86
   5  -3   3   93.72    4.95
   6  -3   3  261.99    8.58
  10  -3   3   17.00    3.25
  11  -3   3   20.39    3.66
 -11  -2   3   21.17    3.40
 -10  -2   3   18.03    2.83
  -9  -2   3   36.55    3.71
  -8  -2   3  147.55    5.58
  -7  -2   3   24.00    2.63
  -6  -2   3   62.03    3.18
  -5  -2   3   28.19    1.78
  -4  -2   3   71.06    2.29
  -3  -2   3   97.76    2.45
  -2  -2   3    7.54    0.78
  -1  -2   3   70.22    2.69
   0  -2   3  371.91    6.40
   1  -2   3   75.86    2.73
   2  -2   3  379.22    6.44
   3  -2   3   24.85    1.79
   4  -2   3    6.06    1.05
   5  -2   3   47.98    3.40
   8  -2   3    3.07    1.25
   9  -2   3  145.85    7.37
  10  -2   3   33.53    4.73
  11  -2   3  115.21    7.69
  12  -2   3   -0.25    1.76
 -11  -1   3   33.07    3.88
 -10  -1   3    4.97    1.60
  -9  -1   3   46.56    3.97
  -8  -1   3   55.02    3.59
  -7  -1   3  218.17    6.07
  -6  -1   3   81.79    2.75
  -5  -1   3   25.73    1.63
  -4  -1   3   21.34    1.37
  -3  -1   3  392.40    5.12
  -2  -1   3   25.96    1.81
  -1  -1   3   80.84    2.71
   0  -1   3   56.32    2.23
   1  -1   3   56.47    2.20
   2  -1   3   82.26    2.66
   3  -1   3   70.23    2.53
   4  -1   3   26.20    1.63
   5  -1   3  311.56    5.70
   6  -1   3   53.94    2.37
   7  -1   3  291.72    5.78
   8  -1   3   30.70    2.72
   9  -1   3    2.59    1.56
  10  -1   3   -1.09    1.13
  11  -1   3   25.27    4.63
  12  -1   3    7.89    3.26
 -12   0   3   78.42    7.49
 -11   0   3   37.96    3.91
 -10   0   3  134.66    5.68
  -9   0   3    4.44    1.39
  -8   0   3    5.18    1.36
  -7   0   3   95.20    3.11
  -6   0   3   46.04    2.05
  -5   0   3  130.06    4.05
  -4   0   3  147.00    4.08
  -3   0   3   88.39    2.18
  -2   0   3  375.07    4.76
  -1   0   3   58.20    1.72
   0   0   3    0.63    0.39
   1   0   3   58.13    1.68
   2   0   3  376.88    4.68
   3   0   3   92.11    2.21
   4   0   3  152.39    2.93
   5   0   3  137.12    3.52
   6   0   3   48.28    2.15
   7   0   3   96.77    4.61
   8   0   3    8.57    2.44
   9   0   3    7.74    2.66
  10   0   3  150.55    8.77
  11   0   3   32.29    5.43
  12   0   3   79.24    8.60
 -12   1   3   21.78    4.94
 -11   1   3   23.88    4.77
 -10   1   3    1.06    1.73
  -9   1   3    1.44    1.43
  -8   1   3   32.41    3.03
  -7   1   3  294.68    6.95
  -6   1   3   50.44    2.69
  -5   1   3  299.82    6.26
  -4   1   3   29.00    1.98
  -3   1   3   73.35    2.00
  -2   1   3   80.21    2.02
  -1   1   3   57.56    1.67
   0   1   3   59.15    1.64
   1   1   3   80.47    1.88
   2   1   3   22.78    1.08
   3   1   3  395.34    4.69
   4   1   3   21.70    1.16
   5   1   3   28.72    1.65
   6   1   3   85.69    4.27
   7   1   3  229.46    7.27
   8   1   3   38.17    5.11
   9   1   3   42.97    5.62
  10   1   3    4.84    2.42
  11   1   3   30.79    5.47
 -13   2   3    2.64    2.58
 -12   2   3    4.32    2.45
 -11   2   3  121.84    7.97
 -10   2   3   35.70    5.19
  -9   2   3  139.49    5.25
  -8   2   3    1.51    0.95
  -7   2   3    9.92    1.55
  -6   2   3   66.43    2.99
  -5   2   3   47.98    2.42
  -4   2   3    7.17    0.86
  -3   2   3   23.45    1.26
  -2   2   3  378.24    4.75
  -1   2   3   81.07    1.94
   0   2   3  380.37    4.39
   1   2   3   73.39    1.61
   2   2   3    7.41    0.98
   3   2   3   94.56    2.77
   4   2   3   68.56    2.40
   5   2   3   28.65    2.95
   6   2   3   64.25    3.89
   7   2   3   27.01    4.22
   8   2   3  156.60    8.76
   9   2   3   35.27    5.44
  10   2   3   12.10    3.69
  11   2   3   16.46    4.42
 -13   3   3    3.16    2.62
 -12   3   3   25.46    4.79
 -11   3   3   18.25    3.95
 -10   3   3   17.24    2.43
  -9   3   3   47.39    3.36
  -8   3   3   12.75    1.93
  -7   3   3   23.16    2.31
  -6   3   3  265.25    6.03
  -5   3   3   96.66    2.60
  -4   3   3  384.74    5.29
  -3   3   3   88.78    2.28
  -2   3   3   70.65    1.94
  -1   3   3   21.36    1.10
   0   3   3   90.33    1.75
   1   3   3   28.84    1.70
   2   3   3   42.87    1.95
   3   3   3  267.10    7.83
   4   3   3  109.18    5.00
   5   3   3  254.97    8.07
   6   3   3    2.60    1.00
   7   3   3    7.76    2.64
   8   3   3   45.15    5.70
   9   3   3    7.56    3.18
  10   3   3   39.04    6.54
 -13   4   3   70.26    8.19
 -12   4   3   17.01    4.04
 -11   4   3    3.80    1.53
 -10   4   3   22.89    2.85
  -9   4   3  231.23    6.75
  -8   4   3   57.96    3.21
  -7   4   3  106.52    4.09
  -6   4   3   68.75    2.42
  -5   4   3   23.51    1.62
  -4   4   3  142.81    3.14
  -3   4   3   30.62    1.42
  -2   4   3    6.73    0.77
  -1   4   3  396.44    4.57
   0   4   3  152.46    3.81
   1   4   3  304.46    5.53
   2   4   3   71.56    2.53
   3   4   3   21.39    2.85
   4   4   3   50.27    3.72
   5   4   3    6.06    1.40
   6   4   3    4.10    1.93
   7   4   3   40.67    5.68
   8   4   3  126.48    8.67
   9   4   3   33.65    5.77
 -13   5   3   20.65    4.56
 -12   5   3   20.01    3.06
 -11   5   3   20.22    2.83
 -10   5   3   30.74    3.26
  -9   5   3    6.53    1.50
  -8   5   3  257.32    6.72
  -7   5   3   31.02    2.11
  -6   5   3   24.34    1.80
  -5   5   3  134.80    3.31
  -4   5   3  293.96    4.78
  -3   5   3   45.78    1.72
  -2   5   3   93.79    2.23
  -1   5   3   22.17    1.93
   0   5   3  138.27    3.80
   1   5   3   55.33    2.40
   2   5   3   10.37    2.22
   3   5   3   15.48    2.63
   4   5   3  248.98    6.45
   5   5   3   34.02    3.06
   6   5   3  111.07    7.51
   7   5   3    1.13    1.95
   8   5   3    0.35    2.20
 -13   6   3   89.92    5.38
 -12   6   3   24.93    3.29
 -11   6   3  106.82    5.22
 -10   6   3    1.19    1.15
  -9   6   3    0.40    1.03
  -8   6   3   62.18    2.74
  -7   6   3   88.19    3.06
  -6   6   3   46.55    2.18
  -5   6   3   52.17    2.16
  -4   6   3   66.95    2.28
  -3   6   3  260.82    4.34
  -2   6   3   70.66    3.00
  -1   6   3   25.81    2.18
   0   6   3   45.47    2.38
   1   6   3  286.71    9.52
   2   6   3    2.97    1.59
   3   6   3   52.29    3.14
   4   6   3   23.15    2.55
   5   6   3   21.77    4.07
   6   6   3   21.13    4.41
   7   6   3    5.24    2.88
 -14   7   3   22.33    3.76
 -13   7   3    1.76    1.59
 -12   7   3    1.97    1.48
 -11   7   3   36.60    3.74
 -10   7   3    5.76    1.59
  -9   7   3   21.95    2.05
  -8   7   3  218.58    5.17
  -7   7   3   96.45    3.32
  -6   7   3  293.54    5.55
  -5   7   3    9.50    1.20
  -4   7   3   24.75    1.80
  -3   7   3  115.80    4.14
  -2   7   3   30.75    2.56
  -1   7   3   91.06    3.51
   0   7   3   97.13    5.81
   1   7   3   35.58    4.33
   2   7   3  142.80    5.17
   3   7   3   14.91    2.23
   4   7   3    3.03    1.92
   5   7   3   22.17    4.35
   6   7   3   97.57    7.95
   7   7   3   18.65    4.59
 -14   8   3    5.98    3.49
 -13   8   3    1.63    1.69
 -12   8   3  116.05    5.85
 -11   8   3   51.08    4.45
 -10   8   3  153.15    5.98
  -9   8   3   47.79    2.90
  -8   8   3    6.24    1.28
  -7   8   3   31.08    2.36
  -6   8   3    2.27    0.86
  -5   8   3   15.11    2.10
  -4   8   3   54.47    3.16
  -3   8   3  246.66    6.43
  -2   8   3   64.00    3.31
  -1   8   3  219.35    9.21
   0   8   3    3.76    1.26
   1   8   3    3.16    1.34
   2   8   3   31.00    3.14
   3   8   3   23.53    2.90
   4   8   3   13.90    3.63
   5   8   3   13.53    3.72
   6   8   3   -0.23    2.23
 -14   9   3   12.31    4.48
 -13   9   3   29.84    3.86
 -12   9   3    8.83    2.33
 -11   9   3   42.20    4.08
 -10   9   3   44.17    3.93
  -9   9   3    3.35    1.16
  -8   9   3    3.12    1.10
  -7   9   3  146.35    4.31
  -6   9   3   56.43    3.70
  -5   9   3  244.02    6.90
  -4   9   3    6.96    1.59
  -3   9   3    3.07    1.25
  -2   9   3   19.50    3.62
  -1   9   3   49.45    3.40
   0   9   3    4.09    1.47
   1   9   3   -0.94    1.07
   2   9   3  120.56    5.46
   3   9   3   20.90    4.11
   4   9   3   64.36    7.27
   5   9   3    2.81    2.84
 -13  10   3   38.29    4.36
 -12  10   3   15.52    2.77
 -11  10   3    5.78    1.95
 -10  10   3  136.06    4.78
  -9  10   3    1.01    1.09
  -8  10   3   34.29    3.60
  -7  10   3   17.88    2.62
  -6  10   3   23.83    2.88
  -5  10   3   30.03    3.17
  -4  10   3    1.95    1.20
  -3  10   3    5.34    2.37
  -2  10   3  148.90    8.64
  -1  10   3   43.13    5.69
   0  10   3  122.68    8.09
   1  10   3   22.69    2.98
   2  10   3    5.49    1.89
   3  10   3    4.70    2.56
 -13  11   3   15.22    3.21
 -12  11   3   32.30    3.99
 -11  11   3   34.84    3.87
 -10  11   3   23.01    3.27
  -9  11   3  118.08    5.75
  -8  11   3   23.33    3.07
  -7  11   3    5.18    1.82
  -6  11   3   19.64    2.74
  -5  11   3  114.62    5.25
  -4  11   3   26.12    4.76
  -3  11   3   43.24    5.92
  -2  11   3   43.57    5.93
  -1  11   3    4.68    2.66
   0  11   3   34.08    5.35
   1  11   3   17.13    4.26
 -12  12   3   78.50    8.69
 -11  12   3   17.41    3.10
 -10  12   3    4.80    2.02
  -9  12   3   19.45    2.97
  -8  12   3   13.25    2.55
  -7  12   3   21.00    3.07
  -6  12   3   19.75    2.84
  -5  12   3    0.59    2.03
  -4  12   3  107.74    8.16
  -3  12   3    8.66    3.21
  -2  12   3   15.76    3.94
  -1  12   3   40.04    6.24
   0  12   3   79.14    8.36
 -11  13   3    2.31    2.04
 -10  13   3    3.96    2.12
  -9  13   3   67.27    5.49
  -8  13   3   24.61    3.44
  -7  13   3   99.90    5.74
  -6  13   3   -0.37    2.01
  -5  13   3   -0.18    2.19
  -4  13   3   32.78    5.79
  -3  13   3   36.88    6.03
  -2  13   3   12.15    3.87
  -9  14   3   -0.62    2.73
   4 -13   4   -0.34    2.74
   5 -13   4   53.95    7.06
   6 -13   4   91.97    5.65
   7 -13   4   12.29    3.96
   1 -12   4    3.69    3.06
   2 -12   4  133.26    9.51
   3 -12   4    3.66    2.67
   4 -12   4   23.97    5.09
   5 -12   4    3.16    1.76
   6 -12   4   12.20    3.90
   7 -12   4    0.13    2.06
   8 -12   4    6.94    3.51
   9 -12   4   24.33    5.29
  10 -12   4  113.91    9.69
  -1 -11   4   56.32    7.17
   0 -11   4    3.67    2.59
   1 -11   4    3.40    2.74
   2 -11   4    5.83    2.95
   3 -11   4   24.69    4.52
   4 -11   4    0.23    1.34
   5 -11   4   44.30    4.11
   6 -11   4   26.04    4.85
   7 -11   4  213.10   11.53
   8 -11   4    0.79    2.28
   9 -11   4   35.55    5.94
  10 -11   4    7.40    3.43
  11 -11   4    7.27    3.61
  -3 -10   4    2.70    2.69
  -1 -10   4    2.30    2.33
   0 -10   4   19.75    4.26
   1 -10   4   22.45    4.69
   2 -10   4   39.90    3.66
   3 -10   4   87.99    4.67
   4 -10   4   64.38    4.23
   5 -10   4   28.88    5.00
   6 -10   4   23.82    4.46
   7 -10   4   12.37    3.59
   8 -10   4   11.71    3.65
   9 -10   4    4.86    2.91
  10 -10   4   18.09    4.39
  11 -10   4    2.81    2.93
  12 -10   4  129.87   10.03
  -4  -9   4   14.70    4.05
  -3  -9   4   32.39    5.49
  -2  -9   4   24.70    4.91
  -1  -9   4    9.44    3.31
   0  -9   4   80.47    6.93
   1  -9   4   12.01    2.11
   2  -9   4   25.55    2.84
   3  -9   4  101.77    4.83
   4  -9   4    2.47    1.33
   5  -9   4   45.73    5.81
   6  -9   4   24.24    4.43
   7  -9   4   48.36    6.21
   8  -9   4   66.10    7.36
   9  -9   4   74.67    6.89
  10  -9   4   23.12    4.75
  11  -9   4   14.91    4.22
  12  -9   4   -1.37    2.64
  13  -9   4    8.65    4.21
  -5  -8   4   28.09    5.39
  -4  -8   4   10.62    3.20
  -3  -8   4    3.28    2.60
  -2  -8   4    8.04    2.83
  -1  -8   4   79.70    6.72
   0  -8   4  159.54    5.71
   1  -8   4   35.64    3.24
   2  -8   4   23.64    2.81
   3  -8   4   39.58    3.58
   4  -8   4   21.85    2.65
   5  -8   4  159.28    8.70
   6  -8   4    1.20    1.94
   7  -8   4   -0.44    1.71
   8  -8   4  141.51    8.72
   9  -8   4   12.04    3.51
  10  -8   4   37.81    5.82
  11  -8   4   27.25    5.10
  12  -8   4   28.06    5.42
  13  -8   4   67.53    8.44
  -6  -7   4   18.42    4.71
  -5  -7   4   -0.76    1.89
  -3  -7   4   23.36    4.55
  -2  -7   4   43.36    5.87
  -1  -7   4    1.29    1.06
   0  -7   4   21.63    2.53
   1  -7   4   20.41    2.44
   2  -7   4    2.61    1.24
   3  -7   4   36.51    3.27
   4  -7   4  174.07    5.94
   5  -7   4  100.51    6.79
   6  -7   4   67.98    5.91
   7  -7   4   21.63    4.09
   8  -7   4   36.79    5.38
   9  -7   4   27.50    4.79
  10  -7   4   76.04    6.80
  11  -7   4   -2.02    1.98
  12  -7   4    3.32    2.97
  13  -7   4   88.66    9.43
  -7  -6   4   85.71    7.98
  -6  -6   4   18.98    4.33
  -5  -6   4   20.03    4.13
  -4  -6   4   25.97    4.49
  -3  -6   4   19.44    4.05
  -2  -6   4    2.77    1.20
  -1  -6   4   75.10    3.76
   0  -6   4    9.68    1.75
   1  -6   4  348.10    7.96
   2  -6   4    0.52    0.91
   3  -6   4   17.10    2.24
   4  -6   4    6.60    1.54
   5  -6   4   11.85    2.84
   6  -6   4    7.06    2.45
   7  -6   4   18.87    3.64
   8  -6   4   25.79    4.27
   9  -6   4  102.57    7.20
  10  -6   4   69.61    6.26
  11  -6   4   53.08    6.65
  12  -6   4   24.14    5.17
  -8  -5   4   55.72    7.42
  -7  -5   4   -0.66    1.73
  -6  -5   4   38.06    5.71
  -5  -5   4   22.83    4.35
  -4  -5   4   51.60    6.04
  -3  -5   4  160.42    5.42
  -2  -5   4  107.46    4.34
  -1  -5   4   11.10    1.76
   0  -5   4    2.28    1.01
   1  -5   4    9.08    1.58
   2  -5   4   44.65    2.88
   3  -5   4   14.34    2.00
   4  -5   4   65.57    3.44
   5  -5   4    4.41    1.34
   6  -5   4  338.10   11.72
   7  -5   4    4.21    2.09
   8  -5   4   50.47    5.71
   9  -5   4    1.26    1.80
  10  -5   4   36.59    5.33
  -9  -4   4    4.05    3.05
  -8  -4   4   26.22    5.04
  -7  -4   4   -0.41    1.61
  -6  -4   4   67.58    6.13
  -5  -4   4    3.23    1.92
  -4  -4   4   26.82    2.69
  -3  -4   4  169.11    5.41
  -2  -4   4    8.14    1.41
  -1  -4   4   62.67    3.22
   0  -4   4   47.62    2.80
   1  -4   4   63.68    3.20
   2  -4   4  194.29    5.47
   3  -4   4  339.97    7.35
   4  -4   4   41.89    2.69
   5  -4   4   13.24    1.91
   6  -4   4    0.92    0.90
   7  -4   4   35.79    4.45
   8  -4   4   28.94    4.19
   9  -4   4   56.50    6.09
  10  -4   4   35.67    4.49
  -9  -3   4    1.00    2.19
  -8  -3   4   28.66    5.25
  -7  -3   4   72.62    6.49
  -6  -3   4  103.51    7.12
  -5  -3   4   38.05    3.18
  -4  -3   4   33.15    2.88
  -3  -3   4   19.25    2.14
  -2  -3   4   14.44    1.85
  -1  -3   4  348.94    7.28
   0  -3   4   39.18    2.44
   1  -3   4    1.82    0.91
   2  -3   4  169.74    4.86
   3  -3   4   41.22    2.48
   4  -3   4   63.82    3.04
   5  -3   4   40.93    2.59
   6  -3   4   21.52    2.29
   7  -3   4  164.58    5.20
   8  -3   4  163.76    5.29
   9  -3   4   30.26    2.67
  11  -3   4    6.63    2.85
 -10  -2   4  143.55    9.91
  -9  -2   4    8.57    3.21
  -8  -2   4   37.35    5.61
  -7  -2   4   25.19    4.43
  -6  -2   4   24.79    2.65
  -5  -2   4    0.11    0.82
  -4  -2   4    0.59    0.73
  -3  -2   4   42.22    1.86
  -2  -2   4  198.16    5.26
  -1  -2   4  174.56    4.77
   0  -2   4   44.33    2.45
   1  -2   4   83.25    3.19
   2  -2   4   45.51    2.46
   3  -2   4    3.00    0.95
   4  -2   4  189.08    4.99
   5  -2   4   16.82    1.85
   6  -2   4    9.76    1.53
   7  -2   4  101.59    3.14
   8  -2   4    4.48    1.20
   9  -2   4   49.58    4.09
  10  -2   4    7.92    2.62
  11  -2   4   34.03    5.25
 -11  -1   4    6.01    3.51
 -10  -1   4    8.52    3.03
  -9  -1   4   22.29    4.48
  -8  -1   4    4.06    2.15
  -7  -1   4   38.42    3.36
  -6  -1   4   21.95    2.42
  -5  -1   4  344.67    7.60
  -4  -1   4    9.01    1.52
  -3  -1   4   61.72    2.15
  -2  -1   4    2.04    0.65
  -1  -1   4   84.22    2.46
   0  -1   4   21.31    1.93
   1  -1   4   20.78    1.86
   2  -1   4   83.30    3.01
   3  -1   4  169.05    4.32
   4  -1   4  346.74    5.39
   5  -1   4   71.94    2.44
   6  -1   4   12.52    1.57
   7  -1   4   77.74    3.23
   8  -1   4    1.46    1.27
  10  -1   4    5.23    2.29
  11  -1   4    7.73    3.13
  12  -1   4   72.08    8.27
 -11   0   4    6.84    3.23
 -10   0   4   21.59    4.51
  -9   0   4   72.92    6.22
  -8   0   4  154.69    5.76
  -7   0   4   23.70    2.64
  -6   0   4   10.36    1.74
  -5   0   4    0.74    0.75
  -4   0   4   42.04    2.51
  -3   0   4   37.03    1.69
  -2   0   4   45.49    1.80
  -1   0   4   20.77    1.46
   0   0   4  955.11    9.61
   1   0   4   23.77    1.56
   2   0   4   41.10    1.69
   3   0   4   38.63    1.66
   4   0   4   47.56    1.88
   5   0   4    3.03    0.87
   6   0   4    6.79    1.28
   7   0   4   24.47    3.17
   8   0   4  160.56    6.82
   9   0   4   68.24    5.95
  10   0   4   12.62    3.44
  11   0   4    3.55    2.59
 -11   1   4    7.83    3.14
 -10   1   4    2.33    1.89
  -9   1   4   67.99    3.99
  -8   1   4    1.02    1.02
  -7   1   4   72.54    3.67
  -6   1   4    8.42    1.52
  -5   1   4   67.22    3.17
  -4   1   4  347.59    5.31
  -3   1   4  172.82    3.53
  -2   1   4   82.48    2.36
  -1   1   4   22.37    1.39
   0   1   4   19.72    1.28
   1   1   4   84.47    2.24
   2   1   4    2.40    0.61
   3   1   4   65.24    2.71
   4   1   4   10.30    1.35
   5   1   4  355.83    6.59
   6   1   4   20.23    2.82
   7   1   4   33.67    3.74
   9   1   4   30.30    4.71
  10   1   4    1.60    2.39
  11   1   4    4.49    3.12
 -12   2   4  122.80    9.01
 -11   2   4   36.08    5.71
 -10   2   4   12.09    2.25
  -9   2   4   47.66    3.59
  -8   2   4    3.20    1.30
  -7   2   4   94.21    4.08
  -6   2   4    7.28    1.44
  -5   2   4   17.84    1.48
  -4   2   4  197.09    3.94
  -3   2   4    3.12    0.72
  -2   2   4   45.79    1.79
  -1   2   4   83.83    2.29
   0   2   4   45.91    1.64
   1   2   4  165.34    4.26
   2   2   4  189.49    4.62
   3   2   4   44.93    2.27
   4   2   4    1.49    0.76
   5   2   4    1.97    1.26
   6   2   4   25.55    3.22
   7   2   4   32.85    3.82
   8   2   4   30.40    4.93
   9   2   4   11.16    3.39
  10   2   4  138.56    9.71
 -12   3   4   23.18    4.79
 -11   3   4    2.66    2.29
 -10   3   4   23.33    3.08
  -9   3   4   29.79    3.21
  -8   3   4  160.24    5.53
  -7   3   4  164.90    5.34
  -6   3   4   20.41    1.67
  -5   3   4   43.26    1.98
  -4   3   4   65.09    2.29
  -3   3   4   39.67    1.75
  -2   3   4  169.41    3.39
  -1   3   4    1.77    0.57
   0   3   4   39.98    2.18
   1   3   4  347.00    6.48
   2   3   4   16.16    1.66
   3   3   4   22.16    1.85
   4   3   4   40.52    3.55
   5   3   4   40.53    3.60
   6   3   4  102.81    5.78
   7   3   4   74.87    6.21
   8   3   4   26.51    4.85
   9   3   4    2.25    2.12
 -12   4   4    8.89    3.13
 -11   4   4  203.76    7.51
 -10   4   4   26.11    2.99
  -9   4   4   54.74    3.81
  -8   4   4   26.93    2.80
  -7   4   4   30.08    2.79
  -6   4   4    0.88    0.68
  -5   4   4    9.41    1.17
  -4   4   4   43.53    1.93
  -3   4   4  347.80    5.29
  -2   4   4  191.74    3.60
  -1   4   4   64.05    2.86
   0   4   4   46.35    2.43
   1   4   4   64.83    2.80
   2   4   4    6.13    1.14
   3   4   4  174.56    7.29
   4   4   4   20.39    3.20
   5   4   4    2.94    1.66
   6   4   4   67.65    4.03
   7   4   4    1.38    1.82
   8   4   4   26.21    5.02
 -13   5   4   31.48    5.67
 -12   5   4    1.16    1.42
 -11   5   4   27.71    3.30
 -10   5   4   28.52    3.24
  -9   5   4    2.47    1.34
  -8   5   4   38.04    3.25
  -7   5   4    1.31    0.79
  -6   5   4  351.10    6.10
  -5   5   4    1.99    0.74
  -4   5   4   63.36    2.31
  -3   5   4   17.21    1.90
  -2   5   4   43.15    2.53
  -1   5   4   11.09    1.62
   0   5   4    0.98    0.82
   1   5   4   13.79    1.69
   2   5   4   96.42    5.59
   3   5   4  149.51    7.12
   4   5   4   52.34    4.46
   5   5   4   30.36    3.03
   6   5   4   38.16    5.30
   7   5   4    0.42    2.18
   8   5   4   55.06    7.34
 -13   6   4   14.76    2.92
 -12   6   4   21.92    3.17
 -11   6   4   47.90    4.29
 -10   6   4   65.71    4.13
  -9   6   4   96.75    4.62
  -8   6   4   28.61    2.37
  -7   6   4   21.85    1.95
  -6   6   4    5.51    1.07
  -5   6   4   10.46    1.27
  -4   6   4    7.22    1.48
  -3   6   4   19.95    2.14
  -2   6   4    0.44    0.85
  -1   6   4  353.26    7.28
   0   6   4    6.83    1.36
   1   6   4   78.08    5.33
   2   6   4    4.91    1.89
   3   6   4   29.90    4.07
   4   6   4   30.04    3.00
   5   6   4   21.61    4.33
   6   6   4   23.78    4.76
   7   6   4   79.27    8.71
 -13   7   4   77.48    5.58
 -12   7   4    2.04    1.65
 -11   7   4    0.81    1.35
 -10   7   4   76.94    4.45
  -9   7   4   29.88    3.13
  -8   7   4   37.32    2.67
  -7   7   4   23.67    2.05
  -6   7   4   71.63    2.88
  -5   7   4   91.88    4.15
  -4   7   4  171.87    5.45
  -3   7   4   28.92    2.68
  -2   7   4    2.46    1.06
  -1   7   4   21.19    2.24
   0   7   4   21.05    3.52
   1   7   4   -0.13    1.39
   2   7   4   43.93    5.21
   3   7   4   21.83    2.78
   4   7   4  215.66    9.81
   5   7   4   -0.88    2.04
   6   7   4   16.31    4.33
 -13   8   4   73.60    5.89
 -12   8   4   29.11    3.69
 -11   8   4   29.88    3.46
 -10   8   4   35.81    3.63
  -9   8   4   10.68    2.11
  -8   8   4  152.56    4.59
  -7   8   4    0.55    1.14
  -6   8   4    3.66    1.38
  -5   8   4  154.63    5.51
  -4   8   4   22.61    2.55
  -3   8   4   44.26    3.48
  -2   8   4   26.72    2.70
  -1   8   4   39.60    5.07
   0   8   4  133.67    7.82
   1   8   4   71.71    5.91
   2   8   4   11.55    2.07
   3   8   4    2.86    1.48
   4   8   4   14.17    3.55
   5   8   4   19.84    4.59
 -13   9   4    3.80    2.18
 -12   9   4    2.23    1.89
 -11   9   4    8.88    2.23
 -10   9   4   28.85    3.28
  -9   9   4   71.04    3.45
  -8   9   4   68.95    4.29
  -7   9   4   49.07    4.10
  -6   9   4   30.03    3.28
  -5   9   4   57.04    4.27
  -4   9   4    1.73    1.30
  -3   9   4  102.15    4.64
  -2   9   4   36.06    5.24
  -1   9   4    4.57    2.32
   0   9   4   71.89    4.18
   1   9   4    7.04    1.94
   2   9   4   33.14    3.49
   3   9   4   39.97    5.70
   4   9   4   12.72    3.91
 -13  10   4    2.00    2.73
 -12  10   4  139.00    6.71
 -11  10   4    4.23    1.94
 -10  10   4   15.63    4.12
  -9  10   4    7.24    2.09
  -8  10   4   12.68    2.46
  -7  10   4   27.05    3.31
  -6  10   4   25.79    3.08
  -5  10   4   34.25    3.41
  -4  10   4   66.20    4.08
  -3  10   4   78.01    6.72
  -2  10   4   34.02    5.33
  -1  10   4   17.57    3.91
   0  10   4   15.88    3.85
   1  10   4    4.69    1.88
   2  10   4  113.93    6.02
   3  10   4    2.06    3.07
 -11  11   4   10.98    3.73
 -10  11   4    5.20    2.14
  -9  11   4   29.89    3.69
  -8  11   4    5.95    2.01
  -7  11   4  216.92    7.72
  -6  11   4   27.95    3.44
  -5  11   4   42.64    4.10
  -4  11   4    3.99    2.37
  -3  11   4   35.85    5.69
  -2  11   4    7.84    3.20
  -1  11   4    1.16    2.65
   0  11   4    7.62    3.39
   1  11   4   69.83    7.80
 -10  12   4  115.58    6.27
  -9  12   4   36.26    4.10
  -8  12   4   12.68    2.73
  -7  12   4    0.04    1.58
  -6  12   4   22.65    4.74
  -5  12   4    1.46    2.33
  -4  12   4   23.67    4.98
  -3  12   4    1.67    2.43
  -2  12   4  129.66    9.53
  -1  12   4    4.43    3.13
 -10  13   4    0.07    3.01
  -9  13   4   15.57    3.03
  -8  13   4   25.44    3.82
  -7  13   4   15.89    4.36
  -6  13   4   64.92    7.95
  -5  13   4   64.06    7.75
   5 -12   5    7.96    2.37
   6 -12   5   15.67    3.00
   7 -12   5   34.28    4.12
   8 -12   5   23.25    5.34
   1 -11   5    9.78    3.75
   2 -11   5    6.94    3.19
   3 -11   5   11.54    3.75
   4 -11   5   14.15    2.61
   5 -11   5   50.21    4.46
   6 -11   5   27.60    3.60
   7 -11   5    4.68    2.02
   8 -11   5   37.35    4.31
   9 -11   5   30.65    4.08
  10 -11   5    7.55    3.81
  -1 -10   5    8.20    3.37
   1 -10   5   50.47    6.82
   2 -10   5   95.55    5.36
   3 -10   5    7.48    2.06
   4 -10   5    3.98    1.78
   5 -10   5   28.06    3.36
   6 -10   5   41.14    4.16
   7 -10   5   30.61    3.84
   8 -10   5   26.89    3.63
   9 -10   5    8.12    2.54
  10 -10   5  145.00   10.43
  11 -10   5   14.97    4.59
  -2  -9   5   29.68    5.63
  -1  -9   5    0.66    2.07
   0  -9   5    4.27    2.47
   1  -9   5    1.52    1.49
   2  -9   5   -1.02    1.27
   3  -9   5    0.59    1.36
   4  -9   5   26.54    3.17
   5  -9   5   43.74    4.10
   6  -9   5   22.32    3.07
   7  -9   5   81.82    5.07
   8  -9   5   14.33    2.78
   9  -9   5    2.36    1.93
  10  -9   5   61.01    7.87
  11  -9   5    2.58    3.16
  12  -9   5   11.25    4.48
  -4  -8   5   24.29    5.01
  -3  -8   5   34.87    5.77
  -2  -8   5   21.83    4.76
  -1  -8   5   16.30    4.02
   0  -8   5    5.01    1.76
   1  -8   5   93.91    4.95
   2  -8   5   96.54    4.88
   3  -8   5  251.90   10.67
   4  -8   5   23.97    3.02
   5  -8   5   11.28    2.22
   6  -8   5   19.59    2.74
   7  -8   5   14.01    2.65
   8  -8   5    7.50    2.13
   9  -8   5    1.75    1.71
  10  -8   5   90.37    5.55
  11  -8   5   13.28    2.82
  12  -8   5  115.99    6.45
  -5  -7   5   28.16    5.69
  -4  -7   5    0.24    1.95
  -3  -7   5   25.54    5.04
  -2  -7   5   76.51    6.88
  -1  -7   5   13.19    2.32
   0  -7   5    7.70    1.76
   1  -7   5    5.69    1.66
   2  -7   5   25.07    2.96
   3  -7   5   26.76    2.99
   4  -7   5   16.96    2.56
   5  -7   5    5.71    1.68
   6  -7   5  290.26    8.47
   7  -7   5    5.08    1.75
   8  -7   5  100.35    5.35
   9  -7   5    1.00    1.59
  10  -7   5   10.25    2.43
  11  -7   5   18.55    3.15
  12  -7   5    8.24    3.53
  -6  -6   5   16.76    4.40
  -5  -6   5   31.31    5.51
  -4  -6   5   37.17    5.83
  -3  -6   5   15.09    3.78
  -2  -6   5   20.68    2.65
  -1  -6   5  283.43    8.05
   0  -6   5   16.13    2.40
   1  -6   5   32.64    3.18
   2  -6   5   25.98    2.89
   3  -6   5  155.92    5.79
   4  -6   5   -1.11    0.90
   5  -6   5   75.20    4.14
   6  -6   5   14.59    2.32
   7  -6   5    9.39    2.01
   8  -6   5   94.13    4.95
   9  -6   5    0.56    1.36
  10  -6   5    3.84    1.88
  11  -6   5   54.63    6.49
  -7  -5   5    4.03    2.71
  -6  -5   5   53.43    7.13
  -5  -5   5   25.39    4.94
  -4  -5   5   41.68    5.87
  -3  -5   5   11.39    2.05
  -2  -5   5    4.42    1.41
  -1  -5   5   71.27    3.98
   0  -5   5    9.78    1.86
   1  -5   5   17.37    2.33
   2  -5   5  103.20    4.55
   3  -5   5    4.02    1.38
   4  -5   5  189.19    6.21
   5  -5   5    7.36    1.74
   6  -5   5   36.65    3.33
   7  -5   5   29.92    3.11
   8  -5   5  243.66    7.48
   9  -5   5   29.29    3.27
  10  -5   5   25.81    4.30
  11  -5   5   39.34    5.19
  -8  -4   5  106.42    9.85
  -7  -4   5   10.43    3.31
  -6  -4   5    4.98    2.72
  -5  -4   5   24.62    4.67
  -4  -4   5   26.13    2.88
  -3  -4   5   12.79    2.03
  -2  -4   5    0.72    1.02
  -1  -4   5  201.76    6.28
   0  -4   5    9.61    1.74
   1  -4   5  319.97    7.85
   2  -4   5    2.08    1.16
   3  -4   5   13.42    1.98
   4  -4   5    9.74    1.79
   5  -4   5   15.39    2.16
   6  -4   5   30.63    3.00
   7  -4   5   26.18    2.87
   8  -4   5   25.17    3.87
   9  -4   5   36.97    4.74
  10  -4   5   45.02    5.07
  -8  -3   5   16.34    4.49
  -7  -3   5    7.45    2.96
  -6  -3   5    0.52    1.67
  -5  -3   5  238.19    7.29
  -4  -3   5   31.17    3.09
  -3  -3   5  157.04    5.54
  -2  -3   5    6.47    1.48
  -1  -3   5   13.67    1.97
   0  -3   5   55.47    3.20
   1  -3   5   39.85    2.88
   2  -3   5   36.38    2.95
   3  -3   5   55.65    3.13
   4  -3   5  326.50    7.59
   5  -3   5  109.67    4.41
   6  -3   5  161.00    5.38
   7  -3   5   14.87    2.97
   8  -3   5   13.72    2.01
   9  -3   5   27.31    4.00
  10  -3   5   28.52    4.08
  -9  -2   5    3.63    2.64
  -8  -2   5   97.06    7.97
  -7  -2   5    2.15    2.22
  -6  -2   5   97.89    4.73
  -5  -2   5   23.50    2.68
  -4  -2   5   25.38    2.67
  -3  -2   5  105.93    3.25
  -2  -2   5    4.95    1.00
  -1  -2   5   37.19    2.06
   0  -2   5  103.77    4.08
   1  -2   5   53.31    2.95
   2  -2   5  102.86    3.92
   3  -2   5   38.68    2.50
   4  -2   5    5.69    1.27
   5  -2   5    3.92    0.99
   6  -2   5   -0.43    0.70
   7  -2   5    6.30    1.38
   8  -2   5   22.05    3.40
   9  -2   5   86.22    5.75
  11  -2   5   22.55    4.26
  -9  -1   5   60.56    7.37
  -8  -1   5   -2.33    1.20
  -7  -1   5  100.84    4.94
  -6  -1   5    7.31    1.76
  -5  -1   5   40.17    3.34
  -4  -1   5   15.90    2.11
  -3  -1   5  330.49    5.77
  -2  -1   5   42.61    2.14
  -1  -1   5   55.82    2.30
   0  -1   5   82.90    2.77
   1  -1   5   84.75    2.80
   2  -1   5   54.17    2.25
   3  -1   5   35.23    2.04
   4  -1   5   16.01    1.89
   5  -1   5  200.75    5.52
   6  -1   5   78.82    3.55
   7  -1   5  276.57    6.88
   8  -1   5   20.65    3.36
   9  -1   5   14.22    3.05
  11  -1   5    8.95    3.38
 -10   0   5  154.75    9.92
  -9   0   5    1.71    2.29
  -8   0   5    7.31    1.86
  -7   0   5    8.95    1.85
  -6   0   5   18.20    2.42
  -5   0   5    6.89    1.43
  -4   0   5   10.04    1.26
  -3   0   5   62.60    2.44
  -2   0   5  104.93    3.07
  -1   0   5   85.60    2.77
   0   0   5    0.13    0.57
   1   0   5   89.25    2.72
   2   0   5   98.25    2.89
   3   0   5   55.47    2.83
   4   0   5   10.68    1.55
   5   0   5    9.83    1.58
   6   0   5   20.49    2.22
   7   0   5   14.82    2.88
   8   0   5    7.39    2.30
  10   0   5  131.92    8.99
 -10   1   5    8.16    3.15
  -9   1   5   11.52    2.30
  -8   1   5   17.65    2.66
  -7   1   5  285.87    7.92
  -6   1   5   79.74    4.01
  -5   1   5  207.33    6.06
  -4   1   5   11.39    1.28
  -3   1   5   36.12    2.08
  -2   1   5   56.30    2.24
  -1   1   5   81.52    2.62
   0   1   5   80.61    2.58
   1   1   5   55.97    2.79
   2   1   5   38.95    2.39
   3   1   5  331.57    6.98
   4   1   5   13.76    1.81
   5   1   5   34.30    2.70
   6   1   5    5.57    1.90
   7   1   5  104.50    6.17
   9   1   5   51.88    6.44
  10   1   5   26.14    4.89
 -11   2   5   26.97    5.28
 -10   2   5   23.36    3.25
  -9   2   5   81.95    4.60
  -8   2   5   23.34    2.85
  -7   2   5    5.48    1.54
  -6   2   5    1.61    1.08
  -5   2   5    4.39    0.99
  -4   2   5    2.92    0.87
  -3   2   5   45.16    2.06
  -2   2   5   99.00    2.91
  -1   2   5   56.70    2.16
   0   2   5  100.76    3.71
   1   2   5   31.34    2.47
   2   2   5    2.99    0.99
   3   2   5  110.98    4.01
   4   2   5   26.07    2.37
   5   2   5   31.89    4.05
   6   2   5   95.19    5.84
   7   2   5   -0.01    1.40
   9   2   5    3.81    2.44
 -11   3   5   37.30    5.89
 -10   3   5   33.85    3.73
  -9   3   5   17.63    2.69
  -8   3   5   10.91    2.07
  -7   3   5   12.23    2.00
  -6   3   5  164.65    5.45
  -5   3   5  107.34    3.33
  -4   3   5  328.70    5.79
  -3   3   5   61.33    2.40
  -2   3   5   33.33    1.90
  -1   3   5   44.21    2.60
   0   3   5   56.41    2.88
   1   3   5   15.47    1.84
   2   3   5    4.61    1.18
   3   3   5  157.63    4.80
   4   3   5   22.70    3.44
   5   3   5  238.34    9.41
   6   3   5    0.76    1.75
   8   3   5   14.58    3.76
 -11   4   5    1.87    1.63
 -10   4   5   42.35    4.14
  -9   4   5   41.36    3.90
  -8   4   5   29.92    3.12
  -7   4   5   25.30    2.71
  -6   4   5   29.49    2.20
  -5   4   5   15.22    1.61
  -4   4   5    9.06    1.21
  -3   4   5   12.75    1.83
  -2   4   5    4.30    1.20
  -1   4   5  329.44    7.20
   0   4   5    9.03    1.55
   1   4   5  206.84    5.59
   2   4   5   -0.01    0.76
   3   4   5   12.55    2.70
   4   4   5   22.77    3.57
   5   4   5   33.15    4.42
   6   4   5    3.49    1.98
   7   4   5   14.39    3.84
 -12   5   5   39.79    4.37
 -11   5   5   35.06    3.84
 -10   5   5   29.73    3.44
  -9   5   5   21.75    2.86
  -8   5   5  232.38    7.08
  -7   5   5   29.23    2.94
  -6   5   5   39.32    2.40
  -5   5   5    9.15    1.32
  -4   5   5  200.13    5.87
  -3   5   5    5.22    1.33
  -2   5   5   98.32    4.08
  -1   5   5   12.33    1.82
   0   5   5    8.13    1.55
   1   5   5   79.48    3.62
   2   5   5    6.27    2.24
   3   5   5    9.54    2.59
   4   5   5   37.73    4.71
   5   5   5   27.65    4.02
   6   5   5   46.93    6.22
   7   5   5    9.09    3.59
 -12   6   5   17.66    3.08
 -11   6   5   52.87    4.60
 -10   6   5    3.22    1.61
  -9   6   5    2.51    1.29
  -8   6   5   90.59    4.50
  -7   6   5    9.47    1.45
  -6   6   5   18.73    2.45
  -5   6   5   69.58    3.73
  -4   6   5    0.64    0.98
  -3   6   5  157.31    5.29
  -2   6   5   25.04    2.57
  -1   6   5   33.24    2.89
   0   6   5   13.87    1.97
   1   6   5  285.47   10.83
   2   6   5   22.47    3.77
   3   6   5   20.25    3.62
   4   6   5   40.21    5.05
   5   6   5   38.90    3.79
   6   6   5   17.90    4.40
 -12   7   5    5.43    2.25
 -11   7   5   17.25    2.98
 -10   7   5   10.68    2.33
  -9   7   5    0.38    1.20
  -8   7   5   94.93    4.67
  -7   7   5   11.54    2.11
  -6   7   5  289.56    7.87
  -5   7   5    3.83    1.44
  -4   7   5   12.83    2.09
  -3   7   5   32.18    3.02
  -2   7   5   28.98    2.95
  -1   7   5   10.33    1.92
   0   7   5    8.38    2.79
   1   7   5   15.85    3.41
   2   7   5   77.77    6.18
   3   7   5   34.44    5.04
   4   7   5    3.48    1.69
   5   7   5   25.77    4.89
 -12   8   5  103.36    6.35
 -11   8   5   10.86    2.56
 -10   8   5  101.76    5.36
  -9   8   5   -0.19    1.86
  -8   8   5    6.15    1.86
  -7   8   5   15.32    2.47
  -6   8   5   19.96    2.71
  -5   8   5   12.48    2.03
  -4   8   5   24.47    2.82
  -3   8   5  250.23    7.30
  -2   8   5   96.62    6.75
  -1   8   5  111.49    7.39
   0   8   5    4.69    2.41
   1   8   5   16.40    3.68
   2   8   5   20.16    4.04
   3   8   5   39.78    3.97
   4   8   5   27.57    5.06
 -12   9   5    6.64    3.31
 -11   9   5    3.68    2.87
 -10   9   5   62.58    7.60
  -9   9   5   -0.69    2.13
  -8   9   5   13.63    2.48
  -7   9   5   84.06    4.83
  -6   9   5   24.31    3.00
  -5   9   5   48.08    4.12
  -4   9   5   29.85    3.31
  -3   9   5    1.10    1.84
  -2   9   5    0.81    1.99
  -1   9   5   -1.49    1.65
   0   9   5    3.09    2.35
   1   9   5    5.67    1.89
   2   9   5   30.77    3.65
   3   9   5   14.67    2.88
 -10  10   5  142.98    9.61
  -9  10   5   11.88    2.62
  -8  10   5   27.38    3.49
  -7  10   5   33.70    3.78
  -6  10   5   40.19    3.96
  -5  10   5   26.48    3.31
  -4  10   5    8.57    3.26
  -3  10   5   10.07    3.22
  -2  10   5  104.03    8.01
  -1  10   5   61.58    7.26
   0  10   5  155.15    9.78
   1  10   5   13.68    4.06
 -10  11   5    9.94    3.97
  -9  11   5   30.10    3.70
  -8  11   5   38.54    4.20
  -7  11   5    4.00    1.90
  -6  11   5   36.35    4.00
  -5  11   5   42.91    6.39
  -4  11   5   15.22    4.15
  -3  11   5   13.08    4.03
  -2  11   5    6.84    3.21
  -1  11   5   20.25    4.91
  -9  12   5    9.78    4.09
  -8  12   5   27.58    3.65
  -7  12   5   46.07    4.72
  -6  12   5   12.01    3.88
  -5  12   5    8.22    3.44
   4 -11   6   33.50    5.50
   5 -11   6   10.72    3.68
   2 -10   6   26.07    5.28
   3 -10   6   60.91    5.14
   4 -10   6   59.71    7.02
   5 -10   6   28.30    3.71
   6 -10   6    4.03    2.12
   7 -10   6    6.47    2.51
   8 -10   6   57.60    5.36
   0  -9   6    8.91    3.45
   1  -9   6    2.60    1.90
   2  -9   6    0.62    1.69
   3  -9   6   39.75    4.24
   4  -9   6   11.52    2.46
   5  -9   6   11.22    2.53
   6  -9   6   35.59    4.08
   7  -9   6   17.77    3.12
   8  -9   6   64.12    5.45
   9  -9   6   13.63    3.00
  10  -9   6    4.28    3.58
  -2  -8   6   41.09    6.79
   0  -8   6   60.46    7.53
   1  -8   6   24.05    3.23
   2  -8   6    9.67    2.36
   3  -8   6   30.94    3.59
   4  -8   6   10.31    2.44
   5  -8   6   40.46    4.16
   6  -8   6    2.77    1.81
   7  -8   6   18.88    3.15
   8  -8   6   66.18    5.50
   9  -8   6    1.96    1.90
  10  -8   6   39.71    4.63
  -3  -7   6    5.37    3.17
  -2  -7   6   15.61    4.52
  -1  -7   6   28.23    3.48
   0  -7   6   11.09    2.42
   1  -7   6    0.81    1.49
   2  -7   6   10.90    2.27
   3  -7   6   16.07    2.61
   4  -7   6   96.77    5.23
   5  -7   6   48.39    4.48
   6  -7   6   24.50    3.36
   7  -7   6   13.88    2.65
   8  -7   6   26.46    3.62
   9  -7   6    0.56    1.72
  10  -7   6   69.00    7.69
  11  -7   6   44.20    6.61
  -4  -6   6    2.66    2.72
  -3  -6   6   33.73    5.65
  -2  -6   6    2.09    1.66
  -1  -6   6   23.82    2.98
   0  -6   6    3.82    1.59
   1  -6   6  210.04    7.36
   2  -6   6    6.58    1.88
   3  -6   6   93.15    4.97
   4  -6   6    5.49    1.82
   5  -6   6   44.96    4.07
   6  -6   6    8.99    2.01
   7  -6   6    0.86    1.40
   8  -6   6    4.75    1.86
   9  -6   6   58.48    6.97
  10  -6   6   58.52    6.69
  11  -6   6   14.59    2.67
  -5  -5   6   35.54    6.02
  -4  -5   6   15.64    4.07
  -3  -5   6   41.42    4.00
  -2  -5   6   46.11    4.12
  -1  -5   6   45.22    4.05
   0  -5   6    6.01    1.87
   1  -5   6   23.90    2.94
   2  -5   6   12.61    2.31
   3  -5   6    7.50    1.95
   4  -5   6   57.01    4.42
   5  -5   6    4.95    1.73
   6  -5   6  206.76    7.11
   7  -5   6    9.92    2.23
   8  -5   6   30.37    4.86
   9  -5   6    6.93    3.00
  10  -5   6   35.14    3.56
  11  -5   6    2.10    2.23
  -6  -4   6   49.57    7.00
  -5  -4   6    4.54    2.76
  -4  -4   6   14.34    2.56
  -3  -4   6   96.40    4.99
  -2  -4   6    7.20    1.89
  -1  -4   6   54.54    4.31
   0  -4   6   20.78    2.70
   1  -4   6   45.75    3.81
   2  -4   6   53.69    4.10
   3  -4   6   83.31    4.30
   4  -4   6   23.07    2.71
   5  -4   6   28.46    3.10
   6  -4   6    4.46    1.54
   7  -4   6   19.31    3.76
   8  -4   6   16.70    2.40
   9  -4   6   19.01    2.77
  10  -4   6    7.23    2.78
  -7  -3   6   60.62    7.74
  -6  -3   6   38.40    5.95
  -5  -3   6   26.41    3.27
  -4  -3   6   23.83    2.95
  -3  -3   6   90.05    4.69
  -2  -3   6    7.73    1.36
  -1  -3   6   79.19    3.22
   0  -3   6   18.41    1.92
   1  -3   6    2.07    1.30
   2  -3   6  134.32    5.25
   3  -3   6   22.03    2.49
   4  -3   6   47.79    3.72
   5  -3   6   10.18    1.90
   6  -3   6   92.90    4.43
   7  -3   6   89.55    4.45
   8  -3   6   47.15    3.84
   9  -3   6   45.34    5.42
  10  -3   6    4.50    2.45
  -8  -2   6   25.60    5.25
  -7  -2   6   -1.06    2.06
  -6  -2   6    6.96    2.03
  -5  -2   6    9.18    1.97
  -4  -2   6    4.44    1.44
  -3  -2   6    9.39    2.00
  -2  -2   6   49.37    2.63
  -1  -2   6  137.55    4.09
   0  -2   6   75.84    3.06
   1  -2   6   84.08    3.19
   2  -2   6   79.52    3.12
   3  -2   6    4.52    1.15
   4  -2   6   51.74    3.41
   5  -2   6    7.08    1.61
   6  -2   6    6.86    1.55
   7  -2   6   50.93    3.58
   8  -2   6    2.59    1.98
   9  -2   6   14.34    3.44
  -8  -1   6    3.00    2.47
  -7  -1   6   25.53    3.25
  -6  -1   6    0.89    1.21
  -5  -1   6  214.39    7.03
  -4  -1   6   30.84    3.22
  -3  -1   6   47.16    2.54
  -2  -1   6    4.20    1.01
  -1  -1   6   86.97    3.18
   0  -1   6   17.34    1.72
   1  -1   6   17.20    1.73
   2  -1   6   88.55    3.30
   3  -1   6  131.52    4.84
   4  -1   6   83.69    3.91
   5  -1   6   59.64    3.41
   6  -1   6   48.70    3.68
   7  -1   6   23.06    3.96
   8  -1   6   34.07    4.58
   9  -1   6   68.65    5.87
  -9   0   6   12.31    3.65
  -8   0   6   65.20    7.55
  -7   0   6   14.25    2.47
  -6   0   6    2.71    1.56
  -5   0   6    4.81    1.58
  -4   0   6   19.74    2.47
  -3   0   6   20.39    1.86
  -2   0   6   78.71    3.00
  -1   0   6   19.53    1.80
   0   0   6  165.84    4.25
   1   0   6   21.37    2.33
   2   0   6   71.66    3.59
   3   0   6   19.30    2.31
   4   0   6   26.59    2.72
   5   0   6    5.72    1.50
   6   0   6    1.46    1.64
   7   0   6   12.38    3.06
   8   0   6   77.39    6.13
  -9   1   6   68.31    5.07
  -8   1   6   26.86    3.30
  -7   1   6   22.86    3.03
  -6   1   6   54.22    3.92
  -5   1   6   53.57    3.69
  -4   1   6   82.05    3.13
  -3   1   6  132.28    3.87
  -2   1   6   82.76    3.02
  -1   1   6   16.27    1.61
   0   1   6   15.90    2.02
   1   1   6   82.68    3.78
   2   1   6    3.38    1.11
   3   1   6   48.58    3.05
   4   1   6   27.75    2.74
   5   1   6  222.04    9.48
   6   1   6    0.11    1.56
   7   1   6   33.35    4.73
   8   1   6   -1.70    1.58
 -10   2   6   55.00    7.17
  -9   2   6   13.74    2.62
  -8   2   6    0.61    1.29
  -7   2   6   48.81    4.15
  -6   2   6    4.51    1.68
  -5   2   6    5.68    1.52
  -4   2   6   51.64    2.63
  -3   2   6    5.60    1.14
  -2   2   6   73.06    3.61
  -1   2   6   84.61    3.83
   0   2   6   73.48    3.61
   1   2   6  135.38    4.83
   2   2   6   53.49    3.17
   3   2   6   14.33    2.02
   4   2   6    3.88    1.87
   5   2   6    8.77    2.64
   6   2   6    5.14    2.15
   7   2   6    1.33    1.92
 -10   3   6    6.21    2.15
  -9   3   6   44.89    4.22
  -8   3   6   44.83    4.00
  -7   3   6   92.58    4.70
  -6   3   6   95.39    4.52
  -5   3   6   13.95    1.68
  -4   3   6   48.11    2.55
  -3   3   6   15.70    2.14
  -2   3   6  133.81    4.88
  -1   3   6    4.74    1.37
   0   3   6   20.27    2.39
   1   3   6   77.90    3.78
   2   3   6    5.44    1.40
   3   3   6   98.80    6.37
   4   3   6   18.34    3.48
   5   3   6   42.25    5.28
   6   3   6   43.52    5.44
   7   3   6   59.70    6.46
 -10   4   6    4.91    2.09
  -9   4   6   12.94    2.54
  -8   4   6   15.47    2.58
  -7   4   6   23.50    2.77
  -6   4   6    6.46    1.67
  -5   4   6   25.22    2.77
  -4   4   6   24.08    2.60
  -3   4   6   73.12    3.82
  -2   4   6   49.07    3.19
  -1   4   6   49.69    3.42
   0   4   6   24.97    2.64
   1   4   6   54.21    3.29
   2   4   6    2.68    1.85
   3   4   6   89.35    6.39
   4   4   6   14.19    3.29
   5   4   6    8.65    2.95
   6   4   6   65.35    6.75
 -11   5   6   -0.09    1.69
 -10   5   6   38.63    4.12
  -9   5   6    5.22    1.94
  -8   5   6   25.19    3.14
  -7   5   6   11.28    2.01
  -6   5   6  206.24    6.66
  -5   5   6    6.69    1.68
  -4   5   6   54.91    3.51
  -3   5   6    6.25    1.57
  -2   5   6   12.89    2.13
  -1   5   6   26.98    2.84
   0   5   6    5.93    1.54
   1   5   6   49.56    5.49
   2   5   6   45.86    5.55
   3   5   6   49.99    5.78
   4   5   6   18.94    3.89
   5   5   6   39.91    5.44
 -11   6   6   17.99    4.32
 -10   6   6   56.68    4.91
  -9   6   6   45.48    4.17
  -8   6   6    9.86    3.32
  -7   6   6   -0.98    1.64
  -6   6   6    1.01    1.34
  -5   6   6   42.40    3.70
  -4   6   6    9.05    1.91
  -3   6   6   89.23    4.45
  -2   6   6    5.12    1.65
  -1   6   6  198.32    6.46
   0   6   6    9.17    2.78
   1   6   6   29.45    4.56
   2   6   6    6.22    2.68
   3   6   6   42.76    5.75
   4   6   6    4.22    2.63
   5   6   6    1.82    2.30
 -11   7   6   46.48    6.38
 -10   7   6   59.41    7.38
  -9   7   6   -1.40    2.04
  -8   7   6   36.22    5.48
  -7   7   6   12.67    2.30
  -6   7   6   26.35    3.15
  -5   7   6   48.56    4.03
  -4   7   6   89.66    4.68
  -3   7   6   23.22    2.85
  -2   7   6    8.84    2.01
  -1   7   6   -0.92    1.64
   0   7   6   16.51    3.62
   1   7   6   24.10    4.38
   2   7   6    9.11    3.11
   3   7   6    6.96    3.02
   4   7   6  107.73    8.21
 -10   8   6   30.29    5.72
  -9   8   6    1.57    2.45
  -8   8   6   67.73    7.43
  -7   8   6   32.45    3.69
  -6   8   6    1.76    1.44
  -5   8   6   49.31    4.38
  -4   8   6   12.23    2.42
  -3   8   6   30.09    3.29
  -2   8   6    7.65    2.88
  -1   8   6   40.39    5.76
   0   8   6   78.40    6.98
   1   8   6   68.01    7.51
   2   8   6   49.60    6.51
  -9   9   6   11.09    3.86
  -8   9   6   64.06    5.25
  -7   9   6   17.04    2.91
  -6   9   6   45.38    4.31
  -5   9   6   16.96    2.77
  -4   9   6   10.44    2.39
  -3   9   6   40.96    5.97
  -2   9   6    0.79    2.30
  -1   9   6   -0.36    1.91
   0   9   6   15.08    3.94
  -8  10   6   57.66    5.26
  -7  10   6    4.96    2.14
  -6  10   6    3.66    2.04
  -5  10   6   32.39    3.86
  -4  10   6   54.54    7.16
  -3  10   6   66.67    7.91
  -2  10   6   32.75    5.67
  -7  11   6  123.69    9.29
  -6  11   6   -1.93    2.52
   0  -8   7    2.49    2.77
   1  -8   7   93.48    6.37
   2  -8   7   11.00    2.69
   3  -8   7   85.83    5.84
   4  -8   7   15.45    2.98
   5  -8   7    1.04    1.97
   6  -8   7   12.22    2.92
   7  -8   7    6.10    3.59
   8  -8   7    2.75    3.51
  -1  -7   7    6.82    3.14
   0  -7   7   17.30    2.99
   1  -7   7   12.73    2.74
   2  -7   7    8.29    2.33
   3  -7   7   14.76    2.84
   4  -7   7    0.05    1.64
   5  -7   7    1.78    1.80
   6  -7   7   95.30    8.14
   7  -7   7   15.11    3.04
   8  -7   7   90.78    9.52
  -2  -6   7   12.35    2.62
  -1  -6   7   95.22    7.85
   0  -6   7   22.97    3.23
   1  -6   7    4.31    1.94
   2  -6   7   17.50    2.98
   3  -6   7   96.27    5.57
   4  -6   7    5.09    1.93
   5  -6   7   28.59    3.69
   6  -6   7   19.86    3.13
   7  -6   7   12.94    3.72
   8  -6   7   15.82    4.07
  -3  -5   7    0.57    1.75
  -2  -5   7    1.16    1.63
  -1  -5   7   22.89    3.33
   0  -5   7   21.77    2.42
   1  -5   7    7.91    2.21
   2  -5   7   61.20    4.95
   3  -5   7    3.10    1.81
   4  -5   7   83.89    4.95
   5  -5   7   19.41    3.02
   6  -5   7    1.97    2.27
   7  -5   7    7.62    2.12
   8  -5   7   90.85    5.15
   9  -5   7   19.16    4.39
  -4  -4   7   15.05    2.85
  -3  -4   7    2.50    1.69
  -2  -4   7    4.68    1.91
  -1  -4   7   87.11    5.18
   0  -4   7   24.47    2.47
   1  -4   7  143.02    4.86
   2  -4   7    1.30    1.14
   3  -4   7    0.94    1.12
   4  -4   7   19.63    2.72
   5  -4   7   12.84    2.39
   6  -4   7   17.07    2.64
   7  -4   7   22.36    2.96
   8  -4   7   13.53    2.40
   9  -4   7   69.73    7.79
  -4  -3   7   18.71    2.97
  -3  -3   7   87.06    5.08
  -2  -3   7    6.58    1.96
  -1  -3   7    0.18    1.02
   0  -3   7   14.57    1.85
   1  -3   7    7.62    1.52
   2  -3   7   -0.56    0.94
   3  -3   7   14.41    2.35
   4  -3   7  149.50    5.89
   5  -3   7   66.44    4.13
   6  -3   7  100.41    5.06
   7  -3   7    1.43    1.40
   8  -3   7    2.75    1.73
   9  -3   7   23.72    5.00
  -6  -2   7   11.83    2.83
  -5  -2   7   11.84    2.53
  -4  -2   7   11.00    2.38
  -3  -2   7   71.43    4.51
  -2  -2   7    0.95    1.10
  -1  -2   7    0.35    0.96
   0  -2   7   73.91    3.38
   1  -2   7   22.32    2.16
   2  -2   7   70.53    4.06
   3  -2   7    7.94    1.83
   4  -2   7    0.29    1.19
   5  -2   7    2.88    1.54
   6  -2   7    4.14    1.66
   7  -2   7    2.43    1.55
   8  -2   7   17.82    3.88
  -7  -1   7   87.23    5.50
  -6  -1   7   11.29    2.51
  -5  -1   7    1.23    1.50
  -4  -1   7   14.11    2.56
  -3  -1   7  151.09    6.11
  -2  -1   7    6.99    1.41
  -1  -1   7   20.56    2.13
   0  -1   7   42.34    3.62
   1  -1   7   48.15    3.86
   2  -1   7   26.04    2.95
   3  -1   7   -0.34    1.03
   4  -1   7    0.54    1.21
   5  -1   7   85.03    4.60
   6  -1   7   25.71    3.12
   7  -1   7   86.49    6.93
   8  -1   7    3.72    2.53
  -8   0   7    0.98    2.71
  -7   0   7   14.93    2.83
  -6   0   7   21.37    3.16
  -5   0   7   21.25    2.89
  -4   0   7   16.95    2.57
  -3   0   7   14.40    1.83
  -2   0   7   76.35    3.30
  -1   0   7   46.33    3.70
   0   0   7   -0.63    0.93
   1   0   7   45.97    3.73
   2   0   7   72.15    4.10
   3   0   7   14.35    2.27
   4   0   7   18.47    2.49
   5   0   7   20.00    2.70
   6   0   7   22.59    4.12
   7   0   7   20.77    4.17
   8   0   7    3.17    2.60
  -8   1   7    5.05    2.17
  -7   1   7   95.56    5.48
  -6   1   7   28.18    3.42
  -5   1   7   84.47    4.75
  -4   1   7    1.42    1.30
  -3   1   7   -0.75    0.87
  -2   1   7   19.99    2.54
  -1   1   7   39.79    3.47
   0   1   7   49.54    3.84
   1   1   7   22.35    2.65
   2   1   7    9.89    1.94
   3   1   7  147.12    5.64
   4   1   7   11.37    2.16
   5   1   7    7.60    2.68
   6   1   7   21.14    4.32
   7   1   7   91.43    7.19
  -8   2   7   13.09    2.69
  -7   2   7    2.05    1.68
  -6   2   7    5.51    1.87
  -5   2   7    2.67    1.57
  -4   2   7    0.88    1.26
  -3   2   7   10.04    1.98
  -2   2   7   75.77    4.10
  -1   2   7   20.43    2.62
   0   2   7   71.10    4.00
   1   2   7    2.13    1.25
   2   2   7   -0.29    1.07
   3   2   7   64.42    3.93
   4   2   7   11.57    3.14
   5   2   7   10.08    3.00
   6   2   7   14.68    3.71
  -9   3   7   15.12    3.99
  -8   3   7    3.96    1.91
  -7   3   7    0.17    1.50
  -6   3   7   86.46    7.19
  -5   3   7   70.51    6.41
  -4   3   7  141.12    5.68
  -3   3   7   13.12    2.26
  -2   3   7   -0.10    0.97
  -1   3   7    8.03    1.91
   0   3   7   14.96    2.25
   1   3   7    0.43    1.18
   2   3   7    5.58    1.72
   3   3   7   88.10    6.86
   4   3   7   18.19    3.87
   5   3   7   83.29    7.01
   6   3   7    0.64    2.42
  -9   4   7   81.29    7.29
  -8   4   7   16.96    3.11
  -7   4   7   16.88    3.95
  -6   4   7   12.90    3.48
  -5   4   7   12.59    2.23
  -4   4   7   21.66    2.83
  -3   4   7    1.72    1.42
  -2   4   7    2.61    1.50
  -1   4   7  146.83    5.78
   0   4   7   23.63    2.85
   1   4   7   90.10    4.62
   2   4   7    6.56    2.63
   3   4   7   -0.60    1.72
   4   4   7   15.32    3.72
   5   4   7   11.14    3.74
  -8   5   7   91.17    8.05
  -7   5   7   10.15    3.30
  -6   5   7    2.14    2.22
  -5   5   7   24.51    3.10
  -4   5   7   84.26    4.70
  -3   5   7    2.59    1.49
  -2   5   7   64.43    4.39
  -1   5   7   10.85    2.20
   0   5   7   13.78    2.29
   1   5   7   25.85    4.77
   2   5   7    2.29    2.20
   3   5   7    0.18    2.35
  -8   6   7   16.78    4.24
  -7   6   7   15.99    4.23
  -6   6   7   23.58    3.12
  -5   6   7   26.75    3.21
  -4   6   7    6.67    1.88
  -3   6   7   91.08    4.90
  -2   6   7   15.17    2.56
  -1   6   7    3.29    1.69
   0   6   7   20.97    4.32
   1   6   7   97.10    7.56
   2   6   7   11.37    3.46
  -7   7   7   12.81    3.87
  -6   7   7   95.46    5.42
  -5   7   7    3.41    1.84
  -4   7   7    0.63    1.54
  -3   7   7   17.45    2.69
  -2   7   7    6.84    2.00
  -1   7   7   11.28    3.49
   0   7   7    6.00    2.99
  -7   8   7    4.47    2.14
  -6   8   7   13.30    2.75
  -5   8   7    1.25    1.74
  -4   8   7   17.16    2.98
  -3   8   7   87.33    5.63
  -2   8   7    9.61    3.64
  -6   9   7   22.55    3.78
  -5   9   7   66.35    7.60
   2  -6   8    3.65    2.09
   3  -6   8   31.49    3.82
   4  -6   8    0.06    3.16
   0  -5   8    3.56    3.24
   1  -5   8    5.65    1.87
   2  -5   8   10.34    2.03
   3  -5   8    1.89    1.66
   4  -5   8   37.69    4.14
  -2  -4   8    1.44    2.88
  -1  -4   8   45.59    4.58
   0  -4   8    6.27    1.89
   1  -4   8   12.72    2.14
   2  -4   8   42.13    4.19
   3  -4   8   84.15    5.17
   4  -4   8    9.64    2.45
   5  -4   8    3.65    1.84
  -3  -3   8   33.77    4.11
  -2  -3   8    1.45    1.85
  -1  -3   8   94.17    5.58
   0  -3   8   10.01    1.96
   1  -3   8    1.76    1.68
   2  -3   8   61.62    4.47
   3  -3   8   13.32    2.48
   4  -3   8   12.49    2.50
   5  -3   8    8.25    2.18
   6  -3   8   36.15    5.69
  -4  -2   8    5.96    3.16
  -3  -2   8    6.73    2.28
  -2  -2   8   33.97    3.81
  -1  -2   8   51.41    4.41
   0  -2   8    5.68    1.90
   1  -2   8   36.30    3.77
   2  -2   8    4.36    1.85
   3  -2   8    0.52    1.43
   4  -2   8   39.51    3.95
   5  -2   8    1.64    1.64
   6  -2   8   -1.33    2.32
  -5  -1   8  128.11   10.32
  -4  -1   8    4.27    2.06
  -3  -1   8   14.33    2.73
  -2  -1   8    0.84    2.35
  -1  -1   8   39.71    3.89
   0  -1   8    1.26    1.41
   1  -1   8    3.87    1.75
   2  -1   8   40.44    3.96
   3  -1   8   58.64    4.80
   4  -1   8   91.51    5.21
   5  -1   8   45.29    4.26
  -5   0   8    3.72    2.20
  -4   0   8   10.59    3.71
  -3   0   8    9.40    3.54
  -2   0   8    7.86    2.19
  -1   0   8    1.44    1.53
   0   0   8  205.79    7.22
   1   0   8    1.87    1.47
   2   0   8    8.36    1.99
   3   0   8   12.49    2.46
   4   0   8   10.09    2.37
  -6   1   8    2.83    2.68
  -5   1   8   38.88    6.03
  -4   1   8   93.49    7.84
  -3   1   8   54.86    4.57
  -2   1   8   38.48    3.81
  -1   1   8    1.73    1.58
   0   1   8    2.24    1.54
   1   1   8   35.63    3.67
   2   1   8    2.29    1.64
   3   1   8   11.83    2.45
   4   1   8    2.13    2.42
  -5   2   8   -1.51    2.31
  -4   2   8   31.81    5.40
  -3   2   8    2.62    1.63
  -2   2   8    8.10    2.08
  -1   2   8   39.08    3.84
   0   2   8    4.82    1.82
   1   2   8   63.11    4.84
   2   2   8   36.93    3.74
   3   2   8   17.72    4.08
  -5   3   8   10.10    3.63
  -4   3   8   11.09    2.61
  -3   3   8   10.25    2.27
  -2   3   8   56.19    4.53
  -1   3   8    0.14    1.43
   0   3   8   11.72    2.37
   1   3   8   97.30    5.25
   2   3   8    1.49    2.04
  -5   4   8    6.36    3.22
  -4   4   8   10.76    2.48
  -3   4   8   89.34    5.19
  -2   4   8   34.69    3.68
  -1   4   8   13.41    2.58
   0   4   8   10.40    2.26
   1   4   8   42.87    6.05
  -4   5   8   41.48    4.15
  -3   5   8    0.92    1.60
  -2   5   8    9.25    2.37
  -1   5   8    2.93    1.92
  -5   6   8    1.66    2.69
  -4   6   8    0.31    2.23
  -3   6   8   39.10    5.83
  -2   6   8    5.80    2.89
   0   0   0    0.00    0.00
;
_shelx_hkl_checksum              91404
loop_
_space_group_symop_operation_xyz
'x, y, z'
'-y, x-y, z'
'-x+y, -x, z'
'-x, -y, z+1/2'
'y, -x+y, z+1/2'
'x-y, x, z+1/2'
loop_
_atom_site_label
_atom_site_type_symbol
_atom_site_fract_x
_atom_site_fract_y
_atom_site_fract_z
_atom_site_U_iso_or_equiv
_atom_site_adp_type
_atom_site_occupancy
_atom_site_site_symmetry_order
_atom_site_calc_flag
_atom_site_refinement_flags_posn
_atom_site_refinement_flags_adp
_atom_site_refinement_flags_occupancy
_atom_site_disorder_assembly
_atom_site_disorder_group
Sm Sm 0.12974(3) 0.35628(3) 0.02297(10) 0.00861(7) Uani 1 1 d . . . . .
Co Co 0.0000 0.0000 0.2524(8) 0.0119(5) Uani 0.5 3 d S T P . .
Ge Ge 0.3333 0.6667 0.60441(17) 0.0078(2) Uani 1 3 d S T P . .
S1 S 0.24657(16) 0.15604(16) 0.0000(3) 0.0117(3) Uani 1 1 d . . . . .
S2 S 0.51932(17) 0.10037(18) 0.2592(2) 0.0089(3) Uani 1 1 d . . . . .
S3 S 0.3333 0.6667 0.2270(4) 0.0095(5) Uani 1 3 d S T P . .
loop_
_atom_site_aniso_label
_atom_site_aniso_U_11
_atom_site_aniso_U_22
_atom_site_aniso_U_33
_atom_site_aniso_U_23
_atom_site_aniso_U_13
_atom_site_aniso_U_12
Sm 0.00835(12) 0.00675(12) 0.01048(11) 0.00093(17) 0.00094(18) 0.00360(10)
Co 0.0080(7) 0.0080(7) 0.0199(15) 0.000 0.000 0.0040(3)
Ge 0.0082(3) 0.0082(3) 0.0070(4) 0.000 0.000 0.00409(16)
S1 0.0104(6) 0.0086(6) 0.0171(7) 0.0030(7) 0.0012(7) 0.0055(5)
S2 0.0081(6) 0.0078(6) 0.0097(6) 0.0003(5) -0.0009(6) 0.0031(6)
S3 0.0096(7) 0.0096(7) 0.0095(11) 0.000 0.000 0.0048(4)
loop_
_atom_type_symbol
_atom_type_description
_atom_type_scat_dispersion_real
_atom_type_scat_dispersion_imag
_atom_type_scat_source
S S 0.1246 0.1234 'International Tables Vol C Tables 4.2.6.8 and 6.1.1.4'
Co Co 0.3494 0.9721 'International Tables Vol C Tables 4.2.6.8 and 6.1.1.4'
Ge Ge 0.1547 1.8001 'International Tables Vol C Tables 4.2.6.8 and 6.1.1.4'
Sm Sm -0.1638 3.4418 'International Tables Vol C Tables 4.2.6.8 and 6.1.1.4'
loop_
_geom_angle_atom_site_label_1
_geom_angle_atom_site_label_2
_geom_angle_atom_site_label_3
_geom_angle
_geom_angle_site_symmetry_1
_geom_angle_site_symmetry_3
S1 Sm S1 84.85(6) 2 .
S1 Sm S2 105.56(5) 2 5_564
S1 Sm S2 142.16(5) . 5_564
S1 Sm S1 78.64(5) 2 6
S1 Sm S1 78.42(4) . 6
S2 Sm S1 138.88(4) 5_564 6
S1 Sm S2 140.07(5) 2 6_554
S1 Sm S2 73.93(4) . 6_554
S2 Sm S2 75.38(6) 5_564 6_554
S1 Sm S2 127.39(4) 6 6_554
S1 Sm S3 149.44(5) 2 .
S1 Sm S3 117.11(3) . .
S2 Sm S3 70.93(4) 5_564 .
S1 Sm S3 85.07(5) 6 .
S2 Sm S3 69.75(4) 6_554 .
S1 Sm S2 71.94(4) 2 2
S1 Sm S2 144.62(5) . 2
S2 Sm S2 71.55(3) 5_564 2
S1 Sm S2 71.22(4) 6 2
S2 Sm S2 139.91(4) 6_554 2
S3 Sm S2 78.41(3) . 2
S1 Sm S1 74.44(4) 2 6_554
S1 Sm S1 74.25(4) . 6_554
S2 Sm S1 73.88(4) 5_564 6_554
S1 Sm S1 142.93(5) 6 6_554
S2 Sm S1 67.48(4) 6_554 6_554
S3 Sm S1 129.78(5) . 6_554
S2 Sm S1 121.99(4) 2 6_554
S1 Sm Co 48.73(5) 2 .
S1 Sm Co 48.67(5) . .
S2 Sm Co 154.29(5) 5_564 .
S1 Sm Co 47.76(8) 6 .
S2 Sm Co 122.56(4) 6_554 .
S3 Sm Co 130.23(8) . .
S2 Sm Co 96.47(5) 2 .
S1 Sm Co 95.17(8) 6_554 .
S1 Sm Co 47.14(4) 2 4_554
S1 Sm Co 47.09(4) . 4_554
S2 Sm Co 115.84(7) 5_564 4_554
S1 Sm Co 97.17(8) 6 4_554
S2 Sm Co 95.54(5) 6_554 4_554
S3 Sm Co 162.370(17) . 4_554
S2 Sm Co 118.92(4) 2 4_554
S1 Sm Co 45.76(8) 6_554 4_554
Co Sm Co 49.410(10) . 4_554
S1 Co S1 92.60(13) 6 5
S1 Co S1 92.60(13) 6 4
S1 Co S1 92.60(13) 5 4
S1 Co S1 87.75(3) 6 .
S1 Co S1 87.75(3) 5 .
S1 Co S1 179.49(19) 4 .
S1 Co S1 179.49(19) 6 3
S1 Co S1 87.75(3) 5 3
S1 Co S1 87.75(3) 4 3
S1 Co S1 91.89(13) . 3
S1 Co S1 87.75(3) 6 2
S1 Co S1 179.49(19) 5 2
S1 Co S1 87.75(3) 4 2
S1 Co S1 91.89(13) . 2
S1 Co S1 91.89(13) 3 2
S1 Co Co 56.60(10) 6 4
S1 Co Co 56.60(10) 5 4
S1 Co Co 56.60(10) 4 4
S1 Co Co 123.91(9) . 4
S1 Co Co 123.91(9) 3 4
S1 Co Co 123.91(9) 2 4
S1 Co Co 123.40(10) 6 4_554
S1 Co Co 123.40(10) 5 4_554
S1 Co Co 123.40(10) 4 4_554
S1 Co Co 56.09(9) . 4_554
S1 Co Co 56.09(9) 3 4_554
S1 Co Co 56.09(9) 2 4_554
Co Co Co 180.0 4 4_554
S1 Co Sm 126.95(4) 6 2
S1 Co Sm 126.62(4) 5 2
S1 Co Sm 56.32(4) 4 2
S1 Co Sm 123.17(17) . 2
S1 Co Sm 53.01(5) 3 2
S1 Co Sm 53.33(5) 2 2
Co Co Sm 112.91(8) 4 2
Co Co Sm 67.09(8) 4_554 2
S1 Co Sm 126.62(4) 6 3
S1 Co Sm 56.32(4) 5 3
S1 Co Sm 126.95(4) 4 3
S1 Co Sm 53.01(5) . 3
S1 Co Sm 53.33(5) 3 3
S1 Co Sm 123.17(17) 2 3
Co Co Sm 112.91(8) 4 3
Co Co Sm 67.09(8) 4_554 3
Sm Co Sm 105.82(8) 2 3
S1 Co Sm 56.32(4) 6 .
S1 Co Sm 126.95(4) 5 .
S1 Co Sm 126.62(4) 4 .
S1 Co Sm 53.33(5) . .
S1 Co Sm 123.17(17) 3 .
S1 Co Sm 53.01(5) 2 .
Co Co Sm 112.91(8) 4 .
Co Co Sm 67.09(8) 4_554 .
Sm Co Sm 105.82(8) 2 .
Sm Co Sm 105.82(8) 3 .
S1 Co Sm 51.58(5) 6 5
S1 Co Sm 51.91(5) 5 5
S1 Co Sm 120.10(16) 4 5
S1 Co Sm 60.41(4) . 5
S1 Co Sm 128.50(3) 3 5
S1 Co Sm 128.18(3) 2 5
Co Co Sm 63.50(7) 4 5
Co Co Sm 116.50(7) 4_554 5
Sm Co Sm 176.42(15) 2 5
Sm Co Sm 76.204(8) 3 5
Sm Co Sm 76.204(7) . 5
S3 Ge S2 113.57(4) . 4_665
S3 Ge S2 113.57(4) . 5_565
S2 Ge S2 105.07(5) 4_665 5_565
S3 Ge S2 113.57(4) . 6
S2 Ge S2 105.07(5) 4_665 6
S2 Ge S2 105.07(5) 5_565 6
Co S1 Co 67.32(4) 4_554 .
Co S1 Sm 81.28(4) 4_554 3
Co S1 Sm 78.26(4) . 3
Co S1 Sm 81.00(4) 4_554 .
Co S1 Sm 77.99(4) . .
Sm S1 Sm 154.45(6) 3 .
Co S1 Sm 75.93(10) 4_554 5_554
Co S1 Sm 143.24(11) . 5_554
Sm S1 Sm 96.85(5) 3 5_554
Sm S1 Sm 96.53(5) . 5_554
Co S1 Sm 141.14(11) 4_554 5
Co S1 Sm 73.83(10) . 5
Sm S1 Sm 91.30(5) 3 5
Sm S1 Sm 91.03(5) . 5
Sm S1 Sm 142.93(5) 5_554 5
Ge S2 Sm 90.90(5) 4_664 6_655
Ge S2 Sm 88.64(5) 4_664 5
Sm S2 Sm 109.83(5) 6_655 5
Ge S2 Sm 120.22(6) 4_664 3
Sm S2 Sm 143.16(6) 6_655 3
Sm S2 Sm 91.45(4) 5 3
Ge S3 Sm 113.26(5) . .
Ge S3 Sm 113.26(5) . 3_565
Sm S3 Sm 105.44(5) . 3_565
Ge S3 Sm 113.26(5) . 2_665
Sm S3 Sm 105.44(5) . 2_665
Sm S3 Sm 105.44(5) 3_565 2_665
loop_
_geom_bond_atom_site_label_1
_geom_bond_atom_site_label_2
_geom_bond_distance
_geom_bond_site_symmetry_2
Sm S1 2.7590(14) 2
Sm S1 2.7734(14) .
Sm S2 2.8392(15) 5_564
Sm S1 2.901(2) 6
Sm S2 2.9269(16) 6_554
Sm S3 2.9651(11) .
Sm S2 2.9885(15) 2
Sm S1 3.151(2) 6_554
Sm Co 3.3820(19) .
Sm Co 3.481(2) 4_554
Co S1 2.581(3) 6
Co S1 2.581(3) 5
Co S1 2.581(3) 4
Co S1 2.596(3) .
Co S1 2.597(3) 3
Co S1 2.596(3) 2
Co Co 2.8696(4) 4
Co Co 2.8697(4) 4_554
Co Sm 3.3820(19) 2
Co Sm 3.3820(19) 3
Co Sm 3.481(2) 5
Ge S3 2.166(3) .
Ge S2 2.2211(16) 4_665
Ge S2 2.2211(16) 5_565
Ge S2 2.2211(16) 6
S1 Co 2.581(3) 4_554
S1 Sm 2.7590(14) 3
S1 Sm 2.901(2) 5_554
S1 Sm 3.151(2) 5
S2 Ge 2.2211(16) 4_664
S2 Sm 2.8392(15) 6_655
S2 Sm 2.9269(16) 5
S2 Sm 2.9885(15) 3
S3 Sm 2.9651(11) 3_565
S3 Sm 2.9651(11) 2_665
