#------------------------------------------------------------------------------
#$Date: 2021-02-18 11:49:12 +0200 (Thu, 18 Feb 2021) $
#$Revision: 262057 $
#$URL: file:///home/coder/svn-repositories/cod/cif/1/56/04/1560462.cif $
#------------------------------------------------------------------------------
#
# This file is available in the Crystallography Open Database (COD),
# http://www.crystallography.net/
#
# All data on this site have been placed in the public domain by the
# contributors.
#
data_1560462
loop_
_publ_author_name
'Iyer, Abishek K.'
'Yin, Wenlong'
'Lee, Emma J.'
'Lin, Xinsong'
'Mar, Arthur'
_publ_section_title
;
 Quaternary rare-earth sulfides RE 3 M 0.5 GeS 7 (RE=La--Nd, Sm; M=Co, Ni)
 and Y 3 Pd 0.5 SiS 7
;
_journal_name_full               'Journal of Solid State Chemistry'
_journal_page_first              14
_journal_page_last               23
_journal_paper_doi               10.1016/j.jssc.2017.03.009
_journal_volume                  250
_journal_year                    2017
_chemical_absolute_configuration ad
_chemical_formula_structural     'La3 Co0.50 Ge S7'
_chemical_formula_sum            'Co0.5 Ge La3 S7'
_chemical_formula_weight         743.21
_chemical_name_common
'lanthanum cobalt germanium sulfide (3/0.5/1/7)'
_chemical_name_systematic
'lanthanum cobalt germanium sulfide (3/0.5/1/7)'
_space_group_crystal_system      hexagonal
_space_group_IT_number           173
_space_group_name_Hall           'P 6c'
_space_group_name_H-M_alt        'P 63'
_atom_sites_solution_hydrogens   .
_cell_angle_alpha                90
_cell_angle_beta                 90
_cell_angle_gamma                120
_cell_formula_units_Z            2
_cell_length_a                   10.3179(7)
_cell_length_b                   10.3179(7)
_cell_length_c                   5.8107(4)
_cell_measurement_reflns_used    4405
_cell_measurement_temperature    296(2)
_cell_measurement_theta_max      32.55
_cell_measurement_theta_min      4.18
_cell_volume                     535.72(6)
_computing_cell_refinement       'Bruker SAINT 8.34A (Bruker, 2013)'
_computing_data_collection       'Bruker APEX 2 (Bruker, 2008)'
_computing_data_reduction        'Bruker SAINT 8.34A'
_computing_molecular_graphics    'ATOMS 5.1 (Dowty, 1999)'
_computing_publication_material  'SHELXL-2014/7 (Sheldrick, 2014)'
_computing_structure_refinement  'SHELXL-2014/7 (Sheldrick, 2014)'
_computing_structure_solution    'SHELXS-97 (Sheldrick, 2008)'
_diffrn_ambient_temperature      296(2)
_diffrn_measured_fraction_theta_full 1.000
_diffrn_measured_fraction_theta_max 0.996
_diffrn_measurement_device_type  'Bruker PLATFORM/SMART APEX II CCD'
_diffrn_measurement_method       '\w and \f scans'
_diffrn_radiation_type           MoK\a
_diffrn_radiation_wavelength     0.71073
_diffrn_reflns_av_R_equivalents  0.0424
_diffrn_reflns_av_unetI/netI     0.0276
_diffrn_reflns_Laue_measured_fraction_full 1.000
_diffrn_reflns_Laue_measured_fraction_max 0.996
_diffrn_reflns_limit_h_max       15
_diffrn_reflns_limit_h_min       -15
_diffrn_reflns_limit_k_max       15
_diffrn_reflns_limit_k_min       -15
_diffrn_reflns_limit_l_max       8
_diffrn_reflns_limit_l_min       -8
_diffrn_reflns_number            7801
_diffrn_reflns_point_group_measured_fraction_full 1.000
_diffrn_reflns_point_group_measured_fraction_max 0.996
_diffrn_reflns_theta_full        25.242
_diffrn_reflns_theta_max         33.288
_diffrn_reflns_theta_min         2.279
_diffrn_source                   'fine-focus sealed tube'
_exptl_absorpt_coefficient_mu    16.542
_exptl_absorpt_correction_T_max  0.620
_exptl_absorpt_correction_T_min  0.478
_exptl_absorpt_correction_type   numerical
_exptl_absorpt_process_details   'SHELXL-2014/7 (Sheldrick, 2014)'
_exptl_crystal_colour            grey
_exptl_crystal_density_diffrn    4.607
_exptl_crystal_description       irregular
_exptl_crystal_F_000             657
_exptl_crystal_size_max          0.056
_exptl_crystal_size_mid          0.054
_exptl_crystal_size_min          0.040
_refine_diff_density_max         2.895
_refine_diff_density_min         -1.296
_refine_diff_density_rms         0.241
_refine_ls_abs_structure_details
;
 Refined as an inversion twin.
;
_refine_ls_abs_structure_Flack   -0.02(3)
_refine_ls_extinction_coef       0.0032(3)
_refine_ls_extinction_expression Fc^*^=kFc[1+0.001xFc^2^\l^3^/sin(2\q)]^-1/4^
_refine_ls_extinction_method     'SHELXL-2014/7 (Sheldrick 2014)'
_refine_ls_goodness_of_fit_ref   1.100
_refine_ls_hydrogen_treatment    undef
_refine_ls_matrix_type           full
_refine_ls_number_parameters     39
_refine_ls_number_reflns         1367
_refine_ls_number_restraints     1
_refine_ls_restrained_S_all      1.100
_refine_ls_R_factor_all          0.0265
_refine_ls_R_factor_gt           0.0242
_refine_ls_shift/su_max          0.000
_refine_ls_shift/su_mean         0.000
_refine_ls_structure_factor_coef Fsqd
_refine_ls_weighting_details
'w=1/[\s^2^(Fo^2^)+(0.0113P)^2^+2.2619P] where P=(Fo^2^+2Fc^2^)/3'
_refine_ls_weighting_scheme      calc
_refine_ls_wR_factor_gt          0.0438
_refine_ls_wR_factor_ref         0.0447
_reflns_Friedel_coverage         0.847
_reflns_Friedel_fraction_full    1.000
_reflns_Friedel_fraction_max     0.995
_reflns_number_gt                1287
_reflns_number_total             1367
_reflns_threshold_expression     'I > 2\s(I)'
_cod_data_source_file            mmc12.cif
_cod_data_source_block           1
_cod_original_cell_volume        535.72(8)
_cod_original_formula_sum        'Co0.50 Ge La3 S7'
_cod_database_code               1560462
_shelx_space_group_comment
;
The symmetry employed for this shelxl refinement is uniquely defined
by the following loop, which should always be used as a source of
symmetry information in preference to the above space-group names.
They are only intended as comments.
;
_shelx_estimated_absorpt_t_min   0.458
_shelx_estimated_absorpt_t_max   0.557
_shelx_res_file
;

    p63.res created by SHELXL-2014/7

TITL La3Co0.5GeS7 P6(3) lsf final refinement
CELL 0.71073  10.31790  10.31790   5.81070  90.0000  90.0000 120.0000
ZERR    2.00   0.00070   0.00070   0.00040   0.0000   0.0000   0.0000
LATT -1
SYMM -Y, X-Y, Z
SYMM -X+Y, -X, Z
SYMM -X, -Y, 0.5+Z
SYMM Y, -X+Y, 0.5+Z
SYMM X-Y, X, 0.5+Z
SFAC S CO GE LA
UNIT 14 1 2 6
TEMP 23
SIZE 0.04 0.054 0.056

L.S. 4
ACTA

TWIN

WGHT    0.011300    2.261900
EXTI    0.003193
BASF  -0.01568
FVAR       0.11536
LA    4    0.126370    0.356190    0.487002    11.00000    0.01036    0.00901 =
         0.01053   -0.00073   -0.00086    0.00485
CO    2    0.000000    0.000000    0.248447    10.16667    0.01168    0.01168 =
         0.01842    0.00000    0.00000    0.00584
GE    3    0.333333    0.666667    0.904960    10.33333    0.01125    0.01125 =
         0.00851    0.00000    0.00000    0.00562
S1    1    0.242403    0.156516    0.500000    11.00000    0.01472    0.01166 =
         0.01970   -0.00205   -0.00112    0.00837
S2    1    0.521403    0.106698    0.257892    11.00000    0.01023    0.01098 =
         0.01184   -0.00012    0.00145    0.00442
S3    1    0.333333    0.666667    0.278650    10.33333    0.01352    0.01352 =
         0.00883    0.00000    0.00000    0.00676
HKLF 4

REM  La3Co0.5GeS7 P6(3) lsf final refinement
REM R1 =  0.0242 for    1287 Fo > 4sig(Fo)  and  0.0265 for all    1367 data
REM     39 parameters refined using      1 restraints

END

WGHT      0.0113      2.2620

REM Highest difference peak  2.895,  deepest hole -1.296,  1-sigma level  0.241
Q1    1   0.0000  0.0000  0.4880  10.33333  0.05    2.89
Q2    1   0.4566  0.7508  0.9884  11.00000  0.05    2.33
Q3    1   0.3333  0.6667  1.0688  10.33333  0.05    1.98
Q4    1   0.3270  0.3875  0.4922  11.00000  0.05    1.14
Q5    1   0.5135  0.1543  0.4909  11.00000  0.05    1.12
Q6    1   0.0893  0.2373  0.3957  11.00000  0.05    1.00
Q7    1   0.4602  0.0183  0.3976  11.00000  0.05    0.96
Q8    1   0.4857 -0.1039  0.2161  11.00000  0.05    0.93
Q9    1   0.5761  0.0954  0.4780  11.00000  0.05    0.90
Q10   1   0.4730  0.0294 -0.0112  11.00000  0.05    0.86
Q11   1   0.2101  0.3149  0.4076  11.00000  0.05    0.86
Q12   1   0.3968  0.3547  0.4884  11.00000  0.05    0.84
Q13   1   0.2371  0.4969  0.4908  11.00000  0.05    0.84
Q14   1   0.4315  0.1915  0.5019  11.00000  0.05    0.83
Q15   1   0.1506  0.1571  0.4876  11.00000  0.05    0.81
Q16   1   0.3072  0.1052  0.3203  11.00000  0.05    0.79
Q17   1   0.1468  0.4640  0.3243  11.00000  0.05    0.78
Q18   1   0.3976 -0.1000  0.2139  11.00000  0.05    0.78
Q19   1   0.2980  0.2441  0.4907  11.00000  0.05    0.77
Q20   1   0.2742  0.4449  0.4046  11.00000  0.05    0.77
;
_shelx_res_checksum              16016
_shelx_hkl_file
;
   2  -6  -8    6.63    3.19
   3  -6  -8   33.94    5.96
   4  -6  -8    3.81    2.61
   5  -6  -8    2.75    2.10
   6  -6  -8    4.63    4.23
   0  -5  -8    2.80    2.19
   1  -5  -8    9.74    3.32
   2  -5  -8    3.53    2.18
   3  -5  -8    0.56    1.42
   4  -5  -8   31.40    5.59
   5  -5  -8    2.78    2.23
   6  -5  -8  110.61    8.96
   7  -5  -8    7.96    3.20
  -2  -4  -8    1.44    2.08
  -1  -4  -8   36.39    6.33
   0  -4  -8    8.46    3.23
   1  -4  -8   14.41    3.91
   2  -4  -8   31.32    5.77
   3  -4  -8   99.58    8.45
   4  -4  -8    5.41    2.45
   5  -4  -8   13.06    3.97
   6  -4  -8    6.18    2.72
  -3  -3  -8   40.67    6.72
  -2  -3  -8    0.03    1.65
  -1  -3  -8   93.58    8.32
   0  -3  -8   11.05    3.42
   1  -3  -8   -0.06    1.39
   2  -3  -8   61.22    7.78
   3  -3  -8    8.07    3.19
   4  -3  -8   15.87    4.05
   5  -3  -8    4.53    2.55
   6  -3  -8   30.01    5.32
  -4  -2  -8    5.79    3.01
  -3  -2  -8    8.76    3.12
  -2  -2  -8   36.79    6.16
  -1  -2  -8   70.72    8.51
   0  -2  -8    8.35    3.14
   1  -2  -8   41.75    6.59
   2  -2  -8    6.86    2.67
   3  -2  -8    1.90    1.74
   4  -2  -8   24.89    4.94
   5  -2  -8   -1.49    1.34
  -5  -1  -8  109.41    9.16
  -4  -1  -8   10.86    3.60
  -3  -1  -8   16.00    4.04
  -2  -1  -8    1.25    1.56
  -1  -1  -8   31.93    5.71
   0  -1  -8    3.95    2.23
   1  -1  -8    5.06    2.64
   2  -1  -8   37.71    6.05
   3  -1  -8   75.75    8.77
   4  -1  -8   94.77    7.96
   5  -1  -8   32.42    5.61
  -6   0  -8    4.70    2.54
  -5   0  -8    3.21    2.42
  -4   0  -8    7.30    2.98
  -3   0  -8    7.21    2.72
  -2   0  -8    4.85    2.39
  -1   0  -8    7.03    2.72
   0   0  -8  210.93   12.23
   1   0  -8    3.21    1.98
   2   0  -8   10.37    3.26
   3   0  -8    6.03    2.54
   4   0  -8    7.82    2.86
  -6   1  -8    4.52    2.60
  -5   1  -8   33.35    6.04
  -4   1  -8  100.11    8.49
  -3   1  -8   55.75    7.38
  -2   1  -8   43.79    6.67
  -1   1  -8    3.52    2.05
   0   1  -8    7.25    2.85
   1   1  -8   47.55    6.94
   2   1  -8    2.39    2.03
   3   1  -8   12.37    3.49
   4   1  -8    6.86    4.21
  -6   2  -8    1.21    1.89
  -5   2  -8    0.78    1.58
  -4   2  -8   30.86    5.74
  -3   2  -8    0.86    1.55
  -2   2  -8    9.71    3.35
  -1   2  -8   32.66    5.54
   0   2  -8    6.20    2.67
   1   2  -8   62.42    7.69
   2   2  -8   40.16    6.38
   3   2  -8   12.18    3.48
   4   2  -8   10.92    3.21
   5   2  -8    5.35    2.81
  -6   3  -8   44.12    6.92
  -5   3  -8    9.25    3.34
  -4   3  -8   12.14    3.60
  -3   3  -8    7.74    3.15
  -2   3  -8   67.57    8.38
  -1   3  -8    1.40    1.87
   0   3  -8    8.38    2.89
   1   3  -8  102.73    8.37
   2   3  -8    0.38    1.04
   3   3  -8   34.12    5.79
   4   3  -8    4.48    2.55
  -6   4  -8    7.01    3.04
  -5   4  -8   11.80    3.63
  -4   4  -8   10.49    3.48
  -3   4  -8   86.52    7.98
  -2   4  -8   33.51    6.08
  -1   4  -8   12.57    3.60
   0   4  -8    7.01    1.87
   1   4  -8   28.46    3.63
   2   4  -8    1.35    1.23
   3   4  -8   52.46    7.54
  -5   5  -8    6.50    2.97
  -4   5  -8   27.20    5.38
  -3   5  -8    1.30    1.74
  -2   5  -8    6.78    3.01
  -1   5  -8   10.98    2.35
   0   5  -8    5.48    1.73
   1   5  -8    2.88    1.60
  -4   6  -8    1.50    2.16
  -3   6  -8   33.52    6.45
  -2   6  -8    5.41    1.90
  -1   6  -8  116.81    6.60
   0   6  -8    1.58    1.46
  -3   7  -8    4.87    2.57
   3  -9  -7   -1.05    1.65
   4  -9  -7    6.12    2.66
   5  -9  -7   59.84    7.80
   6  -9  -7   11.91    3.58
   7  -9  -7   32.37    5.80
   0  -8  -7    3.23    2.05
   1  -8  -7   85.08    7.89
   2  -8  -7   22.58    4.90
   3  -8  -7   79.97    9.11
   4  -8  -7   28.95    5.29
   5  -8  -7    1.22    1.63
   6  -8  -7   13.62    3.70
   7  -8  -7    6.06    2.71
   8  -8  -7    3.23    2.21
  -2  -7  -7   23.86    4.81
  -1  -7  -7    7.55    2.82
   0  -7  -7   32.14    5.73
   1  -7  -7   10.73    3.22
   2  -7  -7    1.63    1.69
   3  -7  -7   17.01    3.91
   4  -7  -7   -0.21    1.11
   5  -7  -7    3.14    2.19
   6  -7  -7   72.78    8.45
   7  -7  -7   22.29    4.47
   8  -7  -7   88.31    7.57
  -3  -6  -7   12.68    3.57
  -2  -6  -7    7.98    2.91
  -1  -6  -7   79.33    7.41
   0  -6  -7   28.27    5.27
   1  -6  -7    6.50    2.65
   2  -6  -7    9.25    2.95
   3  -6  -7   93.20    7.81
   4  -6  -7    1.87    1.74
   5  -6  -7   25.47    4.87
   6  -6  -7   26.27    4.91
   7  -6  -7   12.28    3.45
   8  -6  -7   19.00    5.04
  -4  -5  -7   79.07    7.40
  -3  -5  -7    0.91    1.50
  -2  -5  -7    5.54    2.33
  -1  -5  -7   20.95    4.38
   0  -5  -7   24.34    4.63
   1  -5  -7   11.73    3.34
   2  -5  -7   70.68    8.10
   3  -5  -7    5.58    2.37
   4  -5  -7   83.86    7.13
   5  -5  -7   34.03    5.44
   6  -5  -7   10.64    3.38
   7  -5  -7    3.30    1.79
  -5  -4  -7    8.78    3.99
  -4  -4  -7   14.06    3.58
  -3  -4  -7    0.23    1.38
  -2  -4  -7    2.56    1.83
  -1  -4  -7   86.38    7.36
   0  -4  -7   15.28    3.72
   1  -4  -7  152.54    9.88
   2  -4  -7    3.85    1.86
   3  -4  -7   -0.05    1.13
   4  -4  -7   17.48    3.82
   5  -4  -7    3.99    2.02
   6  -4  -7    9.45    2.94
   7  -4  -7   13.19    3.49
  -5  -3  -7   83.14    7.40
  -4  -3  -7   29.82    5.12
  -3  -3  -7   72.47    6.77
  -2  -3  -7    6.54    2.51
  -1  -3  -7    0.21    0.94
   0  -3  -7    8.25    2.59
   1  -3  -7    4.77    2.30
   2  -3  -7   -0.40    0.89
   3  -3  -7    4.03    2.01
   4  -3  -7  181.27   10.31
   5  -3  -7   54.77    6.83
   6  -3  -7   79.67    6.68
  -6  -2  -7   20.00    4.32
  -5  -2  -7    3.81    2.15
  -4  -2  -7   14.60    3.58
  -3  -2  -7   66.40    7.64
  -2  -2  -7    1.18    1.32
  -1  -2  -7    1.04    1.41
   0  -2  -7   56.07    6.82
   1  -2  -7   21.28    4.16
   2  -2  -7   63.43    5.85
   3  -2  -7    8.32    2.67
   4  -2  -7    4.09    2.15
   5  -2  -7    2.90    1.91
   6  -2  -7    2.31    1.63
   8  -2  -7   16.45    5.45
   9  -2  -7   28.05    5.17
  -6  -1  -7   14.56    3.80
  -5  -1  -7    3.53    2.20
  -4  -1  -7    8.90    2.85
  -3  -1  -7  152.51    9.70
  -2  -1  -7    2.79    1.77
  -1  -1  -7   15.09    3.55
   0  -1  -7   45.49    6.14
   1  -1  -7   34.13    5.27
   2  -1  -7   17.60    3.76
   3  -1  -7    0.01    1.04
   4  -1  -7    0.22    1.06
   5  -1  -7   79.52    6.52
   6  -1  -7   31.80    5.05
   7  -1  -7   71.05    6.81
   8  -1  -7    4.21    2.30
   9  -1  -7    3.34    2.37
  -7   0  -7   29.22    5.06
  -6   0  -7   19.96    4.11
  -5   0  -7   22.05    4.26
  -4   0  -7   21.22    4.22
  -3   0  -7    8.91    2.76
  -2   0  -7   49.71    6.38
  -1   0  -7   42.98    6.13
   0   0  -7   -0.36    0.93
   1   0  -7   37.65    5.48
   2   0  -7   63.00    5.77
   3   0  -7    7.93    2.69
   4   0  -7   17.63    2.60
   5   0  -7   28.70    3.99
   6   0  -7   24.39    4.71
   7   0  -7   25.12    4.69
   8   0  -7    3.15    2.19
  -7   1  -7   86.42    7.32
  -6   1  -7   31.02    5.37
  -5   1  -7   77.58    6.86
  -4   1  -7    1.10    1.31
  -3   1  -7    0.89    1.28
  -2   1  -7   20.54    4.19
  -1   1  -7   41.77    5.88
   0   1  -7   52.30    6.68
   1   1  -7   19.56    3.95
   2   1  -7    4.45    1.35
   3   1  -7  159.12    6.50
   4   1  -7    6.92    1.70
   5   1  -7    7.84    2.70
   6   1  -7   13.41    3.54
   7   1  -7   70.01    8.53
   8   1  -7    8.84    2.97
  -8   2  -7   11.10    3.40
  -7   2  -7    7.13    2.83
  -6   2  -7    3.25    1.96
  -5   2  -7    7.93    2.70
  -4   2  -7    4.62    2.23
  -3   2  -7    4.26    2.06
  -2   2  -7   67.27    6.19
  -1   2  -7   18.02    3.87
   0   2  -7   61.95    4.32
   1   2  -7    1.05    0.84
   2   2  -7    3.70    1.33
   3   2  -7   63.02    4.10
   4   2  -7   15.45    3.54
   5   2  -7    4.02    2.19
   6   2  -7   21.84    4.68
   7   2  -7    1.59    2.04
  -8   3  -7    2.02    1.70
  -7   3  -7    0.97    1.48
  -6   3  -7   89.76    7.46
  -5   3  -7   52.86    6.70
  -4   3  -7  150.33    9.70
  -3   3  -7    9.87    3.14
  -2   3  -7    0.73    1.25
  -1   3  -7    4.03    1.35
   0   3  -7   10.74    2.05
   1   3  -7    1.25    0.87
   2   3  -7    5.66    1.57
   3   3  -7   95.59    5.14
   4   3  -7   21.59    4.41
   5   3  -7   80.55    7.52
   6   3  -7   -0.64    1.56
  -9   4  -7   65.04    7.79
  -8   4  -7   36.13    5.95
  -7   4  -7   26.51    5.11
  -6   4  -7    7.42    2.65
  -5   4  -7    6.42    2.55
  -4   4  -7   21.37    4.36
  -3   4  -7   -0.03    0.89
  -2   4  -7    3.08    1.97
  -1   4  -7  154.99    6.71
   0   4  -7   20.86    2.93
   1   4  -7   77.60    4.77
   2   4  -7    2.23    1.13
   3   4  -7    1.84    1.52
   4   4  -7   33.17    5.77
   5   4  -7    4.58    2.55
  -9   5  -7    5.55    2.56
  -8   5  -7   86.24    7.71
  -7   5  -7    4.38    2.31
  -6   5  -7    9.64    3.11
  -5   5  -7   15.84    3.87
  -4   5  -7   83.71    7.42
  -3   5  -7    4.04    2.11
  -2   5  -7   60.12    7.31
  -1   5  -7    6.35    1.73
   0   5  -7   30.53    3.67
   1   5  -7   28.07    3.55
   2   5  -7    2.84    1.42
   3   5  -7    0.12    1.40
   4   5  -7   74.92    8.77
  -9   6  -7   -0.08    1.48
  -8   6  -7   14.19    3.92
  -7   6  -7   14.31    3.96
  -6   6  -7   25.39    5.16
  -5   6  -7   25.14    5.07
  -4   6  -7    4.97    2.24
  -3   6  -7   86.17    7.81
  -2   6  -7    6.26    2.55
  -1   6  -7    7.59    1.99
   0   6  -7   25.12    3.52
   1   6  -7   77.27    5.07
   2   6  -7   13.23    3.90
   3   6  -7    3.53    2.11
  -9   7  -7    3.97    2.57
  -8   7  -7   84.58    9.85
  -7   7  -7   23.40    4.84
  -6   7  -7   71.18    8.48
  -5   7  -7    2.01    1.71
  -4   7  -7    1.34    1.55
  -3   7  -7   17.49    4.45
  -2   7  -7    2.60    1.91
  -1   7  -7   10.43    2.29
   0   7  -7   32.20    4.07
   1   7  -7    6.60    2.77
  -8   8  -7   -0.18    1.61
  -7   8  -7    5.01    2.54
  -6   8  -7   17.00    4.59
  -5   8  -7    0.95    1.45
  -4   8  -7   33.17    6.08
  -3   8  -7   76.24    8.97
  -2   8  -7   18.28    4.40
  -1   8  -7   92.17    5.77
   0   8  -7    2.24    1.47
  -6   9  -7   12.09    4.34
  -5   9  -7   65.94    8.48
  -4   9  -7    5.57    2.84
  -3   9  -7    0.26    1.63
  -2   9  -7    1.48    2.13
  -1   9  -7    2.51    2.00
   4 -11  -6   35.35    6.37
   5 -11  -6   19.24    4.79
   6 -11  -6   -0.82    1.59
   7 -11  -6   98.83    8.90
   8 -11  -6   11.66    3.88
   0 -10  -6   25.49    5.39
   1 -10  -6    7.81    3.05
   2 -10  -6   46.03    7.10
   3 -10  -6   42.05    6.57
   4 -10  -6   63.32    7.99
   5 -10  -6   24.85    5.09
   6 -10  -6    1.98    1.77
   7 -10  -6   15.40    3.98
   8 -10  -6   69.66    8.85
   9 -10  -6    1.06    1.73
  10 -10  -6   37.62    6.45
  -2  -9  -6   17.72    6.28
  -1  -9  -6    3.18    1.39
   0  -9  -6   23.09    4.94
   1  -9  -6    7.06    2.77
   2  -9  -6   -0.37    1.35
   3  -9  -6   40.24    6.24
   4  -9  -6    5.42    2.51
   5  -9  -6   16.41    4.04
   6  -9  -6   34.91    5.63
   7  -9  -6   15.36    3.90
   8  -9  -6   48.72    6.84
   9  -9  -6   18.90    4.31
  -3  -8  -6   14.53    4.08
  -2  -8  -6   63.28    5.65
  -1  -8  -6   39.90    4.29
   0  -8  -6   63.37    5.35
   1  -8  -6   21.21    4.31
   2  -8  -6    3.87    1.99
   3  -8  -6   27.64    4.94
   4  -8  -6   29.98    5.13
   5  -8  -6   36.17    5.74
   6  -8  -6    1.52    1.43
   7  -8  -6   31.61    5.14
   8  -8  -6   78.15    6.97
   9  -8  -6    5.85    2.56
  -4  -7  -6   97.43    8.57
  -3  -7  -6   13.43    2.46
  -2  -7  -6   16.54    2.78
  -1  -7  -6   30.48    3.65
   0  -7  -6   16.03    2.41
   1  -7  -6    0.57    1.27
   2  -7  -6    4.46    1.92
   3  -7  -6   18.69    4.02
   4  -7  -6   66.16    6.17
   5  -7  -6   52.26    6.67
   6  -7  -6   20.35    4.05
   7  -7  -6   19.09    3.85
   8  -7  -6   23.12    4.25
  -5  -6  -6   -0.15    1.31
  -4  -6  -6    0.35    1.38
  -3  -6  -6   48.81    4.71
  -2  -6  -6    2.23    1.13
  -1  -6  -6   15.45    2.46
   0  -6  -6    8.88    1.85
   1  -6  -6  189.77   10.54
   2  -6  -6    9.58    2.84
   3  -6  -6   88.11    7.03
   4  -6  -6    9.41    2.70
   5  -6  -6   28.06    4.64
   6  -6  -6   10.77    2.87
   7  -6  -6   -0.02    0.97
   8  -6  -6    8.75    2.75
  -6  -5  -6   14.00    3.93
  -5  -5  -6   30.04    5.38
  -4  -5  -6   19.96    2.89
  -3  -5  -6   41.70    4.10
  -2  -5  -6   51.70    4.42
  -1  -5  -6   31.68    3.41
   0  -5  -6    3.03    1.04
   1  -5  -6   24.82    4.30
   2  -5  -6   10.60    2.90
   3  -5  -6    6.00    2.20
   4  -5  -6   50.58    6.13
   5  -5  -6    1.97    1.45
   6  -5  -6  185.26    9.98
   7  -5  -6   16.28    3.43
  11  -5  -6   -0.65    1.49
  -7  -4  -6   47.80    7.40
  -6  -4  -6   45.98    6.55
  -5  -4  -6    5.17    1.54
  -4  -4  -6   33.06    3.65
  -3  -4  -6   68.21    4.17
  -2  -4  -6   10.49    1.92
  -1  -4  -6   51.22    4.23
   0  -4  -6   10.69    2.88
   1  -4  -6   45.69    5.70
   2  -4  -6   34.53    5.17
   3  -4  -6   95.51    6.86
   4  -4  -6   14.11    3.22
   5  -4  -6   27.79    4.49
   6  -4  -6   11.85    2.89
   7  -4  -6   23.93    4.09
   8  -4  -6   24.72    4.87
   9  -4  -6   18.34    4.00
  10  -4  -6   -0.32    1.74
  11  -4  -6  108.02    8.80
  -8  -3  -6   11.25    3.51
  -7  -3  -6   55.01    7.34
  -6  -3  -6   23.16    4.63
  -5  -3  -6   33.83    3.66
  -4  -3  -6   22.74    2.90
  -3  -3  -6   91.24    4.93
  -2  -3  -6    4.95    2.02
  -1  -3  -6   85.78    6.54
   0  -3  -6   16.52    3.48
   1  -3  -6    4.57    1.88
   2  -3  -6  112.97    7.43
   3  -3  -6   21.45    3.86
   4  -3  -6   53.65    6.13
   5  -3  -6   16.66    3.56
   6  -3  -6   95.65    4.68
   7  -3  -6   65.42    5.65
   8  -3  -6   39.47    5.59
   9  -3  -6   48.42    6.54
  10  -3  -6   17.11    4.26
  11  -3  -6   14.47    4.28
  -9  -2  -6    2.42    2.16
  -8  -2  -6   44.85    6.71
  -7  -2  -6    0.98    1.30
  -6  -2  -6    7.05    1.75
  -5  -2  -6   14.75    3.41
  -4  -2  -6    8.54    2.57
  -3  -2  -6   12.96    3.20
  -2  -2  -6   34.86    5.01
  -1  -2  -6  124.89    7.83
   0  -2  -6   76.80    5.99
   1  -2  -6   94.51    6.70
   2  -2  -6   62.44    5.41
   3  -2  -6    6.03    2.10
   4  -2  -6   35.14    3.27
   5  -2  -6    6.54    1.49
   6  -2  -6   12.90    2.14
   7  -2  -6   49.14    5.94
   8  -2  -6    3.81    1.84
   9  -2  -6   20.14    4.43
  10  -2  -6   57.73    7.46
  -6  -1  -6    0.97    1.27
  -5  -1  -6  195.80   10.17
  -4  -1  -6   23.85    4.00
  -3  -1  -6   53.18    5.00
  -2  -1  -6    4.07    1.87
  -1  -1  -6   96.80    6.71
   0  -1  -6   17.44    3.31
   1  -1  -6   22.79    3.91
   2  -1  -6   94.64    6.44
   3  -1  -6  124.57    5.03
   4  -1  -6   91.09    4.38
   5  -1  -6   54.87    3.42
   6  -1  -6   37.37    5.16
   7  -1  -6   24.71    4.43
   8  -1  -6   34.06    3.86
   9  -1  -6   34.50    5.79
  10  -1  -6    0.43    1.34
  -7   0  -6   16.02    3.45
  -6   0  -6    6.01    2.05
  -5   0  -6    3.72    1.80
  -4   0  -6   13.49    3.00
  -3   0  -6   19.76    3.66
  -2   0  -6   73.56    5.83
  -1   0  -6   18.12    3.54
   0   0  -6  173.78    9.02
   1   0  -6   22.39    2.51
   2   0  -6   69.98    3.67
   3   0  -6   21.13    2.47
   4   0  -6   20.62    2.48
   5   0  -6    1.62    0.93
   6   0  -6   13.91    3.34
   7   0  -6   18.38    4.00
   8   0  -6   87.97    5.07
   9   0  -6   21.16    3.11
  10   0  -6   30.50    5.75
  -7   1  -6   24.08    4.29
  -6   1  -6   32.90    4.89
  -5   1  -6   53.65    6.14
  -4   1  -6   92.16    6.69
  -3   1  -6  117.69    7.62
  -2   1  -6   94.11    6.70
  -1   1  -6   23.24    2.53
   0   1  -6   18.97    2.31
   1   1  -6   97.84    4.47
   2   1  -6    7.99    1.55
   3   1  -6   50.85    3.29
   4   1  -6   28.35    2.97
   5   1  -6  181.14    9.94
   6   1  -6    0.41    1.20
   7   1  -6   24.19    4.55
   8   1  -6    4.42    1.50
   9   1  -6    7.56    2.15
  -8   2  -6    2.82    1.70
  -7   2  -6   50.29    6.10
  -6   2  -6    6.89    2.38
  -5   2  -6    4.08    1.71
  -4   2  -6   38.73    5.44
  -3   2  -6    1.24    1.02
  -2   2  -6   66.77    5.60
  -1   2  -6  100.07    6.86
   0   2  -6   69.08    3.77
   1   2  -6  128.09    5.30
   2   2  -6   39.64    3.54
   3   2  -6   17.55    2.44
   4   2  -6   10.58    1.89
   5   2  -6   15.87    3.74
   6   2  -6    8.98    2.96
   7   2  -6    0.34    0.95
   8   2  -6   43.25    4.46
  -8   3  -6   44.19    5.90
  -7   3  -6   68.44    6.10
  -6   3  -6   99.24    7.21
  -5   3  -6    9.86    2.83
  -4   3  -6   42.80    5.46
  -3   3  -6   17.20    3.44
  -2   3  -6  124.60    8.02
  -1   3  -6    6.53    2.13
   0   3  -6   22.02    2.68
   1   3  -6   92.19    4.60
   2   3  -6    5.14    1.35
   3   3  -6   99.03    4.82
   4   3  -6   22.30    4.12
   5   3  -6   22.47    4.39
   6   3  -6   28.43    5.22
   7   3  -6   46.89    4.79
   8   3  -6    7.73    2.85
  -9   4  -6   26.92    4.77
  -8   4  -6   32.37    5.13
  -7   4  -6   23.08    4.49
  -6   4  -6    9.11    2.83
  -5   4  -6   26.08    4.49
  -4   4  -6   10.74    2.95
  -3   4  -6   79.54    6.57
  -2   4  -6   23.14    4.11
  -1   4  -6   48.59    6.10
   0   4  -6   14.20    2.18
   1   4  -6   46.82    4.07
   2   4  -6   12.57    2.12
   3   4  -6   65.93    4.38
   4   4  -6   23.55    4.44
   5   4  -6    5.69    2.20
   6   4  -6   70.02    8.38
   7   4  -6   36.49    4.22
  -9   5  -6    2.21    1.66
  -8   5  -6   25.02    4.52
  -7   5  -6   11.97    3.06
  -6   5  -6  181.53   10.32
  -5   5  -6    2.05    1.47
  -4   5  -6   52.96    6.39
  -3   5  -6    6.63    2.47
  -2   5  -6   11.39    3.00
  -1   5  -6   19.74    3.81
   0   5  -6    1.18    0.88
   1   5  -6   25.95    3.15
   2   5  -6   48.50    4.30
   3   5  -6   38.29    5.65
   4   5  -6   27.52    5.14
   5   5  -6   35.21    5.98
   6   5  -6   19.67    4.73
 -10   6  -6   65.44    7.64
  -9   6  -6   35.13    5.64
  -8   6  -6    6.45    2.48
  -7   6  -6    0.35    1.19
  -6   6  -6    9.91    2.80
  -5   6  -6   28.09    4.74
  -4   6  -6    8.38    2.75
  -3   6  -6   99.64    7.53
  -2   6  -6   13.78    3.50
  -1   6  -6  191.77   10.37
   0   6  -6   11.17    2.15
   1   6  -6   19.94    2.88
   2   6  -6    3.99    2.01
   3   6  -6   40.79    6.03
   4   6  -6    2.57    1.61
   5   6  -6   -0.46    1.24
 -10   7  -6   43.08    6.07
  -9   7  -6   -0.60    1.26
  -8   7  -6   23.79    4.56
  -7   7  -6   10.60    3.01
  -6   7  -6   19.33    4.17
  -5   7  -6   39.22    6.03
  -4   7  -6   63.18    7.32
  -3   7  -6   18.60    4.01
  -2   7  -6   10.27    3.08
  -1   7  -6    0.61    1.09
   0   7  -6   17.71    2.75
   1   7  -6   36.24    4.00
   2   7  -6   22.26    4.52
   3   7  -6   19.79    4.44
   4   7  -6   96.42    8.72
 -11   8  -6    6.22    2.64
 -10   8  -6   41.99    6.27
  -9   8  -6    6.21    2.54
  -8   8  -6   80.48    7.28
  -7   8  -6   21.34    4.56
  -6   8  -6    2.27    1.80
  -5   8  -6   41.67    6.39
  -4   8  -6   29.55    5.54
  -3   8  -6   27.56    5.10
  -2   8  -6    7.04    2.82
  -1   8  -6   16.96    3.97
   0   8  -6   64.36    4.89
   1   8  -6   50.48    7.16
   2   8  -6   62.86    8.00
 -11   9  -6    1.72    1.90
 -10   9  -6    8.28    2.97
  -9   9  -6   16.33    3.99
  -8   9  -6   32.26    5.71
  -7   9  -6   18.72    4.35
  -6   9  -6   27.23    5.35
  -5   9  -6   19.73    4.55
  -4   9  -6    3.91    2.31
  -3   9  -6   34.02    5.97
  -2   9  -6    0.14    1.34
  -1   9  -6    5.00    1.58
   0   9  -6   20.53    3.37
   1   9  -6    0.96    1.73
 -10  10  -6   35.84    9.36
  -9  10  -6    7.44    2.98
  -8  10  -6   59.58    8.30
  -7  10  -6   12.53    3.89
  -6  10  -6    6.07    2.91
  -5  10  -6   24.43    5.09
  -4  10  -6   49.37    7.37
  -3  10  -6   38.75    6.46
  -2  10  -6   39.71    6.54
  -1  10  -6    5.64    1.88
  -6  11  -6    0.79    1.85
  -5  11  -6   15.23    4.40
  -4  11  -6   41.87    7.16
  -3  11  -6   10.55    3.72
  -2  11  -6    2.14    2.08
   2 -12  -5   18.29    4.75
   3 -12  -5    0.92    1.71
   4 -12  -5   93.36    8.76
   5 -12  -5    1.47    1.98
   6 -12  -5   21.69    5.18
   7 -12  -5   40.26    6.66
   8 -12  -5   21.46    4.87
   9 -12  -5   30.40    5.96
  10 -12  -5    1.12    2.13
   0 -11  -5    2.11    1.41
   1 -11  -5   20.99    4.61
   2 -11  -5    9.96    3.30
   3 -11  -5    3.90    2.33
   4 -11  -5   27.68    5.38
   5 -11  -5   34.69    5.90
   6 -11  -5   55.91    7.45
   7 -11  -5    2.49    2.09
   8 -11  -5   18.30    4.29
   9 -11  -5   29.05    5.67
  10 -11  -5    9.32    3.50
  -1 -10  -5    3.35    1.47
   0 -10  -5  151.78    7.29
   1 -10  -5   30.34    5.65
   2 -10  -5  111.05    8.77
   3 -10  -5    1.56    1.64
   4 -10  -5    2.94    2.01
   5 -10  -5   15.87    3.93
   6 -10  -5   33.83    5.56
   7 -10  -5   24.70    4.82
   8 -10  -5   19.55    4.26
   9 -10  -5   12.34    3.46
  10 -10  -5  146.36   10.05
  -3  -9  -5   24.39    5.24
  -2  -9  -5   21.22    3.14
  -1  -9  -5   12.89    2.51
   0  -9  -5    1.86    1.11
   1  -9  -5    0.99    1.36
   2  -9  -5    1.73    1.50
   3  -9  -5    1.14    1.34
   4  -9  -5    8.99    2.74
   5  -9  -5   23.06    4.37
   6  -9  -5    4.42    2.10
   7  -9  -5   70.82    6.55
   8  -9  -5   10.71    3.06
   9  -9  -5    5.16    2.37
  10  -9  -5   35.07    5.62
  -4  -8  -5   16.85    4.25
  -3  -8  -5   22.72    4.54
  -2  -8  -5   16.29    2.40
  -1  -8  -5    6.79    1.79
   0  -8  -5    5.82    1.65
   1  -8  -5   66.22    4.27
   2  -8  -5  126.80    8.28
   3  -8  -5  204.15   10.83
   4  -8  -5   28.54    4.66
   5  -8  -5   19.59    3.90
   6  -8  -5   25.66    4.54
   7  -8  -5   10.97    2.92
   8  -8  -5    5.12    2.21
   9  -8  -5    0.13    1.16
  -5  -7  -5   47.10    7.15
  -4  -7  -5    0.45    1.03
  -3  -7  -5   24.53    3.16
  -2  -7  -5   73.76    4.45
  -1  -7  -5   11.25    2.07
   0  -7  -5   10.60    1.96
   1  -7  -5    5.53    1.47
   2  -7  -5    9.45    2.65
   3  -7  -5   37.08    5.32
   4  -7  -5   14.67    3.24
   5  -7  -5    2.24    1.32
   6  -7  -5  294.34   12.60
   7  -7  -5   12.51    2.94
   8  -7  -5   80.08    6.30
   9  -7  -5    1.66    1.42
  11  -7  -5   30.44    5.67
  12  -7  -5    0.75    1.66
  13  -7  -5    3.57    2.53
  -6  -6  -5   16.99    4.30
  -5  -6  -5   52.08    7.22
  -4  -6  -5   34.54    5.52
  -3  -6  -5    6.98    1.68
  -2  -6  -5   24.61    2.95
  -1  -6  -5  286.13    8.75
   0  -6  -5   11.71    1.99
   1  -6  -5   30.91    3.12
   2  -6  -5   27.28    4.30
   3  -6  -5  144.90    8.37
   4  -6  -5    3.33    1.49
   5  -6  -5   81.07    6.00
   6  -6  -5   11.65    2.87
   7  -6  -5    5.25    1.95
   8  -6  -5  135.87    7.83
   9  -6  -5   -0.18    0.99
  10  -6  -5    3.83    1.97
  11  -6  -5   47.18    6.47
  12  -6  -5   20.79    4.41
  13  -6  -5   15.39    4.13
  -7  -5  -5   -0.67    1.22
  -6  -5  -5   35.60    6.03
  -5  -5  -5   22.65    4.61
  -4  -5  -5   24.56    2.98
  -3  -5  -5   15.89    2.38
  -2  -5  -5    1.72    0.83
  -1  -5  -5   82.96    4.20
   0  -5  -5   11.14    1.93
   1  -5  -5   11.35    1.81
   2  -5  -5   89.37    6.12
   3  -5  -5    3.20    1.51
   4  -5  -5  202.33    9.52
   5  -5  -5    7.84    2.18
   6  -5  -5   42.23    5.20
   7  -5  -5   12.36    1.96
   8  -5  -5  229.37    7.35
   9  -5  -5   16.18    3.46
  10  -5  -5   26.55    4.81
  11  -5  -5   43.67    6.23
  12  -5  -5   48.12    6.77
  -8  -4  -5   94.24    8.58
  -7  -4  -5   31.81    5.59
  -6  -4  -5    8.19    2.87
  -5  -4  -5   15.03    2.32
  -4  -4  -5   29.56    3.15
  -3  -4  -5   16.39    2.19
  -2  -4  -5    3.03    1.01
  -1  -4  -5  187.95    6.33
   0  -4  -5    2.63    0.88
   1  -4  -5  348.85   13.25
   2  -4  -5    4.30    1.67
   3  -4  -5   11.41    2.64
   4  -4  -5    1.35    1.18
   5  -4  -5   10.20    1.59
   6  -4  -5   27.29    2.67
   7  -4  -5   38.65    3.39
   8  -4  -5   23.42    3.91
   9  -4  -5   27.76    4.59
  10  -4  -5   42.34    6.01
  11  -4  -5    3.77    2.11
  12  -4  -5   16.76    4.00
  -9  -3  -5    2.10    1.96
  -8  -3  -5    7.91    2.97
  -7  -3  -5    3.85    2.02
  -6  -3  -5    1.01    1.30
  -5  -3  -5  238.86    7.72
  -4  -3  -5   37.72    3.40
  -3  -3  -5  155.65    5.73
  -2  -3  -5    2.92    0.98
  -1  -3  -5   14.09    1.89
   0  -3  -5   69.41    4.56
   1  -3  -5   30.80    3.98
   2  -3  -5   42.90    4.00
   3  -3  -5   76.99    3.53
   4  -3  -5  360.63    8.56
   5  -3  -5   78.72    3.74
   6  -3  -5  159.74    5.60
   7  -3  -5   14.93    2.09
   8  -3  -5   24.58    4.21
   9  -3  -5    4.93    2.07
  10  -3  -5   20.91    4.29
  11  -3  -5   16.79    4.06
  12  -3  -5   13.31    3.97
 -10  -2  -5   20.70    4.96
  -9  -2  -5    9.21    3.20
  -8  -2  -5  112.43    8.62
  -7  -2  -5    0.72    1.23
  -6  -2  -5  139.57    5.66
  -5  -2  -5   13.10    1.88
  -4  -2  -5   28.08    2.76
  -3  -2  -5   85.43    3.98
  -2  -2  -5    3.79    1.01
  -1  -2  -5   39.73    2.45
   0  -2  -5   73.70    3.30
   1  -2  -5   55.37    4.49
   2  -2  -5   76.44    3.27
   3  -2  -5   36.48    2.55
   4  -2  -5    2.66    0.89
   5  -2  -5    3.08    0.94
   6  -2  -5    2.17    0.88
   7  -2  -5    2.82    0.99
   8  -2  -5   23.55    2.74
   9  -2  -5   82.35    4.48
  10  -2  -5   17.03    3.93
  11  -2  -5   24.08    4.87
 -10  -1  -5   22.90    4.95
  -9  -1  -5   56.36    7.76
  -8  -1  -5   -0.30    1.08
  -7  -1  -5   69.79    6.17
  -6  -1  -5    5.32    1.28
  -5  -1  -5   32.68    3.03
  -4  -1  -5   13.19    1.87
  -3  -1  -5  354.88    8.70
  -2  -1  -5   38.93    2.56
  -1  -1  -5   59.30    2.85
   0  -1  -5   78.73    3.24
   1  -1  -5   77.10    3.28
   2  -1  -5   59.27    2.95
   3  -1  -5   38.40    2.42
   4  -1  -5   12.79    1.74
   5  -1  -5  183.09    6.02
   6  -1  -5   82.63    3.89
   7  -1  -5  299.61   12.57
   8  -1  -5   11.46    2.01
   9  -1  -5    9.40    1.88
  10  -1  -5    9.61    1.99
  11  -1  -5    5.30    1.61
 -11   0  -5    2.62    2.03
 -10   0  -5  163.49   10.72
  -9   0  -5    3.09    2.16
  -8   0  -5    9.77    3.01
  -7   0  -5   14.73    2.14
  -6   0  -5   14.84    2.12
  -5   0  -5    9.91    1.66
  -4   0  -5    2.00    0.78
  -3   0  -5   75.15    3.38
  -2   0  -5   68.22    5.06
  -1   0  -5   82.77    5.49
   0   0  -5    0.15    0.40
   1   0  -5   79.10    3.47
   2   0  -5   71.52    3.33
   3   0  -5   69.88    3.41
   4   0  -5    3.31    0.93
   5   0  -5    9.10    1.60
   6   0  -5   12.24    2.94
   7   0  -5   14.54    3.29
   8   0  -5    6.78    1.65
   9   0  -5    4.52    1.42
  10   0  -5  164.25    7.23
  11   0  -5    0.97    1.32
 -11   1  -5    2.16    1.91
 -10   1  -5    9.94    3.05
  -9   1  -5   10.98    2.92
  -8   1  -5   12.26    3.04
  -7   1  -5  300.03    8.50
  -6   1  -5   82.16    4.01
  -5   1  -5  192.66    6.06
  -4   1  -5   14.64    2.77
  -3   1  -5   32.17    4.27
  -2   1  -5   61.27    4.76
  -1   1  -5   78.05    5.35
   0   1  -5   77.67    3.52
   1   1  -5   56.70    3.02
   2   1  -5   36.89    2.63
   3   1  -5  359.02    8.83
   4   1  -5   11.99    1.80
   5   1  -5   31.46    3.08
   6   1  -5    6.26    2.26
   7   1  -5   70.46    4.16
   8   1  -5    0.41    0.76
   9   1  -5   43.76    4.27
  10   1  -5   25.66    3.49
 -12   2  -5    7.70    3.15
 -11   2  -5   21.19    4.55
 -10   2  -5   24.31    4.75
  -9   2  -5   74.92    6.45
  -8   2  -5   25.72    2.90
  -7   2  -5    2.66    0.98
  -6   2  -5    2.94    1.41
  -5   2  -5    3.18    1.41
  -4   2  -5    3.29    1.65
  -3   2  -5   31.45    4.35
  -2   2  -5   75.81    5.36
  -1   2  -5   56.38    4.61
   0   2  -5   61.66    4.84
   1   2  -5   41.72    2.86
   2   2  -5    3.43    0.99
   3   2  -5   82.36    3.90
   4   2  -5   30.88    2.99
   5   2  -5   10.36    2.71
   6   2  -5  127.46    8.32
   7   2  -5    2.03    1.02
   8   2  -5  115.49    5.91
   9   2  -5    5.33    1.63
  10   2  -5   20.89    4.55
 -12   3  -5   22.96    4.93
 -11   3  -5   23.15    4.75
 -10   3  -5   19.98    4.16
  -8   3  -5   13.17    2.95
  -7   3  -5   17.20    3.28
  -6   3  -5  155.41    8.39
  -5   3  -5   75.15    5.73
  -4   3  -5  337.13   13.01
  -3   3  -5   72.02    5.38
  -2   3  -5   42.81    4.02
  -1   3  -5   32.31    4.34
   0   3  -5   82.17    5.58
   1   3  -5   11.41    1.74
   2   3  -5    3.17    1.04
   3   3  -5  151.39    5.63
   4   3  -5   30.20    4.54
   5   3  -5  228.11   11.46
   6   3  -5    0.60    1.03
   7   3  -5    3.36    1.36
   8   3  -5    8.13    2.05
   9   3  -5    1.55    1.20
  -9   4  -5   24.10    4.06
  -8   4  -5   24.47    4.10
  -7   4  -5   28.70    4.27
  -6   4  -5   27.48    4.18
  -5   4  -5   11.91    2.77
  -4   4  -5    2.08    1.23
  -3   4  -5   11.75    2.62
  -2   4  -5    0.92    0.92
  -1   4  -5  354.97   13.13
   0   4  -5    2.49    1.27
   1   4  -5  188.17    6.36
   2   4  -5    3.13    1.05
   3   4  -5   17.13    2.35
   4   4  -5   26.98    4.48
   5   4  -5   13.58    3.45
   6   4  -5    4.99    2.27
   7   4  -5   33.88    3.92
   8   4  -5   98.94    5.89
  -9   5  -5   17.19    3.52
  -8   5  -5  241.86   11.04
  -7   5  -5   12.01    2.97
  -6   5  -5   33.29    4.62
  -5   5  -5    9.99    2.61
  -4   5  -5  174.76    9.25
  -3   5  -5    4.89    1.84
  -2   5  -5   89.19    6.28
  -1   5  -5   16.83    3.30
   0   5  -5   10.04    2.56
   1   5  -5   78.06    4.08
   2   5  -5    3.40    1.20
   3   5  -5   19.33    4.01
   4   5  -5   31.45    4.98
   5   5  -5   24.16    4.67
   6   5  -5   41.23    4.25
   7   5  -5    0.98    1.07
 -10   6  -5    4.38    2.22
  -9   6  -5    0.00    0.94
  -8   6  -5  117.85    7.75
  -7   6  -5    3.98    1.90
  -6   6  -5   12.36    3.01
  -5   6  -5   76.39    6.29
  -4   6  -5    1.69    1.36
  -3   6  -5  141.33    8.61
  -2   6  -5   27.24    4.42
  -1   6  -5   34.17    4.77
   0   6  -5   15.30    3.33
   1   6  -5  296.41    8.79
   2   6  -5   21.02    2.69
   3   6  -5    4.13    2.04
   4   6  -5   47.74    6.31
   5   6  -5   46.18    6.90
   6   6  -5   21.75    3.20
 -10   7  -5    8.53    2.76
  -9   7  -5    0.77    1.21
  -8   7  -5   63.41    7.29
  -7   7  -5   15.64    3.57
  -6   7  -5  295.87   13.30
  -5   7  -5    1.04    1.36
  -4   7  -5    8.59    2.64
  -3   7  -5   37.94    5.50
  -2   7  -5   13.35    3.16
  -1   7  -5    8.05    2.48
   0   7  -5   11.01    2.98
   1   7  -5   11.91    2.14
   2   7  -5   76.53    6.74
   3   7  -5   18.43    3.92
   4   7  -5   -0.03    1.23
   5   7  -5   45.34    4.63
 -11   8  -5    7.12    2.49
 -10   8  -5  123.55    8.64
  -9   8  -5    0.29    1.11
  -8   8  -5    4.94    2.23
  -7   8  -5   12.15    3.28
  -6   8  -5   21.79    4.43
  -5   8  -5   12.17    3.28
  -4   8  -5   29.82    5.09
  -3   8  -5  234.36   12.00
  -2   8  -5  130.49    8.71
  -1   8  -5   67.34    6.15
   0   8  -5    6.10    1.63
   1   8  -5   11.31    2.34
   2   8  -5   16.37    3.82
   3   8  -5   25.83    4.93
   4   8  -5   20.50    4.74
 -11   9  -5    2.02    1.79
 -10   9  -5   33.58    5.43
  -9   9  -5    4.47    2.26
  -8   9  -5    8.33    2.86
  -7   9  -5   77.56    7.05
  -6   9  -5    2.67    1.69
  -5   9  -5   22.62    4.42
  -4   9  -5   12.89    3.46
  -3   9  -5    0.94    1.40
  -2   9  -5    0.16    1.27
  -1   9  -5    0.83    1.21
   0   9  -5    3.14    1.28
   1   9  -5   10.67    3.41
   2   9  -5   29.12    5.26
   3   9  -5   18.67    4.37
 -12  10  -5   19.05    4.37
 -11  10  -5   20.81    4.54
  -9  10  -5   16.11    3.95
  -8  10  -5   12.89    3.61
  -7  10  -5   20.96    4.77
  -6  10  -5   39.31    6.45
  -5  10  -5   24.50    4.96
  -4  10  -5    1.83    1.80
  -3  10  -5    6.09    2.66
  -2  10  -5  109.27    8.57
  -1  10  -5   36.04    4.06
   0  10  -5  143.31    9.97
   1  10  -5    6.52    2.72
 -11  11  -5    1.19    1.93
 -10  11  -5    5.37    2.61
  -9  11  -5   28.58    5.54
  -8  11  -5   22.50    5.01
  -7  11  -5    2.71    2.10
  -6  11  -5   40.75    6.41
  -5  11  -5   28.50    5.45
  -4  11  -5   34.66    6.13
  -3  11  -5   10.56    3.44
  -2  11  -5    4.93    2.44
  -1  11  -5   21.38    3.26
   0  11  -5    0.16    1.88
  -9  12  -5   12.98    4.18
  -8  12  -5   16.30    4.47
  -7  12  -5   49.24    7.50
  -6  12  -5   20.13    4.93
  -5  12  -5    1.25    1.86
  -4  12  -5  102.51    9.08
  -3  12  -5   -0.79    1.67
  -2  12  -5   19.97    4.64
   2 -13  -4    2.48    2.43
   3 -13  -4    1.34    2.01
   4 -13  -4    4.19    2.66
   5 -13  -4   55.91    8.04
   6 -13  -4   83.69    9.54
   7 -13  -4    5.82    2.89
   8 -13  -4   21.71    4.86
   9 -13  -4    6.56    3.03
  10 -13  -4    4.06    2.65
  11 -13  -4   20.58    4.80
   0 -12  -4    2.57    2.25
   1 -12  -4    3.23    2.38
   2 -12  -4  128.37    9.78
   3 -12  -4    2.88    2.22
   4 -12  -4   33.48    5.84
   5 -12  -4    1.46    1.75
   6 -12  -4   25.99    5.31
   7 -12  -4    1.16    1.57
   8 -12  -4   18.12    4.39
   9 -12  -4   31.74    5.75
  10 -12  -4   71.43    8.47
  11 -12  -4   95.61    8.40
  -1 -11  -4   87.82    8.09
   0 -11  -4    5.34    1.82
   1 -11  -4    7.10    2.82
   2 -11  -4   14.18    3.75
   3 -11  -4   19.66    4.45
   4 -11  -4   -0.93    1.05
   5 -11  -4   29.53    5.36
   6 -11  -4   11.92    3.48
   7 -11  -4  217.87   12.46
   8 -11  -4   13.88    3.69
   9 -11  -4   27.52    5.20
  10 -11  -4    0.67    1.42
  11 -11  -4    4.90    2.43
  -3 -10  -4    5.87    2.82
  -2 -10  -4   78.38    7.48
  -1 -10  -4    5.16    1.73
   0 -10  -4   13.44    2.58
   1 -10  -4    9.82    1.99
   2 -10  -4   28.79    4.93
   3 -10  -4   62.56    7.55
   4 -10  -4   86.21    7.21
   5 -10  -4   32.10    5.50
   6 -10  -4   33.59    5.48
   7 -10  -4   30.93    5.10
   8 -10  -4   11.27    3.35
   9 -10  -4   11.16    3.24
  10 -10  -4   10.72    3.07
  -4  -9  -4    7.96    2.79
  -3  -9  -4   30.33    5.56
  -2  -9  -4   25.71    3.29
  -1  -9  -4   12.43    2.39
   0  -9  -4   71.09    4.52
   1  -9  -4    8.68    1.87
   2  -9  -4   26.83    4.72
   3  -9  -4   92.81    7.22
   4  -9  -4    7.52    2.56
   5  -9  -4   57.78    6.80
   6  -9  -4   22.31    4.22
   7  -9  -4   40.81    5.66
   8  -9  -4   39.34    5.40
   9  -9  -4   83.73    6.72
  10  -9  -4   11.59    3.21
  12  -9  -4    7.04    2.69
  13  -9  -4    7.90    3.06
  14  -9  -4    1.44    2.06
  -5  -8  -4   21.83    5.01
  -4  -8  -4   20.49    4.63
  -3  -8  -4   12.90    3.34
  -2  -8  -4    5.23    1.54
  -1  -8  -4   44.37    4.05
   0  -8  -4  173.95    6.77
   1  -8  -4   22.60    2.87
   2  -8  -4   19.02    3.73
   3  -8  -4   35.03    4.95
   4  -8  -4   25.90    4.16
   5  -8  -4  130.17    7.95
   6  -8  -4    1.12    1.29
   7  -8  -4    2.92    1.53
   8  -8  -4  164.62    9.17
   9  -8  -4   12.29    3.04
  10  -8  -4   23.92    4.09
  11  -8  -4   29.47    5.03
  12  -8  -4   29.03    5.24
  13  -8  -4   49.30    7.14
  14  -8  -4   42.40    6.99
  -6  -7  -4    4.98    2.38
  -5  -7  -4    0.73    1.29
  -4  -7  -4  223.13   12.18
  -3  -7  -4   31.17    3.43
  -2  -7  -4   46.62    4.11
  -1  -7  -4    1.72    0.90
   0  -7  -4   13.77    2.05
   1  -7  -4   12.63    1.94
   2  -7  -4    4.77    1.74
   3  -7  -4   28.97    4.15
   4  -7  -4  156.33    8.26
   5  -7  -4  110.94    6.95
   6  -7  -4   52.89    4.74
   7  -7  -4   18.16    3.46
   8  -7  -4   23.94    2.69
   9  -7  -4   28.82    3.00
  10  -7  -4   56.57    5.37
  11  -7  -4   -0.02    1.30
  12  -7  -4    0.88    1.53
  13  -7  -4  101.74    8.48
  14  -7  -4    4.58    2.82
  -7  -6  -4   95.32    8.39
  -6  -6  -4   15.51    4.07
  -5  -6  -4    7.49    2.62
  -4  -6  -4   28.40    4.77
  -3  -6  -4   23.98    2.81
  -2  -6  -4    0.10    0.56
  -1  -6  -4   57.14    3.42
   0  -6  -4   11.76    1.79
   1  -6  -4  314.01    8.47
   2  -6  -4    2.85    1.26
   3  -6  -4    9.92    2.29
   4  -6  -4    6.93    1.98
   5  -6  -4   12.45    2.66
   6  -6  -4    9.32    1.49
   7  -6  -4   12.27    1.77
   8  -6  -4   18.82    2.26
   9  -6  -4  100.10    6.68
  10  -6  -4   92.18    6.72
  11  -6  -4   32.90    5.19
  12  -6  -4   17.67    4.20
  13  -6  -4   12.66    3.64
  -8  -5  -4   37.84    6.48
  -7  -5  -4    0.78    1.10
  -6  -5  -4   41.38    6.31
  -5  -5  -4   29.06    4.78
  -4  -5  -4   59.97    3.62
  -3  -5  -4  119.50    5.04
  -2  -5  -4  117.98    4.95
  -1  -5  -4   10.47    1.60
   0  -5  -4    0.67    0.50
   1  -5  -4    9.57    1.56
   2  -5  -4   33.32    4.27
   3  -5  -4    8.96    2.19
   4  -5  -4   44.95    2.38
   5  -5  -4    1.04    0.58
   6  -5  -4  313.38    7.89
   7  -5  -4    1.09    0.65
   8  -5  -4   36.36    3.17
   9  -5  -4    7.56    2.38
  10  -5  -4   31.93    5.01
  11  -5  -4    4.99    2.27
  12  -5  -4    0.19    1.17
  13  -5  -4   19.39    4.35
  -9  -4  -4    3.62    1.65
  -8  -4  -4   31.50    3.92
  -7  -4  -4    0.36    1.08
  -6  -4  -4   90.02    7.02
  -5  -4  -4    7.64    1.55
  -4  -4  -4   31.27    2.95
  -3  -4  -4  148.11    5.40
  -2  -4  -4    8.89    1.53
  -1  -4  -4   42.30    2.63
   0  -4  -4   33.19    2.49
   1  -4  -4   61.26    3.07
   2  -4  -4  158.39    7.55
   3  -4  -4  384.20    8.01
   4  -4  -4   38.63    2.22
   5  -4  -4   10.68    1.47
   6  -4  -4    3.06    0.87
   7  -4  -4   33.44    2.90
   8  -4  -4   38.58    4.89
   9  -4  -4   59.89    5.51
  10  -4  -4   28.56    4.77
  11  -4  -4  221.54   11.97
  12  -4  -4   15.88    3.94
  13  -4  -4    7.45    2.93
 -10  -3  -4    0.64    1.26
  -9  -3  -4    5.31    1.84
  -8  -3  -4   19.45    3.04
  -7  -3  -4   66.21    4.34
  -6  -3  -4   93.24    6.97
  -5  -3  -4   37.54    3.27
  -4  -3  -4   31.13    2.91
  -3  -3  -4   13.58    1.80
  -2  -3  -4   10.40    1.51
  -1  -3  -4  383.94    8.72
   0  -3  -4   34.74    2.38
   1  -3  -4    4.15    0.60
   2  -3  -4  173.71    4.46
   3  -3  -4   32.18    2.04
   4  -3  -4   60.62    2.85
   5  -3  -4   34.11    2.22
   6  -3  -4   13.98    1.68
   7  -3  -4  153.63    4.11
   8  -3  -4  118.37    4.71
   9  -3  -4   25.57    2.73
  10  -3  -4   31.03    3.30
  11  -3  -4   13.98    3.58
  12  -3  -4   29.38    5.32
  13  -3  -4    8.49    3.36
 -10  -2  -4  122.69    6.68
  -9  -2  -4   13.49    2.64
  -8  -2  -4   29.14    3.48
  -7  -2  -4   27.38    3.23
  -6  -2  -4   16.84    2.13
  -5  -2  -4    3.38    0.97
  -4  -2  -4    5.88    1.24
  -3  -2  -4   34.94    2.48
  -2  -2  -4  153.39    4.93
  -1  -2  -4  171.61    4.95
   0  -2  -4   38.68    1.49
   1  -2  -4   76.88    2.72
   2  -2  -4   38.95    2.06
   3  -2  -4    4.08    0.91
   4  -2  -4  151.06    4.78
   5  -2  -4   10.09    1.47
   6  -2  -4    8.87    1.44
   7  -2  -4  123.34    4.73
   8  -2  -4    0.29    0.53
   9  -2  -4   40.77    3.56
  10  -2  -4    8.62    1.80
  11  -2  -4   27.74    3.29
  12  -2  -4   77.32    5.19
 -11  -1  -4    0.59    1.42
 -10  -1  -4    6.96    2.02
  -9  -1  -4   15.77    2.65
  -8  -1  -4    6.80    1.46
  -7  -1  -4   26.34    2.98
  -6  -1  -4   11.91    1.69
  -5  -1  -4  313.44    7.93
  -4  -1  -4    9.20    1.43
  -3  -1  -4   65.01    3.03
  -2  -1  -4    3.85    0.90
  -1  -1  -4   71.79    2.86
   0  -1  -4   22.62    1.21
   1  -1  -4   22.30    1.62
   2  -1  -4   73.91    2.94
   3  -1  -4  160.40    4.77
   4  -1  -4  377.43    8.38
   5  -1  -4   44.14    2.52
   6  -1  -4   15.33    1.82
   7  -1  -4   56.54    3.26
   8  -1  -4    4.47    1.19
   9  -1  -4   37.32    3.68
  10  -1  -4    6.95    1.69
  11  -1  -4    2.25    1.20
  12  -1  -4   95.61    5.68
 -12   0  -4    1.33    1.67
 -11   0  -4    5.71    2.53
 -10   0  -4   15.34    3.82
  -9   0  -4   74.01    4.73
  -8   0  -4  175.28    6.66
  -7   0  -4   19.99    1.89
  -6   0  -4   10.97    1.65
  -5   0  -4    0.52    0.48
  -4   0  -4   31.83    2.13
  -3   0  -4   35.66    2.11
  -2   0  -4   40.80    2.13
  -1   0  -4   23.91    1.54
   0   0  -4  896.79   22.90
   1   0  -4   21.53    1.68
   2   0  -4   41.06    2.24
   3   0  -4   33.28    2.05
   4   0  -4   40.52    2.35
   5   0  -4    0.78    0.52
   6   0  -4    5.76    1.85
   7   0  -4   20.37    2.46
   8   0  -4  169.56    6.46
   9   0  -4   69.12    4.27
  10   0  -4   10.65    2.13
  11   0  -4    5.57    1.64
  12   0  -4    0.40    1.68
 -12   1  -4   80.56    9.47
 -11   1  -4    6.10    2.70
 -10   1  -4   13.50    3.51
  -9   1  -4   39.09    5.48
  -8   1  -4    5.62    2.08
  -7   1  -4   55.74    2.56
  -6   1  -4   11.55    1.68
  -5   1  -4   46.68    2.63
  -4   1  -4  388.73    8.46
  -3   1  -4  168.44    4.70
  -2   1  -4   77.42    2.76
  -1   1  -4   23.04    1.32
   0   1  -4   20.98    2.94
   1   1  -4   69.27    3.00
   2   1  -4    4.50    0.97
   3   1  -4   64.79    2.98
   4   1  -4    9.25    1.40
   5   1  -4  324.48    7.78
   6   1  -4   15.35    3.19
   7   1  -4   27.45    3.05
   8   1  -4    8.62    1.81
   9   1  -4   15.31    2.43
  10   1  -4    5.33    1.58
  11   1  -4    2.18    1.32
 -13   2  -4   14.14    4.43
 -12   2  -4   85.74    7.78
 -11   2  -4   29.13    5.27
 -10   2  -4    7.66    2.51
  -9   2  -4   42.65    5.52
  -8   2  -4    1.55    0.78
  -7   2  -4  125.23    4.85
  -6   2  -4    7.36    1.35
  -5   2  -4   13.32    1.72
  -4   2  -4  164.55    4.82
  -3   2  -4    4.43    0.82
  -2   2  -4   37.37    1.78
  -1   2  -4   75.29    4.67
   0   2  -4   43.33    3.46
   1   2  -4  164.99    5.05
   2   2  -4  150.06    4.97
   3   2  -4   34.01    2.45
   4   2  -4    3.17    0.90
   5   2  -4    3.88    1.51
   6   2  -4   20.54    3.76
   7   2  -4   26.25    3.04
   8   2  -4   28.83    3.29
   9   2  -4   12.27    2.39
  10   2  -4  129.89    6.56
 -13   3  -4    3.90    2.44
 -12   3  -4   33.38    5.86
 -11   3  -4   15.45    3.72
 -10   3  -4   37.41    5.40
  -9   3  -4   23.40    4.09
  -8   3  -4  134.37    5.18
  -7   3  -4  159.58    5.50
  -6   3  -4   13.85    1.82
  -5   3  -4   33.45    2.34
  -4   3  -4   68.27    2.83
  -3   3  -4   36.65    3.36
  -2   3  -4  159.87    7.36
  -1   3  -4    3.91    1.43
   0   3  -4   26.42    3.33
   1   3  -4  386.21    8.79
   2   3  -4    9.69    1.53
   3   3  -4   14.56    1.84
   4   3  -4   36.06    2.58
   5   3  -4   25.20    4.00
   6   3  -4   87.77    4.60
   7   3  -4   61.88    4.37
   8   3  -4   24.10    3.20
   9   3  -4    4.90    1.69
  10   3  -4    1.32    1.22
 -13   4  -4   12.69    3.82
 -12   4  -4   20.91    4.58
 -11   4  -4  225.34   12.03
 -10   4  -4   32.04    4.93
  -9   4  -4   54.22    3.39
  -8   4  -4   37.35    3.22
  -7   4  -4   36.14    2.71
  -6   4  -4    2.72    0.85
  -5   4  -4   10.54    1.45
  -4   4  -4   41.87    3.88
  -3   4  -4  371.86   12.92
  -2   4  -4  155.18    7.59
  -1   4  -4   54.02    4.35
   0   4  -4   40.50    3.65
   1   4  -4   48.22    2.80
   2   4  -4    8.12    1.41
   3   4  -4  149.07    5.17
   4   4  -4   24.42    3.93
   5   4  -4    9.54    2.70
   6   4  -4   80.48    4.61
   7   4  -4    1.43    1.00
   8   4  -4   30.43    3.68
   9   4  -4    5.39    1.76
 -14   5  -4   45.00    7.24
 -13   5  -4   35.10    6.17
 -12   5  -4    0.39    1.20
 -11   5  -4   11.53    3.26
 -10   5  -4   23.16    4.15
  -9   5  -4    7.07    1.54
  -8   5  -4   34.05    3.09
  -7   5  -4    4.28    1.10
  -6   5  -4  294.87   11.77
  -5   5  -4    0.64    0.85
  -4   5  -4   47.41    4.21
  -3   5  -4    7.52    2.05
  -2   5  -4   34.53    4.37
  -1   5  -4    6.16    1.93
   0   5  -4    1.16    1.06
   1   5  -4   12.18    1.77
   2   5  -4  121.76    4.89
   3   5  -4  123.39    5.20
   4   5  -4   57.80    5.31
   5   5  -4   28.22    4.68
   6   5  -4   34.65    3.78
   7   5  -4    1.21    1.02
   8   5  -4   42.79    4.54
 -14   6  -4    1.09    2.07
 -13   6  -4    9.05    3.25
 -12   6  -4   21.87    4.44
 -11   6  -4   31.87    5.11
 -10   6  -4   90.02    4.54
  -9   6  -4   87.14    4.45
  -8   6  -4   23.42    3.77
  -7   6  -4   10.19    2.52
  -6   6  -4    7.75    2.28
  -5   6  -4   11.47    2.63
  -4   6  -4    6.68    2.08
  -3   6  -4   12.26    2.80
  -2   6  -4    3.73    1.57
  -1   6  -4  320.29   12.19
   0   6  -4   10.91    2.52
   1   6  -4   60.17    3.47
   2   6  -4    0.12    0.64
   3   6  -4   21.18    3.91
   4   6  -4   24.49    4.47
   5   6  -4    6.67    1.63
   6   6  -4   19.14    2.90
   7   6  -4   99.48    5.86
 -14   7  -4    3.12    2.42
 -13   7  -4   87.87    7.75
 -12   7  -4    2.15    1.75
 -10   7  -4   62.46    5.46
  -9   7  -4   23.05    3.98
  -8   7  -4   28.46    4.40
  -7   7  -4   26.01    4.24
  -6   7  -4   59.03    5.22
  -5   7  -4  124.78    7.73
  -4   7  -4  152.40    8.60
  -3   7  -4   32.70    4.68
  -2   7  -4    3.39    1.76
  -1   7  -4    9.34    2.51
   0   7  -4   18.39    3.39
   1   7  -4    3.67    1.18
   2   7  -4   43.71    5.75
   3   7  -4   25.29    4.50
   4   7  -4  217.56   11.71
   5   7  -4    0.30    0.83
   6   7  -4    5.52    1.74
 -11   8  -4   26.65    4.63
 -10   8  -4   33.10    5.11
  -9   8  -4    8.71    2.50
  -8   8  -4  169.68    9.56
  -7   8  -4    3.43    1.87
  -6   8  -4    1.20    1.15
  -5   8  -4  121.39    8.01
  -4   8  -4   40.25    5.55
  -3   8  -4   29.13    4.71
  -2   8  -4   16.45    3.54
  -1   8  -4   21.83    3.94
   0   8  -4  168.32    9.08
   1   8  -4   39.68    3.66
   2   8  -4    4.68    2.11
   3   8  -4   10.57    3.13
   4   8  -4   18.79    2.91
   5   8  -4   26.83    3.39
 -11   9  -4   13.54    3.43
 -10   9  -4   12.51    3.21
  -9   9  -4   75.04    6.55
  -8   9  -4   40.02    5.92
  -7   9  -4   48.89    6.45
  -6   9  -4   24.11    4.51
  -5   9  -4   58.94    7.27
  -4   9  -4    6.77    2.60
  -3   9  -4   79.11    6.74
  -2   9  -4   29.73    4.90
  -1   9  -4    9.20    2.71
   0   9  -4   68.50    4.31
   1   9  -4    9.99    2.92
   2   9  -4   32.25    5.19
   3   9  -4   27.65    4.89
   4   9  -4   10.24    2.27
 -12  10  -4  125.76    8.83
 -11  10  -4    8.85    3.04
 -10  10  -4   16.08    3.91
  -9  10  -4    9.58    2.91
  -8  10  -4    6.06    2.43
  -7  10  -4   24.88    4.97
  -6  10  -4   26.38    4.81
  -5  10  -4   29.09    5.07
  -4  10  -4   59.24    7.21
  -3  10  -4   65.27    7.62
  -2  10  -4   34.42    5.63
  -1  10  -4   13.13    3.54
   0  10  -4   15.27    2.33
   1  10  -4    2.97    2.13
   2  10  -4   88.01    7.67
   3  10  -4    9.71    2.28
 -12  11  -4    3.80    2.35
 -11  11  -4    5.07    2.35
 -10  11  -4    3.56    2.08
  -9  11  -4   30.35    5.48
  -8  11  -4   21.50    4.72
  -7  11  -4  231.03   12.80
  -6  11  -4    4.82    2.19
  -5  11  -4   28.56    5.21
  -4  11  -4    0.50    1.28
  -3  11  -4   22.80    4.78
  -2  11  -4   10.22    3.10
  -1  11  -4    6.35    1.72
   0  11  -4    8.54    2.91
   1  11  -4   96.63    8.23
   2  11  -4   16.36    2.91
 -12  12  -4    3.87    2.13
 -11  12  -4   76.07    9.11
 -10  12  -4   93.03    8.36
  -9  12  -4   22.90    5.08
  -8  12  -4   17.90    4.44
  -7  12  -4   -0.07    1.52
  -6  12  -4   18.49    4.70
  -5  12  -4   -0.26    1.34
  -4  12  -4   17.05    4.33
  -3  12  -4    5.92    2.72
  -2  12  -4  112.08    8.99
  -1  12  -4    3.11    2.01
   0  12  -4    1.62    1.89
 -10  13  -4    8.57    3.34
  -9  13  -4   10.83    3.53
  -8  13  -4   24.18    5.47
  -7  13  -4    6.01    2.74
  -6  13  -4   87.57   10.10
  -5  13  -4   43.44    6.89
  -4  13  -4    2.93    2.20
  -3  13  -4    0.39    2.02
  -2  13  -4    2.22    2.11
   3 -14  -3   66.75    8.97
   4 -14  -3   58.62    8.20
   5 -14  -3   24.01    5.60
   6 -14  -3   14.17    4.09
   7 -14  -3   33.00    6.16
   8 -14  -3    1.14    1.98
   9 -14  -3   -0.15    1.57
  10 -14  -3    9.95    3.48
  11 -14  -3   84.76    9.75
   1 -13  -3   18.12    4.71
   2 -13  -3    3.28    2.28
   3 -13  -3   25.69    5.42
   4 -13  -3   31.89    5.98
   5 -13  -3    0.99    1.63
   6 -13  -3    2.54    1.96
   7 -13  -3   70.46    8.64
   8 -13  -3   48.70    7.35
   9 -13  -3   71.69    8.71
  10 -13  -3    4.96    2.50
  11 -13  -3    4.20    2.45
  12 -13  -3   24.85    5.24
  -1 -12  -3    9.13    3.03
   0 -12  -3   54.77    5.22
   1 -12  -3   52.19    7.30
   2 -12  -3   18.02    4.29
   3 -12  -3    1.66    1.55
   4 -12  -3  118.60    9.08
   5 -12  -3   -0.02    1.14
   6 -12  -3   22.23    4.66
   7 -12  -3   30.38    5.53
   8 -12  -3    9.59    3.20
   9 -12  -3   33.80    5.79
  10 -12  -3    3.39    2.41
  11 -12  -3   15.10    3.89
  -2 -11  -3    1.80    1.70
  -1 -11  -3   11.39    3.47
   0 -11  -3   40.44    4.32
   1 -11  -3   11.80    2.33
   2 -11  -3   34.88    5.71
   3 -11  -3   28.26    5.16
   4 -11  -3   46.83    6.57
   5 -11  -3   74.02    6.77
   6 -11  -3   30.65    5.22
   7 -11  -3    2.37    1.78
   8 -11  -3   13.71    3.51
   9 -11  -3   91.39    7.47
  10 -11  -3   11.15    3.18
  11 -11  -3   38.83    5.99
  13 -11  -3    5.93    2.65
  14 -11  -3   57.87    7.58
  -4 -10  -3    6.74    2.99
  -3 -10  -3    4.88    2.40
  -2 -10  -3    4.51    2.10
  -1 -10  -3   13.38    2.49
   0 -10  -3  146.01    6.58
   1 -10  -3   28.63    3.45
   2 -10  -3  164.19    9.86
   3 -10  -3    6.22    2.25
   4 -10  -3    9.42    2.91
   5 -10  -3   14.61    3.43
   6 -10  -3   31.33    5.11
   7 -10  -3   13.09    3.23
   8 -10  -3   29.70    4.98
   9 -10  -3    4.92    2.07
  10 -10  -3  158.64    7.39
  11 -10  -3    7.69    1.77
  12 -10  -3   15.41    3.70
  13 -10  -3   26.69    5.14
  14 -10  -3   42.38    6.68
  -5  -9  -3    0.55    1.36
  -4  -9  -3   56.94    7.45
  -3  -9  -3   32.46    5.48
  -2  -9  -3   91.18    5.07
  -1  -9  -3    7.16    1.81
   0  -9  -3    2.62    1.00
   1  -9  -3   53.01    3.92
   2  -9  -3   19.53    2.61
   3  -9  -3    0.45    0.89
   4  -9  -3    4.53    2.08
   5  -9  -3  228.96   11.11
   6  -9  -3   28.17    4.43
   7  -9  -3  139.96    8.47
   8  -9  -3    2.39    0.98
   9  -9  -3    4.69    1.34
  10  -9  -3   21.97    2.85
  11  -9  -3   47.79    6.12
  12  -9  -3    4.99    2.19
  13  -9  -3   33.99    5.89
  14  -9  -3   21.90    4.91
  -6  -8  -3    0.65    1.47
  -5  -8  -3   29.21    5.21
  -4  -8  -3    4.82    2.00
  -3  -8  -3   12.31    3.23
  -2  -8  -3   28.11    3.08
  -1  -8  -3    0.80    0.75
   0  -8  -3    5.42    1.34
   1  -8  -3  187.76    6.70
   2  -8  -3   84.33    4.33
   3  -8  -3  235.31   10.68
   4  -8  -3   85.49    6.18
   5  -8  -3   16.32    3.27
   6  -8  -3    2.73    1.35
   7  -8  -3   27.34    2.76
   8  -8  -3    7.61    1.51
   9  -8  -3   52.66    3.64
  10  -8  -3  159.53    6.23
  11  -8  -3   17.87    3.78
  12  -8  -3  120.43    8.64
  13  -8  -3   -0.93    1.17
  14  -8  -3   16.14    4.24
  -7  -7  -3   24.49    3.73
  -6  -7  -3   75.28    6.14
  -5  -7  -3   20.58    3.09
  -4  -7  -3    2.10    1.56
  -3  -7  -3   14.84    2.27
  -2  -7  -3  122.25    5.29
  -1  -7  -3   20.23    2.44
   0  -7  -3  128.40    5.14
   1  -7  -3   84.59    4.08
   2  -7  -3   12.21    1.82
   3  -7  -3   95.27    6.21
   4  -7  -3   19.56    3.37
   5  -7  -3   12.46    1.56
   6  -7  -3  249.42    6.91
   7  -7  -3  122.73    4.76
   8  -7  -3  182.07    6.14
   9  -7  -3   19.66    2.40
  10  -7  -3    6.60    2.27
  11  -7  -3   44.10    6.12
  12  -7  -3    1.33    1.60
  13  -7  -3    5.23    2.58
  14  -7  -3   26.15    5.25
  -8  -6  -3   15.40    3.06
  -7  -6  -3    1.82    1.11
  -6  -6  -3   17.74    2.81
  -5  -6  -3   23.24    2.84
  -4  -6  -3   29.24    3.25
  -3  -6  -3   25.56    2.76
  -2  -6  -3    7.48    1.45
  -1  -6  -3  260.19    7.31
   0  -6  -3   49.54    2.94
   1  -6  -3   26.90    2.53
   2  -6  -3   47.14    2.79
   3  -6  -3  255.59    9.97
   4  -6  -3   60.62    2.62
   5  -6  -3   54.58    2.70
   6  -6  -3   52.80    2.81
   7  -6  -3   80.21    3.70
   8  -6  -3   86.96    3.96
   9  -6  -3    0.71    0.64
  10  -6  -3    8.17    2.46
  11  -6  -3   81.72    6.70
  12  -6  -3   22.88    4.51
  13  -6  -3   65.79    8.17
  14  -6  -3    5.44    2.88
  -9  -5  -3   19.83    3.32
  -8  -5  -3    0.38    0.79
  -7  -5  -3    0.33    0.65
  -6  -5  -3   81.22    4.80
  -5  -5  -3   12.90    2.19
  -4  -5  -3  244.14    6.05
  -3  -5  -3   14.07    1.89
  -2  -5  -3   10.58    1.61
  -1  -5  -3   56.21    2.97
   0  -5  -3  158.78    5.10
   1  -5  -3   21.92    2.17
   2  -5  -3   88.94    5.12
   3  -5  -3   64.50    2.45
   4  -5  -3  282.96    6.46
   5  -5  -3  157.40    4.73
   6  -5  -3   23.77    2.19
   7  -5  -3    8.96    1.42
   8  -5  -3  216.52    6.45
   9  -5  -3    7.60    2.21
  10  -5  -3   16.62    3.51
  11  -5  -3   26.55    4.46
  12  -5  -3   18.41    3.98
  13  -5  -3   34.53    5.71
  14  -5  -3    3.00    1.94
 -10  -4  -3   39.15    6.59
  -9  -4  -3   29.13    3.83
  -8  -4  -3  141.03    6.82
  -7  -4  -3   50.36    4.62
  -6  -4  -3    6.22    1.53
  -5  -4  -3    5.51    1.39
  -4  -4  -3   88.62    3.24
  -3  -4  -3   22.60    2.28
  -2  -4  -3   58.29    2.93
  -1  -4  -3  272.51    6.89
   0  -4  -3  133.90    4.35
   1  -4  -3  395.45    8.54
   2  -4  -3   11.46    0.92
   3  -4  -3   31.43    1.71
   4  -4  -3  131.52    4.06
   5  -4  -3   17.37    1.14
   6  -4  -3   50.72    1.93
   7  -4  -3  110.73    3.15
   8  -4  -3   81.70    2.85
   9  -4  -3  249.26    7.07
  10  -4  -3   22.25    2.57
  11  -4  -3    2.39    1.07
  12  -4  -3    8.72    3.00
  13  -4  -3   53.01    7.07
  14  -4  -3    5.64    2.64
 -11  -3  -3   56.04    8.05
 -10  -3  -3   25.67    3.76
  -9  -3  -3    1.18    1.07
  -8  -3  -3   21.09    3.00
  -7  -3  -3    7.98    1.80
  -6  -3  -3    0.53    0.63
  -5  -3  -3  215.32    5.32
  -4  -3  -3  109.20    3.48
  -3  -3  -3  251.12    6.58
  -2  -3  -3   60.85    2.85
  -1  -3  -3   32.56    1.97
   0  -3  -3   76.03    3.00
   1  -3  -3   34.59    1.25
   2  -3  -3   92.04    2.84
   3  -3  -3   79.07    2.85
   4  -3  -3  403.45    8.17
   5  -3  -3   78.71    3.11
   6  -3  -3  255.24    5.03
   7  -3  -3   20.10    1.56
   8  -3  -3   15.85    1.94
   9  -3  -3   26.10    2.68
  10  -3  -3   14.03    2.16
  11  -3  -3   13.79    2.28
  12  -3  -3   31.76    3.49
  13  -3  -3    8.80    2.03
 -11  -2  -3    6.58    2.02
 -10  -2  -3   17.77    2.78
  -9  -2  -3   50.79    4.73
  -8  -2  -3  151.18    6.53
  -7  -2  -3   22.96    2.76
  -6  -2  -3   78.31    4.07
  -5  -2  -3    9.37    1.19
  -4  -2  -3   45.32    2.07
  -3  -2  -3   80.88    3.23
  -2  -2  -3   11.61    1.40
  -1  -2  -3   94.67    3.26
   0  -2  -3  323.69    5.69
   1  -2  -3   75.21    1.99
   2  -2  -3  323.46    6.45
   3  -2  -3   33.63    2.47
   4  -2  -3   12.39    1.36
   5  -2  -3   64.19    2.73
   6  -2  -3   61.79    2.22
   7  -2  -3   12.21    1.70
   8  -2  -3    8.93    1.54
   9  -2  -3  125.84    5.13
  10  -2  -3   30.07    3.12
  11  -2  -3   91.16    4.89
  12  -2  -3    3.79    1.38
  13  -2  -3    2.86    1.43
 -12  -1  -3   23.68    3.62
 -11  -1  -3   34.29    4.11
 -10  -1  -3   11.04    2.26
  -9  -1  -3   22.37    2.97
  -8  -1  -3   47.87    4.13
  -7  -1  -3  185.75    6.60
  -6  -1  -3   82.34    2.96
  -5  -1  -3   25.51    1.90
  -4  -1  -3   19.43    1.56
  -3  -1  -3  399.14    8.23
  -2  -1  -3   33.55    1.85
  -1  -1  -3   71.62    2.61
   0  -1  -3   63.10    2.93
   1  -1  -3   61.41    2.22
   2  -1  -3   76.99    2.66
   3  -1  -3   89.48    3.07
   4  -1  -3   30.83    1.81
   5  -1  -3  275.39    6.38
   6  -1  -3   54.45    2.10
   7  -1  -3  258.04    7.18
   8  -1  -3   19.93    2.36
   9  -1  -3    4.10    1.16
  10  -1  -3    4.54    1.37
  11  -1  -3    9.50    2.01
  12  -1  -3   12.27    2.36
  13  -1  -3   11.32    2.41
 -12   0  -3   71.38    9.05
 -11   0  -3   42.82    4.42
 -10   0  -3  140.36    6.48
  -9   0  -3    4.04    1.35
  -8   0  -3    4.39    1.24
  -7   0  -3  126.16    3.81
  -6   0  -3   56.81    2.32
  -5   0  -3  156.15    3.89
  -4   0  -3  132.59    3.34
  -3   0  -3   79.70    2.94
  -2   0  -3  320.95    6.51
  -1   0  -3   59.36    2.71
   0   0  -3    0.75    0.30
   1   0  -3   54.12    2.20
   2   0  -3  319.51    6.61
   3   0  -3   80.72    2.92
   4   0  -3  135.70    4.01
   5   0  -3  159.17    4.52
   6   0  -3   57.36    3.01
   7   0  -3  124.60    4.86
   8   0  -3    7.90    1.59
   9   0  -3    3.72    1.19
  10   0  -3  146.84    6.34
  11   0  -3   32.98    3.51
  12   0  -3   66.78    5.73
 -13   1  -3    9.34    3.29
 -12   1  -3   10.58    3.41
 -11   1  -3   10.61    3.11
 -10   1  -3    4.46    1.40
  -9   1  -3    0.57    0.62
  -8   1  -3   20.13    2.41
  -7   1  -3  255.54    5.57
  -6   1  -3   52.84    2.20
  -5   1  -3  276.89    5.34
  -4   1  -3   28.59    1.78
  -3   1  -3   93.07    3.08
  -2   1  -3   81.43    2.57
  -1   1  -3   63.99    1.95
   0   1  -3   64.01    3.58
   1   1  -3   75.14    2.78
   2   1  -3   35.93    1.90
   3   1  -3  407.62    8.13
   4   1  -3   19.76    1.48
   5   1  -3   27.58    1.80
   6   1  -3   75.86    3.73
   7   1  -3  195.14    6.48
   8   1  -3   46.69    3.92
   9   1  -3   19.37    2.65
  10   1  -3    8.42    1.92
  11   1  -3   40.85    4.37
  12   1  -3   15.70    2.78
 -13   2  -3    5.48    2.82
 -12   2  -3    3.62    2.18
 -11   2  -3  102.67    7.95
 -10   2  -3   28.76    4.87
  -9   2  -3  132.18    5.46
  -8   2  -3    8.30    1.13
  -7   2  -3   12.19    1.30
  -6   2  -3   59.45    2.23
  -5   2  -3   64.01    2.15
  -4   2  -3   13.67    1.46
  -3   2  -3   35.08    1.77
  -2   2  -3  330.31    6.13
  -1   2  -3   72.67    4.11
   0   2  -3  324.32    9.81
   1   2  -3   90.13    4.42
   2   2  -3   10.83    1.33
   3   2  -3   83.12    3.12
   4   2  -3   56.32    2.58
   5   2  -3   10.19    2.32
   6   2  -3   83.74    4.10
   7   2  -3   20.08    2.46
   8   2  -3  151.30    6.22
   9   2  -3   41.61    4.11
  10   2  -3   16.52    2.77
  11   2  -3    8.54    2.11
 -13   3  -3    6.74    2.83
 -12   3  -3   34.81    5.96
 -11   3  -3    7.44    2.61
 -10   3  -3   12.93    3.13
  -9   3  -3   23.79    3.93
  -8   3  -3   14.73    1.89
  -7   3  -3   19.56    1.65
  -6   3  -3  251.82    4.96
  -5   3  -3   81.95    3.22
  -4   3  -3  412.75    8.19
  -3   3  -3   84.23    2.79
  -2   3  -3   97.97    2.56
  -1   3  -3   36.70    2.99
   0   3  -3   80.97    4.46
   1   3  -3   32.06    2.67
   2   3  -3   65.43    2.85
   3   3  -3  258.46    6.31
   4   3  -3  102.20    3.71
   5   3  -3  212.66    9.70
   6   3  -3    0.95    0.67
   7   3  -3    8.73    1.79
   8   3  -3   19.26    2.70
   9   3  -3    1.06    0.84
  10   3  -3   24.56    3.42
 -14   4  -3    8.72    3.28
 -13   4  -3   71.40    8.76
 -12   4  -3    8.08    2.72
 -11   4  -3    2.19    1.50
 -10   4  -3   24.37    4.04
  -9   4  -3  250.12    7.10
  -8   4  -3   88.38    3.88
  -7   4  -3  107.30    4.17
  -6   4  -3   52.03    2.69
  -5   4  -3   19.19    1.87
  -4   4  -3  133.00    3.98
  -3   4  -3   33.30    1.77
  -2   4  -3   13.47    0.91
  -1   4  -3  401.10   12.33
   0   4  -3  132.31    6.08
   1   4  -3  275.99    9.40
   2   4  -3   58.98    2.86
   3   4  -3   19.71    1.98
   4   4  -3   83.35    5.70
   5   4  -3    5.98    1.36
   6   4  -3    3.81    1.21
   7   4  -3   51.87    4.48
   8   4  -3  120.55    5.91
   9   4  -3   32.13    3.86
  10   4  -3   35.22    4.20
 -14   5  -3    0.82    1.65
 -13   5  -3   49.48    6.93
 -12   5  -3   30.93    5.32
 -11   5  -3   25.42    4.48
 -10   5  -3   11.58    2.84
  -9   5  -3    7.13    1.36
  -8   5  -3  209.77    6.42
  -7   5  -3    9.52    1.50
  -6   5  -3   25.53    2.05
  -5   5  -3  166.53    4.91
  -4   5  -3  277.06    6.44
  -3   5  -3   64.60    2.49
  -2   5  -3   84.02    2.79
  -1   5  -3   17.72    2.99
   0   5  -3  146.67    6.93
   1   5  -3   60.08    4.11
   2   5  -3   11.56    1.66
   3   5  -3   14.40    1.78
   4   5  -3  246.48   10.80
   5   5  -3   11.19    1.80
   6   5  -3   77.51    4.48
   7   5  -3   -0.01    0.69
   8   5  -3    0.84    0.90
   9   5  -3   22.79    3.40
 -14   6  -3    1.79    1.76
 -13   6  -3   63.51    7.82
 -12   6  -3   25.72    4.75
 -11   6  -3   80.01    6.51
 -10   6  -3    6.09    1.35
  -9   6  -3    0.48    0.60
  -8   6  -3   89.77    4.07
  -7   6  -3   86.63    3.82
  -6   6  -3   52.66    2.82
  -5   6  -3   56.46    2.80
  -4   6  -3   62.35    2.77
  -3   6  -3  255.06   10.38
  -2   6  -3   42.37    3.92
  -1   6  -3   22.18    3.37
   0   6  -3   56.43    4.25
   1   6  -3  251.73    7.15
   2   6  -3    6.39    1.30
   3   6  -3   25.70    4.01
   4   6  -3   26.17    4.13
   5   6  -3   27.87    3.22
   6   6  -3   19.25    2.87
   7   6  -3    3.84    1.42
   8   6  -3   16.10    2.68
 -14   7  -3   26.84    5.38
 -13   7  -3    3.66    2.00
 -12   7  -3    0.75    1.08
 -11   7  -3   40.47    5.56
 -10   7  -3    5.91    1.42
  -9   7  -3   24.88    2.80
  -8   7  -3  185.06    6.26
  -7   7  -3  131.79    4.92
  -6   7  -3  249.13    7.06
  -5   7  -3   10.69    1.45
  -4   7  -3   19.31    3.54
  -3   7  -3   96.31    6.44
  -2   7  -3    7.47    2.22
  -1   7  -3   79.07    5.68
   0   7  -3  135.15    7.27
   1   7  -3   21.49    2.48
   2   7  -3  131.16    5.20
   3   7  -3   15.81    3.29
   4   7  -3    2.20    0.98
   5   7  -3   24.14    3.08
   6   7  -3   56.21    4.97
   7   7  -3   26.91    3.68
 -14   8  -3   13.41    3.67
 -13   8  -3   -0.28    1.15
 -12   8  -3  134.89    8.88
 -11   8  -3   21.87    2.85
 -10   8  -3  162.61    6.25
  -9   8  -3   46.16    3.46
  -8   8  -3    4.28    1.21
  -7   8  -3   24.80    2.64
  -6   8  -3    8.72    2.54
  -5   8  -3   11.20    2.71
  -4   8  -3   86.24    6.41
  -3   8  -3  210.33   10.38
  -2   8  -3   77.33    6.01
  -1   8  -3  204.73    9.82
   0   8  -3    4.91    1.90
   1   8  -3    4.51    1.21
   2   8  -3   24.42    4.26
   3   8  -3   11.11    2.83
   4   8  -3   13.24    2.40
   5   8  -3   36.11    4.05
   6   8  -3    1.78    1.23
   7   8  -3   93.63   11.37
 -14   9  -3   21.31    4.77
 -13   9  -3   25.04    4.81
 -12   9  -3   -0.04    1.18
 -11   9  -3   39.55    3.90
 -10   9  -3   22.73    2.83
  -9   9  -3    4.95    1.36
  -8   9  -3    2.48    1.56
  -7   9  -3  131.50    8.47
  -6   9  -3   21.03    3.92
  -5   9  -3  243.75   11.77
  -4   9  -3    6.49    2.38
  -3   9  -3    1.44    1.28
  -2   9  -3   18.67    3.72
  -1   9  -3   61.12    5.49
   0   9  -3    5.60    2.17
   1   9  -3    5.76    2.26
   2   9  -3   95.65    7.17
   3   9  -3   34.70    3.76
   4   9  -3   64.52    4.82
   5   9  -3    0.03    0.99
 -14  10  -3   42.87    6.72
 -13  10  -3   32.97    5.57
 -12  10  -3   21.94    3.12
 -11  10  -3   14.25    2.84
 -10  10  -3  132.40    8.91
  -9  10  -3    3.91    1.97
  -8  10  -3   24.72    4.64
  -7  10  -3   12.04    3.15
  -6  10  -3   20.71    4.34
  -5  10  -3   12.77    3.36
  -4  10  -3    6.42    2.45
  -3  10  -3   11.75    3.10
  -2  10  -3  153.95    9.52
  -1  10  -3   27.71    4.66
   0  10  -3  138.21    6.20
   1  10  -3   11.71    3.22
   2  10  -3    5.21    1.62
   3  10  -3   12.16    2.38
   4  10  -3    9.92    2.24
 -12  11  -3   32.81    5.60
 -11  11  -3   45.00    6.20
 -10  11  -3    9.17    3.12
  -9  11  -3   95.46    7.86
  -8  11  -3    9.52    2.96
  -7  11  -3    2.16    1.70
  -6  11  -3   33.72    5.76
  -5  11  -3   79.80    7.16
  -4  11  -3   40.02    5.96
  -3  11  -3   25.07    4.76
  -2  11  -3   44.14    6.38
  -1  11  -3   10.59    3.31
   0  11  -3   34.89    5.41
   1  11  -3   13.71    2.52
   2  11  -3    4.99    1.68
   3  11  -3   81.01    5.77
 -13  12  -3   23.65    4.78
 -12  12  -3   50.20    6.89
 -11  12  -3   11.07    3.62
 -10  12  -3    5.87    2.72
  -9  12  -3   28.51    5.46
  -8  12  -3    7.74    2.94
  -7  12  -3   19.01    4.58
  -6  12  -3   20.23    4.62
  -5  12  -3    0.19    1.25
  -4  12  -3  120.45    9.08
  -3  12  -3    2.32    1.74
  -2  12  -3   15.67    3.92
  -1  12  -3   39.16    5.93
   0  12  -3   64.86    5.91
   1  12  -3   17.15    3.27
 -13  13  -3    0.74    1.81
 -12  13  -3   19.78    4.49
 -11  13  -3    5.84    2.97
 -10  13  -3    8.06    3.38
  -9  13  -3   45.67    6.98
  -8  13  -3   38.92    6.70
  -7  13  -3   66.20    8.48
  -6  13  -3    5.26    2.56
  -5  13  -3    1.09    1.72
  -4  13  -3   31.86    5.81
  -3  13  -3   22.95    4.92
  -2  13  -3    9.46    3.20
  -1  13  -3   18.38    4.24
 -10  14  -3    5.89    2.81
  -9  14  -3   -0.95    1.26
  -8  14  -3    0.32    1.69
  -7  14  -3   33.38    6.31
  -6  14  -3   11.41    3.65
  -5  14  -3   17.83    4.53
  -4  14  -3   46.26    7.34
  -3  14  -3   54.91    8.03
   6 -15  -2   13.10    4.61
   7 -15  -2   49.57    7.75
   8 -15  -2   21.01    5.28
   9 -15  -2   20.10    7.32
   2 -14  -2   16.86    4.47
   3 -14  -2   53.45    7.45
   4 -14  -2    9.45    3.71
   5 -14  -2    3.35    2.06
   6 -14  -2   53.34    7.58
   7 -14  -2    0.92    1.78
   8 -14  -2    7.07    2.84
   9 -14  -2   54.67    7.69
  10 -14  -2    9.43    3.29
  11 -14  -2   44.15    6.84
  12 -14  -2   29.31    5.54
   1 -13  -2   12.30    3.83
   2 -13  -2    9.03    3.21
   3 -13  -2    0.44    1.52
   4 -13  -2   22.58    4.79
   6 -13  -2   72.00    8.67
   7 -13  -2   49.49    6.96
   8 -13  -2   30.44    5.58
   9 -13  -2   30.14    5.51
  10 -13  -2   11.53    3.45
  11 -13  -2   44.36    6.52
  12 -13  -2    0.40    1.45
  -2 -12  -2   25.19    5.24
  -1 -12  -2    0.44    1.49
   0 -12  -2   16.04    2.78
   1 -12  -2    7.93    2.93
   2 -12  -2  120.38    9.01
   3 -12  -2   10.24    3.31
   4 -12  -2   43.04    6.60
   5 -12  -2    4.03    2.06
   6 -12  -2   34.78    5.63
   7 -12  -2    3.21    1.98
   8 -12  -2    1.53    1.62
   9 -12  -2   33.51    5.63
  10 -12  -2   11.23    3.36
  11 -12  -2  114.71    8.52
  12 -12  -2   13.87    2.49
  13 -12  -2    7.11    2.96
  14 -12  -2   18.07    4.52
  -3 -11  -2   53.65    7.52
  -2 -11  -2   42.68    6.61
  -1 -11  -2  102.28    8.13
   0 -11  -2   13.95    2.47
   1 -11  -2    7.33    1.73
   2 -11  -2    2.46    1.75
   3 -11  -2   39.35    5.91
   4 -11  -2   77.43    6.72
   5 -11  -2   62.33    7.43
   6 -11  -2    2.70    1.71
   7 -11  -2  337.81   15.20
   8 -11  -2   21.03    4.43
   9 -11  -2   39.35    3.78
  10 -11  -2    6.26    1.50
  11 -11  -2   14.50    2.39
  12 -11  -2    6.42    2.48
  13 -11  -2    6.60    2.58
  14 -11  -2   41.96    6.53
  -4 -10  -2    4.49    2.40
  -3 -10  -2    4.43    2.24
  -2 -10  -2    8.99    2.82
  -1 -10  -2    9.86    2.05
   0 -10  -2  110.25    5.49
   1 -10  -2   30.95    3.37
   2 -10  -2   44.50    5.98
   3 -10  -2   90.22    6.88
   4 -10  -2  101.91    7.36
   5 -10  -2   35.87    5.23
   6 -10  -2    3.59    1.81
   7 -10  -2   22.98    2.60
   8 -10  -2  112.07    4.98
   9 -10  -2   27.41    3.11
  10 -10  -2  115.43    5.38
  11 -10  -2    3.41    1.31
  12 -10  -2  113.64    8.28
  13 -10  -2    3.28    1.99
  14 -10  -2    5.48    2.46
  15 -10  -2    0.82    1.87
  -6  -9  -2    9.59    3.30
  -5  -9  -2   49.63    4.91
  -4  -9  -2   42.27    4.37
  -3  -9  -2   40.33    5.80
  -2  -9  -2   43.97    5.90
  -1  -9  -2   29.52    3.20
   0  -9  -2   85.18    4.47
   1  -9  -2   10.14    1.83
   2  -9  -2   13.03    2.12
   3  -9  -2  174.61    9.37
   4  -9  -2   26.97    4.12
   5  -9  -2   68.32    5.67
   6  -9  -2   65.99    3.38
   7  -9  -2   79.18    3.88
   8  -9  -2   62.52    3.56
   9  -9  -2   74.68    4.12
  10  -9  -2   31.37    3.35
  11  -9  -2    2.72    1.64
  12  -9  -2    9.38    2.89
  13  -9  -2   24.54    4.81
  14  -9  -2    4.11    2.29
  15  -9  -2   12.21    3.89
  -7  -8  -2   31.16    4.07
  -6  -8  -2    9.10    2.13
  -5  -8  -2   31.87    3.76
  -4  -8  -2    4.54    1.46
  -3  -8  -2   19.22    2.73
  -2  -8  -2  108.95    4.94
  -1  -8  -2   64.53    3.72
   0  -8  -2  114.15    4.97
   1  -8  -2   17.51    2.33
   2  -8  -2   33.83    3.06
   3  -8  -2  112.67    6.88
   4  -8  -2   42.18    2.40
   5  -8  -2   30.92    2.25
   6  -8  -2   31.94    2.47
   7  -8  -2   57.32    3.19
   8  -8  -2  120.24    4.88
   9  -8  -2    8.35    1.51
  10  -8  -2   42.96    3.76
  11  -8  -2   43.79    5.89
  12  -8  -2   38.27    5.70
  13  -8  -2   44.08    6.40
  14  -8  -2   52.15    7.44
  15  -8  -2   43.07    7.00
  -8  -7  -2   41.62    4.70
  -7  -7  -2    3.43    1.54
  -6  -7  -2   51.96    4.84
  -5  -7  -2    1.24    1.01
  -4  -7  -2  339.59   10.12
  -3  -7  -2   28.15    2.45
  -2  -7  -2   71.65    3.13
  -1  -7  -2   61.21    3.34
   0  -7  -2   83.57    3.93
   1  -7  -2   12.20    1.78
   2  -7  -2   32.60    2.85
   3  -7  -2  119.29    3.61
   4  -7  -2  127.49    4.08
   5  -7  -2  261.90    6.65
   6  -7  -2   96.94    3.90
   7  -7  -2   90.02    3.92
   8  -7  -2   12.01    1.84
   9  -7  -2   14.02    2.00
  10  -7  -2   78.29    6.08
  11  -7  -2   67.30    6.02
  12  -7  -2    4.07    1.94
  13  -7  -2   44.92    6.43
  14  -7  -2    1.97    1.71
  15  -7  -2   37.99    6.51
  -9  -6  -2    9.97    2.50
  -8  -6  -2   54.92    5.36
  -7  -6  -2   56.77    5.05
  -6  -6  -2   42.00    4.12
  -5  -6  -2    4.70    1.27
  -4  -6  -2    3.01    1.09
  -3  -6  -2   58.34    2.71
  -2  -6  -2   31.74    2.30
  -1  -6  -2  102.02    4.16
   0  -6  -2   23.28    2.23
   1  -6  -2  343.09    5.56
   2  -6  -2   14.28    0.96
   3  -6  -2  167.52    4.34
   4  -6  -2   15.81    1.60
   5  -6  -2  173.78    5.08
   6  -6  -2   25.35    2.33
   7  -6  -2   11.59    1.64
   8  -6  -2   35.42    2.99
   9  -6  -2  170.01    5.76
  10  -6  -2  102.40    7.09
  11  -6  -2   57.74    5.63
  12  -6  -2   36.79    5.68
  13  -6  -2   60.83    7.50
  14  -6  -2   10.77    3.32
  -9  -5  -2    2.44    1.28
  -8  -5  -2   48.16    4.88
  -7  -5  -2    1.76    1.07
  -6  -5  -2   68.72    4.25
  -5  -5  -2   37.09    3.57
  -4  -5  -2   79.90    3.11
  -3  -5  -2   35.28    2.15
  -2  -5  -2  261.32    5.65
  -1  -5  -2  174.10    5.22
   0  -5  -2    4.96    0.92
   1  -5  -2   60.46    1.51
   2  -5  -2   76.93    2.06
   3  -5  -2   13.69    1.14
   4  -5  -2   51.29    2.32
   5  -5  -2    6.49    0.59
   6  -5  -2  348.44    5.72
   7  -5  -2   31.37    1.57
   8  -5  -2  121.30    3.35
   9  -5  -2   36.81    2.53
  10  -5  -2   31.30    2.92
  11  -5  -2    4.42    1.26
  12  -5  -2    4.66    2.25
  13  -5  -2   29.08    5.21
  14  -5  -2   55.24    7.64
 -10  -4  -2    6.79    2.04
  -9  -4  -2   20.58    3.13
  -8  -4  -2   41.44    4.25
  -7  -4  -2   65.81    4.19
  -6  -4  -2   98.99    4.90
  -5  -4  -2   34.95    3.30
  -4  -4  -2   36.65    2.12
  -3  -4  -2  122.76    3.53
  -2  -4  -2   17.11    1.49
  -1  -4  -2   51.25    2.46
   0  -4  -2  111.95    3.66
   1  -4  -2  288.67    4.36
   2  -4  -2  262.19    5.17
   3  -4  -2  141.95    4.85
   4  -4  -2  118.33    2.38
   5  -4  -2   60.84    1.81
   6  -4  -2   15.20    1.25
   7  -4  -2  112.10    3.04
   8  -4  -2   41.49    1.87
   9  -4  -2   84.11    3.76
  10  -4  -2    1.83    0.87
  11  -4  -2  343.69    9.51
  12  -4  -2    2.70    1.13
  13  -4  -2   37.14    3.86
  14  -4  -2    4.95    1.70
 -11  -3  -2   61.19    5.79
 -10  -3  -2    1.19    1.00
  -9  -3  -2   10.17    2.15
  -8  -3  -2   30.77    3.41
  -7  -3  -2   74.88    4.29
  -6  -3  -2  175.70    6.33
  -5  -3  -2  118.41    3.47
  -4  -3  -2  113.01    3.26
  -3  -3  -2  164.91    3.92
  -2  -3  -2   14.04    1.24
  -1  -3  -2  140.23    3.97
   0  -3  -2   38.74    1.88
   1  -3  -2   93.12    1.95
   2  -3  -2  283.03    5.36
   3  -3  -2   41.84    1.80
   4  -3  -2  296.61    4.71
   5  -3  -2   77.61    2.16
   6  -3  -2  168.03    3.64
   7  -3  -2  127.48    3.25
   8  -3  -2   35.39    2.50
   9  -3  -2   60.00    3.29
  10  -3  -2   26.21    2.77
  11  -3  -2   22.20    2.69
  12  -3  -2   36.72    3.83
  13  -3  -2   11.56    2.27
  14  -3  -2   54.61    5.06
 -12  -2  -2   11.63    3.59
 -11  -2  -2    6.40    1.87
 -10  -2  -2  120.18    6.27
  -9  -2  -2    2.46    1.18
  -8  -2  -2   41.23    3.89
  -7  -2  -2   11.83    1.95
  -6  -2  -2   27.56    2.68
  -5  -2  -2   29.62    1.71
  -4  -2  -2   13.48    1.23
  -3  -2  -2   75.23    2.32
  -2  -2  -2  255.01    4.66
  -1  -2  -2  273.30    5.70
   0  -2  -2  415.04    7.50
   1  -2  -2  205.87    3.31
   2  -2  -2  403.57    7.12
   3  -2  -2   94.52    2.82
   4  -2  -2  264.26    5.56
   5  -2  -2   15.20    1.15
   6  -2  -2   17.61    1.16
   7  -2  -2  256.98    6.70
   8  -2  -2   32.72    2.83
   9  -2  -2   68.05    3.66
  10  -2  -2  110.82    4.99
  11  -2  -2   41.97    3.76
  12  -2  -2    7.16    1.75
  13  -2  -2   40.04    4.24
  14  -2  -2   24.63    3.99
 -12  -1  -2   10.13    2.38
 -11  -1  -2    6.89    1.83
 -10  -1  -2    5.79    1.64
  -9  -1  -2   33.92    3.56
  -8  -1  -2   11.94    2.06
  -7  -1  -2   12.64    1.94
  -6  -1  -2   10.48    1.14
  -5  -1  -2  335.55    6.06
  -4  -1  -2   53.40    1.91
  -3  -1  -2  284.83    4.97
  -2  -1  -2   90.38    2.28
  -1  -1  -2  199.98    4.33
   0  -1  -2   57.39    1.86
   1  -1  -2   54.12    1.74
   2  -1  -2  209.60    4.30
   3  -1  -2  280.08    5.55
   4  -1  -2  140.30    3.60
   5  -1  -2   53.74    1.76
   6  -1  -2  173.91    3.68
   7  -1  -2   94.54    3.90
   8  -1  -2   66.23    3.41
   9  -1  -2   56.02    3.43
  10  -1  -2   21.84    2.76
  11  -1  -2    6.01    1.55
  12  -1  -2  103.87    5.65
  13  -1  -2    1.75    1.10
 -13   0  -2    0.62    1.23
 -12   0  -2   12.52    2.59
 -11   0  -2   16.61    2.78
 -10   0  -2  118.84    5.76
  -9   0  -2   70.28    4.17
  -8   0  -2  119.06    5.12
  -7   0  -2   91.36    4.14
  -6   0  -2   23.25    1.45
  -5   0  -2    5.06    0.74
  -4   0  -2  116.76    2.82
  -3   0  -2   42.27    1.48
  -2   0  -2  405.13    7.28
  -1   0  -2   53.30    2.26
   0   0  -2  804.42   11.62
   1   0  -2   55.64    1.85
   2   0  -2  415.07    7.25
   3   0  -2   41.60    1.70
   4   0  -2  115.33    3.15
   5   0  -2    4.88    0.64
   6   0  -2   21.09    2.13
   7   0  -2   87.78    3.91
   8   0  -2  110.02    4.70
   9   0  -2   79.36    4.21
  10   0  -2  110.26    5.34
  11   0  -2   15.79    2.46
  12   0  -2   10.87    2.16
  13   0  -2    2.53    1.21
 -13   1  -2    1.98    1.29
 -12   1  -2  111.50    5.97
 -11   1  -2    5.30    1.54
 -10   1  -2   21.40    2.82
  -9   1  -2   64.02    3.79
  -8   1  -2   60.35    3.43
  -7   1  -2  100.63    2.94
  -6   1  -2  170.75    3.93
  -5   1  -2   50.29    1.83
  -4   1  -2  142.57    3.06
  -3   1  -2  276.03    4.42
  -2   1  -2  202.05    4.22
  -1   1  -2   55.13    1.58
   0   1  -2   58.58    2.84
   1   1  -2  205.51    6.04
   2   1  -2   91.35    2.71
   3   1  -2  287.17    5.78
   4   1  -2   61.21    2.15
   5   1  -2  342.61    5.66
   6   1  -2    9.79    1.52
   7   1  -2   14.12    1.98
   8   1  -2   12.49    2.02
   9   1  -2   22.44    2.74
  10   1  -2    6.10    1.61
  11   1  -2    6.29    1.74
  12   1  -2   11.07    1.99
 -13   2  -2   39.10    6.27
 -12   2  -2   12.20    2.34
 -11   2  -2   46.78    4.22
 -10   2  -2  103.00    5.01
  -9   2  -2   67.70    3.74
  -8   2  -2   28.87    2.70
  -7   2  -2  259.04    5.20
  -6   2  -2   21.36    1.51
  -5   2  -2   15.77    1.22
  -4   2  -2  256.12    4.36
  -3   2  -2   94.42    2.80
  -2   2  -2  419.29    9.43
  -1   2  -2  206.89    3.69
   0   2  -2  409.37   10.58
   1   2  -2  274.51    7.80
   2   2  -2  261.94    5.55
   3   2  -2   77.21    2.59
   4   2  -2   13.73    1.10
   5   2  -2   30.27    3.79
   6   2  -2   30.85    2.85
   7   2  -2    7.84    1.55
   8   2  -2   36.76    3.50
   9   2  -2    2.33    1.05
  10   2  -2  123.85    6.06
  11   2  -2    6.40    1.89
  12   2  -2   16.04    3.17
 -14   3  -2   49.53    7.55
 -13   3  -2   15.73    4.13
 -12   3  -2   26.31    5.07
 -11   3  -2   19.44    2.62
 -10   3  -2   30.94    3.17
  -9   3  -2   63.65    3.48
  -8   3  -2   32.38    1.78
  -7   3  -2  127.86    3.36
  -6   3  -2  164.54    3.65
  -5   3  -2   77.44    2.14
  -4   3  -2  290.08    4.51
  -3   3  -2   40.24    1.74
  -2   3  -2  275.97    5.30
  -1   3  -2   92.88    2.29
   0   3  -2   42.06    1.35
   1   3  -2  140.67    5.35
   2   3  -2   14.84    1.47
   3   3  -2  168.33    4.38
   4   3  -2  104.32    3.35
   5   3  -2  112.41    4.49
   6   3  -2  170.04    6.02
   7   3  -2   77.94    4.14
   8   3  -2   38.72    3.72
   9   3  -2    8.40    1.79
  10   3  -2    2.90    1.41
  11   3  -2   59.79    4.54
 -14   4  -2    6.13    2.64
 -13   4  -2   41.29    6.51
 -12   4  -2    3.63    1.97
 -11   4  -2  353.25   14.72
 -10   4  -2    1.63    1.27
  -9   4  -2   83.85    2.93
  -8   4  -2   39.74    1.89
  -7   4  -2  114.05    3.10
  -6   4  -2   15.81    1.21
  -5   4  -2   59.96    1.64
  -4   4  -2  107.51    3.48
  -3   4  -2  144.39    3.83
  -2   4  -2  261.48    5.35
  -1   4  -2  295.85    5.66
   0   4  -2  115.87    3.04
   1   4  -2   53.05    3.36
   2   4  -2   19.37    1.77
   3   4  -2  121.25    3.88
   4   4  -2   41.45    2.60
   5   4  -2   34.85    3.11
   6   4  -2  109.19    4.90
   7   4  -2   72.00    4.10
   8   4  -2   38.57    3.92
   9   4  -2   25.00    3.33
  10   4  -2    7.05    1.55
 -14   5  -2   63.22    8.32
 -13   5  -2   26.30    5.16
 -12   5  -2    2.42    1.63
 -11   5  -2    4.31    1.93
 -10   5  -2   28.80    4.36
  -9   5  -2   35.85    2.60
  -8   5  -2  117.52    4.39
  -7   5  -2   27.82    2.44
  -6   5  -2  335.64    7.80
  -5   5  -2    6.59    1.07
  -4   5  -2   53.31    2.43
  -3   5  -2   15.79    1.51
  -2   5  -2   73.43    2.62
  -1   5  -2   58.95    2.25
   0   5  -2    6.01    0.86
   1   5  -2  174.98    7.07
   2   5  -2  255.43    6.52
   3   5  -2   37.37    2.19
   4   5  -2   73.98    3.77
   5   5  -2   32.55    3.19
   6   5  -2   66.17    3.97
   7   5  -2    3.45    1.23
   8   5  -2   49.65    4.67
   9   5  -2    3.38    1.50
  10   5  -2    1.55    1.78
 -15   6  -2   16.60    4.57
 -14   6  -2    9.88    3.25
 -13   6  -2   57.22    7.26
 -12   6  -2   48.16    6.33
 -11   6  -2   63.52    5.73
 -10   6  -2  106.95    4.55
  -9   6  -2  172.77    5.78
  -8   6  -2   36.69    2.67
  -7   6  -2   12.85    1.71
  -6   6  -2   19.66    2.03
  -5   6  -2  173.38    5.20
  -4   6  -2   20.10    1.90
  -3   6  -2  168.01    3.12
  -2   6  -2   13.77    0.95
  -1   6  -2  342.82    7.32
   0   6  -2   24.40    1.72
   1   6  -2  104.55    5.56
   2   6  -2   29.73    2.31
   3   6  -2   50.09    4.37
   4   6  -2    2.36    0.86
   5   6  -2    3.34    1.23
   6   6  -2   34.90    3.65
   7   6  -2   53.24    4.72
   8   6  -2   60.38    5.34
   9   6  -2   13.97    3.01
 -15   7  -2   29.49    6.05
 -14   7  -2    3.95    2.25
 -13   7  -2   58.17    7.32
 -12   7  -2    3.86    1.98
 -11   7  -2   67.15    5.85
 -10   7  -2   87.74    4.21
  -9   7  -2   14.07    1.99
  -8   7  -2   16.09    2.07
  -7   7  -2   95.53    4.09
  -6   7  -2   95.17    4.02
  -5   7  -2  255.55    6.89
  -4   7  -2  121.26    4.35
  -3   7  -2  112.99    4.03
  -2   7  -2   29.27    1.46
  -1   7  -2   12.91    1.56
   0   7  -2   89.34    3.54
   1   7  -2   63.73    3.29
   2   7  -2   78.87    3.73
   3   7  -2   26.65    2.81
   4   7  -2  342.26    9.63
   5   7  -2    3.69    1.24
   6   7  -2   56.25    4.82
   7   7  -2    2.06    1.04
   8   7  -2   46.46    3.95
 -15   8  -2   55.06    7.99
 -14   8  -2   50.79    7.07
 -13   8  -2   37.96    5.79
 -12   8  -2   39.62    5.89
 -11   8  -2   35.14    3.41
 -10   8  -2   40.44    3.60
  -9   8  -2    9.33    1.69
  -8   8  -2  109.64    4.79
  -7   8  -2   60.98    3.40
  -6   8  -2   35.48    2.71
  -5   8  -2   31.79    2.46
  -4   8  -2   42.78    2.74
  -3   8  -2  117.15    4.40
  -2   8  -2   33.50    2.36
  -1   8  -2   12.87    1.73
   0   8  -2  114.86    4.76
   1   8  -2   62.93    3.46
   2   8  -2  113.49    7.07
   3   8  -2   23.25    2.79
   4   8  -2    0.56    0.92
   5   8  -2   32.59    3.61
   6   8  -2   14.32    2.22
   7   8  -2   27.00    3.76
 -15   9  -2   15.15    4.23
 -14   9  -2    5.54    2.47
 -13   9  -2   24.53    4.82
 -12   9  -2   14.24    3.69
 -11   9  -2    1.25    0.85
 -10   9  -2   33.57    3.44
  -9   9  -2   85.04    4.41
  -8   9  -2   61.86    4.02
  -7   9  -2   72.38    3.90
  -6   9  -2   64.16    3.53
  -5   9  -2   84.76    4.05
  -4   9  -2   34.09    2.62
  -3   9  -2  173.64    5.84
  -2   9  -2   15.77    2.05
  -1   9  -2    6.86    2.18
   0   9  -2   88.18    6.32
   1   9  -2   22.40    2.63
   2   9  -2   49.41    3.69
   3   9  -2   34.49    3.62
   4   9  -2   34.34    3.78
   5   9  -2   54.21    4.59
   6   9  -2   14.28    2.79
 -15  10  -2    2.74    2.08
 -14  10  -2    4.87    2.49
 -13  10  -2    1.83    1.76
 -12  10  -2  120.08    5.85
 -11  10  -2    4.46    1.46
 -10  10  -2  119.15    5.56
  -9  10  -2   24.08    2.95
  -8  10  -2  112.92    5.22
  -7  10  -2   30.25    3.14
  -6  10  -2    3.41    1.09
  -5  10  -2   43.43    3.21
  -4  10  -2  100.09    4.77
  -3  10  -2   77.00    6.39
  -2  10  -2   43.66    5.98
  -1  10  -2   26.96    4.55
   0  10  -2  110.92    5.25
   1  10  -2    3.13    1.21
   2  10  -2    8.56    1.90
   3  10  -2   11.17    1.83
   4  10  -2    5.28    1.72
   5  10  -2   66.39    5.99
 -14  11  -2   53.75    7.39
 -13  11  -2    6.45    2.61
 -12  11  -2   12.31    2.14
 -11  11  -2   14.51    2.50
 -10  11  -2    6.34    1.66
  -9  11  -2   50.46    4.51
  -8  11  -2   22.34    2.85
  -7  11  -2  347.34    9.99
  -6  11  -2    3.23    1.46
  -5  11  -2   63.95    7.53
  -4  11  -2   68.67    6.37
  -3  11  -2   36.02    5.66
  -2  11  -2    0.56    1.24
  -1  11  -2    6.18    2.40
   0  11  -2   16.95    2.48
   1  11  -2  110.13    5.45
   2  11  -2   44.28    6.12
   3  11  -2   55.59    5.19
 -14  12  -2   12.91    3.81
 -13  12  -2    8.30    2.19
 -12  12  -2   13.57    2.61
 -11  12  -2   96.87    5.54
 -10  12  -2    7.77    1.88
  -9  12  -2   29.51    3.47
  -8  12  -2    0.90    1.46
  -7  12  -2    2.60    1.85
  -6  12  -2   32.87    5.62
  -5  12  -2    1.73    1.72
  -4  12  -2   27.76    5.01
  -3  12  -2    7.54    2.66
  -2  12  -2  113.50    8.55
  -1  12  -2    4.36    1.52
 -13  13  -2    1.24    1.14
 -12  13  -2    1.02    1.70
 -11  13  -2   37.22    6.26
 -10  13  -2   10.84    3.54
  -9  13  -2   34.75    6.04
  -8  13  -2   26.13    5.25
  -7  13  -2   57.13    7.66
  -6  13  -2   64.22    8.23
  -5  13  -2   42.82    6.55
  -4  13  -2   26.92    5.46
  -3  13  -2    3.32    2.06
  -2  13  -2    4.38    2.29
 -12  14  -2   15.95    4.17
 -10  14  -2    7.52    3.22
  -9  14  -2   56.39    8.08
  -8  14  -2   12.31    3.78
  -7  14  -2    5.14    2.54
  -6  14  -2   64.68    8.72
  -5  14  -2    2.84    2.08
  -4  14  -2    3.04    2.19
  -3  14  -2   52.42    7.59
  -8  15  -2   32.43    6.18
  -7  15  -2   35.79    6.47
  -6  15  -2   13.05    4.06
  -5  15  -2    0.88    2.27
   4 -15  -1    0.65    1.90
   5 -15  -1    2.35    2.30
   6 -15  -1   84.16    9.76
   7 -15  -1    7.63    3.27
   8 -15  -1   78.03    9.61
   9 -15  -1    1.32    1.75
  10 -15  -1    6.90    3.02
  11 -15  -1   12.73    4.15
   2 -14  -1   47.97    7.03
   3 -14  -1   69.71    8.74
   4 -14  -1   61.52    7.96
   5 -14  -1   19.05    4.45
   6 -14  -1    2.13    1.92
   7 -14  -1   24.01    5.20
   8 -14  -1    1.74    2.03
   9 -14  -1    3.75    2.28
  10 -14  -1   11.08    3.48
  11 -14  -1   69.19    8.37
  12 -14  -1    2.28    2.19
  13 -14  -1   74.95    6.43
  -1 -13  -1   55.54    7.53
   1 -13  -1   19.59    4.63
   2 -13  -1    7.19    2.78
   3 -13  -1   20.35    4.44
   4 -13  -1   25.05    4.98
   5 -13  -1   -0.51    1.10
   6 -13  -1    1.07    1.45
   7 -13  -1   64.99    8.01
   8 -13  -1   28.72    5.32
   9 -13  -1   60.33    7.61
  10 -13  -1    2.24    1.35
  11 -13  -1    6.44    1.75
  12 -13  -1   23.47    3.30
  13 -13  -1    6.66    2.76
  14 -13  -1   -0.14    1.38
  -2 -12  -1    2.08    1.77
  -1 -12  -1   31.25    5.27
   0 -12  -1   77.13    6.84
   1 -12  -1   58.19    7.04
   2 -12  -1    0.81    1.30
   3 -12  -1    0.87    1.24
   4 -12  -1  108.29    8.31
   5 -12  -1   13.52    3.55
   6 -12  -1   22.87    4.46
   7 -12  -1   16.78    4.02
   8 -12  -1    2.71    1.22
   9 -12  -1   37.89    3.74
  10 -12  -1    1.36    1.05
  11 -12  -1    3.36    1.36
  12 -12  -1   77.17    4.80
  13 -12  -1   18.81    4.21
  14 -12  -1   54.58    7.46
  -4 -11  -1    7.56    3.07
  -3 -11  -1   83.72    7.37
  -2 -11  -1    8.09    2.66
  -1 -11  -1    1.36    1.43
   0 -11  -1   33.64    3.71
   1 -11  -1   42.64    4.13
   2 -11  -1   66.06    6.11
   3 -11  -1   45.89    6.01
   4 -11  -1   65.01    7.46
   5 -11  -1  129.85    8.70
   6 -11  -1   20.87    2.59
   7 -11  -1    4.83    1.22
   8 -11  -1    3.86    1.30
   9 -11  -1  132.92    5.78
  10 -11  -1   10.70    2.00
  11 -11  -1   41.16    4.12
  12 -11  -1   58.89    5.60
  13 -11  -1    6.03    2.61
  14 -11  -1   73.84    8.94
  15 -11  -1    0.71    1.76
  -5 -10  -1    6.65    2.14
  -4 -10  -1   12.35    2.47
  -3 -10  -1    3.31    1.30
  -2 -10  -1    0.96    1.29
  -1 -10  -1   12.73    2.21
   0 -10  -1  146.28    6.14
   1 -10  -1    9.72    1.74
   2 -10  -1  190.99   10.26
   3 -10  -1    6.42    2.27
   4 -10  -1    7.47    1.56
   5 -10  -1   30.96    2.94
   6 -10  -1   11.21    1.76
   7 -10  -1    4.00    1.15
   8 -10  -1   25.77    2.86
   9 -10  -1    3.29    1.14
  10 -10  -1  137.81    5.90
  11 -10  -1   30.93    3.39
  12 -10  -1    4.22    2.08
  13 -10  -1   21.99    4.57
  14 -10  -1   69.61    8.53
  15 -10  -1    4.10    2.39
  -6  -9  -1    2.07    1.25
  -5  -9  -1    4.63    1.50
  -4  -9  -1   70.55    4.57
  -3  -9  -1   29.11    3.30
  -2  -9  -1  118.06    5.47
  -1  -9  -1    0.59    0.58
   0  -9  -1    5.85    1.40
   1  -9  -1   33.75    3.17
   2  -9  -1   25.92    2.82
   3  -9  -1    1.25    0.65
   4  -9  -1    1.37    0.67
   5  -9  -1  227.65    6.75
   6  -9  -1   18.13    2.16
   7  -9  -1  265.92    7.59
   8  -9  -1   12.95    2.04
   9  -9  -1    7.31    1.53
  10  -9  -1   12.97    2.13
  11  -9  -1   60.54    3.83
  12  -9  -1    0.59    1.32
  13  -9  -1   24.05    4.59
  14  -9  -1   21.75    4.71
  15  -9  -1   89.13    8.38
  -7  -8  -1   78.35    5.82
  -6  -8  -1    3.97    1.59
  -5  -8  -1   32.61    3.75
  -4  -8  -1    0.73    0.77
  -3  -8  -1    4.87    1.35
  -2  -8  -1   31.16    2.38
  -1  -8  -1   14.01    1.67
   0  -8  -1    8.35    1.59
   1  -8  -1  185.62    4.51
   2  -8  -1   76.30    2.69
   3  -8  -1  213.02    5.85
   4  -8  -1   85.75    3.55
   5  -8  -1    2.77    0.83
   6  -8  -1    0.00    0.40
   7  -8  -1   24.17    2.50
   8  -8  -1    6.83    1.44
   9  -8  -1   32.95    3.15
  10  -8  -1  196.44    6.74
  11  -8  -1   55.28    6.55
  12  -8  -1  105.99    7.99
  13  -8  -1    0.85    1.44
  14  -8  -1    2.57    1.73
  15  -8  -1    5.14    2.42
  -8  -7  -1    5.20    1.90
  -7  -7  -1   22.78    3.33
  -6  -7  -1   58.72    5.02
  -5  -7  -1   15.82    2.49
  -4  -7  -1    3.47    1.20
  -3  -7  -1    4.61    1.13
  -2  -7  -1  252.49    6.00
  -1  -7  -1   30.00    2.18
   0  -7  -1  160.61    3.97
   1  -7  -1  122.51    3.30
   2  -7  -1   23.12    1.49
   3  -7  -1  220.56    5.68
   4  -7  -1    0.93    0.56
   5  -7  -1   11.78    1.60
   6  -7  -1  285.23    7.25
   7  -7  -1  159.31    5.44
   8  -7  -1  182.39    6.00
   9  -7  -1   28.56    2.81
  10  -7  -1    7.34    1.50
  11  -7  -1   72.60    6.25
  12  -7  -1    7.97    2.58
  13  -7  -1    2.70    1.89
  14  -7  -1   19.11    4.43
  15  -7  -1   65.90    8.61
  -9  -6  -1   90.72    6.30
  -8  -6  -1    2.60    1.16
  -7  -6  -1    2.62    1.20
  -6  -6  -1   32.48    3.59
  -5  -6  -1   12.14    2.00
  -4  -6  -1    9.59    1.75
  -3  -6  -1   16.69    1.64
  -2  -6  -1    0.05    0.32
  -1  -6  -1  282.48    5.85
   0  -6  -1   46.44    1.61
   1  -6  -1   12.83    1.13
   2  -6  -1  190.95    4.05
   3  -6  -1  337.96    7.22
   4  -6  -1   40.53    2.19
   5  -6  -1   28.82    1.07
   6  -6  -1   46.15    1.62
   7  -6  -1  123.66    3.20
   8  -6  -1   77.28    2.59
   9  -6  -1    1.25    0.48
  10  -6  -1    5.10    1.10
  11  -6  -1  132.72    5.32
  12  -6  -1   36.07    3.52
  13  -6  -1   69.65    6.80
  14  -6  -1    2.85    1.87
  15  -6  -1    0.98    1.94
 -10  -5  -1    2.78    1.52
  -9  -5  -1   24.22    3.45
  -8  -5  -1    0.25    0.77
  -7  -5  -1   17.27    2.73
  -6  -5  -1  120.77    5.63
  -5  -5  -1   26.32    2.85
  -4  -5  -1  219.60    6.95
  -3  -5  -1    2.69    0.61
  -2  -5  -1   14.31    1.41
  -1  -5  -1   28.02    1.58
   0  -5  -1  214.46    3.61
   1  -5  -1   23.28    1.16
   2  -5  -1   65.66    2.31
   3  -5  -1  110.75    3.38
   4  -5  -1  412.13    5.79
   5  -5  -1  214.79    3.88
   6  -5  -1   11.13    1.01
   7  -5  -1   18.73    1.44
   8  -5  -1  220.32    4.74
   9  -5  -1    1.35    0.64
  10  -5  -1   28.38    2.76
  11  -5  -1   19.54    2.47
  12  -5  -1   17.15    2.43
  13  -5  -1   25.72    3.09
  14  -5  -1    2.40    1.22
  15  -5  -1    6.66    2.83
 -11  -4  -1    1.35    2.13
 -10  -4  -1   77.61    5.58
  -9  -4  -1   22.45    3.18
  -8  -4  -1  101.08    5.45
  -7  -4  -1   61.90    3.97
  -6  -4  -1    6.00    1.47
  -5  -4  -1    1.52    0.77
  -4  -4  -1   84.57    2.83
  -3  -4  -1    2.22    0.55
  -2  -4  -1   38.87    1.72
  -1  -4  -1  408.31    6.65
   0  -4  -1  166.78    2.83
   1  -4  -1  462.04    6.45
   2  -4  -1   18.02    1.15
   3  -4  -1   13.08    1.25
   4  -4  -1  169.77    3.09
   5  -4  -1   23.61    1.14
   6  -4  -1  196.68    3.97
   7  -4  -1  231.82    4.65
   8  -4  -1   86.94    2.72
   9  -4  -1  218.45    6.58
  10  -4  -1   12.02    1.83
  11  -4  -1    3.93    1.17
  12  -4  -1    1.03    0.89
  13  -4  -1   64.80    4.61
  14  -4  -1   15.79    2.71
  15  -4  -1    9.24    2.95
 -11  -3  -1   65.18    5.85
 -10  -3  -1   22.73    3.31
  -9  -3  -1    3.74    1.39
  -8  -3  -1   52.50    4.49
  -7  -3  -1    5.58    1.37
  -6  -3  -1    0.62    0.54
  -5  -3  -1  212.43    6.47
  -4  -3  -1  229.70    4.65
  -3  -3  -1  342.10    5.89
  -2  -3  -1  107.80    2.74
  -1  -3  -1   14.17    1.06
   0  -3  -1  202.37    2.85
   1  -3  -1   20.45    0.81
   2  -3  -1   42.73    1.61
   3  -3  -1  202.48    3.15
   4  -3  -1  459.75    6.41
   5  -3  -1   64.88    1.90
   6  -3  -1  345.96    5.72
   7  -3  -1    3.39    0.61
   8  -3  -1    1.39    0.62
   9  -3  -1   22.36    2.41
  10  -3  -1    5.60    1.34
  11  -3  -1    1.60    0.79
  12  -3  -1   35.87    3.02
  13  -3  -1    2.17    1.16
  14  -3  -1   78.86    5.45
 -12  -2  -1   56.21    5.62
 -11  -2  -1   11.54    2.49
 -10  -2  -1    0.20    0.80
  -9  -2  -1   61.96    4.45
  -8  -2  -1  208.45    7.29
  -7  -2  -1   26.13    2.87
  -6  -2  -1   72.10    3.62
  -5  -2  -1   20.66    1.25
  -4  -2  -1  197.04    3.94
  -3  -2  -1   61.90    1.89
  -2  -2  -1   17.06    1.00
  -1  -2  -1   40.34    1.34
   0  -2  -1  505.62    8.28
   1  -2  -1  145.70    2.39
   2  -2  -1  509.76    6.33
   3  -2  -1   21.65    0.86
   4  -2  -1   16.77    0.89
   5  -2  -1  110.91    2.56
   6  -2  -1   40.69    1.54
   7  -2  -1   10.06    1.42
   8  -2  -1    0.84    0.55
   9  -2  -1  236.71    7.20
  10  -2  -1   31.09    3.13
  11  -2  -1  115.12    5.39
  12  -2  -1    1.55    0.78
  13  -2  -1    7.67    1.58
  14  -2  -1    2.11    1.35
 -13  -1  -1   -1.27    1.51
 -12  -1  -1   14.43    2.64
 -11  -1  -1   54.79    4.91
 -10  -1  -1   35.46    3.90
  -9  -1  -1    8.17    1.71
  -8  -1  -1   27.14    2.95
  -7  -1  -1  178.83    6.16
  -6  -1  -1  116.12    4.53
  -5  -1  -1   10.64    0.81
  -4  -1  -1   25.14    1.17
  -3  -1  -1  462.37    6.52
  -2  -1  -1   20.03    0.89
  -1  -1  -1  141.34    2.49
   0  -1  -1   44.27    1.85
   1  -1  -1   45.45    1.69
   2  -1  -1  150.80    3.01
   3  -1  -1   41.27    1.22
   4  -1  -1   13.52    0.78
   5  -1  -1  416.70    7.00
   6  -1  -1   28.04    2.02
   7  -1  -1  284.30    7.24
   8  -1  -1   26.79    2.64
   9  -1  -1   13.82    2.04
  10  -1  -1    1.22    0.81
  11  -1  -1   12.34    1.82
  12  -1  -1    1.35    0.90
  13  -1  -1   32.17    3.13
  14  -1  -1   67.21   10.21
 -13   0  -1    8.42    2.29
 -12   0  -1   72.48    5.28
 -11   0  -1   38.26    3.96
 -10   0  -1  132.97    6.06
  -9   0  -1    7.13    1.61
  -8   0  -1    4.80    1.24
  -7   0  -1  164.31    5.56
  -6   0  -1   47.75    1.60
  -5   0  -1  215.59    3.98
  -4   0  -1  170.63    3.24
  -3   0  -1  202.58    3.39
  -2   0  -1  508.71    6.56
  -1   0  -1   43.47    1.03
   0   0  -1    0.34    0.13
   1   0  -1   42.69    1.26
   2   0  -1  524.81    7.88
   3   0  -1  202.55    3.20
   4   0  -1  167.16    2.94
   5   0  -1  213.51    5.50
   6   0  -1   47.77    2.54
   7   0  -1  162.18    5.39
   8   0  -1    6.07    1.30
   9   0  -1    6.49    1.44
  10   0  -1  145.44    6.07
  11   0  -1   32.27    2.95
  12   0  -1   73.26    4.38
  13   0  -1    7.39    1.65
 -14   1  -1   65.35    8.43
 -13   1  -1   28.45    3.56
 -12   1  -1    1.79    1.01
 -11   1  -1   13.18    2.37
 -10   1  -1    1.33    0.87
  -9   1  -1   12.15    1.99
  -8   1  -1   27.44    2.69
  -7   1  -1  289.62    7.42
  -6   1  -1   33.27    1.33
  -5   1  -1  408.72    6.21
  -4   1  -1   13.69    0.87
  -3   1  -1   38.92    1.44
  -2   1  -1  145.99    2.37
  -1   1  -1   41.52    1.18
   0   1  -1   44.25    1.93
   1   1  -1  151.44    3.00
   2   1  -1   20.03    0.95
   3   1  -1  462.26    6.23
   4   1  -1   23.62    0.86
   5   1  -1   11.49    1.46
   6   1  -1  118.92    4.38
   7   1  -1  180.60    5.93
   8   1  -1   30.69    3.01
   9   1  -1    9.03    1.74
  10   1  -1   33.06    3.00
  11   1  -1   54.28    4.04
  12   1  -1   16.14    2.24
  13   1  -1   -0.58    1.10
 -14   2  -1    4.70    1.67
 -13   2  -1    7.85    2.02
 -12   2  -1    0.58    0.84
 -11   2  -1  129.56    5.91
 -10   2  -1   29.67    3.13
  -9   2  -1  239.41    7.41
  -8   2  -1   -0.04    0.43
  -7   2  -1   12.37    0.96
  -6   2  -1   44.45    1.65
  -5   2  -1  110.95    2.62
  -4   2  -1   17.59    0.93
  -3   2  -1   21.30    0.98
  -2   2  -1  499.47    8.13
  -1   2  -1  151.04    2.92
   0   2  -1  500.82   11.65
   1   2  -1   42.96    2.14
   2   2  -1   18.59    1.05
   3   2  -1   63.95    2.00
   4   2  -1  202.20    3.56
   5   2  -1   17.50    1.83
   6   2  -1   74.03    3.44
   7   2  -1   23.00    2.51
   8   2  -1  198.43    6.88
   9   2  -1   68.13    4.09
  10   2  -1    1.86    0.85
  11   2  -1    8.48    1.65
  12   2  -1   55.52    4.33
 -14   3  -1   71.10    8.56
 -13   3  -1    1.17    0.99
 -12   3  -1   32.24    3.62
 -11   3  -1    3.40    1.20
 -10   3  -1    4.32    1.27
  -9   3  -1   19.26    2.30
  -8   3  -1    4.54    0.74
  -7   3  -1    1.99    0.48
  -6   3  -1  344.81    5.75
  -5   3  -1   64.62    1.91
  -4   3  -1  455.70    6.41
  -3   3  -1  200.95    3.16
  -2   3  -1   39.33    1.60
  -1   3  -1   20.01    1.05
   0   3  -1  198.58    6.34
   1   3  -1   11.17    1.56
   2   3  -1  116.72    3.23
   3   3  -1  345.73    5.58
   4   3  -1  223.42    4.22
   5   3  -1  219.93    6.28
   6   3  -1   -0.06    0.49
   7   3  -1    5.42    1.36
   8   3  -1   49.27    3.69
   9   3  -1    1.92    0.86
  10   3  -1   18.92    2.42
  11   3  -1   73.10    4.64
 -14   4  -1   14.43    3.96
 -13   4  -1   63.83    7.99
 -12   4  -1    1.15    0.83
 -11   4  -1    2.06    0.97
 -10   4  -1   11.24    1.68
  -9   4  -1  213.43    6.63
  -8   4  -1   88.59    2.80
  -7   4  -1  216.74    4.52
  -6   4  -1  196.33    4.01
  -5   4  -1   24.28    1.14
  -4   4  -1  172.06    3.19
  -3   4  -1   13.65    0.71
  -2   4  -1   17.72    0.80
  -1   4  -1  458.16    8.11
   0   4  -1  167.69    6.30
   1   4  -1  399.69   11.15
   2   4  -1   39.46    2.00
   3   4  -1    2.20    0.52
   4   4  -1   80.57    3.54
   5   4  -1    2.25    0.84
   6   4  -1    4.23    1.17
   7   4  -1   64.42    4.12
   8   4  -1  107.25    4.50
   9   4  -1   31.30    2.99
  10   4  -1   66.16    4.60
 -15   5  -1    6.96    2.96
 -14   5  -1    5.74    2.49
 -13   5  -1   27.15    5.21
 -12   5  -1   19.96    4.11
 -11   5  -1   20.18    2.53
 -10   5  -1   33.55    3.06
  -9   5  -1    0.39    0.36
  -8   5  -1  215.27    4.73
  -7   5  -1   19.62    1.37
  -6   5  -1   12.19    1.08
  -5   5  -1  218.83    4.09
  -4   5  -1  418.99    6.16
  -3   5  -1  116.29    2.77
  -2   5  -1   66.29    2.07
  -1   5  -1   25.92    1.98
   0   5  -1  216.32    8.05
   1   5  -1   34.64    2.80
   2   5  -1   13.24    1.54
   3   5  -1    2.50    0.59
   4   5  -1  218.20    6.57
   5   5  -1   31.40    2.95
   6   5  -1  134.02    5.44
   7   5  -1   14.15    1.87
   8   5  -1    0.51    0.71
   9   5  -1   18.05    2.37
  10   5  -1    3.81    1.68
 -15   6  -1    1.20    1.63
 -14   6  -1    5.34    2.58
 -13   6  -1   69.38    6.70
 -12   6  -1   39.74    5.78
 -11   6  -1  144.65    8.61
 -10   6  -1    6.79    1.36
  -9   6  -1    0.70    0.43
  -8   6  -1   75.79    2.62
  -7   6  -1  129.86    3.36
  -6   6  -1   45.21    1.77
  -5   6  -1   29.29    1.35
  -4   6  -1   38.14    1.63
  -3   6  -1  347.65    6.45
  -2   6  -1  200.65    4.54
  -1   6  -1   12.08    1.86
   1   6  -1  286.09    6.93
   2   6  -1    0.20    0.33
   3   6  -1   19.86    2.16
   4   6  -1   10.12    1.65
   5   6  -1   16.28    2.26
   6   6  -1   33.66    2.89
   7   6  -1    1.33    0.78
   8   6  -1    4.75    1.60
   9   6  -1   83.42    6.63
 -15   7  -1   66.46    8.64
 -14   7  -1   26.01    5.20
 -13   7  -1    1.02    1.42
 -12   7  -1    8.60    2.70
 -11   7  -1   48.83    6.10
 -10   7  -1    7.99    1.51
  -9   7  -1   28.76    2.82
  -8   7  -1  191.61    6.16
  -7   7  -1  169.07    5.64
  -6   7  -1  284.56    5.29
  -5   7  -1   12.62    1.26
  -4   7  -1    2.63    0.58
  -3   7  -1  227.27    5.15
  -2   7  -1   21.30    1.53
  -1   7  -1  133.78    4.03
   0   7  -1  176.54    8.08
   1   7  -1   33.64    2.47
   2   7  -1  249.03    5.64
   3   7  -1    6.82    1.39
   4   7  -1    3.51    1.11
   5   7  -1   19.46    2.24
   6   7  -1   68.11    3.71
   7   7  -1   31.86    3.92
   8   7  -1    2.83    1.46
 -15   8  -1    5.94    2.90
 -14   8  -1    2.00    1.75
 -13   8  -1    0.40    1.27
 -12   8  -1   97.30    7.63
 -11   8  -1   54.50    3.45
 -10   8  -1  214.24    7.04
  -9   8  -1   40.72    3.50
  -8   8  -1    5.96    1.33
  -7   8  -1   31.85    2.93
  -6   8  -1    0.20    0.49
  -5   8  -1    3.22    1.31
  -4   8  -1   86.58    3.01
  -3   8  -1  219.04    5.40
  -2   8  -1   70.51    2.95
  -1   8  -1  184.79    5.35
   0   8  -1    5.68    1.18
   1   8  -1   13.05    1.51
   2   8  -1   36.84    2.85
   3   8  -1    2.35    0.83
   4   8  -1    1.94    0.81
   5   8  -1   30.63    3.54
   6   8  -1    2.58    1.30
   7   8  -1   69.39    5.92
 -15   9  -1   87.92    8.19
 -14   9  -1   23.59    4.99
 -13   9  -1   21.21    4.51
 -12   9  -1    2.53    1.75
 -11   9  -1   69.35    4.12
 -10   9  -1   10.36    1.89
  -9   9  -1    8.66    1.67
  -8   9  -1   11.00    1.75
  -7   9  -1  257.54    7.72
  -6   9  -1   19.66    2.35
  -5   9  -1  213.29    9.15
  -4   9  -1    1.50    0.95
  -3   9  -1    1.19    0.56
  -2   9  -1   27.17    1.98
  -1   9  -1   35.10    1.99
   0   9  -1    7.42    0.93
   1   9  -1    1.30    0.61
   2   9  -1  119.04    4.33
   3   9  -1   26.64    3.26
   4   9  -1   61.63    5.22
   5   9  -1    3.38    1.46
   6   9  -1    0.50    1.16
 -15  10  -1    5.66    2.67
 -14  10  -1   68.24    8.68
 -13  10  -1   18.82    4.17
 -12  10  -1    1.52    0.99
 -11  10  -1   32.77    3.47
 -10  10  -1  134.94    6.02
  -9  10  -1    1.24    0.83
  -8  10  -1   32.39    3.28
  -7  10  -1    4.94    1.28
  -6  10  -1   10.02    1.80
  -5  10  -1   29.60    4.02
  -4  10  -1    6.51    1.89
  -3  10  -1    7.91    2.06
  -2  10  -1  192.14    6.70
  -1  10  -1    9.69    1.40
   0  10  -1  144.92    3.24
   1  10  -1   10.46    1.18
   2  10  -1    0.55    0.62
   3  10  -1    2.97    1.03
   4  10  -1   10.93    2.29
   5  10  -1    3.42    1.77
 -15  11  -1    1.58    1.97
 -14  11  -1   78.96    7.63
 -13  11  -1   11.89    3.61
 -12  11  -1   54.23    4.79
 -11  11  -1   35.97    3.91
 -10  11  -1    8.93    1.90
  -9  11  -1  123.59    5.84
  -8  11  -1    1.50    0.87
  -7  11  -1    2.85    1.16
  -6  11  -1   18.17    2.55
  -5  11  -1  136.92    5.85
  -4  11  -1   65.23    4.25
  -3  11  -1   52.98    3.77
  -2  11  -1   67.50    4.02
  -1  11  -1   40.71    3.85
   0  11  -1   24.95    4.62
   2  11  -1    7.59    2.18
   3  11  -1   78.09    5.15
   4  11  -1   10.83    2.49
 -14  12  -1   56.45    7.64
 -13  12  -1   12.68    3.57
 -12  12  -1   78.73    4.99
 -11  12  -1    0.59    0.98
 -10  12  -1    0.88    0.95
  -9  12  -1   32.60    3.71
  -8  12  -1    0.74    0.78
  -7  12  -1   13.73    2.25
  -6  12  -1   24.99    3.02
  -5  12  -1   14.53    2.39
  -4  12  -1  108.15    5.37
  -3  12  -1    2.46    1.12
  -2  12  -1   -0.45    1.12
  -1  12  -1   53.19    6.71
 -14  13  -1   -0.79    1.49
 -13  13  -1    6.59    1.98
 -12  13  -1   21.96    3.36
 -11  13  -1    5.19    1.64
 -10  13  -1    2.81    1.41
  -9  13  -1   69.70    5.04
  -8  13  -1   31.16    3.81
  -7  13  -1   64.74    4.72
  -6  13  -1    1.36    1.05
  -5  13  -1   -0.06    0.80
  -4  13  -1   24.04    4.82
  -3  13  -1   26.25    5.09
  -2  13  -1    8.50    3.07
 -13  14  -1   70.61    6.23
 -12  14  -1    2.82    1.60
 -11  14  -1   89.60    5.64
 -10  14  -1   17.21    2.93
  -9  14  -1    1.83    1.24
  -8  14  -1    1.95    1.21
  -7  14  -1   26.21    5.37
  -6  14  -1    7.45    3.06
  -5  14  -1   23.18    5.11
  -4  14  -1   67.82    8.54
  -3  14  -1   80.91    9.46
  -2  14  -1   57.08    9.56
 -11  15  -1    6.10    2.88
 -10  15  -1    4.41    2.53
  -9  15  -1    1.11    2.01
  -7  15  -1    3.61    2.64
  -6  15  -1   91.70    8.62
  -5  15  -1    2.76    2.48
  -4  15  -1    0.27    1.78
   3 -15   0   -1.17    1.53
   4 -15   0   16.44    4.21
   5 -15   0    2.29    2.09
   6 -15   0    0.68    1.94
   7 -15   0    5.24    2.62
   8 -15   0   42.91    6.80
   9 -15   0  110.27    9.47
  10 -15   0   51.57    7.49
  11 -15   0   10.30    3.81
  12 -15   0    2.19    2.50
   2 -14   0   54.77    7.84
   3 -14   0   12.69    3.82
   4 -14   0    0.30    1.47
   5 -14   0   -1.00    1.23
   6 -14   0   31.05    5.56
   7 -14   0    3.54    2.06
   8 -14   0    8.03    2.94
   9 -14   0   42.57    6.50
  10 -14   0   21.18    3.19
  11 -14   0   34.44    4.04
  12 -14   0   15.91    2.79
  13 -14   0    0.70    1.14
   1 -13   0   23.79    4.74
   2 -13   0    3.09    2.14
   3 -13   0    1.99    1.72
   4 -13   0   14.28    3.63
   5 -13   0  162.68   10.52
   6 -13   0   86.97    7.67
   7 -13   0   25.36    3.11
   8 -13   0    4.73    1.45
   9 -13   0   34.69    3.81
  10 -13   0   32.54    3.72
  11 -13   0   61.23    4.73
  12 -13   0    1.29    1.12
  13 -13   0    1.49    1.67
  14 -13   0  182.84   11.81
  -2 -12   0   18.87    4.27
  -1 -12   0   -0.86    0.86
   0 -12   0    6.47    2.51
   1 -12   0    1.05    1.40
   2 -12   0  117.38    8.42
   3 -12   0   48.14    6.39
   4 -12   0   94.83    7.59
   5 -12   0   14.47    2.28
   6 -12   0    1.42    0.88
   7 -12   0    6.30    1.59
   8 -12   0    7.15    1.69
   9 -12   0    8.07    1.84
  10 -12   0   81.79    4.81
  11 -12   0   85.92    5.05
  12 -12   0    2.10    1.30
  13 -12   0   17.12    4.20
  14 -12   0   34.54    5.87
  -4 -11   0   12.04    2.64
  -3 -11   0   42.11    4.31
  -2 -11   0   73.22    4.56
  -1 -11   0   94.47    7.12
   0 -11   0   22.11    2.83
   1 -11   0    2.69    1.67
   2 -11   0    1.97    1.50
   3 -11   0   75.86    4.02
   4 -11   0   17.62    2.32
   5 -11   0   95.98    4.65
   6 -11   0    1.33    0.85
   7 -11   0  544.23   12.94
   8 -11   0    6.59    1.59
   9 -11   0   79.71    4.47
  10 -11   0    7.69    1.72
  11 -11   0   25.87    3.27
  12 -11   0    0.15    0.81
  13 -11   0    3.73    2.09
  14 -11   0    9.30    3.44
  15 -11   0   18.42    5.02
  -5 -10   0   53.27    5.15
  -4 -10   0   19.07    2.83
  -3 -10   0   30.85    3.61
  -2 -10   0   83.89    4.60
  -1 -10   0    6.50    1.23
   0 -10   0   49.25    3.64
   1 -10   0   48.56    2.82
   2 -10   0    1.75    0.82
   3 -10   0   47.68    3.24
   4 -10   0   71.46    3.75
   5 -10   0    0.10    0.56
   6 -10   0   21.94    2.61
   7 -10   0   21.01    2.58
   8 -10   0    4.30    1.24
   9 -10   0   48.50    3.63
  10 -10   0   45.51    4.05
  11 -10   0    4.12    1.35
  12 -10   0  111.49    8.31
  13 -10   0    0.12    1.17
  14 -10   0    2.38    2.15
  15 -10   0    2.53    2.00
  -6  -9   0  111.37    8.55
  -5  -9   0   48.07    4.60
  -4  -9   0   35.04    3.77
  -3  -9   0    4.76    1.40
  -2  -9   0   82.49    4.34
  -1  -9   0   51.81    2.79
   0  -9   0  266.10    5.35
   1  -9   0    1.33    0.50
   2  -9   0   12.22    1.31
   3  -9   0  317.64    8.28
   4  -9   0    0.34    0.50
   5  -9   0  167.89    5.74
   6  -9   0    0.28    0.51
   7  -9   0  130.74    5.26
   8  -9   0   23.78    2.74
   9  -9   0  264.49    8.07
  10  -9   0   49.98    4.18
  11  -9   0    4.55    1.31
  12  -9   0   53.83    6.82
  13  -9   0   10.01    3.15
  14  -9   0    0.19    1.19
  15  -9   0    3.57    2.39
  -7  -8   0   50.09    5.01
  -6  -8   0   12.79    2.45
  -5  -8   0    5.12    1.60
  -4  -8   0    7.57    1.74
  -3  -8   0    6.19    1.23
  -2  -8   0    4.59    0.82
  -1  -8   0   24.22    1.58
   0  -8   0  200.15    3.45
   1  -8   0    0.42    0.32
   2  -8   0   77.54    2.58
   3  -8   0  122.36    3.18
   4  -8   0    0.47    0.30
   5  -8   0  133.96    3.32
   6  -8   0   16.14    1.17
   7  -8   0   15.25    1.37
   8  -8   0  197.55    6.50
   9  -8   0    1.95    0.82
  10  -8   0    2.56    1.05
  11  -8   0   74.00    6.26
  12  -8   0   79.34    6.81
  13  -8   0  176.37   10.90
  14  -8   0   20.62    4.68
  15  -8   0    4.69    2.61
  -8  -7   0    5.10    1.76
  -7  -7   0    1.47    1.02
  -6  -7   0   24.57    3.14
  -5  -7   0    3.01    0.99
  -4  -7   0  541.41   10.65
  -3  -7   0   20.97    2.01
  -2  -7   0  139.32    3.66
  -1  -7   0   19.71    1.22
   0  -7   0   76.62    1.87
   1  -7   0    1.22    0.30
   2  -7   0  101.77    2.78
   3  -7   0  129.97    3.13
   4  -7   0  159.86    3.50
   5  -7   0  457.14    7.21
   6  -7   0  190.79    4.10
   7  -7   0   75.41    2.51
   8  -7   0    0.68    0.33
   9  -7   0   12.19    1.35
  10  -7   0   50.38    2.45
  11  -7   0   20.34    2.45
  12  -7   0   17.52    2.49
  13  -7   0   89.78    7.72
  14  -7   0    3.18    2.13
  15  -7   0   44.30    6.94
  -9  -6   0    1.10    1.12
  -8  -6   0   30.94    3.81
  -7  -6   0   88.45    4.32
  -6  -6   0    0.51    0.66
  -5  -6   0    1.41    0.70
  -4  -6   0   14.93    1.76
  -3  -6   0    0.00    0.33
  -2  -6   0   14.64    1.31
  -1  -6   0  189.90    3.09
   0  -6   0   19.74    1.00
   1  -6   0  377.43    4.44
   2  -6   0    2.51    0.48
   3  -6   0   25.14    1.21
   4  -6   0   -0.09    0.18
   5  -6   0    7.83    0.84
   6  -6   0   18.76    1.23
   7  -6   0    1.33    0.46
   8  -6   0   77.37    2.65
   9  -6   0  333.13    6.55
  10  -6   0   73.46    3.70
  11  -6   0   93.88    4.50
  12  -6   0    0.90    0.73
  13  -6   0   20.67    2.85
  14  -6   0    9.92    2.09
  15  -6   0  103.79    7.67
 -10  -5   0    6.17    1.93
  -9  -5   0   -0.01    0.87
  -8  -5   0  162.87    5.96
  -7  -5   0   16.93    2.16
  -6  -5   0   93.42    3.95
  -5  -5   0    1.04    0.59
  -4  -5   0  166.66    4.79
  -3  -5   0  131.70    3.22
  -2  -5   0  443.14    6.67
  -1  -5   0    7.96    0.65
   0  -5   0    8.72    0.64
   1  -5   0  193.31    2.63
   2  -5   0  151.91    3.03
   3  -5   0    0.33    0.18
   4  -5   0    0.22    0.20
   5  -5   0    9.97    0.92
   6  -5   0  381.92    4.97
   7  -5   0  101.84    2.28
   8  -5   0  119.45    2.72
   9  -5   0    0.03    0.34
  10  -5   0    1.12    0.73
  11  -5   0    2.01    0.91
  12  -5   0    2.61    1.09
  13  -5   0    4.69    1.44
  14  -5   0   55.46    5.07
  15  -5   0   49.44    5.08
 -11  -4   0   24.07    4.97
 -10  -4   0    0.75    1.03
  -9  -4   0   10.59    1.83
  -8  -4   0   76.83    3.82
  -7  -4   0   19.38    2.18
  -6  -4   0   71.01    3.26
  -5  -4   0    0.31    0.38
  -4  -4   0    0.07    0.26
  -3  -4   0  159.58    3.35
  -2  -4   0    0.33    0.22
  -1  -4   0    0.61    0.20
   0  -4   0  175.16    2.39
   1  -4   0  255.58    2.91
   2  -4   0  729.01    9.21
   3  -4   0  581.42    7.75
   4  -4   0  177.63    3.36
   5  -4   0  197.75    3.00
   6  -4   0    2.67    0.43
   7  -4   0  134.02    2.80
   8  -4   0    0.03    0.25
   9  -4   0  176.30    4.50
  10  -4   0   15.54    1.64
  11  -4   0  554.46   12.87
  12  -4   0    9.89    1.82
  13  -4   0   36.13    3.92
  14  -4   0   16.88    2.78
  15  -4   0   10.10    2.30
 -11  -3   0   10.24    2.09
 -10  -3   0   -0.20    0.81
  -9  -3   0   50.09    3.72
  -8  -3   0   72.78    3.55
  -7  -3   0   53.42    3.19
  -6  -3   0  331.11    7.32
  -5  -3   0  109.42    3.66
  -4  -3   0  132.33    2.83
  -3  -3   0   24.34    1.18
  -2  -3   0    0.11    0.19
  -1  -3   0  574.44    5.57
   0  -3   0    7.47    0.46
   1  -3   0   76.37    1.28
   2  -3   0  172.59    3.22
   3  -3   0    7.39    0.64
   4  -3   0  260.38    4.26
   5  -3   0  151.23    3.70
   6  -3   0   23.77    1.35
   7  -3   0  159.44    3.10
   8  -3   0  140.50    3.85
   9  -3   0   -0.03    0.33
  10  -3   0   17.53    1.84
  11  -3   0    8.90    1.41
  12  -3   0    4.73    1.37
  13  -3   0   32.47    3.78
  14  -3   0   31.13    3.83
 -12  -2   0   28.58    3.77
 -11  -2   0    2.26    1.18
 -10  -2   0  115.12    4.89
  -9  -2   0    4.18    1.08
  -8  -2   0    2.20    0.80
  -7  -2   0   11.56    1.55
  -6  -2   0   75.17    3.03
  -5  -2   0  103.50    3.31
  -4  -2   0    3.50    0.44
  -3  -2   0  157.30    3.12
  -2  -2   0  719.14    8.18
  -1  -2   0  171.68    2.08
   0  -2   0  189.57    2.04
   1  -2   0    1.76    0.19
   2  -2   0  190.56    2.91
   3  -2   0   76.85    1.75
   4  -2   0  725.48    9.26
   5  -2   0    0.09    0.18
   6  -2   0    0.39    0.34
   7  -2   0  451.33    9.57
   8  -2   0   16.38    1.64
   9  -2   0  144.51    4.37
  10  -2   0    6.09    1.17
  11  -2   0   83.08    3.68
  12  -2   0   80.77    3.86
  13  -2   0   71.90    5.09
  14  -2   0   18.54    3.08
 -13  -1   0  155.96    8.35
 -12  -1   0   22.51    3.38
 -11  -1   0   -0.32    0.74
 -10  -1   0    1.87    0.82
  -9  -1   0   43.38    3.25
  -8  -1   0    1.09    0.52
  -7  -1   0    0.29    0.43
  -6  -1   0    1.08    0.47
  -5  -1   0  385.22    6.95
  -4  -1   0  191.37    4.17
  -3  -1   0  250.30    3.61
  -2  -1   0   77.94    1.60
  -1  -1   0    1.84    0.21
   0  -1   0    4.12    0.27
   1  -1   0    4.76    0.41
   2  -1   0    1.78    0.26
   3  -1   0  168.96    3.21
   4  -1   0  595.85   14.31
   5  -1   0   -0.02    0.24
   6  -1   0    6.81    1.08
   7  -1   0  191.43    5.71
   8  -1   0   17.77    1.80
   9  -1   0   21.30    2.06
  10  -1   0   44.22    3.18
  11  -1   0    6.98    1.38
  12  -1   0   86.93    4.13
  13  -1   0    0.60    0.90
  14  -1   0   -0.33    1.66
 -13   0   0    1.74    1.34
 -12   0   0    3.35    1.46
 -11   0   0   24.65    2.65
 -10   0   0   51.22    3.56
  -9   0   0  260.50    6.70
  -8   0   0  195.32    5.35
  -7   0   0   77.67    2.99
  -6   0   0   17.37    1.60
  -5   0   0   12.10    1.18
  -4   0   0  173.32    3.67
  -3   0   0    6.22    0.68
  -2   0   0  197.36    5.60
  -1   0   0    3.25    0.35
   1   0   0    3.76    0.51
   2   0   0  183.44    5.13
   3   0   0    6.14    0.79
   4   0   0  170.61    4.35
   5   0   0    8.34    1.14
   6   0   0   18.03    1.90
   7   0   0   78.45    3.58
   8   0   0  203.34    5.40
   9   0   0  265.23    6.66
  10   0   0   41.80    3.18
  11   0   0   24.97    2.61
  12   0   0    3.74    1.20
  13   0   0    0.73    0.89
 -14   1   0   -0.34    1.35
 -13   1   0    0.69    1.06
 -12   1   0   83.89    5.14
 -11   1   0    7.15    1.45
 -10   1   0   44.82    3.18
  -9   1   0   23.23    2.19
  -8   1   0   16.08    1.66
  -7   1   0  182.42    4.62
  -6   1   0   12.36    1.26
  -5   1   0    0.35    0.17
  -4   1   0  583.57    6.66
  -3   1   0  171.83    3.03
  -2   1   0    2.37    0.29
  -1   1   0    3.70    0.32
   1   1   0    1.93    0.34
   2   1   0   78.86    2.20
   3   1   0  246.09    7.27
   4   1   0  198.07    4.87
   5   1   0  371.30    8.09
   6   1   0   -0.12    0.34
   7   1   0    0.29    0.40
   8   1   0    0.42    0.44
   9   1   0   49.07    3.37
  10   1   0    2.19    0.83
  11   1   0    0.35    0.69
  12   1   0   18.62    2.39
  13   1   0  171.08    8.20
 -14   2   0   13.91    2.69
 -13   2   0   60.21    5.31
 -12   2   0   78.43    4.85
 -11   2   0   80.17    3.70
 -10   2   0    6.89    1.25
  -9   2   0  137.37    4.33
  -8   2   0   16.55    1.64
  -7   2   0  449.86    6.08
  -6   2   0    0.10    0.17
  -5   2   0    0.25    0.19
  -4   2   0  717.92    9.34
  -3   2   0   78.82    1.68
  -2   2   0  196.33    3.55
  -1   2   0    2.14    0.25
   1   2   0  175.06    3.50
   2   2   0  725.90   11.34
   3   2   0  146.54    3.93
   4   2   0    2.29    0.63
   5   2   0   97.27    5.11
   6   2   0   71.25    3.38
   7   2   0   11.38    1.49
   8   2   0    1.39    0.68
   9   2   0    4.81    1.21
  10   2   0  110.17    4.65
  11   2   0    3.10    1.09
  12   2   0   29.77    3.88
 -15   3   0    7.49    3.14
 -14   3   0   41.56    4.47
 -13   3   0   29.23    3.61
 -12   3   0    3.97    1.24
 -11   3   0    7.69    1.27
 -10   3   0   20.28    2.00
  -9   3   0   -0.08    0.37
  -8   3   0  130.44    3.73
  -7   3   0  161.92    3.13
  -6   3   0   25.32    1.09
  -5   3   0  149.76    3.62
  -4   3   0  255.74    3.97
  -3   3   0    5.70    0.69
  -2   3   0  169.60    3.42
  -1   3   0   78.46    1.68
   1   3   0  580.65    9.36
   2   3   0    0.39    0.31
   3   3   0   26.31    1.76
   4   3   0  130.64    4.18
   5   3   0  112.32    4.14
   6   3   0  332.67    7.17
   7   3   0   46.51    2.90
   8   3   0   71.03    3.40
   9   3   0   54.38    3.91
  10   3   0    0.04    0.66
  11   3   0   12.77    2.51
 -15   4   0   11.12    3.55
 -14   4   0   17.51    3.05
 -13   4   0   37.49    4.06
 -12   4   0    8.04    1.84
 -11   4   0  529.96   12.80
 -10   4   0   19.05    1.93
  -9   4   0  169.51    4.45
  -8   4   0    0.42    0.29
  -7   4   0  136.09    3.33
  -6   4   0    2.97    0.52
  -5   4   0  190.24    3.35
  -4   4   0  180.37    4.16
  -3   4   0  576.25    9.41
  -2   4   0  716.36    8.93
  -1   4   0  255.76    4.15
   1   4   0   -0.02    0.23
   2   4   0    0.37    0.31
   3   4   0  157.15    4.56
   4   4   0    0.11    0.32
   5   4   0    0.31    0.39
   6   4   0   74.92    3.25
   7   4   0   19.39    2.09
   8   4   0   73.48    3.64
   9   4   0    8.24    1.98
  10   4   0    2.23    1.25
  11   4   0   19.94    4.43
 -15   5   0   35.64    6.62
 -14   5   0   50.95    4.92
 -13   5   0    2.43    1.08
 -12   5   0    7.39    1.75
 -11   5   0    1.78    0.88
 -10   5   0    1.64    0.77
  -9   5   0    0.33    0.36
  -8   5   0  116.01    3.35
  -7   5   0   99.87    3.68
  -6   5   0  387.13    7.91
  -5   5   0   10.07    1.15
  -4   5   0    0.29    0.29
  -3   5   0    0.15    0.16
  -2   5   0  154.72    2.99
  -1   5   0  190.89    3.74
   0   5   0    7.07    1.61
   1   5   0    7.30    0.87
   2   5   0  445.75    7.55
   3   5   0  131.19    3.72
   4   5   0  161.48    4.52
   5   5   0    0.69    0.51
   6   5   0  101.39    3.93
   7   5   0   14.93    1.93
   8   5   0  173.70    7.40
   9   5   0    0.48    1.01
  10   5   0    5.10    1.72
 -15   6   0  101.45    8.92
 -14   6   0   10.66    3.38
 -13   6   0   23.25    4.61
 -12   6   0    0.84    0.78
 -11   6   0  103.27    4.79
 -10   6   0   69.99    3.69
  -9   6   0  327.76    6.62
  -8   6   0   76.36    3.39
  -7   6   0    0.65    0.44
  -6   6   0   20.20    1.57
  -5   6   0    8.30    1.09
  -4   6   0   -0.08    0.22
  -3   6   0   24.68    1.06
  -2   6   0    2.90    0.51
  -1   6   0  380.37    6.36
   0   6   0   18.73    1.46
   1   6   0  190.61    4.30
   2   6   0   14.48    1.43
   3   6   0    0.28    0.36
   4   6   0   19.11    1.91
   5   6   0    1.30    0.66
   6   6   0    0.22    0.77
   7   6   0   88.52    5.18
   8   6   0   25.78    3.55
   9   6   0    0.81    1.31
 -15   7   0   51.48    7.42
 -14   7   0    0.85    1.30
 -13   7   0   89.72    7.49
 -12   7   0   16.81    3.73
 -11   7   0   20.40    2.45
 -10   7   0   51.27    2.48
  -9   7   0   10.78    1.62
  -8   7   0   -0.03    0.39
  -7   7   0   70.29    3.06
  -6   7   0  182.45    5.10
  -5   7   0  453.90    8.91
  -4   7   0  159.22    3.05
  -3   7   0  133.05    3.02
  -2   7   0   99.01    2.78
  -1   7   0    1.03    0.43
   0   7   0   73.85    2.61
   1   7   0   19.49    1.71
   2   7   0  136.94    4.01
   3   7   0   21.21    2.00
   4   7   0  530.74   12.90
   5   7   0    3.50    1.33
   6   7   0   24.50    3.14
   7   7   0    3.78    1.41
   8   7   0    5.13    1.86
 -15   8   0    6.08    2.60
 -14   8   0   29.01    5.51
 -13   8   0  174.78   10.82
 -12   8   0   74.78    6.63
 -11   8   0   65.50    5.96
 -10   8   0    1.90    0.84
  -9   8   0    0.76    0.59
  -8   8   0  208.06    6.00
  -7   8   0   17.99    1.87
  -6   8   0   16.17    1.78
  -5   8   0  130.49    4.21
  -4   8   0    0.51    0.38
  -3   8   0  113.05    3.00
  -2   8   0   78.10    2.63
  -1   8   0    0.10    0.27
   0   8   0  201.03    4.88
   1   8   0   23.61    1.76
   2   8   0    6.71    1.11
   3   8   0    7.40    1.60
   4   8   0    8.53    1.86
   5   8   0    5.48    1.66
   6   8   0   10.74    2.22
   7   8   0   50.41    5.05
 -15   9   0    3.83    2.52
 -14   9   0    1.03    1.56
 -13   9   0   11.69    3.34
 -12   9   0   49.62    6.51
 -11   9   0    6.36    1.56
 -10   9   0   56.36    5.26
  -9   9   0  279.78   12.09
  -8   9   0   18.83    3.34
  -7   9   0  141.05    4.75
  -6   9   0    0.25    0.40
  -5   9   0  171.34    5.18
  -4   9   0    0.12    0.40
  -3   9   0  326.82    7.93
  -2   9   0   10.97    1.28
  -1   9   0    1.68    0.51
   0   9   0  262.73    4.65
   1   9   0   48.13    2.67
   2   9   0   86.80    3.66
   3   9   0    6.67    1.33
   4   9   0   37.05    3.94
   5   9   0   53.75    5.13
   6   9   0  109.16    6.21
 -15  10   0    3.84    2.33
 -14  10   0    1.18    1.65
 -13  10   0   -0.29    0.99
 -12  10   0  112.18    8.38
 -11  10   0    5.37    1.21
 -10  10   0   36.04    5.30
  -9  10   0   51.27    6.03
  -8  10   0    7.61    2.26
  -7  10   0   13.52    2.87
  -6  10   0   15.86    3.10
  -5  10   0    1.57    0.70
  -4  10   0   75.81    3.51
  -3  10   0   48.50    2.90
  -2  10   0    0.81    0.57
  -1  10   0   48.98    3.13
   0  10   0   46.38    3.12
   1  10   0    6.32    1.25
   2  10   0   79.98    4.73
   3  10   0   39.70    4.31
   4  10   0   17.61    2.83
   5  10   0   47.11    5.02
 -15  11   0   20.91    6.00
 -14  11   0   10.39    3.47
 -13  11   0    3.07    1.90
 -12  11   0    0.90    0.90
 -11  11   0   24.81    3.31
 -10  11   0   11.56    3.20
  -9  11   0   77.30    6.34
  -8  11   0   11.45    2.91
  -7  11   0  537.75   18.21
  -6  11   0    2.77    1.50
  -5  11   0   90.10    6.39
  -4  11   0   24.67    3.94
  -3  11   0   75.39    3.84
  -2  11   0    6.36    1.42
  -1  11   0    2.75    1.00
   0  11   0   23.32    2.87
   1  11   0   84.21    4.71
   2  11   0   69.40    3.90
   3  11   0   44.86    4.75
   4  11   0   14.98    2.97
 -14  12   0   34.94    6.34
 -13  12   0   23.09    4.90
 -12  12   0    3.82    1.54
 -11  12   0   88.45    5.27
 -10  12   0   63.80    6.19
  -9  12   0    5.56    2.18
  -8  12   0    8.15    2.56
  -7  12   0    5.67    2.24
  -6  12   0    0.56    1.09
  -5  12   0   16.90    3.57
  -4  12   0   74.92    6.06
  -3  12   0   54.16    5.24
  -2  12   0  116.54    7.82
  -1  12   0   -0.25    0.83
   0  12   0    5.36    1.56
   1  12   0   -0.12    0.84
   2  12   0   13.82    2.43
   3  12   0    0.91    1.80
 -14  13   0  146.73   12.98
 -13  13   0    0.40    1.17
 -12  13   0   -0.42    0.97
 -11  13   0   63.33    5.53
 -10  13   0   32.60    5.37
  -9  13   0   25.69    4.58
  -8  13   0    8.94    2.83
  -7  13   0   27.57    4.75
  -6  13   0   87.29    7.02
  -5  13   0  149.16    9.35
  -4  13   0   11.55    3.21
  -3  13   0    0.04    0.98
  -2  13   0    4.07    2.10
  -1  13   0   12.93    3.37
   0  13   0    0.89    1.41
 -13  14   0   -0.09    1.17
 -12  14   0   16.96    2.99
 -11  14   0   39.29    4.46
 -10  14   0   15.80    2.83
  -9  14   0   53.06    7.04
  -8  14   0   16.75    4.01
  -7  14   0    0.99    1.27
  -6  14   0   32.82    5.59
  -5  14   0   -0.69    0.95
  -4  14   0    0.77    1.41
  -3  14   0    8.39    2.96
  -2  14   0   30.91    4.24
 -11  15   0   13.51    2.69
 -10  15   0   36.62    4.44
  -9  15   0  101.25    6.18
  -8  15   0   55.39    5.40
  -7  15   0    3.72    1.54
  -6  15   0    1.47    1.33
  -5  15   0    3.73    1.48
  -4  15   0   17.63    4.45
  -3  15   0   -0.05    1.72
   4 -15   1    3.93    2.56
   5 -15   1    2.46    2.28
   6 -15   1   81.58    9.42
   7 -15   1    7.28    3.07
   8 -15   1   77.07    9.34
   9 -15   1    0.74    1.29
  10 -15   1    7.62    2.14
  11 -15   1   10.49    2.90
   2 -14   1   69.25    8.50
   3 -14   1   75.91    9.11
   4 -14   1   62.73    8.01
   5 -14   1   25.00    5.08
   6 -14   1    1.30    1.87
   7 -14   1   23.49    3.25
   8 -14   1    2.95    1.37
   9 -14   1    3.53    1.49
  10 -14   1   14.60    2.71
  11 -14   1   83.65    5.83
  12 -14   1    0.14    1.52
  13 -14   1   74.20   12.55
   2 -13   1   12.59    3.63
   3 -13   1   24.73    4.78
   4 -13   1   22.93    3.70
   5 -13   1    0.18    0.83
   6 -13   1    4.38    1.52
   7 -13   1   70.94    4.92
   8 -13   1   31.59    3.67
   9 -13   1   67.94    4.96
  10 -13   1    1.46    1.06
  11 -13   1    7.27    1.88
  12 -13   1   33.52    5.77
  13 -13   1    6.14    2.84
   1 -12   1   58.83    7.04
   2 -12   1    2.46    1.29
   3 -12   1    0.51    0.83
   4 -12   1  109.91    5.39
   5 -12   1   13.77    2.33
   6 -12   1   30.62    3.49
   7 -12   1   14.31    2.30
   8 -12   1    1.02    0.90
   9 -12   1   32.49    3.66
  10 -12   1    1.64    1.04
  11 -12   1    1.89    1.13
  12 -12   1   72.11    8.32
  13 -12   1   10.24    3.40
  14 -12   1   49.18    7.09
  -4 -11   1   11.82    3.76
  -3 -11   1   78.17    6.94
  -2 -11   1   11.98    3.09
  -1 -11   1    3.49    1.37
   0 -11   1   47.92    3.72
   1 -11   1   30.53    3.31
   2 -11   1   68.47    3.99
   3 -11   1   49.08    3.64
   4 -11   1   62.27    4.16
   5 -11   1  141.94    5.92
   6 -11   1   14.99    2.30
   7 -11   1    3.03    1.17
   8 -11   1    1.30    0.89
   9 -11   1  127.97    5.88
  10 -11   1    8.87    1.89
  11 -11   1   38.02    3.80
  12 -11   1   40.84    6.02
  13 -11   1    6.83    2.71
  14 -11   1   73.65    8.98
  -5 -10   1    8.06    3.07
  -4 -10   1   17.38    2.97
  -3 -10   1    2.71    1.33
  -2 -10   1    1.07    0.77
  -1 -10   1   10.38    1.30
   0 -10   1  145.19    3.25
   1 -10   1    7.65    1.06
   2 -10   1  207.13    5.30
   3 -10   1    5.69    1.04
   4 -10   1    5.53    1.12
   5 -10   1   29.38    3.09
   6 -10   1   13.02    2.02
   7 -10   1    4.33    1.24
   8 -10   1   29.02    3.02
   9 -10   1    2.51    1.10
  10 -10   1  139.34    6.11
  11 -10   1   23.04    4.33
  12 -10   1    1.26    1.52
  13 -10   1   24.47    4.89
  14 -10   1   58.12    7.78
  15 -10   1    3.90    2.64
  -6  -9   1    1.69    1.42
  -5  -9   1    1.77    1.30
  -4  -9   1   71.02    3.82
  -3  -9   1   36.39    2.97
  -2  -9   1  121.80    3.77
  -1  -9   1    2.35    0.52
   0  -9   1    6.49    0.79
   1  -9   1   41.35    1.55
   2  -9   1   34.80    1.78
   3  -9   1    1.33    0.55
   4  -9   1    3.44    0.77
   5  -9   1  237.92    5.34
   6  -9   1   21.24    1.74
   7  -9   1  245.50    5.61
   8  -9   1   10.13    1.29
   9  -9   1    8.35    1.25
  10  -9   1    7.57    1.70
  11  -9   1   64.37    5.98
  12  -9   1   -0.27    0.80
  13  -9   1   22.29    4.60
  14  -9   1   21.77    4.76
  15  -9   1   65.58    8.60
  -7  -8   1   68.16    6.21
  -6  -8   1    3.63    1.30
  -5  -8   1   30.98    2.93
  -4  -8   1    2.41    0.86
  -3  -8   1    2.42    0.83
  -2  -8   1   33.57    1.93
  -1  -8   1   12.01    1.03
   0  -8   1    5.90    0.69
   1  -8   1  196.45    3.28
   2  -8   1   65.31    2.16
   3  -8   1  218.99    4.07
   4  -8   1   88.10    2.87
   5  -8   1    3.96    0.73
   6  -8   1    1.06    0.47
   7  -8   1   29.35    1.86
   8  -8   1    7.61    1.10
   9  -8   1   43.72    2.32
  10  -8   1  205.13    6.45
  11  -8   1   52.14    3.47
  12  -8   1  106.99    5.03
  13  -8   1   -0.59    0.74
  14  -8   1    4.72    2.32
  15  -8   1    9.52    3.24
  -8  -7   1    8.88    2.27
  -7  -7   1   23.05    2.66
  -6  -7   1   72.25    3.94
  -5  -7   1   13.90    1.84
  -4  -7   1    3.74    0.90
  -3  -7   1    5.91    0.93
  -2  -7   1  249.68    4.46
  -1  -7   1   31.14    1.48
   0  -7   1  177.40    3.02
   1  -7   1  132.00    2.43
   2  -7   1   19.36    1.30
   3  -7   1  231.83    3.97
   4  -7   1    2.95    0.44
   5  -7   1   13.23    1.25
   6  -7   1  272.96    5.59
   7  -7   1  171.03    4.26
   8  -7   1  190.48    4.68
   9  -7   1   30.08    2.33
  10  -7   1    6.18    1.36
  11  -7   1   68.62    3.82
  12  -7   1   13.37    2.15
  13  -7   1    2.78    1.15
  14  -7   1   26.42    3.37
  15  -7   1   74.75    5.25
  -9  -6   1   81.49    5.40
  -8  -6   1    6.98    1.56
  -7  -6   1    1.69    0.84
  -6  -6   1   29.82    2.67
  -5  -6   1   14.86    1.75
  -4  -6   1   11.55    1.53
  -3  -6   1   21.53    1.63
  -2  -6   1    0.50    0.26
  -1  -6   1  273.71    3.92
   0  -6   1   48.77    1.38
   1  -6   1    8.37    0.65
   2  -6   1  199.99    3.54
   3  -6   1  350.87    4.94
   4  -6   1   46.78    1.30
   5  -6   1   27.35    1.58
   6  -6   1   50.86    2.04
   7  -6   1  123.58    3.47
   8  -6   1   65.54    3.16
   9  -6   1    1.01    0.58
  10  -6   1    3.10    1.03
  11  -6   1  137.55    5.62
  12  -6   1   34.24    3.66
  13  -6   1   74.51    4.59
  14  -6   1    3.69    1.53
  15  -6   1    1.50    1.17
 -10  -5   1    6.06    1.53
  -9  -5   1   20.93    2.59
  -8  -5   1    0.50    0.75
  -7  -5   1   11.24    1.69
  -6  -5   1  140.31    4.77
  -5  -5   1   29.16    2.47
  -4  -5   1  243.10    5.00
  -3  -5   1    3.90    0.68
  -2  -5   1   12.04    0.86
  -1  -5   1   24.22    1.07
   0  -5   1  223.29    3.04
   1  -5   1   22.56    0.84
   2  -5   1   63.48    1.66
   3  -5   1  121.25    2.46
   4  -5   1  416.46    5.21
   5  -5   1  224.67    3.25
   6  -5   1    9.12    0.69
   7  -5   1   18.29    1.13
   8  -5   1  216.50    4.55
   9  -5   1    2.74    0.80
  10  -5   1   25.34    2.75
  11  -5   1   19.94    2.62
  12  -5   1   14.91    2.43
  13  -5   1   30.28    3.57
  14  -5   1    1.98    1.21
  15  -5   1    4.50    1.63
 -11  -4   1   -0.26    1.21
 -10  -4   1   59.38    4.40
  -9  -4   1   20.24    2.42
  -8  -4   1  116.36    4.67
  -7  -4   1   60.76    3.28
  -6  -4   1    4.74    1.03
  -5  -4   1    1.84    0.54
  -4  -4   1   85.00    2.63
  -3  -4   1    3.23    0.58
  -2  -4   1   44.91    1.26
  -1  -4   1  407.85    4.55
   0  -4   1  181.54    2.44
   1  -4   1  450.57    5.01
   2  -4   1   17.14    0.87
   3  -4   1   15.98    0.69
   4  -4   1  183.87    2.75
   5  -4   1   23.54    0.93
   6  -4   1  186.94    3.76
   7  -4   1  223.43    4.56
   8  -4   1   92.51    2.94
   9  -4   1  244.43    5.52
  10  -4   1   13.52    1.59
  11  -4   1    2.41    1.00
  12  -4   1    2.28    1.09
  13  -4   1   63.50    5.17
  14  -4   1   11.26    2.31
  15  -4   1   12.43    2.74
 -11  -3   1   86.35    4.52
 -10  -3   1   29.53    2.96
  -9  -3   1    1.05    0.73
  -8  -3   1   53.69    3.38
  -7  -3   1    4.60    1.02
  -6  -3   1    0.75    0.49
  -5  -3   1  213.45    5.25
  -4  -3   1  216.79    4.26
  -3  -3   1  329.00    5.20
  -2  -3   1  117.88    2.40
  -1  -3   1   15.75    0.70
   0  -3   1  196.66    2.62
   1  -3   1   21.86    0.70
   2  -3   1   47.10    1.13
   3  -3   1  195.55    2.85
   4  -3   1  456.23    6.37
   5  -3   1   63.13    1.90
   6  -3   1  340.52    5.91
   7  -3   1    2.66    0.62
   8  -3   1    3.13    0.72
   9  -3   1   23.18    2.00
  10  -3   1    6.69    1.21
  11  -3   1    2.84    0.92
  12  -3   1   31.23    3.61
  13  -3   1    1.43    1.09
  14  -3   1   77.17    5.63
 -12  -2   1   46.18    3.95
 -11  -2   1   12.13    1.96
 -10  -2   1    1.63    0.89
  -9  -2   1   61.23    3.47
  -8  -2   1  194.44    5.76
  -7  -2   1   29.51    2.42
  -6  -2   1   63.62    2.78
  -5  -2   1   19.42    1.70
  -4  -2   1  187.31    3.70
  -3  -2   1   63.83    2.10
  -2  -2   1   17.63    0.93
  -1  -2   1   45.37    1.02
   0  -2   1  518.94    5.58
   1  -2   1  145.11    2.43
   2  -2   1  525.92    6.55
   3  -2   1   23.27    1.06
   4  -2   1   17.29    0.96
   5  -2   1  117.21    2.85
   6  -2   1   46.45    1.89
   7  -2   1   11.07    1.24
   8  -2   1    0.06    0.36
   9  -2   1  251.58    6.07
  10  -2   1   33.14    2.65
  11  -2   1  131.59    4.73
  12  -2   1    2.11    0.90
  13  -2   1    7.51    1.93
  14  -2   1    3.29    1.66
 -13  -1   1    0.07    1.23
 -12  -1   1   14.77    2.30
 -11  -1   1   60.29    3.87
 -10  -1   1   25.76    2.65
  -9  -1   1    6.22    1.29
  -8  -1   1   38.61    2.80
  -7  -1   1  194.63    5.15
  -6  -1   1  122.32    3.74
  -5  -1   1    8.50    1.02
  -4  -1   1   26.08    1.21
  -3  -1   1  446.73    5.83
  -2  -1   1   22.25    0.93
  -1  -1   1  145.93    1.88
   0  -1   1   43.68    0.89
   1  -1   1   40.66    1.24
   2  -1   1  145.63    2.51
   3  -1   1   48.08    1.45
   4  -1   1   15.32    1.11
   5  -1   1  415.76    6.75
   6  -1   1   28.33    1.80
   7  -1   1  276.18    5.93
   8  -1   1   26.83    2.17
   9  -1   1    9.13    1.38
  10  -1   1    3.58    0.98
  11  -1   1   10.85    1.73
  12  -1   1    4.80    1.21
  13  -1   1   33.47    3.26
 -13   0   1    6.83    1.58
 -12   0   1   74.87    4.23
 -11   0   1   44.53    3.56
 -10   0   1  135.78    4.91
  -9   0   1    5.76    1.18
  -8   0   1    4.00    0.88
  -7   0   1  172.30    4.60
  -6   0   1   51.76    2.21
  -5   0   1  224.74    4.66
  -4   0   1  175.13    3.13
  -3   0   1  200.62    3.10
  -2   0   1  518.00    6.62
  -1   0   1   42.87    0.98
   0   0   1    0.27    0.12
   1   0   1   42.60    0.99
   2   0   1  515.14    6.73
   3   0   1  195.85    3.58
   4   0   1  176.53    3.66
   5   0   1  220.71    4.62
   6   0   1   49.22    2.17
   7   0   1  171.26    4.57
   8   0   1    6.27    1.13
   9   0   1    5.49    1.12
  10   0   1  138.66    4.96
  11   0   1   44.26    3.54
  12   0   1   71.59    4.35
  13   0   1    8.84    2.13
 -14   1   1   77.53    9.99
 -13   1   1   27.57    2.98
 -12   1   1    3.74    0.99
 -11   1   1    8.92    1.55
 -10   1   1    1.80    0.73
  -9   1   1   10.61    1.43
  -8   1   1   29.67    2.27
  -7   1   1  271.27    5.91
  -6   1   1   28.15    1.76
  -5   1   1  405.29    6.69
  -4   1   1   15.52    1.15
  -3   1   1   46.03    1.35
  -2   1   1  144.60    2.11
  -1   1   1   42.04    0.84
   0   1   1   43.14    1.03
   1   1   1  143.09    2.05
   2   1   1   21.94    0.93
   3   1   1  447.28    6.74
   4   1   1   23.48    1.45
   5   1   1    9.03    1.09
   6   1   1  129.84    3.80
   7   1   1  187.83    5.05
   8   1   1   43.23    2.73
   9   1   1   10.28    1.54
  10   1   1   28.24    2.70
  11   1   1   60.59    4.25
  12   1   1   14.81    2.60
  13   1   1   -0.68    1.64
 -14   2   1    3.15    1.59
 -13   2   1    8.37    1.95
 -12   2   1    2.22    0.84
 -11   2   1  128.86    4.76
 -10   2   1   32.89    2.68
  -9   2   1  248.85    6.09
  -8   2   1    0.48    0.43
  -7   2   1   12.99    1.36
  -6   2   1   48.21    1.94
  -5   2   1  112.97    2.85
  -4   2   1   16.24    0.99
  -3   2   1   22.53    0.94
  -2   2   1  516.69    5.55
  -1   2   1  142.82    2.49
   0   2   1  510.57    6.58
   1   2   1   47.47    1.20
   2   2   1   18.27    1.01
   3   2   1   70.30    2.12
   4   2   1  192.22    4.27
   5   2   1   18.24    1.65
   6   2   1   68.86    2.83
   7   2   1   26.47    2.26
   8   2   1  202.37    5.78
   9   2   1   65.76    3.52
  10   2   1    3.83    1.30
  11   2   1    9.75    2.22
  12   2   1   45.03    4.86
 -14   3   1   82.22    5.41
 -13   3   1    2.18    1.24
 -12   3   1   35.74    3.80
 -11   3   1    1.78    0.75
 -10   3   1    4.46    1.00
  -9   3   1   20.71    1.91
  -8   3   1    2.69    0.66
  -7   3   1    1.95    0.54
  -6   3   1  339.41    5.97
  -5   3   1   63.97    2.33
  -4   3   1  449.97    7.84
  -3   3   1  198.63    3.36
  -2   3   1   47.12    1.32
  -1   3   1   23.10    0.69
   0   3   1  196.10    3.39
   1   3   1   14.66    0.81
   2   3   1  114.46    2.66
   3   3   1  327.57    5.86
   4   3   1  229.14    4.92
   5   3   1  218.94    5.17
   6   3   1    1.66    0.59
   7   3   1    7.14    1.28
   8   3   1   51.28    3.23
   9   3   1    0.51    0.80
  10   3   1   25.09    3.45
  11   3   1   72.12    6.08
 -15   4   1    9.90    2.39
 -14   4   1   12.31    2.54
 -13   4   1   61.62    5.20
 -12   4   1    0.81    0.81
 -11   4   1    3.68    1.19
 -10   4   1    9.36    1.27
  -9   4   1  241.17    5.58
  -8   4   1   92.86    3.04
  -7   4   1  229.40    4.79
  -6   4   1  194.13    4.02
  -5   4   1   25.93    1.15
  -4   4   1  179.11    3.24
  -3   4   1   14.49    0.84
  -2   4   1   18.07    0.99
  -1   4   1  459.75    5.54
   0   4   1  176.76    3.42
   1   4   1  400.97    5.41
   2   4   1   49.78    1.78
   3   4   1    2.73    0.57
   4   4   1   95.96    3.11
   5   4   1    1.52    0.61
   6   4   1    6.05    1.13
   7   4   1   51.63    4.53
   8   4   1   98.95    5.43
   9   4   1   21.82    3.13
  10   4   1   71.29    6.01
 -15   5   1    6.89    2.13
 -14   5   1    3.39    1.59
 -13   5   1   32.11    3.66
 -12   5   1   13.62    2.14
 -11   5   1   14.03    2.20
 -10   5   1   26.11    2.74
  -9   5   1    1.36    0.67
  -8   5   1  212.70    4.79
  -7   5   1   17.29    1.25
  -6   5   1    8.84    0.86
  -5   5   1  228.92    4.51
  -4   5   1  411.61    6.05
  -3   5   1  112.44    2.52
  -2   5   1   65.61    1.44
  -1   5   1   20.30    1.03
   0   5   1  223.19    4.29
   1   5   1   25.26    1.19
   2   5   1   14.23    1.27
   3   5   1    4.38    0.79
   4   5   1  244.00    5.58
   5   5   1   30.63    3.20
   6   5   1  139.55    6.14
   7   5   1   11.30    2.26
   8   5   1   -0.46    0.65
   9   5   1   26.46    3.63
  10   5   1    5.03    1.74
 -15   6   1    0.98    1.24
 -14   6   1    1.42    1.04
 -13   6   1   74.22    4.61
 -12   6   1   31.16    3.55
 -11   6   1  134.13    5.66
 -10   6   1    7.85    1.55
  -9   6   1    1.29    0.71
  -8   6   1   68.12    3.37
  -7   6   1  128.66    4.47
  -6   6   1   49.68    1.60
  -5   6   1   29.02    1.15
  -4   6   1   46.75    1.50
  -3   6   1  343.33    4.41
  -2   6   1  196.02    3.22
  -1   6   1    7.84    0.75
   0   6   1   49.01    1.95
   1   6   1  273.85    4.63
   2   6   1    1.19    0.45
   3   6   1   24.44    2.59
   4   6   1   13.60    2.15
   5   6   1   16.55    2.47
   6   6   1   34.62    3.69
   7   6   1    1.34    1.11
   8   6   1    4.81    1.71
   9   6   1   66.53    5.85
 -15   7   1   82.89    7.95
 -14   7   1   25.22    3.48
 -13   7   1    2.61    1.08
 -12   7   1   16.66    2.56
 -11   7   1   60.27    3.75
 -10   7   1    5.68    1.35
  -9   7   1   30.12    2.85
  -8   7   1  200.62    6.09
  -7   7   1  169.99    5.30
  -6   7   1  275.12    6.97
  -5   7   1   13.52    1.63
  -4   7   1    3.31    0.56
  -3   7   1  227.97    4.49
  -2   7   1   18.72    1.05
  -1   7   1  133.44    2.96
   0   7   1  169.51    3.40
   1   7   1   29.33    1.95
   2   7   1  246.43    5.98
   3   7   1    6.13    1.18
   4   7   1    2.71    1.07
   5   7   1   15.29    2.46
   6   7   1   69.88    5.04
   7   7   1   24.88    3.36
   8   7   1    9.26    2.26
 -15   8   1   10.01    3.55
 -14   8   1    4.16    2.21
 -13   8   1    0.96    1.27
 -12   8   1  112.40    5.42
 -11   8   1   53.11    3.77
 -10   8   1  195.86    6.75
  -9   8   1   45.97    3.16
  -8   8   1    6.05    1.27
  -7   8   1   29.42    2.67
  -6   8   1   -0.28    0.30
  -5   8   1    4.17    0.98
  -4   8   1   92.59    3.69
  -3   8   1  209.20    4.61
  -2   8   1   65.03    2.50
  -1   8   1  188.50    4.76
   0   8   1    9.57    1.23
   1   8   1   12.77    1.53
   2   8   1   31.85    2.52
   3   8   1    1.64    0.76
   4   8   1    2.93    1.02
   5   8   1   32.99    3.13
   6   8   1    5.38    1.43
   7   8   1   80.41    6.48
 -15   9   1   70.87    9.04
 -14   9   1   18.95    4.37
 -13   9   1   24.09    4.86
 -12   9   1    0.58    1.14
 -11   9   1   66.88    4.01
 -10   9   1    8.54    1.68
  -9   9   1    6.21    1.35
  -8   9   1   11.42    1.74
  -7   9   1  239.04    7.01
  -6   9   1   26.89    2.54
  -5   9   1  232.44    6.63
  -4   9   1    3.78    0.97
  -3   9   1    0.53    0.49
  -2   9   1   29.75    1.99
  -1   9   1   40.37    2.30
   0   9   1    6.35    1.16
   1   9   1    1.51    0.89
   2   9   1  127.97    5.74
   3   9   1   31.33    3.58
   4   9   1   79.14    5.02
   5   9   1    2.78    1.40
   6   9   1    2.00    1.48
 -15  10   1    4.96    2.57
 -14  10   1   65.14    8.23
 -13  10   1   27.64    5.25
 -12  10   1    1.08    1.44
 -11  10   1   24.15    4.65
 -10  10   1  141.51    9.01
  -9  10   1    2.52    0.99
  -8  10   1   33.85    3.16
  -7  10   1    5.11    1.26
  -6  10   1    9.18    1.58
  -5  10   1   26.96    2.63
  -4  10   1    4.57    1.21
  -3  10   1    6.08    1.34
  -2  10   1  200.23    6.64
  -1  10   1    8.98    1.37
   0  10   1  139.10    4.75
   1  10   1   11.75    2.13
   2  10   1    2.69    1.19
   3  10   1    3.65    1.51
   4  10   1   13.39    2.63
   5  10   1    2.84    1.61
 -14  11   1   83.27    7.94
 -13  11   1    5.21    2.37
 -12  11   1   52.78    7.03
 -11  11   1   32.83    5.40
 -10  11   1    6.86    2.64
  -9  11   1  116.87    8.04
  -8  11   1    1.43    1.25
  -7  11   1    4.48    1.23
  -6  11   1   14.99    2.09
  -5  11   1  135.71    5.38
  -4  11   1   62.59    3.60
  -3  11   1   51.84    3.72
  -2  11   1   68.00    3.93
  -1  11   1   23.50    2.90
   0  11   1   41.61    4.04
   1  11   1    2.90    1.02
   2  11   1    6.88    1.49
   3  11   1   68.22    5.90
   4  11   1   10.63    2.57
 -14  12   1   58.40    8.09
 -13  12   1   13.64    4.03
 -12  12   1   78.66    7.47
 -11  12   1    2.01    1.70
 -10  12   1    2.79    1.78
  -9  12   1   27.78    4.80
  -8  12   1    3.05    1.66
  -7  12   1   15.05    3.59
  -6  12   1   35.11    5.40
  -5  12   1   14.37    2.27
  -4  12   1  110.16    5.07
  -3  12   1    1.80    1.01
  -2  12   1    2.63    1.16
  -1  12   1   60.95    4.37
   0  12   1   69.53    4.54
   1  12   1   22.99    3.17
   2  12   1    4.99    1.81
 -13  13   1    3.71    1.76
 -12  13   1   22.19    4.85
 -11  13   1    8.76    2.97
 -10  13   1    0.12    1.22
  -9  13   1   74.69    6.97
  -8  13   1   31.30    5.20
  -7  13   1   72.26    6.60
  -6  13   1    2.82    1.79
  -5  13   1   -0.02    1.02
  -4  13   1   20.75    4.15
  -3  13   1   31.92    5.56
  -2  13   1   11.05    2.36
  -1  13   1   14.29    2.52
   0  13   1    8.14    2.08
   1  13   1   74.93    5.48
 -13  14   1   69.54    8.71
 -12  14   1    6.54    2.78
 -11  14   1   79.97    7.76
 -10  14   1   11.35    3.60
  -9  14   1    4.76    2.26
  -8  14   1    9.10    3.11
  -7  14   1   28.83    5.15
  -6  14   1    7.31    2.66
  -5  14   1   18.18    4.04
  -4  14   1   51.07    6.75
  -3  14   1   80.23    7.43
  -2  14   1   45.08    6.83
  -1  14   1   -0.35    1.47
 -11  15   1   10.47    4.22
 -10  15   1   10.89    3.65
  -9  15   1    0.42    1.56
  -8  15   1   60.04    7.76
  -7  15   1    8.29    3.24
  -6  15   1   86.88    7.91
  -5  15   1    5.20    2.58
  -4  15   1    0.83    1.61
   6 -15   2   12.16    3.53
   7 -15   2   43.67    6.24
   8 -15   2   27.06    4.97
   9 -15   2   14.68    4.13
  10 -15   2   54.19    7.39
   4 -14   2    9.09    2.95
   5 -14   2    2.68    1.91
   6 -14   2   58.03    7.22
   7 -14   2    3.26    2.07
   8 -14   2   11.38    3.31
   9 -14   2   49.13    6.54
  10 -14   2    3.25    2.12
  11 -14   2   59.15    7.99
  12 -14   2   22.38    5.12
   2 -13   2    4.56    2.33
   3 -13   2   -0.61    1.18
   4 -13   2   29.18    4.93
   5 -13   2   46.87    6.22
   6 -13   2   64.18    6.09
   7 -13   2   62.20    7.26
   8 -13   2   21.05    4.25
   9 -13   2   37.83    5.83
  10 -13   2    9.03    3.11
  11 -13   2   47.93    6.84
  12 -13   2   -0.06    1.33
  13 -13   2    0.08    1.47
   0 -12   2   13.96    3.53
   1 -12   2    9.29    2.77
   2 -12   2  116.83    7.98
   3 -12   2    6.73    2.27
   4 -12   2   41.43    5.53
   5 -12   2    3.53    1.85
   6 -12   2   38.21    5.28
   7 -12   2    0.51    1.07
   8 -12   2    3.44    1.73
   9 -12   2   33.03    5.31
  10 -12   2    7.50    2.53
  11 -12   2  112.83    8.59
  12 -12   2    9.83    3.41
  13 -12   2   14.91    3.97
  -3 -11   2   53.16    7.42
  -2 -11   2   43.02    4.26
  -1 -11   2  108.56    7.55
   0 -11   2   12.23    2.09
   1 -11   2    6.81    1.51
   2 -11   2    0.79    0.74
   3 -11   2   34.30    3.16
   4 -11   2   72.36    3.25
   5 -11   2   67.67    4.54
   6 -11   2    2.46    1.03
   7 -11   2  334.25   14.08
   8 -11   2   10.90    2.83
   9 -11   2   42.28    5.82
  10 -11   2    5.51    2.31
  11 -11   2   15.38    3.75
  12 -11   2    8.58    2.88
  13 -11   2    4.74    2.16
  14 -11   2   58.96    8.04
  -5 -10   2   75.32    6.29
  -4 -10   2    4.31    1.63
  -3 -10   2   14.88    2.85
  -2 -10   2    7.97    1.85
  -1 -10   2    9.43    1.52
   0 -10   2  116.91    4.27
   1 -10   2   34.18    3.25
   2 -10   2   41.93    3.01
   3 -10   2   82.78    3.32
   4 -10   2  108.57    3.85
   5 -10   2   40.45    2.53
   6 -10   2    2.28    0.75
   7 -10   2   26.52    2.58
   8 -10   2  104.52    4.51
   9 -10   2   19.73    2.39
  10 -10   2  119.16    8.25
  11 -10   2    3.01    1.66
  12 -10   2  117.55    8.88
  13 -10   2    1.76    1.51
  14 -10   2    5.77    2.78
  -6  -9   2   15.39    2.85
  -5  -9   2   49.18    4.77
  -4  -9   2   44.93    4.33
  -3  -9   2   28.82    2.68
  -2  -9   2   43.77    3.08
  -1  -9   2   25.56    2.00
   0  -9   2   82.55    2.81
   1  -9   2   10.13    1.32
   2  -9   2   16.25    1.61
   3  -9   2  168.99    4.75
   4  -9   2   38.56    2.31
   5  -9   2   83.34    3.17
   6  -9   2   60.66    3.16
   7  -9   2   74.64    3.56
   8  -9   2   54.05    3.10
   9  -9   2   80.47    3.92
  10  -9   2   26.12    2.78
  11  -9   2    2.14    1.02
  12  -9   2    7.63    1.64
  13  -9   2   24.28    3.28
  14  -9   2    4.00    2.36
  15  -9   2    5.92    3.37
  -7  -8   2   30.31    4.04
  -6  -8   2   11.04    2.52
  -5  -8   2   27.95    3.58
  -4  -8   2    3.44    1.08
  -3  -8   2   14.69    1.85
  -2  -8   2  106.47    3.41
  -1  -8   2   62.13    2.14
   0  -8   2  119.58    2.83
   1  -8   2   13.76    1.21
   2  -8   2   32.31    2.02
   3  -8   2  115.81    3.01
   4  -8   2   35.76    2.04
   5  -8   2   30.91    2.26
   6  -8   2   33.13    2.40
   7  -8   2   55.03    2.95
   8  -8   2  121.83    4.64
   9  -8   2    7.88    1.51
  10  -8   2   30.38    3.00
  11  -8   2   35.87    3.42
  12  -8   2   38.40    3.74
  13  -8   2   54.04    4.60
  14  -8   2   53.25    4.69
  15  -8   2   48.29    4.82
  -8  -7   2   48.42    5.14
  -7  -7   2    3.17    1.40
  -6  -7   2   56.31    5.10
  -5  -7   2    2.56    1.22
  -4  -7   2  339.09    8.06
  -3  -7   2   25.32    1.92
  -2  -7   2   72.76    2.27
  -1  -7   2   52.73    1.82
   0  -7   2   93.31    2.29
   1  -7   2   13.41    1.14
   2  -7   2   22.84    1.26
   3  -7   2  113.82    3.09
   4  -7   2  123.74    3.14
   5  -7   2  260.92    6.61
   6  -7   2  100.38    3.87
   7  -7   2   90.35    3.78
   8  -7   2   14.49    1.89
   9  -7   2   13.48    1.90
  10  -7   2   71.17    3.87
  11  -7   2   58.07    3.91
  12  -7   2    5.80    1.46
  13  -7   2   65.99    5.26
  14  -7   2    3.94    1.51
  15  -7   2   30.45    3.84
  -9  -6   2   13.17    4.09
  -8  -6   2   47.35    4.95
  -7  -6   2   63.31    5.49
  -6  -6   2   35.04    3.87
  -5  -6   2    2.79    0.76
  -4  -6   2    2.83    0.70
  -3  -6   2   60.16    2.30
  -2  -6   2   31.96    1.59
  -1  -6   2  101.05    2.37
   0  -6   2   19.59    1.16
   1  -6   2  341.82    5.15
   2  -6   2   12.82    0.84
   3  -6   2  164.40    3.61
   4  -6   2   15.38    1.07
   5  -6   2  184.42    3.69
   6  -6   2   19.90    1.28
   7  -6   2   12.40    1.69
   8  -6   2   33.23    2.51
   9  -6   2  176.49    5.98
  10  -6   2  105.44    4.80
  11  -6   2   59.12    3.78
  12  -6   2   44.80    4.08
  13  -6   2   62.29    5.13
  14  -6   2   10.14    2.18
  15  -6   2   16.19    2.86
  -9  -5   2    2.20    1.35
  -8  -5   2   49.32    4.74
  -7  -5   2    3.56    1.32
  -6  -5   2   68.27    3.45
  -5  -5   2   34.92    2.14
  -4  -5   2   77.51    2.66
  -3  -5   2   32.50    1.76
  -2  -5   2  262.75    4.18
  -1  -5   2  182.16    3.11
   0  -5   2    5.28    0.56
   1  -5   2   51.25    1.53
   2  -5   2   73.93    1.68
   3  -5   2    9.05    0.89
   4  -5   2   53.16    1.75
   5  -5   2    5.37    0.70
   6  -5   2  331.02    5.70
   7  -5   2   22.89    1.40
   8  -5   2  119.46    3.38
   9  -5   2   40.57    3.37
  10  -5   2   37.24    3.43
  11  -5   2    3.47    1.17
  12  -5   2    3.06    1.23
  13  -5   2   25.79    3.38
  14  -5   2   53.54    5.12
  15  -5   2   73.99    5.53
 -10  -4   2    8.85    2.41
  -9  -4   2   23.24    3.32
  -8  -4   2   41.61    3.34
  -7  -4   2   67.06    3.28
  -6  -4   2  106.21    3.91
  -5  -4   2   38.85    2.11
  -4  -4   2   38.48    1.77
  -3  -4   2  126.44    3.00
  -2  -4   2   14.50    0.97
  -1  -4   2   52.97    1.43
   0  -4   2  115.44    2.03
   1  -4   2  295.16    4.12
   2  -4   2  263.79    3.50
   3  -4   2  143.56    3.04
   4  -4   2  116.95    3.14
   5  -4   2   50.88    1.79
   6  -4   2   12.38    1.16
   7  -4   2  109.18    3.14
   8  -4   2   36.53    2.08
   9  -4   2   74.63    2.95
  10  -4   2    1.18    0.63
  11  -4   2  353.85   10.14
  12  -4   2    5.61    1.56
  13  -4   2   36.61    4.04
  14  -4   2    4.98    1.78
  15  -4   2   11.35    4.13
 -11  -3   2   58.81    5.52
 -10  -3   2    1.49    1.05
  -9  -3   2    8.30    1.59
  -8  -3   2   32.79    2.81
  -7  -3   2   75.75    3.36
  -6  -3   2  168.48    4.19
  -5  -3   2  117.44    3.19
  -4  -3   2  114.13    2.89
  -3  -3   2  160.44    3.26
  -2  -3   2    9.30    0.72
  -1  -3   2  137.82    2.26
   0  -3   2   35.58    1.35
   1  -3   2   96.13    1.85
   2  -3   2  275.49    4.54
   3  -3   2   37.65    1.63
   4  -3   2  284.96    4.92
   5  -3   2   75.68    2.30
   6  -3   2  160.85    3.81
   7  -3   2  124.80    3.52
   8  -3   2   30.95    2.01
   9  -3   2   57.55    2.68
  10  -3   2   29.22    2.47
  11  -3   2   18.99    2.06
  12  -3   2   28.21    3.47
  13  -3   2    8.11    1.94
  14  -3   2   66.49    5.81
 -12  -2   2   24.28    5.23
 -11  -2   2    6.49    1.46
 -10  -2   2  124.38    5.06
  -9  -2   2    2.57    0.89
  -8  -2   2   43.14    2.85
  -7  -2   2   15.21    1.78
  -6  -2   2   30.31    1.96
  -5  -2   2   25.87    1.69
  -4  -2   2   12.31    1.06
  -3  -2   2   76.24    1.99
  -2  -2   2  260.21    3.48
  -1  -2   2  277.49    3.69
   0  -2   2  411.04    5.13
   1  -2   2  203.02    3.29
   2  -2   2  413.67    4.90
   3  -2   2   97.81    1.85
   4  -2   2  254.25    4.63
   5  -2   2    8.97    0.97
   6  -2   2   14.19    1.32
   7  -2   2  261.49    5.65
   8  -2   2   32.74    2.39
   9  -2   2   73.49    3.16
  10  -2   2  104.36    4.04
  11  -2   2   48.21    3.49
  12  -2   2   10.44    1.79
  13  -2   2   44.12    4.53
 -12  -1   2    9.60    1.85
 -11  -1   2    8.57    1.61
 -10  -1   2    4.44    1.13
  -9  -1   2   25.46    2.49
  -8  -1   2   10.53    1.50
  -7  -1   2   16.37    1.73
  -6  -1   2   12.69    1.20
  -5  -1   2  328.68    5.45
  -4  -1   2   48.41    1.65
  -3  -1   2  285.73    4.27
  -2  -1   2   95.45    1.89
  -1  -1   2  201.16    2.53
   0  -1   2   50.35    1.40
   1  -1   2   51.49    1.37
   2  -1   2  201.07    2.94
   3  -1   2  272.70    3.90
   4  -1   2  142.29    3.25
   5  -1   2   55.08    2.08
   6  -1   2  176.83    4.32
   7  -1   2  101.27    3.38
   8  -1   2   58.00    2.72
   9  -1   2   67.65    3.15
  10  -1   2   19.11    2.16
  11  -1   2    5.15    1.26
  12  -1   2  109.67    4.97
  13  -1   2    0.74    1.21
 -13   0   2    2.55    1.23
 -12   0   2   10.34    1.83
 -11   0   2   12.80    1.99
 -10   0   2  110.36    4.46
  -9   0   2   76.77    3.45
  -8   0   2  112.57    3.97
  -7   0   2   90.22    3.26
  -6   0   2   17.17    1.34
  -5   0   2    6.90    0.74
  -4   0   2  115.30    2.49
  -3   0   2   37.28    1.21
  -2   0   2  421.03    5.09
  -1   0   2   51.76    1.06
   0   0   2  773.04    8.30
   1   0   2   51.83    1.22
   2   0   2  415.49    5.11
   3   0   2   38.46    1.47
   4   0   2  115.35    2.98
   5   0   2    5.28    0.84
   6   0   2   18.44    1.70
   7   0   2   86.94    3.25
   8   0   2  124.88    4.19
   9   0   2   80.87    3.58
  10   0   2  120.90    4.65
  11   0   2   11.92    2.36
  12   0   2    9.56    2.26
  13   0   2    2.11    1.56
 -13   1   2   -0.26    0.77
 -12   1   2  104.03    4.71
 -11   1   2    7.19    1.47
 -10   1   2   22.33    2.29
  -9   1   2   54.72    2.98
  -8   1   2   50.41    2.54
  -7   1   2   96.41    3.28
  -6   1   2  177.45    4.30
  -5   1   2   56.31    1.75
  -4   1   2  138.75    2.71
  -3   1   2  274.90    3.92
  -2   1   2  201.82    2.97
  -1   1   2   51.93    1.37
   0   1   2   52.34    1.17
   1   1   2  202.79    2.88
   2   1   2   93.43    1.90
   3   1   2  292.02    5.88
   4   1   2   49.13    1.94
   5   1   2  341.93    6.41
   6   1   2   15.10    1.52
   7   1   2   15.27    1.68
   8   1   2    6.14    1.18
   9   1   2   29.26    2.83
  10   1   2    4.79    1.46
  11   1   2    9.04    2.13
  12   1   2    5.64    1.98
 -14   2   2   22.63    3.46
 -13   2   2   46.78    4.86
 -12   2   2   10.15    1.70
 -11   2   2   45.72    3.41
 -10   2   2  108.17    4.15
  -9   2   2   75.39    3.21
  -8   2   2   34.23    2.43
  -7   2   2  256.27    5.58
  -6   2   2   13.18    1.30
  -5   2   2   10.27    0.88
  -4   2   2  255.28    3.90
  -3   2   2   96.91    1.93
  -2   2   2  409.36    5.01
  -1   2   2  201.55    2.93
   0   2   2  421.05    5.95
   1   2   2  273.78    4.66
   2   2   2  252.05    3.78
   3   2   2   75.44    2.21
   4   2   2   11.78    1.18
   5   2   2   26.12    1.79
   6   2   2   30.63    2.05
   7   2   2   13.89    1.70
   8   2   2   39.60    3.85
   9   2   2    1.96    1.13
  10   2   2  113.09    6.07
  11   2   2    3.96    1.51
  12   2   2   19.61    4.93
 -14   3   2   58.06    5.48
 -13   3   2   12.47    2.43
 -12   3   2   28.25    3.44
 -11   3   2   18.00    2.07
 -10   3   2   23.16    2.24
  -9   3   2   58.63    2.76
  -8   3   2   30.08    2.19
  -7   3   2  119.59    3.54
  -6   3   2  159.85    3.87
  -5   3   2   70.65    2.27
  -4   3   2  288.87    4.13
  -3   3   2   37.97    1.08
  -2   3   2  271.79    3.66
  -1   3   2   98.46    1.87
   0   3   2   36.86    1.37
   1   3   2  140.56    3.19
   2   3   2    9.65    0.69
   3   3   2  159.54    3.60
   4   3   2  109.56    3.18
   5   3   2  115.72    3.61
   6   3   2  174.66    6.40
   7   3   2   78.67    4.43
   8   3   2   40.76    4.07
   9   3   2    6.59    1.76
  10   3   2    0.85    1.12
  11   3   2   60.04    5.73
 -14   4   2    3.16    1.36
 -13   4   2   37.35    4.03
 -12   4   2    1.34    0.97
 -11   4   2  341.47   10.01
 -10   4   2    2.28    0.74
  -9   4   2   76.63    3.09
  -8   4   2   34.37    2.14
  -7   4   2  109.67    3.27
  -6   4   2   12.88    1.21
  -5   4   2   50.07    1.90
  -4   4   2  113.80    2.83
  -3   4   2  143.68    3.13
  -2   4   2  262.35    3.52
  -1   4   2  290.56    4.10
   0   4   2  117.16    2.78
   1   4   2   49.11    1.90
   2   4   2   14.02    0.89
   3   4   2  121.58    3.67
   4   4   2   33.33    3.00
   5   4   2   35.23    3.20
   6   4   2  109.11    5.15
   7   4   2   59.40    4.86
   8   4   2   33.71    3.83
   9   4   2   24.98    3.48
  10   4   2    5.90    1.82
 -15   5   2   71.21    6.17
 -14   5   2   58.85    5.22
 -13   5   2   21.49    3.04
 -12   5   2    2.56    1.00
 -11   5   2    2.74    1.06
 -10   5   2   35.26    3.41
  -9   5   2   42.25    2.47
  -8   5   2  121.11    3.61
  -7   5   2   23.37    1.56
  -6   5   2  337.60    6.04
  -5   5   2    5.24    0.70
  -4   5   2   53.03    1.88
  -3   5   2    7.90    0.85
  -2   5   2   70.47    2.27
  -1   5   2   52.24    1.52
   0   5   2    5.01    0.69
   1   5   2  174.49    4.11
   2   5   2  258.60    5.62
   3   5   2   34.52    2.49
   4   5   2   79.00    3.32
   5   5   2   37.25    3.56
   6   5   2   68.81    4.55
   7   5   2    3.16    1.29
   8   5   2   41.77    4.47
   9   5   2    0.34    1.03
  10   5   2    1.97    1.96
 -15   6   2   15.81    2.98
 -14   6   2   10.12    2.27
 -13   6   2   53.32    4.71
 -12   6   2   33.69    3.68
 -11   6   2   64.48    3.99
 -10   6   2  100.52    4.86
  -9   6   2  177.04    6.20
  -8   6   2   28.87    2.76
  -7   6   2   13.23    1.28
  -6   6   2   18.73    1.30
  -5   6   2  181.43    3.92
  -4   6   2   11.41    1.10
  -3   6   2  153.04    3.69
  -2   6   2   13.76    1.28
  -1   6   2  335.64    5.08
   0   6   2   21.41    1.45
   1   6   2   97.76    3.16
   2   6   2   32.80    2.39
   3   6   2   55.85    2.76
   4   6   2    2.18    0.77
   5   6   2    3.18    1.00
   6   6   2   34.83    3.14
   7   6   2   55.89    4.11
   8   6   2   50.95    4.08
   9   6   2    8.85    3.24
 -15   7   2   33.34    4.25
 -14   7   2    3.51    1.53
 -13   7   2   53.22    4.75
 -12   7   2    2.23    1.07
 -11   7   2   67.28    4.09
 -10   7   2   75.51    4.15
  -9   7   2   19.06    2.44
  -8   7   2   15.16    1.95
  -7   7   2   85.73    3.94
  -6   7   2   96.25    4.01
  -5   7   2  273.64    5.20
  -4   7   2  123.02    3.26
  -3   7   2  110.69    3.17
  -2   7   2   22.22    1.70
  -1   7   2   15.33    1.54
   0   7   2   88.83    3.96
   1   7   2   53.21    2.44
   2   7   2   75.67    3.18
   3   7   2   26.29    2.31
   4   7   2  348.79    8.31
   5   7   2    2.09    0.84
   6   7   2   53.28    4.78
   7   7   2    2.14    1.06
   8   7   2   48.22    4.31
 -15   8   2   37.89    4.73
 -14   8   2   58.05    5.20
 -13   8   2   49.83    4.64
 -12   8   2   43.14    4.23
 -11   8   2   35.06    3.61
 -10   8   2   37.58    3.58
  -9   8   2    6.93    1.50
  -8   8   2  125.76    5.00
  -7   8   2   53.66    3.15
  -6   8   2   27.55    2.65
  -5   8   2   29.98    2.62
  -4   8   2   36.61    1.89
  -3   8   2  113.67    3.44
  -2   8   2   33.26    2.06
  -1   8   2   17.71    1.78
   0   8   2  123.62    5.00
   1   8   2   61.30    3.68
   2   8   2  109.02    5.20
   3   8   2   20.40    2.90
   4   8   2    3.10    1.38
   5   8   2   29.25    3.80
   6   8   2    7.80    2.16
   7   8   2   30.10    4.16
 -15   9   2   23.38    5.78
 -14   9   2    2.04    1.82
 -13   9   2   33.98    3.84
 -12   9   2    8.36    1.95
 -11   9   2    1.47    0.79
 -10   9   2   29.20    3.24
  -9   9   2   81.05    4.26
  -8   9   2   57.54    3.51
  -7   9   2   69.33    3.73
  -6   9   2   60.78    3.40
  -5   9   2   73.03    3.71
  -4   9   2   40.83    3.41
  -3   9   2  181.30    6.15
  -2   9   2   17.19    1.70
  -1   9   2    9.34    1.38
   0   9   2   82.41    3.53
   1   9   2   22.98    2.90
   2   9   2   43.02    4.10
   3   9   2   31.88    3.69
   4   9   2   31.64    3.89
   5   9   2   55.66    5.43
   6   9   2   15.52    3.52
 -14  10   2    6.32    2.73
 -13  10   2    2.83    1.79
 -12  10   2  126.60    6.09
 -11  10   2    5.82    1.63
 -10  10   2  115.15    5.41
  -9  10   2   23.22    2.78
  -8  10   2  107.30    4.95
  -7  10   2   24.38    2.61
  -6  10   2    2.14    0.86
  -5  10   2   36.43    3.39
  -4  10   2  101.69    4.70
  -3  10   2   79.58    4.18
  -2  10   2   37.59    3.52
  -1  10   2   31.14    2.62
   0  10   2  119.53    4.49
   1  10   2    7.11    1.75
   2  10   2   10.22    2.14
   3  10   2    9.67    2.29
   4  10   2    4.50    1.79
   5  10   2   72.45    9.22
 -14  11   2   58.01    7.86
 -13  11   2    0.91    1.29
 -12  11   2    3.99    2.13
 -11  11   2   16.81    4.13
 -10  11   2    5.45    1.52
  -9  11   2   45.60    3.56
  -8  11   2   21.15    2.76
  -7  11   2  354.73    9.84
  -6  11   2    3.51    1.14
  -5  11   2   67.00    3.96
  -4  11   2   67.20    3.95
  -3  11   2   41.94    3.92
  -2  11   2    2.54    1.10
  -1  11   2    4.15    1.34
   0  11   2   18.45    2.74
   1  11   2  109.92    4.77
   2  11   2   44.11    3.74
   3  11   2   56.92    5.41
 -13  12   2    6.91    3.26
 -12  12   2   14.11    3.97
 -11  12   2  105.54    8.50
 -10  12   2   11.01    3.33
  -9  12   2   28.10    4.96
  -8  12   2    2.42    1.09
  -7  12   2    1.35    0.90
  -6  12   2   34.92    3.54
  -5  12   2    2.20    1.06
  -4  12   2   35.74    3.70
  -3  12   2    6.64    1.64
  -2  12   2  113.47    5.77
  -1  12   2    7.31    1.81
   0  12   2   10.85    2.33
   1  12   2    1.64    1.26
   2  12   2   18.08    3.07
 -13  13   2    2.52    2.08
 -12  13   2    0.86    1.56
 -11  13   2   32.09    5.66
 -10  13   2    5.98    2.34
  -9  13   2   36.74    6.04
  -8  13   2   30.20    5.37
  -7  13   2   55.23    7.14
  -6  13   2   57.04    4.30
  -5  13   2   45.98    4.31
  -4  13   2   27.80    3.33
  -3  13   2    0.80    1.07
  -2  13   2    5.61    1.76
  -1  13   2   12.24    2.55
   0  13   2    0.37    0.95
 -11  14   2   58.99    8.18
 -10  14   2    5.87    2.57
  -9  14   2   47.65    6.95
  -8  14   2    9.30    3.27
  -7  14   2    0.65    1.42
  -6  14   2   62.52    7.83
  -5  14   2    1.52    1.74
  -4  14   2    6.28    2.53
  -3  14   2   54.10    5.08
  -2  14   2   15.44    2.75
  -9  15   2   16.36    4.45
  -8  15   2   17.84    4.33
  -7  15   2   46.70    7.26
  -6  15   2    8.75    3.16
  -5  15   2    0.54    2.24
   3 -14   3   47.62    6.73
   4 -14   3   35.21    5.72
   5 -14   3   19.94    4.57
   6 -14   3   16.50    3.95
   7 -14   3   27.52    5.47
   8 -14   3    5.28    2.59
   9 -14   3    1.46    1.92
  10 -14   3    6.16    2.63
   1 -13   3   24.04    4.83
   2 -13   3    6.42    2.66
   3 -13   3   22.10    4.48
   4 -13   3   29.47    5.10
   5 -13   3   -0.37    1.03
   6 -13   3    1.25    1.54
   7 -13   3   62.45    7.65
   8 -13   3   31.81    5.54
   9 -13   3   38.31    5.88
  10 -13   3   14.83    3.78
  11 -13   3    6.19    2.85
  12 -13   3   10.40    3.56
  -1 -12   3   14.81    3.75
   0 -12   3   58.03    4.86
   1 -12   3   37.53    3.93
   2 -12   3   14.24    2.34
   3 -12   3    1.27    0.91
   4 -12   3  115.83    5.87
   5 -12   3   -0.14    1.09
   6 -12   3   23.39    4.54
   7 -12   3   25.47    4.77
   8 -12   3    6.62    2.56
   9 -12   3   24.07    4.54
  10 -12   3    5.92    2.45
  11 -12   3   14.32    3.73
  12 -12   3   50.24    7.30
  13 -12   3   21.63    5.11
  -3 -11   3   80.08    6.48
  -2 -11   3    3.37    1.85
  -1 -11   3    9.51    2.85
   0 -11   3   40.73    4.02
   1 -11   3   13.44    2.28
   2 -11   3   42.90    3.92
   3 -11   3   22.39    2.78
   4 -11   3   58.59    3.80
   5 -11   3   85.38    4.44
   6 -11   3   34.58    3.29
   7 -11   3    1.62    0.88
   8 -11   3   11.04    1.92
   9 -11   3   92.93    4.70
  10 -11   3    7.82    2.76
  11 -11   3   38.69    5.93
  12 -11   3   28.30    5.17
  13 -11   3    7.46    2.85
  -4 -10   3   11.93    3.83
  -3 -10   3   14.11    2.67
  -2 -10   3    4.35    1.44
  -1 -10   3    9.49    1.61
   0 -10   3  144.99    5.04
   1 -10   3   25.33    2.95
   2 -10   3  154.18    6.02
   3 -10   3    9.31    1.63
   4 -10   3    6.68    1.51
   5 -10   3   18.22    2.28
   6 -10   3   23.67    2.68
   7 -10   3   12.92    2.02
   8 -10   3   23.50    2.71
   9 -10   3    5.57    1.42
  10 -10   3  146.17    6.00
  11 -10   3   14.29    2.33
  12 -10   3   15.43    2.51
  13 -10   3   22.28    4.68
  14 -10   3   37.61    6.40
  -5  -9   3    0.94    1.71
  -4  -9   3   60.74    5.39
  -3  -9   3   35.62    3.95
  -2  -9   3   97.33    5.19
  -1  -9   3    2.59    0.85
   0  -9   3    6.67    1.18
   1  -9   3   53.60    2.74
   2  -9   3   23.44    2.09
   3  -9   3    0.89    0.64
   4  -9   3    7.35    1.34
   5  -9   3  245.28    7.32
   6  -9   3   21.95    2.49
   7  -9   3  135.44    5.29
   8  -9   3    1.61    0.81
   9  -9   3    4.08    1.18
  10  -9   3   24.42    2.78
  11  -9   3   40.61    3.88
  12  -9   3    1.14    0.95
  13  -9   3   40.27    4.17
  14  -9   3   28.39    3.64
  -6  -8   3    5.17    1.82
  -5  -8   3   28.52    2.96
  -4  -8   3   11.48    1.80
  -3  -8   3    9.86    1.45
  -2  -8   3   26.00    2.07
  -1  -8   3    1.72    0.71
   0  -8   3    5.91    1.09
   1  -8   3  194.01    5.12
   2  -8   3   85.19    3.17
   3  -8   3  222.94    5.22
   4  -8   3   82.25    3.85
   5  -8   3   17.10    2.12
   6  -8   3    6.88    1.38
   7  -8   3   22.40    2.55
   8  -8   3    4.62    1.27
   9  -8   3   51.17    3.51
  10  -8   3  155.68    6.19
  11  -8   3   26.61    3.12
  12  -8   3  114.64    5.76
  13  -8   3    0.78    1.00
  14  -8   3   10.47    2.21
  15  -8   3    7.94    3.28
  -7  -7   3   18.84    3.14
  -6  -7   3   73.87    5.27
  -5  -7   3   26.11    2.67
  -4  -7   3    2.29    0.82
  -3  -7   3   12.04    1.62
  -2  -7   3  130.32    3.74
  -1  -7   3   22.10    1.66
   0  -7   3  132.34    3.45
   1  -7   3   82.41    3.05
   2  -7   3   11.65    1.29
   3  -7   3  114.24    3.38
   4  -7   3   21.16    1.72
   5  -7   3   11.95    1.66
   6  -7   3  260.40    7.20
   7  -7   3  129.08    4.93
   8  -7   3  189.56    6.35
   9  -7   3   21.91    2.55
  10  -7   3    9.32    1.78
  11  -7   3   50.54    4.34
  12  -7   3    1.05    0.93
  13  -7   3    4.11    1.40
  14  -7   3   27.92    3.64
  -8  -6   3   17.55    3.06
  -7  -6   3    3.69    1.59
  -6  -6   3   21.88    2.48
  -5  -6   3   37.65    3.10
  -4  -6   3   21.79    2.25
  -3  -6   3   23.82    2.17
  -2  -6   3    7.51    1.04
  -1  -6   3  266.41    5.05
   0  -6   3   52.94    1.94
   1  -6   3   21.83    1.27
   2  -6   3   57.37    2.29
   3  -6   3  256.13    5.24
   4  -6   3   56.47    2.19
   5  -6   3   59.41    2.21
   6  -6   3   52.19    2.09
   7  -6   3   81.87    3.85
   8  -6   3   83.42    4.04
   9  -6   3    0.97    0.70
  10  -6   3    6.29    1.48
  11  -6   3   82.09    4.57
  12  -6   3   19.02    2.79
  13  -6   3   61.91    5.21
  14  -6   3    4.39    1.67
  -9  -5   3   24.74    3.59
  -8  -5   3    0.43    1.00
  -7  -5   3    1.08    1.07
  -6  -5   3   79.25    3.78
  -5  -5   3   14.43    1.80
  -4  -5   3  236.66    6.13
  -3  -5   3   18.01    1.79
  -2  -5   3   11.36    1.17
  -1  -5   3   53.35    1.96
   0  -5   3  161.34    3.36
   1  -5   3   16.72    1.02
   2  -5   3   80.14    1.84
   3  -5   3   63.13    2.24
   4  -5   3  278.30    5.34
   5  -5   3  158.48    3.82
   6  -5   3   22.94    1.54
   7  -5   3   12.44    1.27
   8  -5   3  217.57    5.17
   9  -5   3    9.55    1.69
  10  -5   3   14.65    2.15
  11  -5   3   32.64    3.52
  12  -5   3   23.33    3.12
  13  -5   3   36.98    4.05
  14  -5   3    0.48    1.12
 -10  -4   3   48.93    5.27
  -9  -4   3   38.13    4.49
  -8  -4   3  108.21    6.01
  -7  -4   3   47.83    4.42
  -6  -4   3    8.39    1.44
  -5  -4   3    9.08    1.33
  -4  -4   3   80.68    3.23
  -3  -4   3   18.52    1.73
  -2  -4   3   60.10    2.09
  -1  -4   3  276.14    4.74
   0  -4   3  134.87    2.88
   1  -4   3  402.96    5.58
   2  -4   3   13.28    0.71
   3  -4   3   30.70    1.48
   4  -4   3  130.96    3.33
   5  -4   3   15.23    1.34
   6  -4   3   59.13    2.26
   7  -4   3  111.79    3.40
   8  -4   3   77.80    2.99
   9  -4   3  235.14    5.83
  10  -4   3   28.90    3.12
  11  -4   3    3.65    1.29
  12  -4   3   11.60    2.23
  13  -4   3   69.53    5.19
  14  -4   3    9.47    3.22
 -10  -3   3   22.07    3.40
  -9  -3   3    2.04    1.22
  -8  -3   3   25.55    3.33
  -7  -3   3    4.83    1.15
  -6  -3   3    0.16    0.48
  -5  -3   3  221.18    5.62
  -4  -3   3  112.59    2.88
  -3  -3   3  256.95    4.36
  -2  -3   3   62.07    1.55
  -1  -3   3   32.78    1.52
   0  -3   3   84.77    2.10
   1  -3   3   40.94    1.47
   2  -3   3   94.68    1.97
   3  -3   3   84.06    1.78
   4  -3   3  406.43    5.39
   5  -3   3   75.83    1.98
   6  -3   3  255.55    4.40
   7  -3   3   17.35    1.64
   8  -3   3   15.61    1.62
   9  -3   3   21.64    2.01
  10  -3   3   14.75    1.81
  11  -3   3   14.23    1.88
  12  -3   3   35.40    3.90
  13  -3   3   15.41    4.10
 -11  -2   3    6.83    1.95
 -10  -2   3   16.50    2.88
  -9  -2   3   37.35    4.02
  -8  -2   3  160.93    6.84
  -7  -2   3   24.20    2.00
  -6  -2   3   81.90    2.74
  -5  -2   3   10.65    1.06
  -4  -2   3   60.44    1.95
  -3  -2   3   78.41    2.04
  -2  -2   3   12.05    0.65
  -1  -2   3   98.30    2.31
   0  -2   3  313.51    4.61
   1  -2   3   74.85    1.80
   2  -2   3  320.13    4.48
   3  -2   3   43.52    1.32
   4  -2   3   12.64    0.95
   5  -2   3   67.60    1.95
   6  -2   3   60.51    2.02
   7  -2   3    9.60    1.26
   8  -2   3    9.40    1.33
   9  -2   3  138.44    4.54
  10  -2   3   25.13    2.38
  11  -2   3   92.84    4.15
  12  -2   3    4.64    1.53
  13  -2   3    8.69    3.06
 -12  -1   3   24.10    3.78
 -11  -1   3   43.42    4.67
 -10  -1   3   12.78    2.36
  -9  -1   3   26.93    3.28
  -8  -1   3   49.00    2.97
  -7  -1   3  187.07    4.40
  -6  -1   3   83.39    2.64
  -5  -1   3   23.23    1.40
  -4  -1   3   15.31    1.12
  -3  -1   3  406.71    5.61
  -2  -1   3   41.81    1.12
  -1  -1   3   79.00    1.95
   0  -1   3   57.34    1.16
   1  -1   3   57.07    1.54
   2  -1   3   81.96    1.88
   3  -1   3   99.76    2.20
   4  -1   3   32.08    1.35
   5  -1   3  276.63    4.71
   6  -1   3   55.33    2.39
   7  -1   3  261.82    6.01
   8  -1   3   21.00    2.03
   9  -1   3    1.90    0.78
  10  -1   3    4.16    1.39
  11  -1   3   10.59    2.23
  12  -1   3   15.99    2.65
  13  -1   3   17.60    4.27
 -12   0   3   56.36    5.45
 -11   0   3   38.02    4.35
 -10   0   3  143.17    5.12
  -9   0   3    4.35    1.03
  -8   0   3    4.92    1.03
  -7   0   3  126.07    3.42
  -6   0   3   51.31    1.98
  -5   0   3  162.41    3.43
  -4   0   3  137.35    2.89
  -3   0   3   82.05    2.00
  -2   0   3  315.74    4.44
  -1   0   3   57.29    1.30
   0   0   3    0.08    0.13
   1   0   3   57.34    1.54
   2   0   3  323.19    4.57
   3   0   3   85.95    2.09
   4   0   3  131.87    2.90
   5   0   3  162.09    3.50
   6   0   3   52.15    2.38
   7   0   3  130.62    4.12
   8   0   3    5.87    1.43
   9   0   3    5.18    1.56
  10   0   3  136.51    6.41
  11   0   3   40.02    4.23
  12   0   3   65.07    5.67
  13   0   3    0.39    1.97
 -13   1   3   11.96    2.66
 -12   1   3   14.59    2.65
 -11   1   3    9.41    1.64
 -10   1   3    4.59    1.12
  -9   1   3    1.54    0.69
  -8   1   3   22.14    2.02
  -7   1   3  267.33    5.11
  -6   1   3   54.95    1.99
  -5   1   3  274.18    4.67
  -4   1   3   31.95    1.28
  -3   1   3   94.22    2.15
  -2   1   3   77.82    1.82
  -1   1   3   54.58    1.47
   0   1   3   58.90    1.51
   1   1   3   77.22    1.78
   2   1   3   40.99    1.30
   3   1   3  404.49    5.68
   4   1   3   16.74    1.23
   5   1   3   23.63    1.47
   6   1   3   85.76    4.07
   7   1   3  178.29    6.59
   8   1   3   48.82    4.27
   9   1   3   29.24    3.23
  10   1   3   14.71    2.61
  11   1   3   33.32    4.13
  12   1   3   19.99    3.35
 -13   2   3    2.22    1.51
 -12   2   3    4.33    1.23
 -11   2   3   87.99    4.05
 -10   2   3   33.54    2.84
  -9   2   3  128.94    4.40
  -8   2   3    8.72    1.24
  -7   2   3   10.07    1.28
  -6   2   3   57.61    1.98
  -5   2   3   64.67    1.95
  -4   2   3   13.24    1.00
  -3   2   3   43.00    1.38
  -2   2   3  318.70    4.52
  -1   2   3   80.42    1.86
   0   2   3  316.86    5.36
   1   2   3   92.30    1.85
   2   2   3   14.14    0.74
   3   2   3   79.75    2.03
   4   2   3   57.47    2.46
   5   2   3   11.83    1.47
   6   2   3   90.70    3.61
   7   2   3   19.06    2.66
   8   2   3  164.55    6.89
   9   2   3   34.76    3.90
  10   2   3   18.94    3.17
  11   2   3    8.96    2.46
 -14   3   3   73.89    7.14
 -13   3   3   14.38    2.68
 -12   3   3   37.59    4.03
 -11   3   3   11.40    1.65
 -10   3   3   12.20    1.69
  -9   3   3   24.84    2.21
  -8   3   3   15.83    1.68
  -7   3   3   17.71    1.61
  -6   3   3  253.88    4.52
  -5   3   3   79.33    2.37
  -4   3   3  396.68    5.60
  -3   3   3   85.13    1.98
  -2   3   3   93.36    2.07
  -1   3   3   40.66    1.33
   0   3   3   88.23    2.44
   1   3   3   30.06    1.64
   2   3   3   62.19    2.37
   3   3   3  248.75    5.54
   4   3   3  109.59    3.68
   5   3   3  217.43    5.77
   6   3   3    0.61    0.65
   7   3   3    5.93    1.29
   8   3   3   31.25    3.70
   9   3   3    0.78    0.98
  10   3   3   27.49    3.18
  11   3   3   67.68    8.74
 -14   4   3   10.47    2.51
 -13   4   3   52.69    4.95
 -12   4   3    7.40    1.80
 -11   4   3    0.46    0.62
 -10   4   3   29.92    2.54
  -9   4   3  233.19    5.98
  -8   4   3   83.38    3.17
  -7   4   3  114.40    3.57
  -6   4   3   60.67    2.38
  -5   4   3   18.19    1.06
  -4   4   3  135.11    2.64
  -3   4   3   32.11    1.11
  -2   4   3   13.23    0.79
  -1   4   3  410.01    5.65
   0   4   3  135.72    3.27
   1   4   3  284.95    5.52
   2   4   3   59.00    2.44
   3   4   3   19.63    1.84
   4   4   3   83.16    3.35
   5   4   3    7.19    1.28
   6   4   3    5.69    1.23
   7   4   3   49.65    3.80
   8   4   3  113.07    5.01
   9   4   3   28.72    3.15
  10   4   3   36.34    3.73
 -14   5   3    0.18    0.97
 -13   5   3   31.00    3.79
 -12   5   3   26.97    3.35
 -11   5   3   27.96    3.32
 -10   5   3   14.30    2.29
  -9   5   3    9.55    1.36
  -8   5   3  209.95    5.27
  -7   5   3    9.11    1.17
  -6   5   3   24.93    1.72
  -5   5   3  156.21    3.95
  -4   5   3  276.83    5.50
  -3   5   3   64.21    2.33
  -2   5   3   74.49    2.60
  -1   5   3   17.20    1.02
   0   5   3  157.95    3.75
   1   5   3   59.26    2.36
   2   5   3   10.21    1.29
   3   5   3   16.13    1.74
   4   5   3  231.32    6.25
   5   5   3   16.02    1.96
   6   5   3   91.47    4.21
   7   5   3    1.29    0.82
   8   5   3    0.48    0.84
   9   5   3   20.65    2.83
 -14   6   3    2.89    1.56
 -13   6   3   60.17    5.27
 -12   6   3   15.85    2.58
 -11   6   3   89.80    4.89
 -10   6   3    6.70    1.56
  -9   6   3    0.99    0.69
  -8   6   3   82.53    4.13
  -7   6   3   80.18    2.89
  -6   6   3   52.85    2.25
  -5   6   3   56.58    2.29
  -4   6   3   59.34    2.34
  -3   6   3  256.97    5.41
  -2   6   3   54.91    2.31
  -1   6   3   22.93    1.89
   0   6   3   49.92    2.93
   1   6   3  258.65    5.72
   2   6   3    7.29    1.16
   3   6   3   24.26    2.26
   4   6   3   26.19    2.53
   5   6   3   21.27    2.38
   6   6   3   21.53    2.53
   7   6   3    5.29    1.39
   8   6   3   19.17    2.70
 -14   7   3   23.42    3.37
 -13   7   3    4.50    1.50
 -12   7   3    0.67    0.88
 -11   7   3   51.58    4.53
 -10   7   3   10.25    1.95
  -9   7   3   22.97    2.78
  -8   7   3  174.84    6.37
  -7   7   3  127.72    5.10
  -6   7   3  251.23    5.55
  -5   7   3   11.23    1.29
  -4   7   3   20.56    1.72
  -3   7   3  112.06    3.50
  -2   7   3   10.17    1.23
  -1   7   3   84.37    3.17
   0   7   3  129.75    5.11
   1   7   3   17.45    2.32
   2   7   3  124.54    5.56
   3   7   3   17.57    2.62
   4   7   3    1.82    1.12
   5   7   3   20.31    3.15
   6   7   3   63.56    5.94
   7   7   3   24.33    3.78
 -14   8   3   15.30    2.84
 -13   8   3    0.36    0.90
 -12   8   3  109.24    5.82
 -11   8   3   24.69    3.16
 -10   8   3  162.51    6.59
  -9   8   3   50.82    3.75
  -8   8   3    5.87    1.45
  -7   8   3   24.90    2.79
  -6   8   3    7.80    1.52
  -5   8   3   19.36    2.37
  -4   8   3   77.50    2.96
  -3   8   3  216.48    5.35
  -2   8   3   94.56    3.44
  -1   8   3  173.66    5.03
   0   8   3    6.96    1.51
   1   8   3    1.99    0.96
   2   8   3   23.22    2.95
   3   8   3   13.02    2.27
   4   8   3   10.85    2.32
   5   8   3   27.35    3.80
   6   8   3    0.97    1.43
 -14   9   3   18.15    2.87
 -13   9   3   36.34    4.16
 -12   9   3    0.61    0.96
 -11   9   3   43.87    4.25
 -10   9   3   24.11    2.98
  -9   9   3    5.80    1.53
  -8   9   3    1.65    0.85
  -7   9   3  130.89    5.52
  -6   9   3   19.73    2.43
  -5   9   3  224.95    7.38
  -4   9   3    5.84    1.30
  -3   9   3    0.90    0.54
  -2   9   3   19.83    1.99
  -1   9   3   47.22    2.91
   0   9   3    4.67    1.08
   1   9   3    3.55    1.36
   2   9   3   93.29    5.30
   3   9   3   33.86    3.94
   4   9   3   62.28    5.61
   5   9   3   -0.39    1.04
 -14  10   3   40.66    4.44
 -13  10   3   32.10    4.07
 -12  10   3   13.65    2.27
 -11  10   3   10.40    1.98
 -10  10   3  145.56    6.42
  -9  10   3    4.64    1.40
  -8  10   3   27.73    3.23
  -7  10   3   12.78    2.13
  -6  10   3   28.44    3.10
  -5  10   3   14.53    2.23
  -4  10   3    5.40    1.33
  -3  10   3    5.58    1.46
  -2  10   3  161.73    6.53
  -1  10   3   26.36    2.52
   0  10   3  139.64    5.13
   1  10   3    9.18    1.67
   2  10   3    6.52    1.81
   3  10   3   10.96    2.39
   4  10   3   11.14    2.60
 -13  11   3    7.30    1.99
 -12  11   3   43.30    4.45
 -11  11   3   36.16    4.03
 -10  11   3    9.17    2.07
  -9  11   3   96.04    5.27
  -8  11   3   12.22    2.26
  -7  11   3    3.07    1.24
  -6  11   3   34.84    3.66
  -5  11   3   82.56    4.64
  -4  11   3   40.66    4.01
  -3  11   3   28.61    3.38
  -2  11   3   42.11    4.10
  -1  11   3   14.92    2.48
   0  11   3   36.64    4.04
   1  11   3   14.57    2.08
   2  11   3    3.67    1.20
   3  11   3   64.45    8.54
 -13  12   3   27.67    5.73
 -12  12   3   70.54    8.83
 -11  12   3   14.13    2.59
 -10  12   3    3.51    1.37
  -9  12   3   33.97    3.76
  -8  12   3    9.17    1.92
  -7  12   3   25.07    3.19
  -6  12   3   25.60    3.26
  -5  12   3    0.25    0.74
  -4  12   3  115.83    5.91
  -3  12   3    1.88    1.21
  -2  12   3   12.69    2.32
  -1  12   3   34.96    4.15
   0  12   3   65.68    5.60
   1  12   3   15.92    2.90
 -12  13   3   19.67    4.72
 -11  13   3    3.24    2.19
 -10  13   3    7.80    2.96
  -9  13   3   65.67    4.94
  -8  13   3   34.31    3.93
  -7  13   3   62.39    5.31
  -6  13   3    3.13    1.44
  -5  13   3   -0.40    0.73
  -4  13   3   22.38    3.22
  -3  13   3   28.01    3.69
  -2  13   3   10.33    2.36
  -1  13   3   24.70    3.48
 -10  14   3    8.08    3.26
  -9  14   3    1.38    1.73
  -8  14   3    5.47    2.44
  -7  14   3   25.37    3.64
  -6  14   3   17.84    2.99
  -5  14   3   22.93    3.41
  -4  14   3   45.15    4.86
  -3  14   3   41.53    6.31
   2 -13   4    2.34    2.44
   3 -13   4    2.43    1.90
   4 -13   4    5.10    2.49
   5 -13   4   49.37    7.12
   6 -13   4   82.21    7.83
   7 -13   4    9.92    3.34
   8 -13   4   20.60    4.68
   9 -13   4   15.58    4.07
  10 -13   4   11.12    3.69
   0 -12   4    0.60    1.14
   1 -12   4    2.05    1.28
   2 -12   4  109.55    5.85
   3 -12   4    8.65    1.93
   4 -12   4   34.10    3.72
   5 -12   4    2.28    1.13
   6 -12   4   17.13    2.67
   7 -12   4    0.45    0.80
   8 -12   4   16.73    2.36
   9 -12   4   28.57    5.52
  10 -12   4   69.89    8.63
  11 -12   4   89.04    8.24
  -2 -11   4   24.86    4.81
  -1 -11   4   95.73    7.81
   0 -11   4    8.29    2.00
   1 -11   4    7.47    1.81
   2 -11   4   17.75    2.69
   3 -11   4   24.15    3.00
   4 -11   4    0.04    0.77
   5 -11   4   34.28    3.65
   6 -11   4   12.39    2.10
   7 -11   4  235.96    8.15
   8 -11   4   12.50    2.06
   9 -11   4   32.40    3.60
  10 -11   4    3.16    1.35
  11 -11   4    6.02    1.65
  12 -11   4    0.79    1.18
  -3 -10   4    7.59    2.18
  -2 -10   4   69.60    5.66
  -1 -10   4    2.63    1.03
   0 -10   4   15.68    2.51
   1 -10   4   18.69    2.66
   2 -10   4   26.85    3.12
   3 -10   4   57.40    4.08
   4 -10   4   73.12    4.25
   5 -10   4   24.63    2.87
   6 -10   4   23.84    2.97
   7 -10   4   31.86    3.38
   8 -10   4    5.77    1.47
   9 -10   4   12.65    2.17
  10 -10   4   13.16    2.31
  11 -10   4    5.95    1.67
  12 -10   4   95.99    5.54
  13 -10   4    0.02    1.07
  -4  -9   4    8.70    2.26
  -3  -9   4   22.76    3.25
  -2  -9   4   27.56    3.41
  -1  -9   4   14.27    2.00
   0  -9   4   77.81    3.69
   1  -9   4   10.30    1.53
   2  -9   4   21.91    2.72
   3  -9   4   98.09    4.70
   4  -9   4    6.05    1.42
   5  -9   4   66.46    3.87
   6  -9   4   26.43    2.86
   7  -9   4   42.55    3.73
   8  -9   4   32.82    3.38
   9  -9   4   73.72    4.33
  10  -9   4    9.25    1.90
  11  -9   4   12.14    2.26
  12  -9   4    6.54    1.76
  13  -9   4    4.24    1.58
  14  -9   4    0.50    1.67
  -5  -8   4   19.67    3.14
  -4  -8   4   13.77    2.59
  -3  -8   4   11.92    2.25
  -2  -8   4    2.31    0.96
  -1  -8   4   33.22    2.84
   0  -8   4  172.96    5.34
   1  -8   4   20.41    2.03
   2  -8   4   20.39    2.01
   3  -8   4   37.87    2.40
   4  -8   4   27.57    2.86
   5  -8   4  117.20    5.08
   6  -8   4    1.74    0.84
   7  -8   4    1.72    0.87
   8  -8   4  160.78    6.26
   9  -8   4    5.70    1.48
  10  -8   4   27.09    3.14
  11  -8   4   30.11    3.45
  12  -8   4   28.50    3.48
  13  -8   4   55.66    5.16
  14  -8   4   40.89    4.65
  -7  -7   4    3.86    2.31
  -6  -7   4    6.67    1.50
  -5  -7   4   -0.19    0.75
  -4  -7   4  225.57    8.46
  -3  -7   4   26.18    3.08
  -2  -7   4   47.64    3.28
  -1  -7   4    4.52    1.04
   0  -7   4   19.52    2.01
   1  -7   4   11.79    1.46
   2  -7   4    4.39    0.89
   3  -7   4   37.38    2.34
   4  -7   4  153.55    4.31
   5  -7   4  121.56    5.01
   6  -7   4   61.69    3.51
   7  -7   4   21.32    2.60
   8  -7   4   18.58    2.50
   9  -7   4   25.67    2.98
  10  -7   4   58.93    3.91
  11  -7   4    1.04    0.92
  12  -7   4    3.06    1.33
  13  -7   4   81.25    5.51
  14  -7   4    0.20    1.34
  -8  -6   4   38.66    6.18
  -7  -6   4   82.97    5.84
  -6  -6   4   15.07    2.11
  -5  -6   4    7.14    1.38
  -4  -6   4   27.40    2.53
  -3  -6   4   24.40    2.31
  -2  -6   4    0.78    0.51
  -1  -6   4   65.41    2.99
   0  -6   4   10.13    1.37
   1  -6   4  304.17    6.62
   2  -6   4    3.27    0.76
   3  -6   4    7.41    1.08
   4  -6   4    6.18    0.89
   5  -6   4    7.91    1.13
   6  -6   4   10.88    1.29
   7  -6   4   11.73    1.86
   8  -6   4   20.39    2.58
   9  -6   4   93.21    4.75
  10  -6   4   80.11    4.58
  11  -6   4   33.27    3.65
  12  -6   4   17.66    2.75
  13  -6   4    8.78    2.04
  14  -6   4    3.51    2.45
  -8  -5   4   44.79    4.67
  -7  -5   4    2.48    1.01
  -6  -5   4   32.69    2.98
  -5  -5   4   23.65    2.28
  -4  -5   4   64.41    3.13
  -3  -5   4  124.50    4.21
  -2  -5   4  131.06    3.58
  -1  -5   4   10.95    1.15
   0  -5   4    1.21    0.51
   1  -5   4   13.50    1.45
   2  -5   4   35.79    2.18
   3  -5   4    9.63    1.20
   4  -5   4   43.25    2.08
   5  -5   4    0.82    0.46
   6  -5   4  311.93    6.45
   7  -5   4    4.38    0.89
   8  -5   4   34.46    3.23
   9  -5   4    5.51    1.44
  10  -5   4   25.34    3.10
  11  -5   4   10.11    2.12
  12  -5   4    1.54    1.14
  13  -5   4   22.53    4.63
  -9  -4   4    4.94    1.89
  -8  -4   4   28.66    3.69
  -7  -4   4    0.31    0.68
  -6  -4   4   75.87    3.72
  -5  -4   4    7.30    1.33
  -4  -4   4   28.02    2.38
  -3  -4   4  145.21    4.38
  -2  -4   4    5.17    0.82
  -1  -4   4   47.13    1.89
   0  -4   4   39.95    1.62
   1  -4   4   67.21    2.01
   2  -4   4  162.46    4.15
   3  -4   4  376.10    6.98
   4  -4   4   36.71    1.89
   5  -4   4   14.14    1.42
   6  -4   4    1.48    0.53
   7  -4   4   36.93    2.32
   8  -4   4   30.97    2.40
   9  -4   4   64.37    3.00
  10  -4   4   22.48    2.85
  11  -4   4  229.65    8.36
  12  -4   4   18.62    3.96
  13  -4   4   13.78    3.69
 -10  -3   4    1.91    1.53
  -9  -3   4    9.26    2.22
  -8  -3   4   23.98    2.60
  -7  -3   4   53.68    3.78
  -6  -3   4  101.78    4.04
  -5  -3   4   40.25    2.97
  -4  -3   4   36.09    2.56
  -3  -3   4    9.12    1.20
  -2  -3   4    8.83    0.99
  -1  -3   4  378.04    6.01
   0  -3   4   30.37    1.54
   1  -3   4    6.44    0.74
   2  -3   4  157.45    3.12
   3  -3   4   26.36    1.71
   4  -3   4   65.69    2.48
   5  -3   4   34.44    1.92
   6  -3   4    7.11    1.08
   7  -3   4  151.58    4.44
   8  -3   4  125.85    4.17
   9  -3   4   22.44    2.25
  10  -3   4   27.65    2.58
  11  -3   4    8.83    2.71
  12  -3   4   26.62    5.15
  13  -3   4   10.51    3.43
 -10  -2   4  116.94    6.60
  -9  -2   4   12.73    2.54
  -8  -2   4   24.30    2.54
  -7  -2   4   22.88    2.27
  -6  -2   4   20.76    2.12
  -5  -2   4    4.59    0.93
  -4  -2   4    2.40    0.68
  -3  -2   4   32.61    1.88
  -2  -2   4  166.60    3.62
  -1  -2   4  159.97    3.41
   0  -2   4   40.55    1.53
   1  -2   4   70.53    2.00
   2  -2   4   40.66    1.47
   3  -2   4    5.34    0.65
   4  -2   4  165.80    3.34
   5  -2   4   10.72    1.03
   6  -2   4    6.04    0.84
   7  -2   4  128.97    4.07
   8  -2   4    2.53    0.82
   9  -2   4   55.05    3.89
  10  -2   4    3.80    1.24
  11  -2   4   34.16    3.71
  12  -2   4   84.25    7.55
 -11  -1   4    2.42    1.46
 -10  -1   4    4.00    1.55
  -9  -1   4   14.26    2.47
  -8  -1   4    7.09    1.34
  -7  -1   4   18.72    2.00
  -6  -1   4   10.30    1.42
  -5  -1   4  305.73    6.69
  -4  -1   4   12.74    1.42
  -3  -1   4   65.01    2.49
  -2  -1   4    6.34    0.74
  -1  -1   4   68.90    2.06
   0  -1   4   19.34    0.84
   1  -1   4   21.61    1.13
   2  -1   4   74.15    2.04
   3  -1   4  160.09    3.26
   4  -1   4  380.07    5.84
   5  -1   4   44.19    1.77
   6  -1   4    8.97    1.06
   7  -1   4   63.64    2.84
   8  -1   4    2.21    0.74
   9  -1   4   44.71    4.10
  10  -1   4   12.57    2.31
  11  -1   4    0.81    1.09
  12  -1   4   77.90    5.59
 -12   0   4   -0.63    1.96
 -11   0   4    4.96    1.81
 -10   0   4   16.87    2.86
  -9   0   4   74.46    4.63
  -8   0   4  166.01    5.29
  -7   0   4   20.46    2.05
  -6   0   4    8.59    1.19
  -5   0   4   -0.16    0.32
  -4   0   4   38.01    2.03
  -3   0   4   31.65    1.36
  -2   0   4   40.68    1.36
  -1   0   4   21.44    0.96
   0   0   4  968.59    9.73
   1   0   4   22.89    1.25
   2   0   4   40.35    1.49
   3   0   4   30.80    1.47
   4   0   4   38.19    1.62
   5   0   4    1.23    0.57
   6   0   4   10.72    1.39
   7   0   4   23.70    2.23
   8   0   4  164.20    5.28
   9   0   4   77.52    3.77
  10   0   4   14.07    2.59
  11   0   4    7.41    2.06
  12   0   4    0.08    2.03
 -12   1   4   76.94    5.70
 -11   1   4    3.73    1.50
 -10   1   4   12.09    2.45
  -9   1   4   34.71    3.77
  -8   1   4    2.68    0.82
  -7   1   4   57.68    2.74
  -6   1   4   11.19    1.12
  -5   1   4   44.62    1.75
  -4   1   4  382.00    5.81
  -3   1   4  158.89    3.21
  -2   1   4   70.33    1.93
  -1   1   4   20.11    1.13
   0   1   4   19.95    0.95
   1   1   4   68.73    1.91
   2   1   4    5.06    0.62
   3   1   4   67.83    2.57
   4   1   4   13.04    1.47
   5   1   4  308.19    6.79
   6   1   4   12.90    1.65
   7   1   4   19.85    2.14
   8   1   4    6.55    1.37
   9   1   4    9.41    1.61
  10   1   4    5.19    1.32
  11   1   4    1.38    1.30
 -12   2   4   73.10    5.98
 -11   2   4   28.93    3.65
 -10   2   4    5.56    1.64
  -9   2   4   58.81    4.23
  -8   2   4    1.71    0.60
  -7   2   4  128.21    3.39
  -6   2   4    6.34    0.85
  -5   2   4    9.38    0.98
  -4   2   4  167.57    3.41
  -3   2   4    4.63    0.63
  -2   2   4   40.45    1.47
  -1   2   4   71.20    2.00
   0   2   4   40.93    1.80
   1   2   4  164.85    4.00
   2   2   4  172.17    4.21
   3   2   4   35.66    2.18
   4   2   4    1.85    0.65
   5   2   4    4.22    0.96
   6   2   4   23.61    2.33
   7   2   4   27.99    2.69
   8   2   4   24.30    2.65
   9   2   4   12.33    1.95
  10   2   4  112.62    5.26
  11   2   4    3.24    2.04
 -13   3   4    8.82    3.26
 -12   3   4   28.50    5.31
 -11   3   4   12.90    2.40
 -10   3   4   31.11    2.78
  -9   3   4   21.63    2.22
  -8   3   4  123.89    4.19
  -7   3   4  144.99    3.63
  -6   3   4    7.58    0.90
  -5   3   4   35.97    1.59
  -4   3   4   69.81    2.06
  -3   3   4   32.17    1.38
  -2   3   4  164.36    3.27
  -1   3   4    5.56    0.70
   0   3   4   29.04    1.70
   1   3   4  395.86    7.07
   2   3   4   11.74    1.34
   3   3   4    6.65    1.08
   4   3   4   40.63    2.83
   5   3   4   39.42    2.98
   6   3   4   98.33    4.10
   7   3   4   60.93    3.77
   8   3   4   24.58    2.71
   9   3   4    5.49    1.45
  10   3   4    2.76    1.23
 -13   4   4   12.08    3.60
 -12   4   4   22.01    4.65
 -11   4   4  241.95    8.45
 -10   4   4   28.33    2.60
  -9   4   4   65.89    3.28
  -8   4   4   32.10    2.47
  -7   4   4   39.41    2.41
  -6   4   4    2.95    0.75
  -5   4   4   12.55    1.37
  -4   4   4   36.25    1.97
  -3   4   4  375.84    5.94
  -2   4   4  169.46    3.34
  -1   4   4   63.86    1.99
   0   4   4   41.39    1.90
   1   4   4   43.25    2.15
   2   4   4    6.34    1.08
   3   4   4  156.82    4.59
   4   4   4   28.76    2.51
   5   4   4    6.79    1.32
   6   4   4   81.90    4.12
   7   4   4    0.30    0.71
   8   4   4   30.09    3.12
   9   4   4    4.68    1.49
 -13   5   4   22.62    4.07
 -12   5   4    1.02    0.96
 -11   5   4    9.93    2.05
 -10   5   4   19.47    2.73
  -9   5   4    6.45    1.15
  -8   5   4   41.24    2.67
  -7   5   4    3.15    0.77
  -6   5   4  308.51    6.60
  -5   5   4    0.44    0.41
  -4   5   4   47.50    2.24
  -3   5   4    9.24    1.21
  -2   5   4   33.87    1.97
  -1   5   4   11.13    1.32
   0   5   4    0.22    0.51
   1   5   4   10.64    1.35
   2   5   4  133.91    4.12
   3   5   4  127.24    4.31
   4   5   4   65.40    3.41
   5   5   4   27.01    2.69
   6   5   4   36.72    3.23
   7   5   4    1.25    0.95
   8   5   4   53.70    4.29
   9   5   4    0.58    1.89
 -14   6   4    2.68    2.65
 -13   6   4    9.01    2.13
 -12   6   4   17.82    2.82
 -11   6   4   33.62    3.81
 -10   6   4   80.32    4.62
  -9   6   4   95.97    4.88
  -8   6   4   20.30    2.00
  -7   6   4   10.67    1.38
  -6   6   4    9.27    1.26
  -5   6   4   10.05    1.30
  -4   6   4    6.29    0.99
  -3   6   4   10.42    1.32
  -2   6   4    2.36    0.68
  -1   6   4  319.81    6.89
   0   6   4   10.18    1.71
   1   6   4   61.75    3.66
   2   6   4    3.49    1.19
   3   6   4   22.79    2.98
   4   6   4   26.17    3.30
   5   6   4    7.47    1.98
   6   6   4   16.56    2.75
   7   6   4   88.71    8.26
 -14   7   4    4.91    2.60
 -13   7   4   90.35    5.50
 -12   7   4    1.84    1.08
 -11   7   4    0.11    0.83
 -10   7   4   56.61    4.27
  -9   7   4   23.29    2.94
  -8   7   4   21.04    2.70
  -7   7   4   22.29    2.67
  -6   7   4   63.92    2.81
  -5   7   4  129.15    4.05
  -4   7   4  150.14    4.45
  -3   7   4   37.01    2.39
  -2   7   4    4.51    0.95
  -1   7   4   10.49    1.43
   0   7   4   21.24    2.11
   1   7   4    1.80    0.84
   2   7   4   47.78    4.28
   3   7   4   29.28    3.59
   4   7   4  205.63    8.47
   5   7   4    0.02    0.98
   6   7   4    7.44    2.25
 -14   8   4   38.62    5.36
 -13   8   4   56.33    5.37
 -12   8   4   32.28    3.88
 -11   8   4   29.85    3.58
 -10   8   4   20.86    2.97
  -9   8   4    7.56    1.75
  -8   8   4  173.01    6.66
  -7   8   4    1.35    0.84
  -6   8   4    1.41    0.84
  -5   8   4  124.61    4.14
  -4   8   4   31.08    2.44
  -3   8   4   39.06    2.79
  -2   8   4   18.36    1.93
  -1   8   4   22.13    2.25
   0   8   4  169.92    5.44
   1   8   4   33.82    3.64
   2   8   4    4.03    1.38
   3   8   4   11.66    2.29
   4   8   4   17.56    2.96
   5   8   4   24.78    3.68
 -14   9   4    0.19    1.80
 -13   9   4    4.99    1.68
 -12   9   4    7.44    2.00
 -11   9   4   13.57    2.43
 -10   9   4   19.09    2.81
  -9   9   4   74.53    4.54
  -8   9   4   37.46    3.81
  -7   9   4   52.54    4.35
  -6   9   4   22.76    2.74
  -5   9   4   54.67    4.02
  -4   9   4    7.78    1.71
  -3   9   4   98.18    3.86
  -2   9   4   26.67    2.47
  -1   9   4   10.04    1.57
   0   9   4   74.61    3.68
   1   9   4   10.50    1.71
   2   9   4   24.40    3.34
   3   9   4   29.92    3.92
   4   9   4   12.17    2.71
 -13  10   4    1.29    1.19
 -12  10   4  107.42    6.13
 -11  10   4   10.35    2.24
 -10  10   4   15.90    2.62
  -9  10   4   10.74    2.17
  -8  10   4    3.94    1.43
  -7  10   4   34.93    3.78
  -6  10   4   30.10    3.42
  -5  10   4   26.76    3.34
  -4  10   4   75.63    4.52
  -3  10   4   57.76    4.83
  -2  10   4   23.87    3.09
  -1  10   4   11.79    1.76
   0  10   4   12.11    1.84
   1  10   4    2.54    1.03
   2  10   4   79.58    7.62
   3  10   4   10.65    2.30
 -13  11   4    2.29    1.61
 -12  11   4    3.99    1.65
 -11  11   4    7.76    2.10
 -10  11   4    1.74    1.11
  -9  11   4   30.54    3.78
  -8  11   4   18.50    2.88
  -7  11   4  223.58    8.45
  -6  11   4    7.62    1.84
  -5  11   4   35.04    3.71
  -4  11   4   -0.45    0.66
  -3  11   4   22.75    3.17
  -2  11   4   11.06    2.24
  -1  11   4    5.35    1.67
   0  11   4    6.01    1.77
   1  11   4   93.69    4.68
   2  11   4   14.51    4.11
 -12  12   4    3.11    1.49
 -11  12   4   91.57    5.69
 -10  12   4   76.23    5.55
  -9  12   4   33.07    3.99
  -8  12   4   18.33    2.95
  -7  12   4   -0.53    0.81
  -6  12   4   17.22    2.84
  -5  12   4    1.74    0.97
  -4  12   4   38.12    4.29
  -3  12   4    7.09    1.98
  -2  12   4  121.28    6.48
  -1  12   4    1.91    1.24
   0  12   4    4.74    3.99
 -11  13   4   16.85    4.19
 -10  13   4    8.51    2.15
  -9  13   4   10.89    2.36
  -8  13   4   28.03    3.69
  -7  13   4    8.98    2.15
  -6  13   4   91.96    5.70
  -5  13   4   48.02    4.90
  -4  13   4    2.80    1.44
  -3  13   4    0.39    0.98
  -9  14   4   51.01    7.34
  -8  14   4    3.30    2.46
  -7  14   4    2.69    2.12
  -6  14   4   41.08    6.40
   5 -13   5   -0.30    1.49
   6 -13   5    3.52    1.93
   2 -12   5   15.24    3.79
   3 -12   5    0.27    1.01
   4 -12   5  101.49    5.82
   5 -12   5    1.62    1.38
   6 -12   5   22.02    3.17
   7 -12   5   43.29    4.40
   8 -12   5   16.55    2.84
   9 -12   5   17.94    2.90
  10 -12   5    1.72    1.79
   0 -11   5    2.07    1.38
   1 -11   5   24.58    3.32
   2 -11   5    7.71    2.00
   3 -11   5    4.89    1.61
   4 -11   5   28.52    3.54
   5 -11   5   38.32    4.01
   6 -11   5   44.97    4.38
   7 -11   5    1.76    1.16
   8 -11   5   17.82    2.74
   9 -11   5   26.55    3.49
  10 -11   5    2.45    1.28
  11 -11   5    1.23    1.22
  -2 -10   5    3.56    2.09
  -1 -10   5    3.90    1.65
   0 -10   5  154.00    7.11
   1 -10   5   36.81    3.96
   2 -10   5  100.53    5.56
   3 -10   5    5.20    1.48
   4 -10   5    2.68    1.19
   5 -10   5   18.58    2.70
   6 -10   5   40.37    4.02
   7 -10   5   23.34    3.14
   8 -10   5   14.43    2.49
   9 -10   5   10.39    2.23
  10 -10   5  156.67    7.09
  11 -10   5   23.33    3.36
  12 -10   5   14.70    2.67
  -3  -9   5   17.77    2.90
  -2  -9   5   26.97    3.59
  -1  -9   5   11.49    1.91
   0  -9   5    3.45    1.03
   1  -9   5   -0.14    0.60
   2  -9   5    0.56    0.77
   3  -9   5    0.23    0.73
   4  -9   5   11.35    2.04
   5  -9   5   28.52    3.21
   6  -9   5    6.69    1.52
   7  -9   5   75.18    4.50
   8  -9   5   13.19    2.28
   9  -9   5    2.75    1.19
  10  -9   5   31.57    3.73
  11  -9   5    2.98    1.36
  12  -9   5    1.94    1.24
  -4  -8   5   14.58    2.74
  -3  -8   5   19.25    3.10
  -2  -8   5   14.95    2.52
  -1  -8   5   12.18    1.82
   0  -8   5    4.87    1.17
   1  -8   5   72.39    3.49
   2  -8   5  123.78    4.46
   3  -8   5  216.95    6.33
   4  -8   5   27.06    3.09
   5  -8   5   10.61    1.87
   6  -8   5   24.59    2.98
   7  -8   5   11.35    1.99
   8  -8   5    6.51    1.65
   9  -8   5    0.28    0.78
  10  -8   5  114.71    5.90
  11  -8   5    9.32    2.05
  12  -8   5   91.17    5.61
  13  -8   5   -1.12    1.70
  -5  -7   5   40.15    4.52
  -4  -7   5    1.80    1.21
  -3  -7   5   19.69    2.92
  -2  -7   5   71.89    3.93
  -1  -7   5    9.64    1.56
   0  -7   5   12.68    1.74
   1  -7   5    6.42    1.22
   2  -7   5   11.29    1.52
   3  -7   5   33.94    2.61
   4  -7   5   18.50    1.93
   5  -7   5    3.93    1.22
   6  -7   5  290.66    8.87
   7  -7   5   14.73    2.33
   8  -7   5   75.62    4.44
   9  -7   5    0.23    0.75
  10  -7   5    2.17    1.17
  11  -7   5   27.70    3.64
  12  -7   5    0.55    1.03
  13  -7   5    1.74    2.10
  -6  -6   5   25.15    3.61
  -5  -6   5   43.38    4.49
  -4  -6   5   44.26    4.32
  -3  -6   5    6.66    1.70
  -2  -6   5   18.28    2.03
  -1  -6   5  280.90    7.15
   0  -6   5   14.97    1.83
   1  -6   5   33.54    2.60
   2  -6   5   28.25    2.32
   3  -6   5  155.34    4.67
   4  -6   5    2.83    0.78
   5  -6   5   78.38    3.22
   6  -6   5   12.52    1.53
   7  -6   5    7.11    1.56
   8  -6   5  119.06    5.53
   9  -6   5    0.63    0.75
  10  -6   5    4.90    1.52
  11  -6   5   35.28    3.95
  12  -6   5   18.31    4.13
  -8  -5   5    1.62    1.90
  -7  -5   5    0.35    0.96
  -6  -5   5   33.92    3.15
  -5  -5   5   19.92    2.32
  -4  -5   5   34.20    3.64
  -3  -5   5   15.15    2.33
  -2  -5   5    3.37    0.90
  -1  -5   5   75.33    3.33
   0  -5   5   10.45    1.46
   1  -5   5   13.37    1.59
   2  -5   5   84.18    3.30
   3  -5   5    2.79    0.75
   4  -5   5  196.45    5.16
   5  -5   5    8.62    1.12
   6  -5   5   29.00    2.32
   7  -5   5   12.07    1.57
   8  -5   5  225.47    7.76
   9  -5   5   11.54    2.07
  10  -5   5   16.36    2.59
  11  -5   5   41.42    5.97
  12  -5   5   43.31    6.35
  -8  -4   5  108.57    5.06
  -7  -4   5   29.69    2.94
  -6  -4   5    4.38    1.18
  -5  -4   5   10.27    1.56
  -4  -4   5   29.83    2.55
  -3  -4   5   14.08    1.68
  -2  -4   5    1.82    0.59
  -1  -4   5  188.52    5.24
   0  -4   5    3.36    0.81
   1  -4   5  360.57    7.36
   2  -4   5    3.23    0.81
   3  -4   5   12.84    1.50
   4  -4   5    2.26    0.70
   5  -4   5   11.39    1.48
   6  -4   5   28.19    2.34
   7  -4   5   37.36    2.74
   8  -4   5   29.83    2.55
   9  -4   5   33.57    3.63
  10  -4   5   37.56    5.37
  11  -4   5    0.33    1.27
  12  -4   5   16.74    4.07
  -9  -3   5    0.99    1.26
  -8  -3   5    6.14    1.37
  -7  -3   5    1.81    0.90
  -6  -3   5    0.11    0.55
  -5  -3   5  226.41    6.29
  -4  -3   5   35.94    2.71
  -3  -3   5  154.76    4.63
  -2  -3   5    4.00    0.77
  -1  -3   5   12.29    1.21
   0  -3   5   74.69    2.53
   1  -3   5   24.70    1.97
   2  -3   5   36.62    2.27
   3  -3   5   73.03    2.90
   4  -3   5  353.04    7.22
   5  -3   5   87.98    3.27
   6  -3   5  151.16    4.56
   7  -3   5   18.60    1.96
   8  -3   5   14.21    2.24
   9  -3   5    5.55    1.53
  10  -3   5   22.88    2.98
  11  -3   5   19.62    4.37
  12  -3   5   14.20    3.76
 -10  -2   5   10.04    3.79
  -9  -2   5    5.55    1.73
  -8  -2   5  112.18    4.78
  -7  -2   5    0.15    0.62
  -6  -2   5  118.67    4.52
  -5  -2   5   13.02    1.73
  -4  -2   5   29.40    2.41
  -3  -2   5   85.71    3.23
  -2  -2   5    4.90    0.80
  -1  -2   5   37.91    1.77
   0  -2   5   70.60    2.30
   1  -2   5   53.02    1.93
   2  -2   5   68.65    2.72
   3  -2   5   31.55    2.06
   4  -2   5    4.20    0.88
   5  -2   5    3.85    0.89
   6  -2   5    2.67    1.06
   7  -2   5    1.93    0.88
   8  -2   5   21.22    2.79
   9  -2   5   74.65    4.51
  10  -2   5   18.85    2.83
  11  -2   5   24.81    3.29
 -10  -1   5   23.91    3.61
  -9  -1   5   27.81    3.64
  -8  -1   5   -0.10    0.64
  -7  -1   5   74.04    3.59
  -6  -1   5    6.80    1.29
  -5  -1   5   32.18    2.51
  -4  -1   5   12.56    1.54
  -3  -1   5  355.95    7.22
  -2  -1   5   25.91    1.99
  -1  -1   5   56.60    2.05
   0  -1   5   75.77    2.34
   1  -1   5   79.57    2.37
   2  -1   5   56.14    1.97
   3  -1   5   33.09    1.66
   4  -1   5   14.69    1.53
   5  -1   5  189.11    6.40
   6  -1   5   75.36    4.04
   7  -1   5  268.53    8.59
   8  -1   5   10.68    2.07
   9  -1   5    8.58    1.95
  10  -1   5   12.33    2.35
  11  -1   5    2.30    1.46
 -11   0   5    1.84    1.52
 -10   0   5  151.03    7.36
  -9   0   5    3.13    1.36
  -8   0   5    7.38    1.30
  -7   0   5   13.49    1.74
  -6   0   5   17.44    1.91
  -5   0   5   13.65    1.63
  -4   0   5    3.64    0.84
  -3   0   5   71.74    2.83
  -2   0   5   77.40    2.82
  -1   0   5   78.94    2.41
   0   0   5    0.00    0.28
   1   0   5   79.56    2.37
   2   0   5   71.94    2.73
   3   0   5   75.77    2.90
   4   0   5    2.17    0.67
   5   0   5   12.73    1.56
   6   0   5   13.82    1.70
   7   0   5   17.62    2.60
   8   0   5    4.41    1.36
   9   0   5    2.93    1.38
  10   0   5  144.33    7.12
  11   0   5    1.22    1.26
 -11   1   5    2.00    1.33
 -10   1   5   12.39    2.44
  -9   1   5   12.57    2.40
  -8   1   5    8.65    1.44
  -7   1   5  287.29    6.97
  -6   1   5   76.32    3.24
  -5   1   5  184.44    4.97
  -4   1   5   12.53    1.40
  -3   1   5   36.88    2.05
  -2   1   5   51.38    2.29
  -1   1   5   78.69    2.82
   0   1   5   75.55    2.19
   1   1   5   56.90    2.42
   2   1   5   29.52    2.21
   3   1   5  347.10    7.18
   4   1   5    8.99    1.31
   5   1   5   36.23    2.69
   6   1   5    5.62    1.17
   7   1   5   74.04    3.61
   8   1   5    0.22    0.77
   9   1   5   30.97    3.90
  10   1   5   20.31    3.30
 -12   2   5    2.35    2.06
 -11   2   5   28.27    3.78
 -10   2   5   18.21    2.93
  -9   2   5   70.16    4.59
  -8   2   5   21.77    2.19
  -7   2   5    4.82    1.05
  -6   2   5    0.81    0.55
  -5   2   5    2.83    0.76
  -4   2   5    1.77    0.61
  -3   2   5   29.24    1.92
  -2   2   5   75.57    2.32
  -1   2   5   55.20    1.96
   0   2   5   73.46    2.31
   1   2   5   36.74    2.21
   2   2   5    4.47    0.90
   3   2   5   78.75    3.21
   4   2   5   31.58    2.56
   5   2   5   11.45    1.64
   6   2   5  114.98    4.52
   7   2   5    0.19    0.58
   8   2   5  118.71    5.05
   9   2   5    9.59    2.27
  10   2   5   13.43    2.75
 -12   3   5   16.51    4.20
 -11   3   5   18.83    2.93
 -10   3   5   26.70    3.45
  -9   3   5    5.87    1.58
  -8   3   5    9.82    1.93
  -7   3   5   16.43    2.30
  -6   3   5  150.67    5.83
  -5   3   5   93.00    4.31
  -4   3   5  358.34    7.12
  -3   3   5   78.59    2.40
  -2   3   5   38.28    1.69
  -1   3   5   27.85    1.53
   0   3   5   74.62    2.41
   1   3   5   14.94    1.60
   2   3   5    3.54    0.83
   3   3   5  150.06    4.62
   4   3   5   35.83    2.78
   5   3   5  228.44    6.45
   6   3   5    0.21    0.69
   7   3   5    2.95    1.00
   8   3   5    8.80    1.80
   9   3   5    1.58    1.13
 -12   4   5   23.39    4.84
 -11   4   5    1.69    1.70
 -10   4   5   38.66    4.05
  -9   4   5   31.48    3.52
  -8   4   5   29.81    3.30
  -7   4   5   36.13    3.13
  -6   4   5   30.22    2.40
  -5   4   5   12.01    1.45
  -4   4   5    3.22    0.81
  -3   4   5   12.53    1.46
  -2   4   5    3.52    0.83
  -1   4   5  356.77    7.31
   0   4   5    4.10    0.91
   1   4   5  174.80    6.33
   2   4   5    1.65    0.64
   3   4   5   11.55    1.56
   4   4   5   30.14    2.66
   5   4   5   11.87    1.78
   6   4   5    3.16    1.17
   7   4   5   31.53    3.10
   8   4   5   95.75    5.11
 -12   5   5   47.21    7.13
 -11   5   5   51.67    6.89
 -10   5   5   13.68    3.70
  -9   5   5   10.51    1.95
  -8   5   5  224.60    6.18
  -7   5   5   12.76    1.66
  -6   5   5   35.97    2.62
  -5   5   5   10.78    1.44
  -4   5   5  190.52    5.20
  -3   5   5    2.65    0.78
  -2   5   5   85.99    3.35
  -1   5   5    9.56    1.35
   0   5   5   11.81    1.53
   1   5   5   68.98    4.03
   2   5   5    1.55    0.84
   3   5   5   14.43    2.39
   4   5   5   27.11    3.40
   5   5   5   19.01    3.01
   6   5   5   30.98    3.87
   7   5   5    0.74    1.23
   8   5   5    0.92    2.92
 -12   6   5   19.54    4.62
 -11   6   5   35.78    5.81
 -10   6   5    3.47    2.12
  -9   6   5    1.58    0.88
  -8   6   5  128.99    4.53
  -7   6   5    7.84    1.28
  -6   6   5   15.45    1.81
  -5   6   5   83.52    3.40
  -4   6   5    2.89    0.78
  -3   6   5  156.96    4.79
  -2   6   5   28.20    2.35
  -1   6   5   34.98    2.71
   0   6   5   15.41    1.84
   1   6   5  286.72    9.05
   2   6   5   27.35    3.33
   3   6   5    6.71    1.82
   4   6   5   44.56    4.50
   5   6   5   47.51    4.79
   6   6   5   20.17    3.33
 -12   7   5    3.84    2.46
 -11   7   5   32.73    3.96
 -10   7   5    3.91    1.42
  -9   7   5    1.98    1.04
  -8   7   5   77.65    4.51
  -7   7   5   17.70    2.44
  -6   7   5  289.72    6.99
  -5   7   5    2.79    0.87
  -4   7   5   13.69    1.66
  -3   7   5   36.99    2.84
  -2   7   5   10.46    1.50
  -1   7   5    8.05    1.37
   0   7   5   16.64    1.96
   1   7   5   10.69    1.70
   2   7   5   73.08    4.70
   3   7   5   27.32    3.61
   4   7   5    1.49    1.20
   5   7   5   33.94    4.24
 -12   8   5  117.39    6.42
 -11   8   5    7.23    1.98
 -10   8   5  112.70    5.94
  -9   8   5    0.45    0.89
  -8   8   5    6.67    1.70
  -7   8   5   13.40    2.25
  -6   8   5   19.97    2.71
  -5   8   5    9.84    1.54
  -4   8   5   28.50    2.51
  -3   8   5  230.18    6.35
  -2   8   5  119.15    4.53
  -1   8   5   76.62    3.85
   0   8   5    3.03    0.91
   1   8   5   12.48    1.86
   2   8   5   21.96    3.25
   3   8   5   25.79    3.72
   4   8   5   18.25    3.29
 -12   9   5    1.64    1.34
 -11   9   5    4.84    1.77
 -10   9   5   37.06    4.13
  -9   9   5    2.14    1.09
  -8   9   5   11.44    2.28
  -7   9   5   71.66    4.85
  -6   9   5    4.63    1.51
  -5   9   5   27.06    3.28
  -4   9   5   10.82    2.08
  -3   9   5    0.51    0.61
  -2   9   5    0.50    0.64
  -1   9   5   -0.06    0.61
   0   9   5    3.43    1.09
   1   9   5   11.24    1.87
   2   9   5   28.00    3.09
   3   9   5   20.19    3.26
 -12  10   5   11.75    2.76
 -11  10   5   20.34    3.34
 -10  10   5  149.96    7.19
  -9  10   5   13.72    2.52
  -8  10   5   18.47    2.86
  -7  10   5   24.39    3.31
  -6  10   5   41.34    4.31
  -5  10   5   19.71    3.03
  -4  10   5    3.16    1.35
  -3  10   5    2.38    1.15
  -2  10   5  111.17    6.04
  -1  10   5   32.77    3.13
   0  10   5  148.79    5.85
   1  10   5    3.10    1.26
   2  10   5    3.90    2.54
 -11  11   5    2.30    1.32
 -10  11   5    2.95    1.53
  -9  11   5   25.74    3.31
  -8  11   5   20.40    3.13
  -7  11   5    0.59    0.95
  -6  11   5   53.15    5.16
  -5  11   5   41.81    4.43
  -4  11   5   24.01    3.40
  -3  11   5    7.76    1.99
  -2  11   5    7.98    2.00
  -1  11   5   20.83    3.28
   0  11   5    1.15    1.27
 -10  12   5    1.42    1.31
  -9  12   5   18.92    3.09
  -8  12   5   15.05    2.71
  -7  12   5   36.53    4.32
  -6  12   5   20.31    3.28
  -5  12   5    1.51    1.16
  -4  12   5  108.67    6.28
  -3  12   5    1.09    1.23
   3 -11   6    7.47    2.78
   4 -11   6   42.75    4.54
   5 -11   6   16.98    2.93
   6 -11   6    0.40    1.01
   7 -11   6  105.37    6.06
   8 -11   6    8.55    3.04
   1 -10   6    4.70    1.51
   2 -10   6   40.35    4.27
   3 -10   6   37.81    4.14
   4 -10   6   57.40    5.03
   5 -10   6   33.17    3.87
   6 -10   6    2.23    1.29
   7 -10   6   13.85    2.56
   8 -10   6   71.33    5.82
   9 -10   6    3.99    1.67
  10 -10   6   27.19    4.63
  -2  -9   6   10.46    3.41
  -1  -9   6    4.17    1.61
   0  -9   6   17.65    2.38
   1  -9   6    5.97    1.63
   2  -9   6    1.44    1.09
   3  -9   6   37.36    3.97
   4  -9   6    6.06    1.59
   5  -9   6   17.39    2.76
   6  -9   6   51.67    4.76
   7  -9   6   10.84    2.31
   8  -9   6   41.60    4.38
   9  -9   6   13.49    2.60
  10  -9   6    5.16    1.70
  11  -9   6   -0.14    1.81
  -3  -8   6   10.92    3.77
  -2  -8   6   58.69    7.90
  -1  -8   6   37.49    3.36
   0  -8   6   82.53    4.14
   1  -8   6   21.35    2.48
   2  -8   6    6.88    1.42
   3  -8   6   22.46    3.01
   4  -8   6   29.74    3.39
   5  -8   6   31.10    3.58
   6  -8   6    1.44    1.03
   7  -8   6   35.53    3.82
   8  -8   6   72.75    5.23
   9  -8   6    7.64    1.97
  10  -8   6   36.19    4.25
  11  -8   6   12.11    2.99
  -4  -7   6  110.90    6.45
  -3  -7   6   19.09    3.00
  -2  -7   6   15.35    2.61
  -1  -7   6   37.64    3.16
   0  -7   6   16.70    1.98
   1  -7   6    0.27    0.57
   2  -7   6   15.26    1.96
   3  -7   6   18.54    2.06
   4  -7   6   64.89    3.32
   5  -7   6   57.15    4.76
   6  -7   6   17.09    2.67
   7  -7   6   14.91    2.42
   8  -7   6   20.60    2.99
   9  -7   6    1.78    1.14
  10  -7   6   36.99    4.13
  11  -7   6   29.29    5.31
  -5  -6   6    0.10    1.11
  -4  -6   6    3.22    1.36
  -3  -6   6   39.45    4.04
  -2  -6   6    1.91    1.02
  -1  -6   6   19.28    2.26
   0  -6   6   14.43    1.90
   1  -6   6  189.40    5.80
   2  -6   6   13.26    1.74
   3  -6   6   94.02    3.89
   4  -6   6    9.98    1.51
   5  -6   6   31.75    2.68
   6  -6   6   14.10    2.29
   7  -6   6   -0.32    0.73
   8  -6   6    6.54    1.70
   9  -6   6   31.85    3.67
  10  -6   6   63.04    7.55
  11  -6   6   13.34    3.73
  -6  -5   6   12.80    2.56
  -5  -5   6   36.60    4.16
  -4  -5   6   20.94    3.03
  -3  -5   6   32.68    3.69
  -2  -5   6   48.59    4.28
  -1  -5   6   35.43    2.96
   0  -5   6    1.87    0.74
   1  -5   6   29.12    2.56
   2  -5   6   10.80    1.53
   3  -5   6    5.20    1.10
   4  -5   6   50.96    2.91
   5  -5   6    2.74    0.88
   6  -5   6  185.70    5.63
   7  -5   6   12.50    1.66
   8  -5   6   20.05    3.96
   9  -5   6    3.37    1.94
  10  -5   6   27.50    5.06
  11  -5   6    1.42    1.90
  -7  -4   6   45.90    4.83
  -6  -4   6   67.82    5.76
  -5  -4   6    4.69    1.53
  -4  -4   6   31.35    3.60
  -3  -4   6   69.55    4.73
  -2  -4   6   11.06    2.02
  -1  -4   6   45.82    3.22
   0  -4   6   17.24    1.94
   1  -4   6   53.88    2.98
   2  -4   6   30.97    2.49
   3  -4   6   91.99    3.63
   4  -4   6   18.99    1.97
   5  -4   6   28.54    2.49
   6  -4   6    8.52    1.42
   7  -4   6   20.27    2.70
   8  -4   6   28.84    3.27
   9  -4   6   17.36    3.87
  10  -4   6    1.91    1.80
  11  -4   6   92.05    8.18
  -8  -3   6    9.23    2.33
  -7  -3   6   53.16    3.97
  -6  -3   6   37.04    3.25
  -5  -3   6   26.90    2.64
  -4  -3   6   19.13    2.67
  -3  -3   6  107.51    5.16
  -2  -3   6    5.60    1.38
  -1  -3   6   89.31    3.66
   0  -3   6   22.86    2.15
   1  -3   6    7.54    1.25
   2  -3   6  128.30    4.27
   3  -3   6   23.24    2.15
   4  -3   6   48.15    2.73
   5  -3   6    9.94    1.82
   6  -3   6  100.52    4.96
   7  -3   6   71.58    4.26
   8  -3   6   38.56    3.85
   9  -3   6   46.91    4.51
  10  -3   6   26.22    5.04
  -9  -2   6    0.12    1.21
  -8  -2   6   37.27    3.44
  -7  -2   6    0.79    0.81
  -6  -2   6    6.80    1.41
  -5  -2   6   15.05    1.95
  -4  -2   6   12.24    1.59
  -3  -2   6   12.03    1.56
  -2  -2   6   36.42    2.67
  -1  -2   6  120.60    4.15
   0  -2   6   68.00    3.01
   1  -2   6  102.03    3.68
   2  -2   6   69.66    3.03
   3  -2   6    9.08    1.74
   4  -2   6   30.11    3.10
   5  -2   6    4.97    1.30
   6  -2   6   11.83    2.09
   7  -2   6   43.69    4.10
   8  -2   6    2.73    1.24
   9  -2   6   14.85    2.57
  10  -2   6   68.03    5.64
  -9  -1   6    8.84    1.76
  -8  -1   6    6.98    1.60
  -7  -1   6   22.17    2.47
  -6  -1   6   -0.14    0.53
  -5  -1   6  180.90    5.60
  -4  -1   6   32.98    2.67
  -3  -1   6   55.16    2.89
  -2  -1   6    6.54    1.14
  -1  -1   6  105.28    3.64
   0  -1   6   20.94    1.65
   1  -1   6   20.03    2.02
   2  -1   6  103.65    4.65
   3  -1   6  133.05    5.43
   4  -1   6   86.18    4.43
   5  -1   6   48.25    4.00
   6  -1   6   33.91    3.53
   7  -1   6   20.02    4.19
   8  -1   6   31.99    3.70
   9  -1   6   40.79    4.37
  10  -1   6    3.64    1.58
 -10   0   6   30.12    5.92
  -9   0   6   11.56    1.81
  -8   0   6   82.35    4.08
  -7   0   6   15.60    2.02
  -6   0   6   11.43    1.62
  -5   0   6    1.94    0.76
  -4   0   6   17.19    1.90
  -3   0   6   23.85    2.18
  -2   0   6   68.51    2.95
  -1   0   6   22.34    1.99
   0   0   6  164.05    4.67
   1   0   6   23.10    2.05
   2   0   6   72.86    3.04
   3   0   6   20.45    2.52
   4   0   6   16.42    2.33
   5   0   6    0.79    0.83
   6   0   6   16.90    2.64
   7   0   6   18.30    2.73
   8   0   6   71.63    5.17
   9   0   6   12.53    2.53
  10   0   6   39.86    6.43
 -10   1   6    1.88    1.37
  -9   1   6   39.82    4.39
  -8   1   6   40.30    4.11
  -7   1   6   23.11    2.51
  -6   1   6   37.08    2.92
  -5   1   6   49.97    2.99
  -4   1   6   92.11    3.58
  -3   1   6  126.30    4.16
  -2   1   6  101.20    3.59
  -1   1   6   24.48    2.10
   0   1   6   20.66    1.93
   1   1   6  104.52    3.70
   2   1   6    5.91    1.13
   3   1   6   57.69    2.82
   4   1   6   27.44    2.44
   5   1   6  188.30    7.12
   6   1   6    0.37    0.82
   7   1   6   21.95    3.12
   8   1   6    3.93    1.45
   9   1   6    6.05    1.94
 -11   2   6   10.73    3.60
 -10   2   6   73.19    5.95
  -9   2   6   17.31    2.84
  -8   2   6    3.23    1.38
  -7   2   6   46.94    4.36
  -6   2   6    8.25    1.84
  -5   2   6    6.20    1.51
  -4   2   6   29.41    3.07
  -3   2   6    4.71    0.97
  -2   2   6   71.44    3.00
  -1   2   6  101.29    3.61
   0   2   6   77.23    3.14
   1   2   6  132.32    4.23
   2   2   6   32.14    2.57
   3   2   6   11.27    1.54
   4   2   6   10.02    1.55
   5   2   6   10.67    1.64
   6   2   6    7.10    1.83
   7   2   6    1.29    1.12
   8   2   6   36.50    4.25
   9   2   6    0.94    2.03
 -11   3   6   11.56    3.61
 -10   3   6   24.12    3.48
  -9   3   6   35.76    3.87
  -8   3   6   35.32    3.88
  -7   3   6   66.65    4.28
  -6   3   6  102.09    5.13
  -5   3   6    8.45    1.72
  -4   3   6   48.45    3.99
  -3   3   6   20.12    2.48
  -2   3   6  133.94    5.60
  -1   3   6    6.14    1.49
   0   3   6   18.35    2.49
   1   3   6   95.73    4.72
   2   3   6    7.45    1.68
   3   3   6  101.70    4.01
   4   3   6   22.35    2.22
   5   3   6   24.39    2.61
   6   3   6   37.66    3.36
   7   3   6   48.67    4.87
   8   3   6    7.49    2.96
 -11   4   6  108.49    9.27
 -10   4   6    3.97    1.51
  -9   4   6   18.39    2.93
  -8   4   6   30.04    3.51
  -7   4   6   23.35    3.03
  -6   4   6   12.34    2.16
  -5   4   6   28.24    3.11
  -4   4   6   16.65    2.39
  -3   4   6   87.45    4.65
  -2   4   6   25.76    2.89
  -1   4   6   55.86    4.04
   0   4   6   18.29    2.05
   1   4   6   53.45    3.27
   2   4   6    9.23    1.93
   3   4   6   68.67    4.81
   4   4   6   31.10    3.83
   5   4   6    3.64    1.47
   6   4   6   64.96    5.74
   7   4   6   46.23    5.10
 -11   5   6   -2.16    1.21
 -10   5   6   29.48    5.36
  -9   5   6    3.28    1.42
  -8   5   6   23.44    3.06
  -7   5   6   17.79    2.59
  -6   5   6  174.18    6.96
  -5   5   6    0.83    0.77
  -4   5   6   47.92    4.13
  -3   5   6    4.47    1.30
  -2   5   6   12.51    1.71
  -1   5   6   29.72    2.55
   0   5   6    2.75    0.90
   1   5   6   37.05    3.02
   2   5   6   45.15    4.31
   3   5   6   32.64    3.86
   4   5   6   16.95    2.84
   5   5   6   35.80    4.27
   6   5   6   15.13    2.86
 -11   6   6   26.31    5.45
 -10   6   6   55.15    7.31
  -9   6   6   29.75    5.28
  -8   6   6    6.40    1.69
  -7   6   6    0.18    0.73
  -6   6   6   10.52    1.98
  -5   6   6   36.06    3.60
  -4   6   6   11.37    1.67
  -3   6   6   99.85    4.06
  -2   6   6   13.07    1.79
  -1   6   6  197.21    5.95
   0   6   6   11.35    1.72
   1   6   6   17.69    2.13
   2   6   6    3.89    1.46
   3   6   6   44.06    4.55
   4   6   6    3.48    1.64
   5   6   6    0.47    1.16
 -11   7   6   44.99    6.98
 -10   7   6   37.93    6.16
  -9   7   6    0.80    1.57
  -8   7   6   20.01    4.12
  -7   7   6   19.86    4.22
  -6   7   6   19.10    2.73
  -5   7   6   51.72    3.35
  -4   7   6   71.90    3.53
  -3   7   6   22.24    2.41
  -2   7   6   11.97    1.83
  -1   7   6   -0.02    0.58
   0   7   6   19.23    2.32
   1   7   6   42.22    3.54
   2   7   6   15.67    2.23
   3   7   6   16.85    2.95
   4   7   6  112.23    6.71
 -10   8   6   38.11    6.32
  -9   8   6    3.47    2.28
  -8   8   6   75.03    8.63
  -7   8   6   43.22    4.38
  -6   8   6    1.02    0.99
  -5   8   6   35.13    3.05
  -4   8   6   25.53    2.64
  -3   8   6   22.07    2.40
  -2   8   6    7.15    1.48
  -1   8   6   22.50    2.51
   0   8   6   78.01    4.31
   1   8   6   42.43    3.69
   2   8   6   79.62    5.31
   3   8   6   17.88    2.63
 -10   9   6    8.44    3.05
  -9   9   6   10.43    3.38
  -8   9   6   38.85    4.35
  -7   9   6   17.22    2.82
  -6   9   6   43.29    4.38
  -5   9   6   17.08    2.79
  -4   9   6    4.27    1.57
  -3   9   6   34.44    3.01
  -2   9   6    0.66    0.79
  -1   9   6    6.29    1.52
   0   9   6   16.37    2.23
   1   9   6    2.57    1.20
  -9  10   6    2.79    1.50
  -8  10   6   73.14    6.08
  -7  10   6   22.96    3.29
  -6  10   6    2.44    1.38
  -5  10   6   25.46    3.44
  -4  10   6   74.68    5.43
  -3  10   6   52.15    5.08
  -2  10   6   41.38    4.56
  -1  10   6    5.41    1.53
   0  10   6   24.87    3.70
  -9  11   6    6.82    2.91
  -8  11   6   11.74    3.79
  -7  11   6  105.07    6.25
  -6  11   6   -0.22    0.96
  -5  11   6   13.83    2.74
  -4  11   6   51.78    5.34
  -3  11   6   12.57    3.73
   3  -9   7    0.61    1.14
   4  -9   7    2.89    1.37
   5  -9   7   66.61    5.78
   6  -9   7   16.40    2.86
   7  -9   7   27.87    5.58
   8  -9   7    7.67    3.57
  -1  -8   7    8.87    3.36
   0  -8   7    0.95    0.92
   1  -8   7   76.39    4.54
   2  -8   7   21.72    3.10
   3  -8   7   90.85    5.51
   4  -8   7   25.83    3.42
   5  -8   7    0.04    0.91
   6  -8   7   10.24    2.24
   7  -8   7    5.15    1.67
   8  -8   7    1.98    1.56
   9  -8   7    4.23    3.33
  -2  -7   7   40.74    6.45
  -1  -7   7    7.23    1.94
   0  -7   7   28.50    3.02
   1  -7   7   11.69    1.83
   2  -7   7    4.95    1.26
   3  -7   7   17.24    2.15
   4  -7   7    2.29    1.14
   5  -7   7    2.69    1.36
   6  -7   7   83.64    5.23
   7  -7   7   20.98    3.13
   8  -7   7   90.10    7.73
  -3  -6   7    6.50    1.86
  -2  -6   7   10.33    2.22
  -1  -6   7   73.76    5.18
   0  -6   7   22.54    2.58
   1  -6   7    8.94    1.60
   2  -6   7   10.12    1.70
   3  -6   7   84.35    4.00
   4  -6   7    1.73    0.93
   5  -6   7   25.47    3.31
   6  -6   7   19.20    3.03
   7  -6   7   10.76    3.15
   8  -6   7   26.99    5.03
   9  -6   7   -0.48    1.33
  -4  -5   7   63.99    5.64
  -3  -5   7    0.40    0.98
  -2  -5   7    2.65    1.34
  -1  -5   7   25.26    3.29
   0  -5   7   24.19    2.61
   1  -5   7    6.01    1.33
   2  -5   7   57.16    3.63
   3  -5   7    4.27    1.19
   4  -5   7   78.53    3.78
   5  -5   7   25.05    3.19
   6  -5   7   10.32    2.03
   7  -5   7    6.61    2.64
   8  -5   7   74.63    8.19
   9  -5   7    2.27    2.08
  -5  -4   7    5.37    1.72
  -4  -4   7   25.63    3.35
  -3  -4   7    1.91    1.12
  -2  -4   7    1.18    1.01
  -1  -4   7   79.71    4.73
   0  -4   7   17.97    2.15
   1  -4   7  164.19    5.48
   2  -4   7    2.72    0.95
   3  -4   7    0.17    0.59
   4  -4   7   16.84    2.55
   5  -4   7    4.09    1.43
   6  -4   7   10.52    2.05
   7  -4   7   21.71    2.95
   8  -4   7   27.81    5.27
   9  -4   7   59.76    7.52
  -6  -3   7    0.56    1.31
  -5  -3   7   86.65    5.36
  -4  -3   7   19.33    2.95
  -3  -3   7   87.30    5.03
  -2  -3   7    6.12    1.67
  -1  -3   7    0.74    0.82
   0  -3   7   11.35    1.67
   1  -3   7    3.27    0.89
   2  -3   7   -0.06    0.71
   3  -3   7   12.30    2.16
   4  -3   7  159.31    6.68
   5  -3   7   62.00    4.53
   6  -3   7   82.62    4.93
   7  -3   7    0.60    0.94
   8  -3   7    0.90    1.17
   9  -3   7    8.51    2.98
  -7  -2   7    1.15    1.74
  -6  -2   7   21.42    3.13
  -5  -2   7    4.32    1.50
  -4  -2   7    9.94    2.16
  -3  -2   7   62.83    4.99
  -2  -2   7    2.12    1.04
  -1  -2   7    1.68    0.99
   0  -2   7   57.40    4.54
   1  -2   7   15.57    2.36
   2  -2   7   60.54    4.33
   3  -2   7    3.09    1.19
   4  -2   7    3.08    1.12
   5  -2   7    3.55    1.22
   6  -2   7    1.93    1.14
   7  -2   7    4.17    1.52
   8  -2   7   11.79    2.42
   9  -2   7   22.06    3.32
  -8  -1   7    5.50    2.79
  -7  -1   7   83.10    4.47
  -6  -1   7   11.91    1.80
  -5  -1   7    8.09    1.56
  -4  -1   7    6.13    1.63
  -3  -1   7  166.97    6.74
  -2  -1   7    1.18    0.89
  -1  -1   7   18.22    2.51
   0  -1   7   37.05    3.62
   1  -1   7   34.61    3.53
   2  -1   7   17.34    2.54
   3  -1   7   -0.40    0.66
   4  -1   7    0.05    0.70
   5  -1   7   90.52    5.52
   6  -1   7   25.63    3.27
   7  -1   7   91.89    5.39
   8  -1   7    3.92    1.61
   9  -1   7    8.65    3.97
  -8   0   7    0.20    1.20
  -7   0   7   27.89    3.59
  -6   0   7   26.99    3.50
  -5   0   7   31.43    2.91
  -4   0   7   18.37    2.15
  -3   0   7    9.73    1.54
  -2   0   7   57.61    3.89
  -1   0   7   36.46    3.48
   0   0   7   -0.37    0.66
   1   0   7   41.66    3.85
   2   0   7   55.73    4.06
   3   0   7   10.20    2.02
   4   0   7   16.51    2.62
   5   0   7   30.24    3.58
   6   0   7   19.33    2.93
   7   0   7   24.93    3.50
   8   0   7    1.88    1.46
  -8   1   7    4.58    1.67
  -7   1   7   81.91    5.19
  -6   1   7   22.73    3.17
  -5   1   7   88.31    5.05
  -4   1   7    0.52    0.83
  -3   1   7    0.46    0.76
  -2   1   7   18.31    2.52
  -1   1   7   43.47    3.10
   0   1   7   49.91    3.54
   1   1   7   18.81    2.62
   2   1   7    3.16    1.23
   3   1   7  163.18    6.73
   4   1   7   10.13    2.08
   5   1   7   10.45    2.14
   6   1   7   15.01    2.70
   7   1   7   80.85    5.74
   8   1   7    7.06    2.80
  -9   2   7   28.42    3.85
  -8   2   7    8.44    2.08
  -7   2   7    2.06    1.25
  -6   2   7    2.82    1.29
  -5   2   7    5.86    1.64
  -4   2   7    4.25    1.37
  -3   2   7    0.99    0.81
  -2   2   7   61.28    4.40
  -1   2   7   19.50    2.76
   0   2   7   55.57    4.19
   1   2   7    0.52    0.77
   2   2   7    3.39    1.98
   3   2   7   54.30    6.88
   4   2   7    8.13    2.81
   5   2   7    3.25    2.01
   6   2   7   23.32    4.98
  -9   3   7    8.43    2.25
  -8   3   7    0.61    1.17
  -7   3   7    2.26    1.26
  -6   3   7   81.30    5.02
  -5   3   7   50.29    4.57
  -4   3   7  168.85    7.03
  -3   3   7   11.49    2.26
  -2   3   7    0.22    0.76
  -1   3   7    2.70    1.20
   0   3   7   13.02    2.37
   1   3   7    1.04    0.92
   2   3   7    5.57    1.59
   3   3   7   88.30    5.19
   4   3   7   16.05    4.15
   5   3   7   81.71    9.20
   6   3   7    1.68    1.92
  -9   4   7   68.88    5.82
  -8   4   7   31.87    3.94
  -7   4   7   11.93    2.39
  -6   4   7    8.03    1.81
  -5   4   7    6.01    1.67
  -4   4   7   17.05    2.65
  -3   4   7    0.50    0.89
  -2   4   7    3.88    1.44
  -1   4   7  150.99    6.76
   0   4   7   18.04    2.87
   1   4   7   84.41    5.05
   2   4   7    2.24    1.16
   3   4   7    0.91    1.11
   4   4   7   22.31    3.39
   5   4   7    3.06    2.36
  -9   5   7    5.87    2.26
  -8   5   7   90.92    5.53
  -7   5   7    3.59    1.46
  -6   5   7    7.60    1.96
  -5   5   7   25.72    3.42
  -4   5   7   81.87    5.02
  -3   5   7    6.41    1.77
  -2   5   7   60.65    5.13
  -1   5   7    6.83    1.76
   0   5   7   24.27    3.33
   1   5   7   20.28    3.05
   2   5   7    2.47    1.41
   3   5   7    2.51    1.34
   4   5   7   69.47    6.10
  -9   6   7    2.40    1.91
  -8   6   7   22.64    4.85
  -7   6   7    8.90    2.03
  -6   6   7   26.43    3.36
  -5   6   7   26.85    3.44
  -4   6   7    2.06    1.17
  -3   6   7   78.00    4.96
  -2   6   7   10.63    2.32
  -1   6   7   12.34    2.37
   0   6   7   28.67    3.76
   1   6   7   76.58    5.45
   2   6   7    6.17    1.90
   3   6   7   11.49    2.61
  -8   7   7   74.80    8.70
  -7   7   7   18.55    4.48
  -6   7   7   84.59    5.20
  -5   7   7    3.60    1.54
  -4   7   7    1.13    1.09
  -3   7   7   18.61    2.97
  -2   7   7    2.92    1.41
  -1   7   7   11.02    2.45
   0   7   7   23.57    3.42
   1   7   7    6.57    2.01
   2   7   7   35.26    4.71
  -8   8   7    0.93    2.86
  -7   8   7    1.91    1.93
  -6   8   7    8.95    3.37
  -5   8   7    3.56    2.29
  -4   8   7   24.86    3.45
  -3   8   7   77.91    5.48
  -2   8   7   19.24    3.15
  -1   8   7   86.14    5.96
   0   8   7    1.62    1.24
   1   8   7   10.28    3.72
  -6   9   7    8.56    3.60
  -5   9   7   64.27    8.28
  -4   9   7    4.48    2.28
  -3   9   7    1.63    1.81
  -2   9   7    0.94    1.76
  -1   9   7    4.43    1.92
   2  -7   8    8.66    3.94
   3  -7   8    8.77    3.36
   4  -7   8   50.39    7.29
   0  -6   8    5.67    3.11
   1  -6   8  105.90    6.20
   2  -6   8    4.65    1.33
   3  -6   8   35.49    4.03
   4  -6   8    0.91    1.94
  -1  -5   8    0.69    1.20
   0  -5   8    2.89    1.55
   1  -5   8    7.03    1.58
   2  -5   8    8.71    2.07
   3  -5   8    1.57    1.11
   4  -5   8   30.25    3.77
   5  -5   8    4.12    1.63
  -2  -4   8    1.30    1.27
  -1  -4   8   28.45    3.64
   0  -4   8    8.87    2.13
   1  -4   8   15.08    2.69
   2  -4   8   41.25    4.31
   3  -4   8   94.66    5.52
   4  -4   8    8.65    2.10
   5  -4   8    9.11    2.16
   6  -4   8    5.16    1.75
  -4  -3   8   15.23    3.95
  -3  -3   8   27.98    3.66
  -2  -3   8   -0.13    0.93
  -1  -3   8   97.36    5.57
   0  -3   8    7.90    1.90
   1  -3   8    1.54    1.11
   2  -3   8   61.42    5.15
   3  -3   8   11.80    2.38
   4  -3   8   19.05    3.04
   5  -3   8    6.19    1.80
   6  -3   8   27.30    3.60
   7  -3   8   46.90    6.88
  -5  -2   8    8.42    3.12
  -4  -2   8    3.93    1.78
  -3  -2   8    6.44    1.81
  -2  -2   8   37.37    4.00
  -1  -2   8   67.05    5.48
   0  -2   8   10.64    2.24
   1  -2   8   35.45    3.91
   2  -2   8   13.75    2.48
   3  -2   8    0.73    1.08
   4  -2   8   21.82    3.12
   5  -2   8    1.28    1.22
   6  -2   8    0.40    1.22
  -4  -1   8    7.55    2.88
  -3  -1   8   13.39    2.44
  -2  -1   8    1.90    1.21
  -1  -1   8   35.46    3.91
   0  -1   8    4.84    1.47
   1  -1   8    6.68    1.83
   2  -1   8   28.00    3.40
   3  -1   8   60.64    5.26
   4  -1   8   95.28    5.58
   5  -1   8   31.37    3.76
   6  -1   8    0.74    1.23
  -5   0   8    3.65    2.34
  -4   0   8    6.11    2.58
  -3   0   8   13.09    3.80
  -2   0   8    7.31    2.71
  -1   0   8    5.42    2.27
   0   0   8  221.95   12.47
   1   0   8    7.88    1.80
   2   0   8    9.05    2.18
   3   0   8   12.98    2.49
   4   0   8    8.20    1.99
   5   0   8    3.01    1.59
   6   0   8    4.38    2.59
  -5   1   8   27.75    5.18
  -4   1   8  105.82    8.67
  -3   1   8   67.81    8.23
  -2   1   8   35.33    6.01
  -1   1   8    9.46    3.26
   0   1   8    5.90    2.61
   1   1   8   27.98    5.35
   2   1   8   -0.76    1.41
   3   1   8   12.73    3.82
   4   1   8    6.35    2.97
  -6   2   8    1.81    1.38
  -5   2   8    1.02    1.19
  -4   2   8   35.53    4.04
  -3   2   8    0.41    1.46
  -2   2   8    9.42    3.05
  -1   2   8   32.66    5.61
   0   2   8   10.02    3.07
   1   2   8   58.41    7.74
   2   2   8   33.95    6.05
   3   2   8    8.85    3.07
   4   2   8    6.84    3.30
  -7   3   8   38.62    7.06
  -6   3   8   29.65    3.76
  -5   3   8   11.94    2.50
  -4   3   8   18.64    3.07
  -3   3   8   13.32    2.61
  -2   3   8   65.23    4.90
  -1   3   8    2.69    1.81
   0   3   8   10.48    3.22
   1   3   8   88.65    8.20
   2   3   8    0.32    1.52
   3   3   8   32.48    6.13
  -7   4   8    7.94    4.89
  -6   4   8    3.49    1.54
  -5   4   8    5.68    1.86
  -4   4   8    8.23    2.13
  -3   4   8   92.13    5.61
  -2   4   8   35.34    4.06
  -1   4   8   19.40    3.13
   0   4   8    6.23    1.87
   1   4   8   32.69    6.01
   2   4   8    0.14    1.86
  -6   5   8  101.82    6.18
  -5   5   8    2.28    1.50
  -4   5   8   36.39    4.29
  -3   5   8    0.19    1.11
  -2   5   8   13.94    2.72
  -1   5   8    7.71    2.04
   0   5   8    1.85    1.43
   1   5   8    1.70    2.20
  -6   6   8    7.85    3.09
  -5   6   8    2.07    1.38
  -4   6   8    1.66    1.35
  -3   6   8   30.63    3.94
  -2   6   8    4.04    1.63
  -1   6   8  115.72    6.70
   0   6   8    4.24    2.50
  -4   7   8   52.12    7.47
  -3   7   8    9.17    3.76
   0   0   0    0.00    0.00
;
_shelx_hkl_checksum              78290
loop_
_space_group_symop_operation_xyz
'x, y, z'
'-y, x-y, z'
'-x+y, -x, z'
'-x, -y, z+1/2'
'y, -x+y, z+1/2'
'x-y, x, z+1/2'
loop_
_atom_site_label
_atom_site_type_symbol
_atom_site_fract_x
_atom_site_fract_y
_atom_site_fract_z
_atom_site_U_iso_or_equiv
_atom_site_adp_type
_atom_site_occupancy
_atom_site_site_symmetry_order
_atom_site_calc_flag
_atom_site_refinement_flags_posn
_atom_site_refinement_flags_adp
_atom_site_refinement_flags_occupancy
_atom_site_disorder_assembly
_atom_site_disorder_group
La La 0.12637(3) 0.35619(3) 0.48700(13) 0.00996(9) Uani 1 1 d . . . . .
Co Co 0.0000 0.0000 0.2484(10) 0.0139(5) Uani 0.5 3 d S T P . .
Ge Ge 0.3333 0.6667 0.9050(2) 0.0103(2) Uani 1 3 d S T P . .
S1 S 0.24240(17) 0.15652(16) 0.5000(5) 0.0146(3) Uani 1 1 d . . . . .
S2 S 0.52140(18) 0.10670(18) 0.2579(3) 0.0114(3) Uani 1 1 d . . . . .
S3 S 0.3333 0.6667 0.2787(5) 0.0120(5) Uani 1 3 d S T P . .
loop_
_atom_site_aniso_label
_atom_site_aniso_U_11
_atom_site_aniso_U_22
_atom_site_aniso_U_33
_atom_site_aniso_U_23
_atom_site_aniso_U_13
_atom_site_aniso_U_12
La 0.01036(15) 0.00901(14) 0.01053(14) -0.0007(2) -0.0009(2) 0.00485(11)
Co 0.0117(7) 0.0117(7) 0.0184(14) 0.000 0.000 0.0058(3)
Ge 0.0112(3) 0.0112(3) 0.0085(5) 0.000 0.000 0.00562(16)
S1 0.0147(6) 0.0117(6) 0.0197(7) -0.0021(9) -0.0011(10) 0.0084(5)
S2 0.0102(7) 0.0110(7) 0.0118(7) -0.0001(6) 0.0015(6) 0.0044(6)
S3 0.0135(8) 0.0135(8) 0.0088(12) 0.000 0.000 0.0068(4)
loop_
_atom_type_symbol
_atom_type_description
_atom_type_scat_dispersion_real
_atom_type_scat_dispersion_imag
_atom_type_scat_source
S S 0.1246 0.1234 'International Tables Vol C Tables 4.2.6.8 and 6.1.1.4'
Co Co 0.3494 0.9721 'International Tables Vol C Tables 4.2.6.8 and 6.1.1.4'
Ge Ge 0.1547 1.8001 'International Tables Vol C Tables 4.2.6.8 and 6.1.1.4'
La La -0.2871 2.4523 'International Tables Vol C Tables 4.2.6.8 and 6.1.1.4'
loop_
_geom_angle_atom_site_label_1
_geom_angle_atom_site_label_2
_geom_angle_atom_site_label_3
_geom_angle
_geom_angle_site_symmetry_1
_geom_angle_site_symmetry_3
S1 La S1 83.52(6) . 2
S1 La S2 142.29(7) . 5_565
S1 La S2 108.92(5) 2 5_565
S1 La S1 76.70(5) . 6_554
S1 La S1 76.67(5) 2 6_554
S2 La S1 140.10(5) 5_565 6_554
S1 La S2 75.16(5) . 6
S1 La S2 140.59(6) 2 6
S2 La S2 73.22(6) 5_565 6
S1 La S2 127.87(4) 6_554 6
S1 La S2 143.91(6) . 2
S1 La S2 71.59(5) 2 2
S2 La S2 72.33(3) 5_565 2
S1 La S2 72.47(4) 6_554 2
S2 La S2 139.72(4) 6 2
S1 La S3 116.04(4) . .
S1 La S3 150.01(6) 2 .
S2 La S3 70.31(5) 5_565 .
S1 La S3 85.69(6) 6_554 .
S2 La S3 69.08(5) 6 .
S2 La S3 80.10(4) 2 .
S1 La S1 74.43(5) . 6
S1 La S1 74.40(5) 2 6
S2 La S1 75.10(5) 5_565 6
S1 La S1 140.91(5) 6_554 6
S2 La S1 68.17(4) 6 6
S2 La S1 120.90(4) 2 6
S3 La S1 130.84(6) . 6
S1 La Co 47.59(5) . .
S1 La Co 47.58(5) 2 .
S2 La Co 156.48(6) 5_565 .
S1 La Co 46.74(9) 6_554 .
S2 La Co 122.72(5) 6 .
S2 La Co 96.75(6) 2 .
S3 La Co 129.50(10) . .
S1 La Co 94.17(10) 6 .
S1 La Co 46.71(5) . 4
S1 La Co 46.70(5) 2 4
S2 La Co 117.73(9) 5_565 4
S1 La Co 95.19(9) 6_554 4
S2 La Co 96.24(6) 6 4
S2 La Co 118.03(4) 2 4
S3 La Co 161.296(15) . 4
S1 La Co 45.72(9) 6 4
Co La Co 48.453(6) . 4
S1 Co S1 92.72(16) 4_554 6_554
S1 Co S1 92.72(16) 4_554 5_554
S1 Co S1 92.72(16) 6_554 5_554
S1 Co S1 87.50(3) 4_554 3
S1 Co S1 179.7(2) 6_554 3
S1 Co S1 87.50(3) 5_554 3
S1 Co S1 87.50(3) 4_554 2
S1 Co S1 87.50(3) 6_554 2
S1 Co S1 179.7(2) 5_554 2
S1 Co S1 92.27(16) 3 2
S1 Co S1 179.7(2) 4_554 .
S1 Co S1 87.50(2) 6_554 .
S1 Co S1 87.50(2) 5_554 .
S1 Co S1 92.27(16) 3 .
S1 Co S1 92.27(16) 2 .
S1 Co Co 123.32(12) 4_554 4
S1 Co Co 123.32(12) 6_554 4
S1 Co Co 123.32(12) 5_554 4
S1 Co Co 56.36(12) 3 4
S1 Co Co 56.36(12) 2 4
S1 Co Co 56.36(12) . 4
S1 Co Co 56.68(12) 4_554 4_554
S1 Co Co 56.68(12) 6_554 4_554
S1 Co Co 56.68(12) 5_554 4_554
S1 Co Co 123.64(12) 3 4_554
S1 Co Co 123.64(12) 2 4_554
S1 Co Co 123.64(12) . 4_554
Co Co Co 180.0 4 4_554
S1 Co La 126.94(4) 4_554 .
S1 Co La 56.56(6) 6_554 .
S1 Co La 126.89(4) 5_554 .
S1 Co La 123.1(2) 3 .
S1 Co La 53.08(6) 2 .
S1 Co La 53.03(6) . .
Co Co La 66.76(9) 4 .
Co Co La 113.24(9) 4_554 .
S1 Co La 56.56(6) 4_554 2
S1 Co La 126.89(4) 6_554 2
S1 Co La 126.94(4) 5_554 2
S1 Co La 53.08(6) 3 2
S1 Co La 53.02(6) 2 2
S1 Co La 123.1(2) . 2
Co Co La 66.76(9) 4 2
Co Co La 113.24(9) 4_554 2
La Co La 105.45(10) . 2
S1 Co La 126.89(4) 4_554 3
S1 Co La 126.94(4) 6_554 3
S1 Co La 56.56(6) 5_554 3
S1 Co La 53.02(6) 3 3
S1 Co La 123.1(2) 2 3
S1 Co La 53.08(6) . 3
Co Co La 66.76(9) 4 3
Co Co La 113.24(9) 4_554 3
La Co La 105.45(10) . 3
La Co La 105.45(10) 2 3
S1 Co La 52.24(6) 4_554 4_554
S1 Co La 121.5(2) 6_554 4_554
S1 Co La 52.29(6) 5_554 4_554
S1 Co La 58.85(6) 3 4_554
S1 Co La 127.75(4) 2 4_554
S1 Co La 127.80(4) . 4_554
Co Co La 115.21(9) 4 4_554
Co Co La 64.79(9) 4_554 4_554
La Co La 178.04(18) . 4_554
La Co La 75.666(5) 2 4_554
La Co La 75.666(5) 3 4_554
S3 Ge S2 112.61(5) 1_556 5_565
S3 Ge S2 112.61(5) 1_556 4_665
S2 Ge S2 106.16(6) 5_565 4_665
S3 Ge S2 112.61(5) 1_556 6
S2 Ge S2 106.16(6) 5_565 6
S2 Ge S2 106.16(6) 4_665 6
Co S1 Co 66.96(4) 4 .
Co S1 La 81.05(5) 4 .
Co S1 La 79.39(5) . .
Co S1 La 81.00(5) 4 3
Co S1 La 79.34(5) . 3
La S1 La 156.25(6) . 3
Co S1 La 76.70(13) 4 5
Co S1 La 143.66(13) . 5
La S1 La 95.46(6) . 5
La S1 La 95.41(6) 3 5
Co S1 La 142.39(13) 4 5_554
Co S1 La 75.43(12) . 5_554
La S1 La 92.41(6) . 5_554
La S1 La 92.37(6) 3 5_554
La S1 La 140.91(5) 5 5_554
Ge S2 La 91.55(6) 4_664 6_654
Ge S2 La 89.05(5) 4_664 5_554
La S2 La 110.44(6) 6_654 5_554
Ge S2 La 122.69(7) 4_664 3
La S2 La 140.42(6) 6_654 3
La S2 La 90.99(4) 5_554 3
Ge S3 La 113.20(5) 1_554 3_565
Ge S3 La 113.20(5) 1_554 2_665
La S3 La 105.50(6) 3_565 2_665
Ge S3 La 113.20(5) 1_554 .
La S3 La 105.50(6) 3_565 .
La S3 La 105.50(6) 2_665 .
loop_
_geom_bond_atom_site_label_1
_geom_bond_atom_site_label_2
_geom_bond_distance
_geom_bond_site_symmetry_2
La S1 2.8548(14) .
La S1 2.8571(15) 2
La S2 2.9303(17) 5_565
La S1 3.012(3) 6_554
La S2 3.0270(17) 6
La S2 3.0613(17) 2
La S3 3.0736(12) .
La S1 3.154(3) 6
La Co 3.512(2) .
La Co 3.567(3) 4
Co S1 2.628(4) 4_554
Co S1 2.628(4) 6_554
Co S1 2.628(4) 5_554
Co S1 2.638(4) 3
Co S1 2.638(4) 2
Co S1 2.638(4) .
Co Co 2.9053(2) 4
Co Co 2.9054(2) 4_554
Co La 3.512(2) 2
Co La 3.512(2) 3
Co La 3.567(3) 4_554
Ge S3 2.171(3) 1_556
Ge S2 2.2226(17) 5_565
Ge S2 2.2226(17) 4_665
Ge S2 2.2226(17) 6
S1 Co 2.628(4) 4
S1 La 2.8571(15) 3
S1 La 3.012(3) 5
S1 La 3.154(3) 5_554
S2 Ge 2.2226(17) 4_664
S2 La 2.9303(16) 6_654
S2 La 3.0270(17) 5_554
S2 La 3.0613(16) 3
S3 Ge 2.171(3) 1_554
S3 La 3.0736(12) 3_565
S3 La 3.0736(12) 2_665
