#------------------------------------------------------------------------------
#$Date: 2021-03-03 12:34:27 +0200 (Wed, 03 Mar 2021) $
#$Revision: 262396 $
#$URL: file:///home/coder/svn-repositories/cod/cif/1/56/07/1560795.cif $
#------------------------------------------------------------------------------
#
# This file is available in the Crystallography Open Database (COD),
# http://www.crystallography.net/
#
# All data on this site have been placed in the public domain by the
# contributors.
#
data_1560795
loop_
_publ_author_name
'Zhuravlev, V.D.'
'Kellerman, D.G.'
'Tyutyunnik, A.P.'
'Chufarov, A.Yu.'
'Samigullina, R.F.'
_publ_section_title
;
 Synthesis, structure and magnetic properties of new \g-Ba(CoV1-xPxO4)2
 x&#x202F;=&#x202F;0.4--0.5
;
_journal_name_full               'Journal of Solid State Chemistry'
_journal_page_first              174
_journal_page_last               180
_journal_paper_doi               10.1016/j.jssc.2018.07.017
_journal_volume                  266
_journal_year                    2018
_chemical_formula_structural     'Ba Co2 V1.2 P0.8 O8'
_chemical_formula_sum            'Ba Co2 O8 P0.8 V1.2'
_chemical_formula_weight         469.10
_space_group_IT_number           148
_space_group_name_Hall           '-R 3'
_space_group_name_H-M_alt        'R -3 :H'
_symmetry_cell_setting           trigonal
_symmetry_space_group_name_Hall  '-R 3'
_symmetry_space_group_name_H-M   'R -3 :H'
_cell_angle_alpha                90.0
_cell_angle_beta                 90.0
_cell_angle_gamma                120.0
_cell_formula_units_Z            3
_cell_length_a                   5.00019(6)
_cell_length_b                   5.00019
_cell_length_c                   22.58940(35)
_cell_measurement_temperature    298(2)
_cell_volume                     489.112(10)
_computing_data_collection
'STOE Powder Software Package (STOE, Germany)'
_computing_data_reduction
'STOE Powder Software Package (STOE, Germany)'
_computing_structure_refinement  GSAS
_computing_structure_solution
'GSAS (A.C. Larson and R.B. Von Dreele, 2004), EXPGUI (Toby, B.H., 2001)'
_diffrn_ambient_temperature      298
_diffrn_detector                 'position sensitive detector'
_diffrn_detector_type            'linear mini-PSD (STOE)'
_diffrn_measurement_device_type  'transmission diffractometer Stadi-P (STOE)'
_diffrn_radiation_monochromator  'Primary, curved Ge 111'
_diffrn_radiation_polarisn_ratio 0.8
_diffrn_radiation_probe          x-ray
_diffrn_radiation_type           'Cu K\a~1~'
_diffrn_radiation_wavelength     1.54056
_diffrn_source                   'sealed X-ray tube'
_diffrn_source_target            Cu
_diffrn_source_type              'PHILIPS PW 2283/20'
_exptl_absorpt_correction_T_max  2.13003
_exptl_absorpt_correction_T_min  1.44591
_exptl_absorpt_process_details
;   GSAS Absorption/surface roughness correction: function number 4
 Flat plate transmission absorption correction
Terms =    -0.23810         0.0000    
Correction is not refined.
;
_exptl_crystal_density_diffrn    4.778
_exptl_crystal_density_method    'not measured'
_pd_calc_method                  'Rietveld Refinement'
_pd_char_colour                  white
_pd_instr_dist_mono/spec         130
_pd_instr_dist_spec/detc         220
_pd_instr_dist_src/mono          260
_pd_instr_location               ' ?'
_pd_meas_2theta_range_inc        0.02
_pd_meas_2theta_range_max        119.98
_pd_meas_2theta_range_min        5.0
_pd_meas_number_of_points        5750
_pd_meas_scan_method             step
_pd_phase_name
'from C:/GSAS/MyWork/Zhuravlev/BaCo2V2-2xP2xO8/2017-12-05/BaCo2V1_2'
_pd_proc_2theta_range_inc        0.02
_pd_proc_2theta_range_max        119.94558
_pd_proc_2theta_range_min        4.96558
_pd_proc_info_datetime           2018-05-04T20:01:48
_pd_proc_info_excluded_regions   ' ?'
_pd_proc_ls_background_function
;   GSAS Background function number 1 with 36 terms.
 Shifted Chebyshev function of 1st kind
      1:    7051.01     2:   -4278.28     3:   -323.717     4:   -288.727    
      5:    108.450     6:    19.8861     7:   -23.5500     8:    12.3933    
      9:   -6.44613    10:   -12.9810    11:    11.2592    12:   -10.5709    
     13:  -0.208319    14:    5.93961    15:   -6.09107    16:    7.72494    
     17:   0.736635    18:    3.37824    19:   -5.75159    20:    8.10121    
     21:    3.75583    22:   -4.12540    23:    4.79384    24:   -2.04503    
     25:   -3.44709    26:    4.83851    27:   -7.96758    28:    6.17228    
     29:  -0.956889    30:   -5.34573    31:    6.96583    32:   -6.89689    
     33:    3.34776    34:    6.12742    35:  -0.821159    36:    2.34837    
;
_pd_proc_ls_peak_cutoff          0.00100
_pd_proc_ls_profile_function
;
 CW Profile function number 4 with  16 terms
 Pseudovoigt profile coefficients as parameterized in
 P. Thompson, D.E. Cox & J.B. Hastings (1987). J. Appl. Cryst.,20,79-83.
 Asymmetry correction of L.W. Finger, D.E. Cox & A. P. Jephcoat (1994).
 J. Appl. Cryst.,27,892-900.
 Microstrain broadening by P.W. Stephens,  (1999). J. Appl. Cryst.,32,281-289.
 #1(GU)   =  167.713 #2(GV)   =    0.000 #3(GW)   =   14.806
 #4(GP)   =    0.000 #5(LX)   =    3.313 #6(ptec) =     1.49
 #7(trns) =     0.00 #8(shft) =   0.0000 #9(sfec) =     0.00
 #10(S/L) =   0.0230 #11(H/L) =   0.0230 #12(eta) =   0.0914
 #13(S400 ) =  2.3E-01 #14(S004 ) =  6.9E-04 #15(S202 ) = -2.4E-02
 #16(S310 ) =  4.6E-02 #17(S211 ) =  0.0E+00
 Peak tails are ignored  where the intensity is below 0.0010 times the peak
   Aniso. broadening axis   0.0   0.0   1.0
;
_pd_proc_ls_prof_R_factor        0.0100
_pd_proc_ls_prof_wR_expected     0.0116
_pd_proc_ls_prof_wR_factor       0.0130
_pd_proc_number_of_points        5750
_pd_spec_mounting                'powder on Mylar film'
_pd_spec_mount_mode              transmission
_pd_spec_shape                   flat_sheet
_pd_spec_size_axial              7
_pd_spec_size_equat              0.1
_refine_ls_goodness_of_fit_all   1.12
_refine_ls_matrix_type           full
_refine_ls_number_parameters     15
_refine_ls_number_restraints     0
_refine_ls_R_Fsqd_factor         0.04859
_refine_ls_shift/su_max          0.03
_refine_ls_shift/su_mean         0.01
_reflns_d_resolution_high        0.891
_reflns_d_resolution_low         7.530
_reflns_limit_h_max              5
_reflns_limit_h_min              0
_reflns_limit_k_max              2
_reflns_limit_k_min              -2
_reflns_limit_l_max              25
_reflns_limit_l_min              -24
_reflns_number_total             167
_cod_data_source_file            mmc3.cif
_cod_data_source_block           BACO2V1_2P0_8O8_0161_publ
_cod_depositor_comments
;
The following automatic conversions were performed:

data item '_geom_angle_publ_flag' value 'N' was changed to 'n' in
accordance with the built-in table derived from the CIF Core
dictionary named 'cif_core.dic' version 2.4.5 last updated on
2014-11-21 (27 times).

data item '_geom_bond_publ_flag' value 'N' was changed to 'n' in
accordance with the built-in table derived from the CIF Core
dictionary named 'cif_core.dic' version 2.4.5 last updated on
2014-11-21 (26 times).

Automatic conversion script
Id: cif_fix_values 8369 2020-08-20 11:38:08Z andrius 
;
_cod_original_cell_volume        489.112(15)
_cod_original_sg_symbol_H-M      'R -3'
_cod_original_formula_sum        'Ba Co2 O8 P0.80 V1.20'
_cod_database_code               1560795
_gsas_exptl_extinct_corr_t_min   1.00000
_gsas_exptl_extinct_corr_t_max   1.00000
loop_
_symmetry_equiv_pos_site_id
_symmetry_equiv_pos_as_xyz
1 +x,+y,+z
2 -y,x-y,+z
3 y-x,-x,+z
-1 -x,-y,-z
-2 +y,y-x,-z
-3 x-y,+x,-z
101 +x+1/3,+y+2/3,+z+2/3
102 -y+1/3,x-y+2/3,+z+2/3
103 y-x+1/3,-x+2/3,+z+2/3
-101 -x+2/3,-y+1/3,-z+1/3
-102 +y+2/3,y-x+1/3,-z+1/3
-103 x-y+2/3,+x+1/3,-z+1/3
201 +x+2/3,+y+1/3,+z+1/3
202 -y+2/3,x-y+1/3,+z+1/3
203 y-x+2/3,-x+1/3,+z+1/3
-201 -x+1/3,-y+2/3,-z+2/3
-202 +y+1/3,y-x+2/3,-z+2/3
-203 x-y+1/3,+x+2/3,-z+2/3
loop_
_atom_site_type_symbol
_atom_site_label
_atom_site_fract_x
_atom_site_fract_y
_atom_site_fract_z
_atom_site_occupancy
_atom_site_thermal_displace_type
_atom_site_U_iso_or_equiv
_atom_site_symmetry_multiplicity
Ba Ba 0.0 0.0 0.0 1.0 Uiso 0.0472(6) 3
Co Co 0.0 0.0 0.17186(12) 1.0 Uiso 0.0468(9) 6
P P 0.0 0.0 0.57515(13) 0.4 Uiso 0.0381(8) 6
V V 0.0 0.0 0.57515(13) 0.6 Uiso 0.0381(8) 6
O O1 0.0 0.0 0.6485(4) 1.0 Uiso 0.0368(26) 6
O O2 0.3463(8) 0.3526(8) 0.22174(19) 1.0 Uiso 0.0396(15) 18
loop_
_atom_type_symbol
_atom_type_number_in_cell
_atom_type_scat_dispersion_real
_atom_type_scat_dispersion_imag
_atom_type_scat_Cromer_Mann_a1
_atom_type_scat_Cromer_Mann_a2
_atom_type_scat_Cromer_Mann_a3
_atom_type_scat_Cromer_Mann_a4
_atom_type_scat_Cromer_Mann_b1
_atom_type_scat_Cromer_Mann_b2
_atom_type_scat_Cromer_Mann_b3
_atom_type_scat_Cromer_Mann_b4
_atom_type_scat_Cromer_Mann_c
_atom_type_scat_source
Ba 3.0 0.000 0.000 20.3361 3.21600 19.2970 0.27560 10.8880 20.2073 2.69590
167.202 2.77310 International_Tables_Vol_C
Co 6.0 0.000 0.000 12.2841 4.27910 7.34090 0.27840 4.00340 13.5359 2.34880
71.1692 1.01180 International_Tables_Vol_C
P 2.4 0.000 0.000 6.43450 1.90670 4.17910 27.1570 1.78000 0.52600 1.49080
68.1645 1.11490 International_Tables_Vol_C
V 3.6 0.000 0.000 10.2971 6.86570 7.35110 0.43850 2.07030 26.8938 2.05710
102.478 1.21990 International_Tables_Vol_C
O 24.0 0.000 0.000 3.04850 13.2771 2.28680 5.70110 1.54630 0.32390 0.86700
32.9089 0.25080 International_Tables_Vol_C
loop_
_geom_angle_atom_site_label_1
_geom_angle_atom_site_label_2
_geom_angle_atom_site_label_3
_geom_angle
_geom_angle_site_symmetry_1
_geom_angle_site_symmetry_2
_geom_angle_site_symmetry_3
_geom_angle_publ_flag
O2 Co O2 93.41(18) 1_555 . 2_555 n
O2 Co O2 93.41(18) 1_555 . 3_555 n
O2 Co O2 93.33(15) 1_555 . -101_555 n
O2 Co O2 89.09(20) 1_555 . -102_455 n
O2 Co O2 172.66(18) 1_555 . -103_445 n
O2 Co O2 93.41(18) 2_555 . 3_555 n
O2 Co O2 172.66(18) 2_555 . -101_555 n
O2 Co O2 93.33(15) 2_555 . -102_455 n
O2 Co O2 89.09(20) 2_555 . -103_445 n
O2 Co O2 89.09(20) 3_555 . -101_555 n
O2 Co O2 172.66(18) 3_555 . -102_455 n
O2 Co O2 93.33(15) 3_555 . -103_445 n
O2 Co O2 83.87(20) -101_555 . -102_455 n
O2 Co O2 83.87(20) -101_555 . -103_445 n
O2 Co O2 83.87(20) -102_455 . -103_445 n
O1 P O2 105.79(19) 1_555 . 201_445 n
O1 P O2 105.79(19) 1_555 . 202_555 n
O1 P O2 105.79(19) 1_555 . 203_455 n
O2 P O2 112.89(16) 201_445 . 202_555 n
O2 P O2 112.89(16) 201_445 . 203_455 n
O2 P O2 112.89(16) 202_555 . 203_455 n
O1 V O2 105.79(19) 1_555 . 201_445 n
O1 V O2 105.79(19) 1_555 . 202_555 n
O1 V O2 105.79(19) 1_555 . 203_455 n
O2 V O2 112.89(16) 201_445 . 202_555 n
O2 V O2 112.89(16) 201_445 . 203_455 n
O2 V O2 112.89(16) 202_555 . 203_455 n
loop_
_geom_bond_atom_site_label_1
_geom_bond_atom_site_label_2
_geom_bond_distance
_geom_bond_site_symmetry_1
_geom_bond_site_symmetry_2
_geom_bond_publ_flag
Ba O1 2.9160(12) . -201_555 n
Ba O1 2.9160(12) . -201_545 n
Ba O1 2.9160(12) . -201_445 n
Ba O1 2.9160(12) . 201_444 n
Ba O1 2.9160(12) . 201_454 n
Ba O1 2.9160(12) . 201_554 n
Ba O2 3.014(4) . 101_444 n
Ba O2 3.014(4) . 102_544 n
Ba O2 3.014(4) . 103_554 n
Ba O2 3.014(4) . -101_555 n
Ba O2 3.014(4) . -102_455 n
Ba O2 3.014(4) . -103_445 n
Co O2 2.079(4) . 1_555 n
Co O2 2.079(4) . 2_555 n
Co O2 2.079(4) . 3_555 n
Co O2 2.141(4) . -101_555 n
Co O2 2.141(4) . -102_455 n
Co O2 2.141(4) . -103_445 n
P O1 1.656(9) . 1_555 n
P O2 1.667(4) . 201_445 n
P O2 1.667(4) . 202_555 n
P O2 1.667(4) . 203_455 n
V O1 1.656(9) . 1_555 n
V O2 1.667(4) . 201_445 n
V O2 1.667(4) . 202_555 n
V O2 1.667(4) . 203_455 n
loop_
_pd_meas_counts_total
_pd_proc_ls_weight
_pd_proc_intensity_bkg_calc
_pd_calc_intensity_total
11504.0 0.0000869 11343.42383 11343.42383
11546.0 0.0000866 11343.28223 11343.28223
11332.0 0.0000882 11343.04980 11343.04980
11376.0 0.0000879 11342.72852 11342.72852
11291.0 0.0000886 11342.32617 11342.32617
11334.0 0.0000882 11341.84473 11341.84473
11222.0 0.0000891 11341.28906 11341.28906
11226.0 0.0000891 11340.66309 11340.66309
11317.0 0.0000884 11339.97070 11339.97070
11320.0 0.0000883 11339.21289 11339.21289
11296.0 0.0000885 11338.39453 11338.39453
11271.0 0.0000887 11337.51855 11337.51855
11375.0 0.0000879 11336.58594 11336.58594
11280.0 0.0000887 11335.59863 11335.59863
11255.0 0.0000888 11334.56055 11334.56055
11393.0 0.0000878 11333.47266 11333.47266
11322.0 0.0000883 11332.33691 11332.33691
11349.0 0.0000881 11331.15430 11331.15430
11268.0 0.0000887 11329.92676 11329.92676
11137.0 0.0000898 11328.65527 11328.65527
11494.0 0.0000870 11327.34180 11327.34180
11345.0 0.0000881 11325.98633 11325.98633
11291.0 0.0000886 11324.59082 11324.59082
11323.0 0.0000883 11323.15625 11323.15625
11309.0 0.0000884 11321.68359 11321.68359
11320.0 0.0000883 11320.17285 11320.17285
11277.0 0.0000887 11318.62500 11318.62500
11165.0 0.0000896 11317.04102 11317.04102
11336.0 0.0000882 11315.42090 11315.42090
11290.0 0.0000886 11313.76660 11313.76660
11330.0 0.0000883 11312.07813 11312.07813
11365.0 0.0000880 11310.35449 11310.35449
11293.0 0.0000886 11308.59863 11308.59863
11475.0 0.0000871 11306.80957 11306.80957
11366.0 0.0000880 11304.98730 11304.98730
11454.0 0.0000873 11303.13477 11303.13477
11292.0 0.0000886 11301.24902 11301.24902
11213.0 0.0000892 11299.33301 11299.33301
11160.0 0.0000896 11297.38574 11297.38574
11272.0 0.0000887 11295.40820 11295.40820
11227.0 0.0000891 11293.40137 11293.40137
11230.0 0.0000890 11291.36523 11291.36523
11315.0 0.0000884 11289.29883 11289.29883
11233.0 0.0000890 11287.20508 11287.20508
11346.0 0.0000881 11285.08301 11285.08301
11498.0 0.0000870 11282.93262 11282.93262
11332.0 0.0000882 11280.75586 11280.75586
11235.0 0.0000890 11278.55176 11278.55176
11172.0 0.0000895 11276.32129 11276.32129
11433.0 0.0000875 11274.06543 11274.06543
11421.0 0.0000876 11271.78418 11271.78418
11469.0 0.0000872 11269.47754 11269.47754
11184.0 0.0000894 11267.14746 11267.14746
11246.0 0.0000889 11264.79297 11264.79297
11345.0 0.0000881 11262.41602 11262.41602
11190.0 0.0000894 11260.01563 11260.01563
11276.0 0.0000887 11257.59375 11257.59375
11146.0 0.0000897 11255.15039 11255.15039
11234.0 0.0000890 11252.68555 11252.68555
11294.0 0.0000885 11250.20117 11250.20117
11261.0 0.0000888 11247.69727 11247.69727
11189.0 0.0000894 11245.17383 11245.17383
11384.0 0.0000878 11242.63184 11242.63184
11152.0 0.0000897 11240.07324 11240.07324
11340.0 0.0000882 11237.49707 11237.49707
11101.0 0.0000901 11234.90430 11234.90430
11356.0 0.0000881 11232.29590 11232.29590
11534.0 0.0000867 11229.67383 11229.67383
11337.0 0.0000882 11227.03613 11227.03613
11317.0 0.0000884 11224.38574 11224.38574
11245.0 0.0000889 11221.72168 11221.72168
11115.0 0.0000900 11219.04688 11219.04688
11128.0 0.0000899 11216.35938 11216.35938
11179.0 0.0000895 11213.66211 11213.66211
11333.0 0.0000882 11210.95508 11210.95508
11143.0 0.0000897 11208.23828 11208.23828
11382.0 0.0000879 11205.51367 11205.51367
10972.0 0.0000911 11202.78027 11202.78027
11250.0 0.0000889 11200.04102 11200.04102
11240.0 0.0000890 11197.29590 11197.29590
11101.0 0.0000901 11194.54395 11194.54395
11042.0 0.0000906 11191.78809 11191.78809
11099.0 0.0000901 11189.02832 11189.02832
11155.0 0.0000896 11186.26465 11186.26465
11243.0 0.0000889 11183.49902 11183.49902
11195.0 0.0000893 11180.73047 11180.73047
11161.0 0.0000896 11177.96191 11177.96191
11176.0 0.0000895 11175.19238 11175.19238
11183.0 0.0000894 11172.42383 11172.42383
10965.0 0.0000912 11169.65527 11169.65527
11340.0 0.0000882 11166.88770 11166.88770
11041.0 0.0000906 11164.12402 11164.12402
11133.0 0.0000898 11161.36133 11161.36133
10984.0 0.0000910 11158.60352 11158.60352
11074.0 0.0000903 11155.84961 11155.84961
11106.0 0.0000900 11153.10059 11153.10059
11208.0 0.0000892 11150.35645 11150.35645
11193.0 0.0000893 11147.61816 11147.61816
11210.0 0.0000892 11144.88672 11144.88672
11124.0 0.0000899 11142.16211 11142.16211
11121.0 0.0000899 11139.44531 11139.44531
11247.0 0.0000889 11136.73730 11136.73730
11239.0 0.0000890 11134.03711 11134.03711
11135.0 0.0000898 11131.34570 11131.34570
10990.0 0.0000910 11128.66504 11128.66504
11167.0 0.0000895 11125.99414 11125.99414
11152.0 0.0000897 11123.33398 11123.33398
11241.0 0.0000890 11120.68457 11120.68457
11040.0 0.0000906 11118.04688 11118.04688
11104.0 0.0000901 11115.41992 11115.41992
11128.0 0.0000899 11112.80664 11112.80664
11161.0 0.0000896 11110.20508 11110.20508
11087.0 0.0000902 11107.61719 11107.61719
11008.0 0.0000908 11105.04199 11105.04199
10989.0 0.0000910 11102.48047 11102.48047
11089.0 0.0000902 11099.93359 11099.93359
11157.0 0.0000896 11097.40039 11097.40039
11040.0 0.0000906 11094.88184 11094.88184
11067.0 0.0000904 11092.37793 11092.37793
11020.0 0.0000907 11089.88867 11089.88867
11280.0 0.0000887 11087.41406 11087.41406
11162.0 0.0000896 11084.95605 11084.95605
10973.0 0.0000911 11082.51270 11082.51270
11049.0 0.0000905 11080.08496 11080.08496
11074.0 0.0000903 11077.67383 11077.67383
11034.0 0.0000906 11075.27832 11075.27832
11003.0 0.0000909 11072.89844 11072.89844
11205.0 0.0000892 11070.53516 11070.53516
11004.0 0.0000909 11068.18750 11068.18750
10943.0 0.0000914 11065.85645 11065.85645
10883.0 0.0000919 11063.54102 11063.54102
11121.0 0.0000899 11061.24316 11061.24316
10944.0 0.0000914 11058.96094 11058.96094
11121.0 0.0000899 11056.69434 11056.69434
10924.0 0.0000915 11054.44531 11054.44531
11013.0 0.0000908 11052.21191 11052.21191
11188.0 0.0000894 11049.99512 11049.99512
10977.0 0.0000911 11047.79395 11047.79395
10897.0 0.0000918 11045.60840 11045.60840
11097.0 0.0000901 11043.43945 11043.43945
11264.0 0.0000888 11041.28613 11041.28613
11185.0 0.0000894 11039.14941 11039.14941
11104.0 0.0000901 11037.02734 11037.02734
10888.0 0.0000918 11034.92090 11034.92090
11236.0 0.0000890 11032.82910 11032.82910
11060.0 0.0000904 11030.75293 11030.75293
10866.0 0.0000920 11028.69238 11028.69238
11124.0 0.0000899 11026.64551 11026.64551
10860.0 0.0000921 11024.61328 11024.61328
11034.0 0.0000906 11022.59570 11022.59570
10991.0 0.0000910 11020.59180 11020.59180
11123.0 0.0000899 11018.60156 11018.60156
10899.0 0.0000918 11016.62598 11016.62598
10989.0 0.0000910 11014.66309 11014.66309
10990.0 0.0000910 11012.71289 11012.71289
11186.0 0.0000894 11010.77539 11010.77539
11073.0 0.0000903 11008.85059 11008.85059
10957.0 0.0000913 11006.93750 11006.93750
10998.0 0.0000909 11005.03711 11005.03711
11045.0 0.0000905 11003.14746 11003.14746
11004.0 0.0000909 11001.26953 11001.26953
11074.0 0.0000903 10999.40332 10999.40332
11021.0 0.0000907 10997.54688 10997.54688
11019.0 0.0000908 10995.70117 10995.70117
10838.0 0.0000923 10993.86426 10993.86426
10856.0 0.0000921 10992.03809 10992.03809
10895.0 0.0000918 10990.22168 10990.22168
10841.0 0.0000922 10988.41309 10988.41309
10842.0 0.0000922 10986.61328 10986.61328
10897.0 0.0000918 10984.82227 10984.82227
10996.0 0.0000909 10983.03906 10983.03906
10915.0 0.0000916 10981.26367 10981.26367
10910.0 0.0000917 10979.49512 10979.49512
10981.0 0.0000911 10977.73340 10977.73340
11060.0 0.0000904 10975.97852 10975.97852
11116.0 0.0000900 10974.22949 10974.22949
10976.0 0.0000911 10972.48633 10972.48633
11139.0 0.0000898 10970.74805 10970.74805
11060.0 0.0000904 10969.01563 10969.01563
10871.0 0.0000920 10967.28711 10967.28711
10947.0 0.0000913 10965.56348 10965.56348
11137.0 0.0000898 10963.84375 10963.84375
11041.0 0.0000906 10962.12793 10962.12793
10784.0 0.0000927 10960.41504 10960.41504
11097.0 0.0000901 10958.70508 10958.70508
11073.0 0.0000903 10956.99805 10956.99805
11002.0 0.0000909 10955.29297 10955.29297
11154.0 0.0000897 10953.58984 10953.58984
10800.0 0.0000926 10951.88770 10951.88770
10994.0 0.0000910 10950.18750 10950.18750
11050.0 0.0000905 10948.48828 10948.48828
10926.0 0.0000915 10946.78906 10946.78906
10875.0 0.0000920 10945.09082 10945.09082
10843.0 0.0000922 10943.39160 10943.39160
10754.0 0.0000930 10941.69238 10941.69238
10781.0 0.0000928 10939.99316 10939.99316
10822.0 0.0000924 10938.29199 10938.29199
10986.0 0.0000910 10936.58984 10936.58984
11061.0 0.0000904 10934.88672 10934.88672
11090.0 0.0000902 10933.18066 10933.18066
10947.0 0.0000913 10931.47266 10931.47266
11116.0 0.0000900 10929.76367 10929.76367
10946.0 0.0000914 10928.05078 10928.05078
10952.0 0.0000913 10926.33496 10926.33496
10948.0 0.0000913 10924.61621 10924.61621
10920.0 0.0000916 10922.89355 10922.89355
10862.0 0.0000921 10921.16699 10921.16699
11041.0 0.0000906 10919.43750 10919.43750
11094.0 0.0000901 10917.70313 10917.70313
11039.0 0.0000906 10915.96484 10915.96484
10996.0 0.0000909 10914.22168 10914.22168
10996.0 0.0000909 10912.47363 10912.47363
10939.0 0.0000914 10910.72070 10910.72070
11016.0 0.0000908 10908.96289 10908.96289
11048.0 0.0000905 10907.20020 10907.20020
10955.0 0.0000913 10905.43066 10905.43066
11029.0 0.0000907 10903.65625 10903.65625
10871.0 0.0000920 10901.87598 10901.87598
10909.0 0.0000917 10900.08984 10900.08984
11174.0 0.0000895 10898.29688 10898.29688
10895.0 0.0000918 10896.49902 10896.49902
10889.0 0.0000918 10894.69336 10894.69336
11099.0 0.0000901 10892.88184 10892.88184
10945.0 0.0000914 10891.06348 10891.06348
10994.0 0.0000910 10889.23926 10889.23926
11073.0 0.0000903 10887.40723 10887.40723
10898.0 0.0000918 10885.56836 10885.56836
10881.0 0.0000919 10883.72266 10883.72266
10740.0 0.0000931 10881.87109 10881.87109
11045.0 0.0000905 10880.01074 10880.01074
10879.0 0.0000919 10878.14453 10878.14453
10755.0 0.0000930 10876.27051 10876.27051
10896.0 0.0000918 10874.38965 10874.38965
10916.0 0.0000916 10872.50098 10872.50098
10781.0 0.0000928 10870.60547 10870.60547
10948.0 0.0000913 10868.70313 10868.70313
10866.0 0.0000920 10866.79297 10866.79297
10791.0 0.0000927 10864.87598 10864.87598
10867.0 0.0000920 10862.95117 10862.95117
10734.0 0.0000932 10861.01953 10861.01953
10721.0 0.0000933 10859.08008 10859.08008
10818.0 0.0000924 10857.13379 10857.13379
10748.0 0.0000930 10855.18066 10855.18066
10756.0 0.0000930 10853.22070 10853.22070
10731.0 0.0000932 10851.25293 10851.25293
10805.0 0.0000925 10849.27930 10849.27930
10828.0 0.0000924 10847.29785 10847.29785
10818.0 0.0000924 10845.30957 10845.30957
10792.0 0.0000927 10843.31543 10843.31543
10778.0 0.0000928 10841.31445 10841.31445
10635.0 0.0000940 10839.30664 10839.30664
10962.0 0.0000912 10837.29199 10837.29199
10849.0 0.0000922 10835.27148 10835.27148
10752.0 0.0000930 10833.24512 10833.24512
10679.0 0.0000936 10831.21289 10831.65039
10771.0 0.0000928 10829.17383 10829.62207
10879.0 0.0000919 10827.12988 10827.58984
10780.0 0.0000928 10825.07910 10825.55078
10903.0 0.0000917 10823.02344 10823.50684
10779.0 0.0000928 10820.96289 10821.45898
10763.0 0.0000929 10818.89648 10819.40527
10867.0 0.0000920 10816.82617 10817.34863
10832.0 0.0000923 10814.75000 10815.28711
10778.0 0.0000928 10812.66895 10813.22070
10880.0 0.0000919 10810.58398 10811.15137
10792.0 0.0000927 10808.49414 10809.07715
10882.0 0.0000919 10806.40137 10807.00195
10720.0 0.0000933 10804.30273 10804.92090
10815.0 0.0000925 10802.20215 10802.83789
10829.0 0.0000923 10800.09668 10800.75195
10593.0 0.0000944 10797.98828 10798.66309
10795.0 0.0000926 10795.87695 10796.57324
10659.0 0.0000938 10793.76270 10794.48047
10813.0 0.0000925 10791.64551 10792.38672
10899.0 0.0000918 10789.52539 10790.29102
10704.0 0.0000934 10787.40332 10788.19434
10643.0 0.0000940 10785.27930 10786.09668
10675.0 0.0000937 10783.15332 10783.99805
10818.0 0.0000924 10781.02539 10781.90039
10673.0 0.0000937 10778.89648 10779.80176
10757.0 0.0000930 10776.76563 10777.70410
10632.0 0.0000941 10774.63477 10775.60742
10679.0 0.0000936 10772.50195 10773.51172
10979.0 0.0000911 10770.37012 10771.41797
10897.0 0.0000918 10768.23633 10769.32520
10743.0 0.0000931 10766.10449 10767.23633
10671.0 0.0000937 10763.97070 10765.14844
10691.0 0.0000935 10761.83887 10763.06543
10712.0 0.0000934 10759.70703 10760.98535
10597.0 0.0000944 10757.57617 10758.91016
10667.0 0.0000937 10755.44727 10756.83984
10572.0 0.0000946 10753.31836 10754.77344
10795.0 0.0000926 10751.19238 10752.71484
10789.0 0.0000927 10749.06738 10750.66211
10697.0 0.0000935 10746.94531 10748.61719
10765.0 0.0000929 10744.82520 10746.58008
10751.0 0.0000930 10742.70703 10744.55176
10740.0 0.0000931 10740.59277 10742.53418
10778.0 0.0000928 10738.48047 10740.52637
10707.0 0.0000934 10736.37207 10738.53125
10623.0 0.0000941 10734.26758 10736.54980
10682.0 0.0000936 10732.16602 10734.58203
10552.0 0.0000948 10730.06934 10732.63086
10766.0 0.0000929 10727.97559 10730.69727
10935.0 0.0000914 10725.88770 10728.78516
10684.0 0.0000936 10723.80371 10726.89453
10691.0 0.0000935 10721.72461 10725.02832
10819.0 0.0000924 10719.65137 10723.19238
10643.0 0.0000940 10717.58203 10721.38672
10786.0 0.0000927 10715.51953 10719.61816
10709.0 0.0000934 10713.46289 10717.89258
10613.0 0.0000942 10711.41113 10716.21484
10741.0 0.0000931 10709.36621 10714.59473
10775.0 0.0000928 10707.32813 10713.04102
10709.0 0.0000934 10705.29688 10711.56836
10661.0 0.0000938 10703.27148 10710.19238
10844.0 0.0000922 10701.25293 10708.93848
10736.0 0.0000931 10699.24219 10707.85156
10775.0 0.0000928 10697.23926 10707.00000
10771.0 0.0000928 10695.24316 10706.50977
10759.0 0.0000929 10693.25488 10706.58984
10773.0 0.0000928 10691.27539 10707.56152
10768.0 0.0000929 10689.30371 10709.86719
10589.0 0.0000944 10687.33984 10714.05078
10686.0 0.0000936 10685.38477 10720.68164
10543.0 0.0000948 10683.43848 10730.22852
10736.0 0.0000931 10681.50098 10743.06250
10775.0 0.0000928 10679.57227 10759.59766
10776.0 0.0000928 10677.65234 10780.15527
10881.0 0.0000919 10675.74219 10805.36914
10952.0 0.0000913 10673.84082 10836.49219
10704.0 0.0000934 10671.95020 10875.10742
10805.0 0.0000925 10670.06836 10923.46973
10879.0 0.0000919 10668.19727 10983.13477
10937.0 0.0000914 10666.33496 11053.42285
11329.0 0.0000883 10664.48340 11128.78223
11117.0 0.0000900 10662.64160 11196.91016
11224.0 0.0000891 10660.81055 11239.11523
11259.0 0.0000888 10658.99023 11234.92676
11319.0 0.0000883 10657.17969 11174.38281
11191.0 0.0000894 10655.37988 11072.04395
10980.0 0.0000911 10653.59082 10958.72363
11035.0 0.0000906 10651.81250 10859.01172
10866.0 0.0000920 10650.04590 10783.66602
10773.0 0.0000928 10648.28906 10732.96680
10610.0 0.0000943 10646.54395 10701.63770
10696.0 0.0000935 10644.80957 10683.04492
10755.0 0.0000930 10643.08691 10671.75098
10833.0 0.0000923 10641.37500 10664.26660
10600.0 0.0000943 10639.67480 10658.72070
10527.0 0.0000950 10637.98535 10654.21680
10693.0 0.0000935 10636.30762 10650.34863
10779.0 0.0000928 10634.64160 10646.91895
10663.0 0.0000938 10632.98633 10643.81348
10624.0 0.0000941 10631.34277 10640.96289
10653.0 0.0000939 10629.71094 10638.31543
10649.0 0.0000939 10628.09082 10635.83203
10605.0 0.0000943 10626.48145 10633.48242
10717.0 0.0000933 10624.88379 10631.24609
10728.0 0.0000932 10623.29785 10629.10547
10650.0 0.0000939 10621.72363 10627.04590
10884.0 0.0000919 10620.16016 10625.05566
10621.0 0.0000942 10618.60938 10623.12793
10721.0 0.0000933 10617.06836 10621.25098
10540.0 0.0000949 10615.54004 10619.42383
10633.0 0.0000940 10614.02344 10617.63867
10758.0 0.0000930 10612.51660 10615.89063
10466.0 0.0000955 10611.02246 10614.17871
10666.0 0.0000938 10609.53906 10612.49707
10395.0 0.0000962 10608.06738 10610.84668
10491.0 0.0000953 10606.60645 10609.22168
10664.0 0.0000938 10605.15625 10607.62207
10674.0 0.0000937 10603.71777 10606.04688
10685.0 0.0000936 10602.29004 10604.49316
10523.0 0.0000950 10600.87402 10602.96094
10644.0 0.0000939 10599.46777 10601.44727
10546.0 0.0000948 10598.07227 10599.95313
10459.0 0.0000956 10596.68750 10598.47656
10621.0 0.0000942 10595.31348 10597.01758
10550.0 0.0000948 10593.95020 10595.57520
10637.0 0.0000940 10592.59668 10594.14746
10587.0 0.0000945 10591.25391 10592.73633
10495.0 0.0000953 10589.92090 10591.33887
10520.0 0.0000951 10588.59766 10589.95508
10576.0 0.0000946 10587.28418 10588.58496
10381.0 0.0000963 10585.98145 10587.22949
10607.0 0.0000943 10584.68750 10585.88574
10683.0 0.0000936 10583.40332 10584.55371
10549.0 0.0000948 10582.12793 10583.23438
10788.0 0.0000927 10580.86328 10581.92773
10614.0 0.0000942 10579.60645 10580.63184
10632.0 0.0000941 10578.35840 10579.34668
10423.0 0.0000959 10577.12012 10578.07324
10621.0 0.0000942 10575.88965 10576.80957
10576.0 0.0000946 10574.66797 10575.55566
10737.0 0.0000931 10573.45410 10574.31152
10840.0 0.0000923 10572.24902 10573.07813
10796.0 0.0000926 10571.05078 10571.85254
10740.0 0.0000931 10569.86133 10570.63770
10595.0 0.0000944 10568.67871 10569.43066
10584.0 0.0000945 10567.50391 10568.23242
10519.0 0.0000951 10566.33691 10567.04297
10490.0 0.0000953 10565.17676 10565.86133
10678.0 0.0000937 10564.02246 10564.68652
10557.0 0.0000947 10562.87598 10563.52051
10595.0 0.0000944 10561.73535 10562.36133
10425.0 0.0000959 10560.60059 10561.20898
10506.0 0.0000952 10559.47266 10560.06348
10623.0 0.0000941 10558.35059 10558.92480
10607.0 0.0000943 10557.23340 10557.79199
10637.0 0.0000940 10556.12207 10556.66602
10581.0 0.0000945 10555.01563 10555.54492
10739.0 0.0000931 10553.91504 10554.43066
10567.0 0.0000946 10552.81836 10553.32031
10498.0 0.0000953 10551.72656 10552.21582
10668.0 0.0000937 10550.63965 10551.11621
10638.0 0.0000940 10549.55566 10550.02051
10597.0 0.0000944 10548.47656 10548.92969
10707.0 0.0000934 10547.40039 10547.84277
10575.0 0.0000946 10546.32813 10546.75977
10411.0 0.0000961 10545.25977 10545.68164
10478.0 0.0000954 10544.19336 10544.19336
10497.0 0.0000953 10543.12988 10543.12988
10486.0 0.0000954 10542.06934 10542.06934
10580.0 0.0000945 10541.01172 10541.01172
10569.0 0.0000946 10539.95508 10539.95508
10623.0 0.0000941 10538.90039 10538.90039
10486.0 0.0000954 10537.84766 10537.84766
10539.0 0.0000949 10536.79590 10536.79590
10622.0 0.0000941 10535.74609 10535.74609
10368.0 0.0000965 10534.69629 10534.69629
10332.0 0.0000968 10533.64746 10533.64746
10642.0 0.0000940 10532.59863 10532.59863
10423.0 0.0000959 10531.55078 10531.55078
10366.0 0.0000965 10530.50195 10530.50195
10370.0 0.0000964 10529.45313 10529.45313
10483.0 0.0000954 10528.40430 10528.40430
10479.0 0.0000954 10527.35449 10527.35449
10522.0 0.0000950 10526.30371 10526.30371
10431.0 0.0000959 10525.25098 10525.25098
10612.0 0.0000942 10524.19727 10524.19727
10472.0 0.0000955 10523.14258 10523.14258
10463.0 0.0000956 10522.08496 10522.08496
10363.0 0.0000965 10521.02539 10521.02539
10419.0 0.0000960 10519.96289 10519.96289
10401.0 0.0000961 10518.89844 10518.89844
10542.0 0.0000949 10517.83105 10517.83105
10461.0 0.0000956 10516.75977 10516.75977
10556.0 0.0000947 10515.68555 10515.68555
10628.0 0.0000941 10514.60742 10514.60742
10553.0 0.0000948 10513.52637 10513.52637
10426.0 0.0000959 10512.44043 10512.44043
10607.0 0.0000943 10511.35059 10511.35059
10586.0 0.0000945 10510.25586 10510.25586
10453.0 0.0000957 10509.15625 10509.15625
10454.0 0.0000957 10508.05176 10508.05176
10502.0 0.0000952 10506.94238 10506.94238
10487.0 0.0000954 10505.82715 10505.82715
10383.0 0.0000963 10504.70703 10504.70703
10554.0 0.0000948 10503.58008 10503.58008
10491.0 0.0000953 10502.44824 10502.44824
10531.0 0.0000950 10501.30957 10501.30957
10620.0 0.0000942 10500.16406 10500.16406
10641.0 0.0000940 10499.01172 10499.01172
10544.0 0.0000948 10497.85254 10497.85254
10566.0 0.0000946 10496.68652 10496.68652
10505.0 0.0000952 10495.51367 10495.51367
10499.0 0.0000952 10494.33203 10494.33203
10387.0 0.0000963 10493.14355 10493.14355
10532.0 0.0000949 10491.94727 10491.94727
10589.0 0.0000944 10490.74316 10490.74316
10533.0 0.0000949 10489.52930 10489.52930
10294.0 0.0000971 10488.30859 10488.30859
10611.0 0.0000942 10487.07813 10487.07813
10493.0 0.0000953 10485.83887 10485.83887
10459.0 0.0000956 10484.59082 10484.59082
10512.0 0.0000951 10483.33398 10483.33398
10519.0 0.0000951 10482.06738 10482.06738
10404.0 0.0000961 10480.79102 10480.79102
10385.0 0.0000963 10479.50488 10479.50488
10588.0 0.0000944 10478.20898 10478.20898
10401.0 0.0000961 10476.90332 10476.90332
10600.0 0.0000943 10475.58691 10475.58691
10541.0 0.0000949 10474.26074 10474.26074
10462.0 0.0000956 10472.92383 10472.92383
10691.0 0.0000935 10471.57617 10471.57617
10398.0 0.0000962 10470.21777 10470.21777
10512.0 0.0000951 10468.84863 10468.84863
10599.0 0.0000943 10467.46777 10467.46777
10295.0 0.0000971 10466.07617 10466.07617
10341.0 0.0000967 10464.67285 10464.67285
10496.0 0.0000953 10463.25781 10463.25781
10383.0 0.0000963 10461.83105 10461.83105
10507.0 0.0000952 10460.39355 10460.39355
10527.0 0.0000950 10458.94336 10458.94336
10457.0 0.0000956 10457.48145 10457.48145
10598.0 0.0000944 10456.00781 10456.00781
10615.0 0.0000942 10454.52148 10454.52148
10554.0 0.0000948 10453.02246 10453.02246
10535.0 0.0000949 10451.51172 10451.51172
10610.0 0.0000943 10449.98828 10449.98828
10454.0 0.0000957 10448.45215 10448.45215
10752.0 0.0000930 10446.90332 10446.90332
10559.0 0.0000947 10445.34180 10445.34180
10546.0 0.0000948 10443.76758 10443.76758
10547.0 0.0000948 10442.18066 10442.18066
10359.0 0.0000965 10440.58008 10440.58008
10335.0 0.0000968 10438.96680 10438.96680
10445.0 0.0000957 10437.33984 10437.33984
10490.0 0.0000953 10435.70117 10435.70117
10338.0 0.0000967 10434.04785 10434.04785
10425.0 0.0000959 10432.38184 10432.38184
10372.0 0.0000964 10430.70215 10430.70215
10311.0 0.0000970 10429.00879 10429.00879
10321.0 0.0000969 10427.30176 10427.30176
10297.0 0.0000971 10425.58203 10425.58203
10295.0 0.0000971 10423.84863 10423.84863
10321.0 0.0000969 10422.10156 10422.10156
10354.0 0.0000966 10420.34082 10420.34082
10388.0 0.0000963 10418.56641 10418.56641
10395.0 0.0000962 10416.77832 10416.77832
10395.0 0.0000962 10414.97656 10414.97656
10486.0 0.0000954 10413.16113 10413.16113
10495.0 0.0000953 10411.33203 10411.33203
10486.0 0.0000954 10409.48926 10409.48926
10369.0 0.0000964 10407.63281 10407.63281
10462.0 0.0000956 10405.76270 10405.76270
10357.0 0.0000966 10403.87891 10403.87891
10369.0 0.0000964 10401.98145 10401.98145
10393.0 0.0000962 10400.07031 10400.07031
10378.0 0.0000964 10398.14551 10398.14551
10448.0 0.0000957 10396.20801 10396.20801
10482.0 0.0000954 10394.25586 10394.25586
10290.0 0.0000972 10392.29004 10392.29004
10233.0 0.0000977 10390.31055 10390.31055
10404.0 0.0000961 10388.31836 10388.31836
10059.0 0.0000994 10386.31250 10386.31250
10392.0 0.0000962 10384.29297 10384.29297
10290.0 0.0000972 10382.26074 10382.26074
10323.0 0.0000969 10380.21387 10380.21387
10230.0 0.0000978 10378.15527 10378.15527
10391.0 0.0000962 10376.08203 10376.08203
10345.0 0.0000967 10373.99707 10373.99707
10445.0 0.0000957 10371.89844 10371.89844
10208.0 0.0000980 10369.78613 10369.78613
10258.0 0.0000975 10367.66211 10367.66211
10424.0 0.0000959 10365.52441 10365.52441
10148.0 0.0000985 10363.37402 10363.37402
10413.0 0.0000960 10361.21094 10361.21094
10345.0 0.0000967 10359.03516 10359.03516
10244.0 0.0000976 10356.84668 10356.84668
10204.0 0.0000980 10354.64648 10354.64648
10314.0 0.0000970 10352.43359 10352.43359
10334.0 0.0000968 10350.20801 10350.20801
10329.0 0.0000968 10347.97070 10347.97070
10266.0 0.0000974 10345.72168 10345.72168
10335.0 0.0000968 10343.45996 10343.45996
10407.0 0.0000961 10341.18652 10341.18652
10353.0 0.0000966 10338.90234 10338.90234
10386.0 0.0000963 10336.60547 10336.60547
10292.0 0.0000972 10334.29785 10334.29785
10308.0 0.0000970 10331.97852 10331.97852
10094.0 0.0000991 10329.64746 10329.64746
10240.0 0.0000977 10327.30566 10327.30566
10443.0 0.0000958 10324.95313 10324.95313
10496.0 0.0000953 10322.58984 10322.58984
10377.0 0.0000964 10320.21582 10320.21582
10308.0 0.0000970 10317.83105 10317.83105
10227.0 0.0000978 10315.43555 10315.43555
10350.0 0.0000966 10313.03027 10313.03027
10442.0 0.0000958 10310.61426 10310.61426
10330.0 0.0000968 10308.18848 10308.18848
10133.0 0.0000987 10305.75293 10305.75293
10289.0 0.0000972 10303.30762 10303.30762
10128.0 0.0000987 10300.85254 10300.85254
10326.0 0.0000968 10298.38867 10298.38867
10394.0 0.0000962 10295.91504 10295.91504
10283.0 0.0000972 10293.43262 10293.43262
10309.0 0.0000970 10290.94141 10290.94141
10153.0 0.0000985 10288.44043 10288.44043
10235.0 0.0000977 10285.93164 10285.93164
10330.0 0.0000968 10283.41406 10283.41406
10190.0 0.0000981 10280.88867 10280.88867
10324.0 0.0000969 10278.35547 10278.35547
10195.0 0.0000981 10275.81348 10275.81348
10336.0 0.0000967 10273.26465 10273.26465
10268.0 0.0000974 10270.70801 10270.70801
10188.0 0.0000982 10268.14355 10268.14355
10244.0 0.0000976 10265.57227 10265.57227
10314.0 0.0000970 10262.99316 10262.99316
10105.0 0.0000990 10260.40820 10260.40820
10255.0 0.0000975 10257.81641 10257.81641
10213.0 0.0000979 10255.21777 10255.21777
10219.0 0.0000979 10252.61328 10252.61328
10225.0 0.0000978 10250.00293 10250.00293
10149.0 0.0000985 10247.38574 10247.38574
10268.0 0.0000974 10244.76367 10244.76367
10102.0 0.0000990 10242.13574 10242.13574
10185.0 0.0000982 10239.50195 10239.50195
10251.0 0.0000976 10236.86328 10236.86328
10237.0 0.0000977 10234.22070 10234.22070
10269.0 0.0000974 10231.57227 10231.57227
10222.0 0.0000978 10228.91895 10228.91895
10137.0 0.0000986 10226.26270 10226.26270
10205.0 0.0000980 10223.60059 10223.60059
10380.0 0.0000963 10220.93555 10220.93555
10230.0 0.0000978 10218.26660 10218.26660
10283.0 0.0000972 10215.59375 10215.59375
10214.0 0.0000979 10212.91797 10212.91797
10182.0 0.0000982 10210.23828 10210.23828
10100.0 0.0000990 10207.55664 10207.55664
10028.0 0.0000997 10204.87109 10204.87109
10216.0 0.0000979 10202.18359 10202.18359
10251.0 0.0000976 10199.49414 10199.49414
10314.0 0.0000970 10196.80176 10196.80176
10352.0 0.0000966 10194.10742 10194.10742
10309.0 0.0000970 10191.41113 10191.41113
10238.0 0.0000977 10188.71387 10188.71387
10206.0 0.0000980 10186.01465 10186.01465
10234.0 0.0000977 10183.31445 10183.31445
10270.0 0.0000974 10180.61328 10180.61328
10339.0 0.0000967 10177.91113 10177.91113
10278.0 0.0000973 10175.20898 10175.20898
10123.0 0.0000988 10172.50586 10172.50586
10151.0 0.0000985 10169.80273 10169.80273
10239.0 0.0000977 10167.09961 10167.09961
10156.0 0.0000985 10164.39648 10164.39648
10326.0 0.0000968 10161.69434 10161.69434
9997.0 0.0001000 10158.99219 10158.99219
10224.0 0.0000978 10156.29102 10156.29102
10129.0 0.0000987 10153.59082 10153.59082
10152.0 0.0000985 10150.89160 10150.89160
10190.0 0.0000981 10148.19336 10148.19336
10264.0 0.0000974 10145.49707 10145.49707
10106.0 0.0000990 10142.80273 10142.80273
9984.0 0.0001002 10140.11035 10140.11035
10179.0 0.0000982 10137.42090 10137.42090
9991.0 0.0001001 10134.73242 10134.73242
10213.0 0.0000979 10132.04688 10132.04688
10155.0 0.0000985 10129.36426 10129.36426
9923.0 0.0001008 10126.68457 10126.68457
10103.0 0.0000990 10124.00781 10124.00781
10065.0 0.0000994 10121.33398 10121.33398
9866.0 0.0001014 10118.66309 10118.66309
10155.0 0.0000985 10115.99707 10115.99707
10220.0 0.0000978 10113.33398 10113.33398
10291.0 0.0000972 10110.67578 10110.67578
10169.0 0.0000983 10108.02051 10108.02051
10222.0 0.0000978 10105.37109 10105.37109
10078.0 0.0000992 10102.72461 10102.72461
10171.0 0.0000983 10100.08301 10100.08301
10313.0 0.0000970 10097.44727 10097.44727
10313.0 0.0000970 10094.81543 10094.81543
10109.0 0.0000989 10092.19043 10092.19043
10300.0 0.0000971 10089.56934 10089.56934
10253.0 0.0000975 10086.95410 10086.95410
10258.0 0.0000975 10084.34473 10084.34473
10129.0 0.0000987 10081.74121 10081.74121
10070.0 0.0000993 10079.14258 10079.14258
10218.0 0.0000979 10076.55176 10076.55176
10131.0 0.0000987 10073.96582 10073.96582
9956.0 0.0001004 10071.38770 10071.38770
10276.0 0.0000973 10068.81543 10068.81543
10055.0 0.0000995 10066.25000 10066.25000
10234.0 0.0000977 10063.69141 10063.69141
9974.0 0.0001003 10061.13965 10061.13965
10106.0 0.0000990 10058.59570 10058.59570
10076.0 0.0000992 10056.05859 10056.05859
10127.0 0.0000987 10053.52930 10053.52930
10103.0 0.0000990 10051.00781 10051.00781
10114.0 0.0000989 10048.49414 10048.49414
10052.0 0.0000995 10045.98828 10045.98828
10066.0 0.0000993 10043.48926 10043.48926
10070.0 0.0000993 10041.00000 10041.00000
10037.0 0.0000996 10038.51855 10038.51855
9995.0 0.0001001 10036.04590 10036.04590
10192.0 0.0000981 10033.58105 10033.58105
9835.0 0.0001017 10031.12500 10031.12500
9956.0 0.0001004 10028.67773 10028.67773
10027.0 0.0000997 10026.23926 10026.23926
10055.0 0.0000995 10023.81055 10023.81055
10123.0 0.0000988 10021.38965 10021.38965
9987.0 0.0001001 10018.97949 10018.97949
10064.0 0.0000994 10016.57813 10016.57813
9945.0 0.0001006 10014.18555 10014.18555
10064.0 0.0000994 10011.80371 10011.80371
10008.0 0.0000999 10009.43066 10009.43066
9963.0 0.0001004 10007.06738 10007.06738
10036.0 0.0000996 10004.71387 10004.71387
9995.0 0.0001001 10002.37012 10002.37012
10081.0 0.0000992 10000.03711 10000.03711
9998.0 0.0001000 9997.71387 9997.71387
10002.0 0.0001000 9995.40137 9995.40137
10095.0 0.0000991 9993.09863 9993.09863
9983.0 0.0001002 9990.80664 9990.80664
9988.0 0.0001001 9988.52441 9988.52441
9989.0 0.0001001 9986.25293 9986.25293
9975.0 0.0001003 9983.99219 9983.99219
10047.0 0.0000995 9981.74219 9981.74219
10127.0 0.0000987 9979.50293 9979.50293
9900.0 0.0001010 9977.27344 9977.27344
9963.0 0.0001004 9975.05664 9975.05664
9968.0 0.0001003 9972.84961 9972.84961
9998.0 0.0001000 9970.65332 9970.65332
9881.0 0.0001012 9968.46875 9968.46875
10092.0 0.0000991 9966.29492 9966.29492
9859.0 0.0001014 9964.13281 9964.13281
9962.0 0.0001004 9961.98047 9961.98047
9936.0 0.0001006 9959.84082 9959.84082
9876.0 0.0001013 9957.71191 9957.71191
10053.0 0.0000995 9955.59375 9955.59375
10023.0 0.0000998 9953.48828 9953.48828
10001.0 0.0001000 9951.39258 9951.39258
9968.0 0.0001003 9949.30957 9949.30957
9946.0 0.0001005 9947.23730 9947.23730
9811.0 0.0001019 9945.17676 9945.17676
9923.0 0.0001008 9943.12793 9943.12793
9868.0 0.0001013 9941.09082 9941.09082
9930.0 0.0001007 9939.06445 9939.06445
10070.0 0.0000993 9937.04980 9937.04980
9860.0 0.0001014 9935.04688 9935.04688
9767.0 0.0001024 9933.05566 9933.05566
10121.0 0.0000988 9931.07617 9931.07617
10067.0 0.0000993 9929.10840 9929.10840
9962.0 0.0001004 9927.15137 9927.15137
9871.0 0.0001013 9925.20703 9929.83887
9943.0 0.0001006 9923.27344 9928.04297
9802.0 0.0001020 9921.35156 9926.26563
10034.0 0.0000997 9919.44238 9924.50684
9879.0 0.0001012 9917.54297 9922.76465
9858.0 0.0001014 9915.65625 9921.04297
9893.0 0.0001011 9913.78125 9919.34082
9795.0 0.0001021 9911.91797 9917.65918
9888.0 0.0001011 9910.06543 9915.99707
9793.0 0.0001021 9908.22461 9914.35645
9846.0 0.0001016 9906.39551 9912.73730
9931.0 0.0001007 9904.57813 9911.14160
9863.0 0.0001014 9902.77148 9909.56836
9872.0 0.0001013 9900.97656 9908.01953
9807.0 0.0001020 9899.19336 9906.49512
9927.0 0.0001007 9897.42188 9904.99805
9932.0 0.0001007 9895.66113 9903.52734
9595.0 0.0001042 9893.91113 9902.08398
9914.0 0.0001009 9892.17285 9900.66992
9953.0 0.0001005 9890.44629 9899.28809
9948.0 0.0001005 9888.73047 9897.93848
10000.0 0.0001000 9887.02539 9896.62305
9760.0 0.0001025 9885.33203 9895.34473
9776.0 0.0001023 9883.64941 9894.10352
9800.0 0.0001020 9881.97754 9892.90430
9939.0 0.0001006 9880.31738 9891.74805
10092.0 0.0000991 9878.66699 9890.63867
9944.0 0.0001006 9877.02832 9889.57910
9979.0 0.0001002 9875.40039 9888.57422
9939.0 0.0001006 9873.78223 9887.62695
9864.0 0.0001014 9872.17480 9886.74219
9985.0 0.0001002 9870.57910 9885.92676
9952.0 0.0001005 9868.99316 9885.18652
9852.0 0.0001015 9867.41699 9884.52734
9787.0 0.0001022 9865.85156 9883.95996
9881.0 0.0001012 9864.29688 9883.49219
9900.0 0.0001010 9862.75195 9883.13574
9858.0 0.0001014 9861.21777 9882.90332
9830.0 0.0001017 9859.69238 9882.80859
9885.0 0.0001012 9858.17773 9882.87109
9966.0 0.0001003 9856.67285 9883.10938
9895.0 0.0001011 9855.17773 9883.54980
9861.0 0.0001014 9853.69238 9884.22070
10012.0 0.0000999 9852.21680 9885.15625
9856.0 0.0001015 9850.75098 9886.39844
9892.0 0.0001011 9849.29395 9887.99805
10017.0 0.0000998 9847.84668 9890.01758
9860.0 0.0001014 9846.40820 9892.53320
9754.0 0.0001025 9844.97949 9895.64160
9994.0 0.0001001 9843.55859 9899.46191
9755.0 0.0001025 9842.14746 9904.15039
10028.0 0.0000997 9840.74609 9909.90723
9922.0 0.0001008 9839.35254 9917.00488
9861.0 0.0001014 9837.96777 9925.84863
9961.0 0.0001004 9836.59082 9937.10156
9923.0 0.0001008 9835.22363 9960.81641
9878.0 0.0001012 9833.86426 9981.93262
9828.0 0.0001018 9832.51270 10013.54102
10070.0 0.0000993 9831.16992 10063.82422
10107.0 0.0000989 9829.83398 10146.55664
10422.0 0.0000960 9828.50684 10283.10449
10773.0 0.0000928 9827.18750 10503.85742
10806.0 0.0000925 9825.87598 10847.71289
11335.0 0.0000882 9824.57227 11357.22168
12124.0 0.0000825 9823.27539 12067.34961
12810.0 0.0000781 9821.98535 12983.55273
13977.0 0.0000715 9820.70313 14050.55469
14722.0 0.0000679 9819.42871 15128.29883
15742.0 0.0000635 9818.16016 15990.73145
16227.0 0.0000616 9816.89941 16372.75977
16266.0 0.0000615 9815.64453 16083.18848
15512.0 0.0000645 9814.39648 15167.63574
14318.0 0.0000698 9813.15527 13924.26465
13184.0 0.0000758 9811.91992 12689.90820
12038.0 0.0000831 9810.69141 11677.60254
10971.0 0.0000911 9809.46875 10959.76660
10501.0 0.0000952 9808.25195 10509.06934
10104.0 0.0000990 9807.04102 10252.21973
9969.0 0.0001003 9805.83594 10114.03711
10079.0 0.0000992 9804.63672 10039.41406
9911.0 0.0001009 9803.44336 9995.93066
9842.0 0.0001016 9802.25391 9967.40332
9860.0 0.0001014 9801.07129 9946.61621
9628.0 0.0001039 9799.89258 9930.45898
9831.0 0.0001017 9798.71973 9917.49121
9890.0 0.0001011 9797.55078 9906.92285
9996.0 0.0001000 9796.38770 9898.25195
9923.0 0.0001008 9795.22852 9891.11523
9849.0 0.0001015 9794.07324 9885.25195
9763.0 0.0001024 9792.92285 9880.46680
9833.0 0.0001017 9791.77734 9876.61426
9905.0 0.0001010 9790.63477 9873.58301
9719.0 0.0001029 9789.49707 9871.29785
9869.0 0.0001013 9788.36230 9869.70313
9909.0 0.0001009 9787.23145 9868.76758
9701.0 0.0001031 9786.10449 9868.47559
9731.0 0.0001028 9784.98047 9868.82910
9795.0 0.0001021 9783.86035 9869.84961
9870.0 0.0001013 9782.74316 9871.57227
9715.0 0.0001029 9781.62891 9874.05371
9911.0 0.0001009 9780.51660 9877.36914
9717.0 0.0001029 9779.40820 9881.62402
9729.0 0.0001028 9778.30176 9886.95410
9766.0 0.0001024 9777.19824 9893.53125
9973.0 0.0001003 9776.09668 9901.58105
9746.0 0.0001026 9774.99805 9911.39746
9816.0 0.0001019 9773.90137 9923.36328
9779.0 0.0001023 9772.80566 9937.99805
9927.0 0.0001007 9771.71289 9956.05371
9680.0 0.0001033 9770.62109 9978.71680
9911.0 0.0001009 9769.53027 10008.10742
9933.0 0.0001007 9768.44238 10048.31055
10135.0 0.0000987 9767.35449 10107.30176
10199.0 0.0000980 9766.26855 10200.04395
10295.0 0.0000971 9765.18359 10352.66113
10738.0 0.0000931 9764.09961 10607.14844
11181.0 0.0000894 9763.01563 11025.13379
11956.0 0.0000836 9761.93262 11687.31055
12718.0 0.0000786 9760.85059 12682.35840
14193.0 0.0000705 9759.76855 14079.92578
15727.0 0.0000636 9758.68750 15881.87695
17791.0 0.0000562 9757.60547 17956.88477
19878.0 0.0000503 9756.52441 19995.59570
21498.0 0.0000465 9755.44336 21524.09570
22424.0 0.0000446 9754.36133 22009.07227
21944.0 0.0000456 9753.27930 21145.86719
19875.0 0.0000503 9752.19629 19169.35156
17457.0 0.0000573 9751.11328 16746.78320
15021.0 0.0000666 9750.02930 14495.49316
12763.0 0.0000784 9748.94434 12745.53516
11494.0 0.0000870 9747.85938 11563.39844
10641.0 0.0000940 9746.77246 10852.33691
10323.0 0.0000969 9745.68457 10459.41504
10193.0 0.0000981 9744.59473 10249.53711
10122.0 0.0000988 9743.50488 10133.03613
10030.0 0.0000997 9742.41211 10061.20996
9939.0 0.0001006 9741.31836 10011.21777
10002.0 0.0001000 9740.22266 9973.18848
9971.0 0.0001003 9739.12598 9938.21875
9999.0 0.0001000 9738.02637 9913.37891
9902.0 0.0001010 9736.92480 9892.65918
9831.0 0.0001017 9735.82031 9875.16113
9871.0 0.0001013 9734.71484 9860.22461
9825.0 0.0001018 9733.60645 9847.35156
9848.0 0.0001015 9732.49512 9836.16016
9830.0 0.0001017 9731.38184 9826.35254
9830.0 0.0001017 9730.26563 9817.69141
9711.0 0.0001030 9729.14648 9809.99414
9826.0 0.0001018 9728.02441 9803.10645
9641.0 0.0001037 9726.89941 9796.91016
9707.0 0.0001030 9725.77051 9791.30273
9712.0 0.0001030 9724.63867 9786.20508
9797.0 0.0001021 9723.50391 9781.54883
9597.0 0.0001042 9722.36621 9777.28027
9735.0 0.0001027 9721.22461 9773.34766
9664.0 0.0001035 9720.07910 9769.71582
9824.0 0.0001018 9718.92969 9766.34863
9746.0 0.0001026 9717.77637 9763.21973
9832.0 0.0001017 9716.62012 9760.30566
9724.0 0.0001028 9715.45898 9757.58496
9841.0 0.0001016 9714.29395 9755.04004
9824.0 0.0001018 9713.12500 9752.66113
9753.0 0.0001025 9711.95215 9750.43164
9866.0 0.0001014 9710.77441 9748.34277
9672.0 0.0001034 9709.59277 9746.38672
9971.0 0.0001003 9708.40625 9744.55664
9966.0 0.0001003 9707.21582 9742.85156
9850.0 0.0001015 9706.01953 9741.26172
9827.0 0.0001018 9704.81934 9739.79004
9946.0 0.0001005 9703.61426 9738.43555
10013.0 0.0000999 9702.40430 9737.19629
10008.0 0.0000999 9701.18945 9736.07813
9983.0 0.0001002 9699.96973 9735.08398
9915.0 0.0001009 9698.74512 9734.21875
9837.0 0.0001017 9697.51465 9733.49023
9760.0 0.0001025 9696.27930 9732.90918
9699.0 0.0001031 9695.03906 9732.48730
9596.0 0.0001042 9693.79297 9732.23926
9628.0 0.0001039 9692.54199 9732.18457
9684.0 0.0001033 9691.28516 9732.34473
9771.0 0.0001023 9690.02344 9732.75000
9631.0 0.0001038 9688.75586 9733.43066
9819.0 0.0001018 9687.48242 9734.43066
9764.0 0.0001024 9686.20313 9735.79883
9701.0 0.0001031 9684.91797 9737.59961
9654.0 0.0001036 9683.62793 9739.91016
9709.0 0.0001030 9682.33105 9742.83008
9804.0 0.0001020 9681.02930 9746.48438
9895.0 0.0001011 9679.72168 9751.04395
9790.0 0.0001021 9678.40723 9756.74219
9772.0 0.0001023 9677.08691 9763.94629
9804.0 0.0001020 9675.76074 9773.26367
9803.0 0.0001020 9674.42871 9785.77246
9755.0 0.0001025 9673.08984 9794.81641
9969.0 0.0001003 9671.74609 9821.35742
9890.0 0.0001011 9670.39453 9862.47656
9819.0 0.0001018 9669.03809 9927.71289
10132.0 0.0000987 9667.67480 10031.18848
10320.0 0.0000969 9666.30469 10191.82324
10389.0 0.0000963 9664.92969 10431.60645
10846.0 0.0000922 9663.54688 10770.48145
11206.0 0.0000892 9662.15820 11217.37793
11613.0 0.0000861 9660.76367 11759.73633
12183.0 0.0000821 9659.36230 12354.83301
12865.0 0.0000777 9657.95410 12924.66699
13007.0 0.0000769 9656.54004 13363.20801
13406.0 0.0000746 9655.11816 13559.41406
13644.0 0.0000733 9653.69141 13438.72461
13208.0 0.0000757 9652.25684 13018.50000
12497.0 0.0000800 9650.81738 12412.24805
11916.0 0.0000839 9649.37012 11760.21582
11068.0 0.0000904 9647.91602 11167.45801
10427.0 0.0000959 9646.45605 10689.18555
10268.0 0.0000974 9644.98926 10338.99707
9945.0 0.0001006 9643.51563 10102.81250
9954.0 0.0001005 9642.03613 9953.53418
9821.0 0.0001018 9640.54980 9862.84961
9572.0 0.0001045 9639.05566 9807.92383
9837.0 0.0001017 9637.55664 9773.26758
9683.0 0.0001033 9636.04980 9749.67285
9704.0 0.0001031 9634.53711 9732.18945
9752.0 0.0001025 9633.01758 9718.31738
9664.0 0.0001035 9631.49121 9706.80273
9505.0 0.0001052 9629.95801 9696.97852
9622.0 0.0001039 9628.41895 9688.44824
9628.0 0.0001039 9626.87305 9680.94434
9438.0 0.0001060 9625.32031 9674.27148
9698.0 0.0001031 9623.76172 9668.28125
9642.0 0.0001037 9622.19629 9662.85547
9548.0 0.0001047 9620.62402 9657.90039
9590.0 0.0001043 9619.04492 9653.34082
9443.0 0.0001059 9617.45996 9649.11816
9527.0 0.0001050 9615.86816 9645.17969
9636.0 0.0001038 9614.27051 9641.48535
9658.0 0.0001035 9612.66602 9638.00000
9840.0 0.0001016 9611.05469 9634.69629
9709.0 0.0001030 9609.43750 9631.54980
9634.0 0.0001038 9607.81445 9628.54102
9536.0 0.0001049 9606.18457 9625.65039
9600.0 0.0001042 9604.54785 9622.86523
9611.0 0.0001040 9602.90527 9620.17188
9562.0 0.0001046 9601.25684 9617.56055
9675.0 0.0001034 9599.60156 9615.02051
9539.0 0.0001048 9597.94043 9612.54492
9465.0 0.0001057 9596.27344 9610.12598
9638.0 0.0001038 9594.60059 9607.75684
9585.0 0.0001043 9592.92090 9605.43262
9433.0 0.0001060 9591.23535 9603.14941
9356.0 0.0001069 9589.54395 9600.90137
9573.0 0.0001045 9587.84668 9598.68555
9746.0 0.0001026 9586.14355 9596.49805
9580.0 0.0001044 9584.43359 9594.33594
9575.0 0.0001044 9582.71875 9592.53613
9477.0 0.0001055 9580.99805 9590.42871
9499.0 0.0001053 9579.27148 9588.33984
9713.0 0.0001030 9577.54004 9586.26953
9536.0 0.0001049 9575.80176 9584.21387
9419.0 0.0001062 9574.05859 9582.17188
9353.0 0.0001069 9572.30957 9580.14258
9499.0 0.0001053 9570.55469 9578.12500
9525.0 0.0001050 9568.79492 9576.11816
9495.0 0.0001053 9567.03027 9574.12109
9435.0 0.0001060 9565.25977 9572.13086
9664.0 0.0001035 9563.48340 9570.14941
9724.0 0.0001028 9561.70215 9568.17383
9462.0 0.0001057 9559.91699 9566.20703
9544.0 0.0001048 9558.12500 9564.24316
9615.0 0.0001040 9556.32910 9562.28613
9711.0 0.0001030 9554.52734 9560.33301
9637.0 0.0001038 9552.72168 9558.38574
9682.0 0.0001033 9550.91016 9556.44141
9421.0 0.0001061 9549.09473 9554.50195
9484.0 0.0001054 9547.27441 9552.56543
9484.0 0.0001054 9545.44922 9550.63184
9466.0 0.0001056 9543.61914 9548.70117
9662.0 0.0001035 9541.78516 9546.77441
9546.0 0.0001048 9539.94629 9544.85059
9597.0 0.0001042 9538.10352 9542.92969
9493.0 0.0001053 9536.25586 9541.01074
9485.0 0.0001054 9534.40430 9539.09668
9446.0 0.0001059 9532.54785 9537.18457
9529.0 0.0001049 9530.68848 9535.27637
9572.0 0.0001045 9528.82422 9533.37109
9544.0 0.0001048 9526.95605 9531.46973
9547.0 0.0001047 9525.08398 9529.57227
9482.0 0.0001055 9523.20898 9527.68066
9615.0 0.0001040 9521.32910 9525.79297
9670.0 0.0001034 9519.44629 9523.91211
9686.0 0.0001032 9517.55957 9522.03711
9599.0 0.0001042 9515.66895 9517.24414
9625.0 0.0001039 9513.77539 9515.45410
9406.0 0.0001063 9511.87891 9513.67188
9735.0 0.0001027 9509.97852 9511.89746
9430.0 0.0001060 9508.07422 9510.13281
9450.0 0.0001058 9506.16797 9508.38184
9427.0 0.0001061 9504.25879 9506.64648
9377.0 0.0001066 9502.34570 9504.92871
9310.0 0.0001074 9500.42969 9503.23242
9447.0 0.0001059 9498.51172 9501.56348
9490.0 0.0001054 9496.59082 9499.92578
9514.0 0.0001051 9494.66699 9498.32715
9377.0 0.0001066 9492.74121 9496.77637
9384.0 0.0001066 9490.81152 9495.28125
9490.0 0.0001054 9488.88086 9493.86035
9510.0 0.0001052 9486.94727 9492.52734
9412.0 0.0001062 9485.01172 9491.30859
9505.0 0.0001052 9483.07422 9490.23633
9558.0 0.0001046 9481.13379 9489.35840
9462.0 0.0001057 9479.19238 9488.76172
9441.0 0.0001059 9477.24805 9488.60449
9422.0 0.0001061 9475.30273 9489.20801
9691.0 0.0001032 9473.35547 9491.20703
9507.0 0.0001052 9471.40625 9495.78809
9460.0 0.0001057 9469.45605 9504.97363
9569.0 0.0001045 9467.50391 9521.84961
9739.0 0.0001027 9465.55078 9550.45313
9742.0 0.0001026 9463.59570 9594.78027
9740.0 0.0001027 9461.64063 9656.62793
9945.0 0.0001006 9459.68359 9732.90625
9979.0 0.0001002 9457.72559 9812.76074
10007.0 0.0000999 9455.76660 9877.01367
9826.0 0.0001018 9453.80664 9902.91406
9935.0 0.0001007 9451.84570 9874.83789
9782.0 0.0001022 9449.88477 9800.32813
9899.0 0.0001010 9447.92285 9706.96973
9527.0 0.0001050 9445.95996 9620.33594
9654.0 0.0001036 9443.99707 9553.40723
9531.0 0.0001049 9442.03418 9508.29199
9449.0 0.0001058 9440.07031 9480.80078
9486.0 0.0001054 9438.10742 9464.87793
9465.0 0.0001057 9436.14355 9455.42285
9412.0 0.0001062 9434.17969 9449.20215
9526.0 0.0001050 9432.21582 9444.52930
9441.0 0.0001059 9430.25293 9440.63770
9359.0 0.0001068 9428.28906 9437.19629
9451.0 0.0001058 9426.32617 9434.05664
9429.0 0.0001061 9424.36426 9431.13574
9390.0 0.0001065 9422.40234 9428.38184
9390.0 0.0001065 9420.44043 9425.75781
9302.0 0.0001075 9418.48047 9423.24023
9447.0 0.0001059 9416.52051 9420.80469
9251.0 0.0001081 9414.56152 9418.43750
9592.0 0.0001043 9412.60352 9416.12695
9314.0 0.0001074 9410.64551 9413.86230
9610.0 0.0001041 9408.69043 9411.63867
9567.0 0.0001045 9406.73535 9409.44727
9709.0 0.0001030 9404.78223 9407.28516
9549.0 0.0001047 9402.82910 9405.14551
9741.0 0.0001027 9400.87891 9403.02930
9721.0 0.0001029 9398.92969 9400.93164
9700.0 0.0001031 9396.98145 9398.84961
9418.0 0.0001062 9395.03613 9396.78320
9483.0 0.0001055 9393.09180 9394.72949
9600.0 0.0001042 9391.14941 9392.68750
9419.0 0.0001062 9389.20898 9390.65625
9476.0 0.0001055 9387.27051 9388.63477
9375.0 0.0001067 9385.33496 9386.62305
9543.0 0.0001048 9383.40039 9384.61816
9561.0 0.0001046 9381.46875 9382.62207
9611.0 0.0001040 9379.53906 9380.63281
9654.0 0.0001036 9377.61133 9378.65039
9419.0 0.0001062 9375.68652 9376.67480
9389.0 0.0001065 9373.76465 9374.70605
9554.0 0.0001047 9371.84473 9372.74219
9435.0 0.0001060 9369.92871 9370.78516
9358.0 0.0001069 9368.01465 9368.83301
9666.0 0.0001035 9366.10254 9366.88477
9388.0 0.0001065 9364.19434 9364.94336
9614.0 0.0001040 9362.28906 9363.00684
9471.0 0.0001056 9360.38672 9361.07520
9553.0 0.0001047 9358.48828 9359.14844
9370.0 0.0001067 9356.59180 9357.22656
9442.0 0.0001059 9354.69922 9355.30957
9487.0 0.0001054 9352.81055 9353.39746
9510.0 0.0001052 9350.92480 9351.49023
9462.0 0.0001057 9349.04199 9349.58594
9301.0 0.0001075 9347.16309 9347.68848
9232.0 0.0001083 9345.28809 9345.79492
9363.0 0.0001068 9343.41699 9343.90625
9384.0 0.0001066 9341.54883 9342.02148
9256.0 0.0001080 9339.68555 9340.14160
9464.0 0.0001057 9337.82520 9338.26660
9365.0 0.0001068 9335.96973 9336.39648
9355.0 0.0001069 9334.11719 9360.43945
9339.0 0.0001071 9332.26953 9359.34473
9337.0 0.0001071 9330.42578 9358.29004
9371.0 0.0001067 9328.58594 9357.27441
9258.0 0.0001080 9326.75098 9356.30469
9226.0 0.0001084 9324.91992 9355.37988
9193.0 0.0001088 9323.09277 9354.50293
9316.0 0.0001073 9321.27148 9353.34570
9257.0 0.0001080 9319.45410 9352.58691
9438.0 0.0001060 9317.64063 9351.88379
9189.0 0.0001088 9315.83203 9351.24316
9309.0 0.0001074 9314.02832 9350.66699
9331.0 0.0001072 9312.22949 9350.16211
9277.0 0.0001078 9310.43555 9349.73145
9346.0 0.0001070 9308.64551 9349.37891
9340.0 0.0001071 9306.86133 9349.11230
9351.0 0.0001069 9305.08203 9348.93750
9220.0 0.0001085 9303.30762 9348.86133
9357.0 0.0001069 9301.53809 9348.88965
9457.0 0.0001057 9299.77344 9349.03125
9342.0 0.0001070 9298.01465 9349.29590
9460.0 0.0001057 9296.25977 9349.69238
9346.0 0.0001070 9294.51074 9350.23242
9223.0 0.0001084 9292.76758 9350.92871
9580.0 0.0001044 9291.02930 9351.79395
9494.0 0.0001053 9289.29590 9352.84180
9269.0 0.0001079 9287.56836 9354.09180
9325.0 0.0001072 9285.84668 9355.56055
9282.0 0.0001077 9284.12988 9357.26953
9390.0 0.0001065 9282.41895 9359.24316
9230.0 0.0001083 9280.71387 9361.50781
9086.0 0.0001101 9279.01367 9364.09180
9271.0 0.0001079 9277.32031 9367.03320
9501.0 0.0001053 9275.63086 9370.36719
9394.0 0.0001065 9273.94824 9374.14063
9452.0 0.0001058 9272.27148 9378.40527
9547.0 0.0001047 9270.60059 9383.21875
9420.0 0.0001062 9268.93457 9388.64941
9446.0 0.0001059 9267.27539 9394.77734
9600.0 0.0001042 9265.62109 9401.69434
9424.0 0.0001061 9263.97363 9409.50977
9513.0 0.0001051 9262.33203 9418.35156
9597.0 0.0001042 9260.69629 9428.37109
9487.0 0.0001054 9259.06641 9439.74902
9629.0 0.0001039 9257.44238 9452.70215
9689.0 0.0001032 9255.82520 9467.49414
9383.0 0.0001066 9254.21387 9484.44238
9407.0 0.0001063 9252.60840 9503.93848
9539.0 0.0001048 9251.00879 9526.46777
9255.0 0.0001080 9249.41602 9552.63379
9333.0 0.0001071 9247.82910 9583.19922
9590.0 0.0001043 9246.24805 9619.13574
9459.0 0.0001057 9244.67285 9661.70215
9565.0 0.0001045 9243.10547 9712.55176
9612.0 0.0001040 9241.54297 9773.92773
9714.0 0.0001029 9239.98730 9849.05957
9921.0 0.0001008 9238.43750 9943.07910
9965.0 0.0001004 9236.89453 10065.22852
10259.0 0.0000975 9235.35742 10233.84961
10800.0 0.0000926 9233.82715 10486.39746
11200.0 0.0000893 9232.30273 10896.66895
12157.0 0.0000823 9230.78516 11599.02344
13409.0 0.0000746 9229.27441 12812.28711
15266.0 0.0000655 9227.76855 14842.46777
18338.0 0.0000545 9226.27051 18025.42578
22770.0 0.0000439 9224.77832 22568.87500
27888.0 0.0000359 9223.29199 28318.77148
33740.0 0.0000296 9221.81250 34554.60547
39398.0 0.0000254 9220.33984 39911.31641
42302.0 0.0000236 9218.87305 42655.80469
41629.0 0.0000240 9217.41309 41457.22266
37564.0 0.0000266 9215.95996 36579.57031
30558.0 0.0000327 9214.51270 29925.46680
23543.0 0.0000425 9213.07227 23475.01953
17513.0 0.0000571 9211.63770 18341.19531
14127.0 0.0000708 9210.20996 14811.07324
11974.0 0.0000835 9208.78809 12654.27832
11028.0 0.0000907 9207.37305 11444.44336
10296.0 0.0000971 9205.96484 10788.44238
10217.0 0.0000979 9204.56250 10419.30078
9987.0 0.0001001 9203.16699 10189.76563
10029.0 0.0000997 9201.77832 10029.82715
9867.0 0.0001013 9200.39551 9908.71680
9830.0 0.0001017 9199.01855 9812.59180
9752.0 0.0001025 9197.64844 9734.32910
9402.0 0.0001064 9196.28516 9669.58105
9409.0 0.0001063 9194.92773 9615.35156
9478.0 0.0001055 9193.57715 9569.45215
9356.0 0.0001069 9192.23340 9530.23535
9579.0 0.0001044 9190.89453 9496.43652
9412.0 0.0001062 9189.56348 9467.08203
9248.0 0.0001081 9188.23828 9441.40039
9275.0 0.0001078 9186.91895 9418.78027
9332.0 0.0001072 9185.60645 9398.73633
9326.0 0.0001072 9184.29980 9380.87109
9130.0 0.0001095 9183.00000 9364.86426
9236.0 0.0001083 9181.70605 9350.44727
9355.0 0.0001069 9180.41797 9337.40430
9197.0 0.0001087 9179.13672 9325.55078
9290.0 0.0001076 9177.86133 9314.73340
9198.0 0.0001087 9176.59277 9304.82422
9108.0 0.0001098 9175.33008 9295.71289
9347.0 0.0001070 9174.07324 9287.30371
9381.0 0.0001066 9172.82227 9279.51953
9194.0 0.0001088 9171.57813 9272.29004
9240.0 0.0001082 9170.33984 9265.55469
9229.0 0.0001084 9169.10742 9259.26367
9218.0 0.0001085 9167.88086 9253.37012
9225.0 0.0001084 9166.66113 9247.83594
9117.0 0.0001097 9165.44629 9242.62500
9099.0 0.0001099 9164.23828 9237.70801
9207.0 0.0001086 9163.03613 9233.05762
9191.0 0.0001088 9161.83984 9228.65039
9012.0 0.0001110 9160.64844 9224.46387
9105.0 0.0001098 9159.46387 9220.48047
9051.0 0.0001105 9158.28516 9216.68359
9061.0 0.0001104 9157.11230 9213.05664
9100.0 0.0001099 9155.94434 9209.58594
8996.0 0.0001112 9154.78320 9206.26172
9090.0 0.0001100 9153.62695 9203.07031
9141.0 0.0001094 9152.47656 9200.00293
8968.0 0.0001115 9151.33203 9197.05078
9136.0 0.0001095 9150.19336 9194.20605
8997.0 0.0001111 9149.05957 9191.45898
9205.0 0.0001086 9147.93164 9188.80566
9134.0 0.0001095 9146.80859 9186.23730
9108.0 0.0001098 9145.69238 9183.75098
9009.0 0.0001110 9144.58008 9181.33984
9000.0 0.0001111 9143.47461 9179.00000
9199.0 0.0001087 9142.37402 9176.72559
9246.0 0.0001082 9141.27832 9174.51465
8992.0 0.0001112 9140.18750 9172.36133
9279.0 0.0001078 9139.10254 9170.26367
8956.0 0.0001117 9138.02246 9168.21777
9075.0 0.0001102 9136.94824 9166.22266
9115.0 0.0001097 9135.87891 9164.27344
9069.0 0.0001103 9134.81445 9162.36816
9098.0 0.0001099 9133.75488 9160.50488
8974.0 0.0001114 9132.70020 9158.68066
9094.0 0.0001100 9131.65137 9131.65137
8867.0 0.0001128 9130.60645 9130.60645
9168.0 0.0001091 9129.56738 9129.56738
8959.0 0.0001116 9128.53223 9128.53223
9109.0 0.0001098 9127.50195 9127.50195
9146.0 0.0001093 9126.47656 9126.47656
9069.0 0.0001103 9125.45605 9125.45605
9130.0 0.0001095 9124.44043 9124.44043
8915.0 0.0001122 9123.42871 9123.42871
9065.0 0.0001103 9122.42188 9122.42188
8981.0 0.0001113 9121.41992 9121.41992
9135.0 0.0001095 9120.42188 9120.42188
9026.0 0.0001108 9119.42969 9119.42969
9194.0 0.0001088 9118.44043 9118.44043
9140.0 0.0001094 9117.45605 9117.45605
9217.0 0.0001085 9116.47559 9116.47559
9147.0 0.0001093 9115.49902 9115.49902
9051.0 0.0001105 9114.52734 9114.52734
9109.0 0.0001098 9113.56055 9113.56055
9250.0 0.0001081 9112.59668 9112.59668
9045.0 0.0001106 9111.63672 9111.63672
9038.0 0.0001106 9110.68164 9110.68164
9175.0 0.0001090 9109.72949 9109.72949
9158.0 0.0001092 9108.78223 9108.78223
9094.0 0.0001100 9107.83887 9107.83887
9134.0 0.0001095 9106.89844 9106.89844
9117.0 0.0001097 9105.96289 9105.96289
9007.0 0.0001110 9105.03027 9105.03027
9020.0 0.0001109 9104.10156 9104.10156
8903.0 0.0001123 9103.17676 9103.17676
9034.0 0.0001107 9102.25488 9102.25488
9072.0 0.0001102 9101.33691 9101.33691
9090.0 0.0001100 9100.42188 9100.42188
8986.0 0.0001113 9099.51074 9099.51074
9193.0 0.0001088 9098.60352 9098.60352
9266.0 0.0001079 9097.69922 9097.69922
9057.0 0.0001104 9096.79785 9096.79785
9312.0 0.0001074 9095.89941 9095.89941
9249.0 0.0001081 9095.00488 9095.00488
9363.0 0.0001068 9094.11328 9094.11328
9465.0 0.0001057 9093.22461 9093.22461
9465.0 0.0001057 9092.33984 9092.33984
9528.0 0.0001050 9091.45703 9091.45703
9436.0 0.0001060 9090.57715 9090.57715
9262.0 0.0001080 9089.70020 9089.70020
9397.0 0.0001064 9088.82617 9088.82617
9297.0 0.0001076 9087.95508 9087.95508
9354.0 0.0001069 9087.08691 9087.08691
9238.0 0.0001082 9086.22070 9086.22070
9096.0 0.0001099 9085.35742 9085.35742
9026.0 0.0001108 9084.49707 9084.49707
9249.0 0.0001081 9083.63867 9083.63867
9094.0 0.0001100 9082.78320 9082.78320
8805.0 0.0001136 9081.92969 9081.92969
9021.0 0.0001109 9081.07910 9081.07910
9111.0 0.0001098 9080.23047 9080.23047
9133.0 0.0001095 9079.38477 9079.38477
9126.0 0.0001096 9078.54004 9078.54004
9043.0 0.0001106 9077.69824 9077.69824
9169.0 0.0001091 9076.85840 9076.85840
9252.0 0.0001081 9076.02051 9076.02051
9119.0 0.0001097 9075.18555 9075.18555
9155.0 0.0001092 9074.35156 9074.35156
9128.0 0.0001096 9073.51953 9073.51953
9146.0 0.0001093 9072.68945 9072.68945
9033.0 0.0001107 9071.86133 9071.86133
9176.0 0.0001090 9071.03516 9071.03516
9185.0 0.0001089 9070.20996 9070.20996
9106.0 0.0001098 9069.38770 9069.38770
8988.0 0.0001113 9068.56641 9068.56641
9110.0 0.0001098 9067.74609 9067.74609
8993.0 0.0001112 9066.92773 9066.92773
9251.0 0.0001081 9066.11133 9066.11133
9061.0 0.0001104 9065.29590 9065.29590
8989.0 0.0001112 9064.48145 9064.48145
9356.0 0.0001069 9063.66895 9063.66895
9304.0 0.0001075 9062.85742 9062.85742
9148.0 0.0001093 9062.04688 9062.04688
9287.0 0.0001077 9061.23828 9061.23828
9228.0 0.0001084 9060.43066 9060.43066
9173.0 0.0001090 9059.62305 9059.62305
9289.0 0.0001077 9058.81738 9058.81738
9249.0 0.0001081 9058.01270 9058.01270
9246.0 0.0001082 9057.20898 9057.20898
9128.0 0.0001096 9056.40625 9056.40625
9080.0 0.0001101 9055.60449 9055.60449
9269.0 0.0001079 9054.80371 9054.80371
9153.0 0.0001093 9054.00293 9054.00293
9101.0 0.0001099 9053.20313 9053.20313
8956.0 0.0001117 9052.40430 9052.40430
9164.0 0.0001091 9051.60547 9051.60547
9037.0 0.0001107 9050.80859 9050.80859
9110.0 0.0001098 9050.01074 9050.01074
9168.0 0.0001091 9049.21484 9049.21484
8853.0 0.0001130 9048.41797 9048.41797
8998.0 0.0001111 9047.62207 9047.62207
9019.0 0.0001109 9046.82715 9046.82715
8972.0 0.0001115 9046.03223 9046.03223
8870.0 0.0001127 9045.23730 9045.23730
8924.0 0.0001121 9044.44336 9044.44336
8830.0 0.0001133 9043.64844 9043.64844
9213.0 0.0001085 9042.85449 9042.85449
9004.0 0.0001111 9042.06055 9042.06055
9023.0 0.0001108 9041.26660 9041.26660
9155.0 0.0001092 9040.47363 9040.47363
8866.0 0.0001128 9039.67969 9039.67969
9157.0 0.0001092 9038.88574 9038.88574
8991.0 0.0001112 9038.09180 9038.09180
9073.0 0.0001102 9037.29785 9037.29785
9019.0 0.0001109 9036.50391 9036.50391
8953.0 0.0001117 9035.70996 9035.70996
9089.0 0.0001100 9034.91602 9034.91602
9096.0 0.0001099 9034.12109 9034.12109
9122.0 0.0001096 9033.32617 9033.32617
9074.0 0.0001102 9032.53125 9032.53125
8781.0 0.0001139 9031.73535 9031.73535
9015.0 0.0001109 9030.93945 9030.93945
8974.0 0.0001114 9030.14355 9030.14355
9052.0 0.0001105 9029.34668 9029.34668
8949.0 0.0001117 9028.54883 9028.54883
9122.0 0.0001096 9027.75195 9027.75195
8935.0 0.0001119 9026.95313 9026.95313
9019.0 0.0001109 9026.15430 9026.15430
8960.0 0.0001116 9025.35547 9025.35547
9098.0 0.0001099 9024.55469 9024.55469
8962.0 0.0001116 9023.75391 9023.75391
8862.0 0.0001128 9022.95313 9022.95313
8894.0 0.0001124 9022.15039 9022.15039
9043.0 0.0001106 9021.34766 9021.34766
9144.0 0.0001094 9020.54395 9020.54395
9110.0 0.0001098 9019.73926 9019.73926
9122.0 0.0001096 9018.93359 9018.93359
9120.0 0.0001096 9018.12793 9018.12793
8996.0 0.0001112 9017.32031 9017.32031
9130.0 0.0001095 9016.51270 9016.51270
9074.0 0.0001102 9015.70313 9015.70313
9115.0 0.0001097 9014.89355 9014.89355
9067.0 0.0001103 9014.08203 9014.08203
9160.0 0.0001092 9013.27051 9013.27051
8972.0 0.0001115 9012.45703 9012.45703
9160.0 0.0001092 9011.64258 9011.64258
9131.0 0.0001095 9010.82715 9010.82715
9131.0 0.0001095 9010.01074 9010.01074
9079.0 0.0001101 9009.19336 9009.19336
9145.0 0.0001093 9008.37500 9008.37500
9134.0 0.0001095 9007.55469 9007.55469
9063.0 0.0001103 9006.73340 9006.73340
9241.0 0.0001082 9005.91113 9005.91113
9022.0 0.0001108 9005.08789 9005.08789
8861.0 0.0001129 9004.26270 9004.26270
9025.0 0.0001108 9003.43652 9003.43652
9148.0 0.0001093 9002.60938 9002.60938
8921.0 0.0001121 9001.78027 9001.78027
8987.0 0.0001113 9000.95020 9000.95020
9016.0 0.0001109 9000.11914 9000.11914
9123.0 0.0001096 8999.28613 8999.28613
9044.0 0.0001106 8998.45117 8998.45117
8978.0 0.0001114 8997.61523 8997.61523
9042.0 0.0001106 8996.77832 8996.77832
9026.0 0.0001108 8995.93945 8995.93945
8820.0 0.0001134 8995.09961 8995.09961
8952.0 0.0001117 8994.25879 8994.25879
8739.0 0.0001144 8993.41504 8993.41504
9095.0 0.0001100 8992.57031 8992.57031
8962.0 0.0001116 8991.72461 8991.72461
8973.0 0.0001114 8990.87695 8990.87695
8975.0 0.0001114 8990.02832 9001.01367
8828.0 0.0001133 8989.17773 9000.48438
8877.0 0.0001127 8988.32520 8999.96777
8997.0 0.0001111 8987.47168 8999.46582
9024.0 0.0001108 8986.61621 8998.97754
8996.0 0.0001112 8985.75879 8998.50391
8987.0 0.0001113 8984.90039 8998.04883
9012.0 0.0001110 8984.04004 8997.61035
8904.0 0.0001123 8983.17871 8997.19141
9087.0 0.0001100 8982.31543 8996.79199
8905.0 0.0001123 8981.45020 8996.41504
9244.0 0.0001082 8980.58301 8996.06152
8992.0 0.0001112 8979.71484 8995.73242
9060.0 0.0001104 8978.84473 8995.43164
9201.0 0.0001087 8977.97363 8995.15918
9105.0 0.0001098 8977.09961 8994.91797
9148.0 0.0001093 8976.22461 8994.71094
9078.0 0.0001102 8975.34863 8994.54102
9086.0 0.0001101 8974.46973 8994.41016
9166.0 0.0001091 8973.58984 8994.32227
9192.0 0.0001088 8972.70801 8994.28027
9192.0 0.0001088 8971.82520 8994.28906
9161.0 0.0001092 8970.93945 8994.35156
9062.0 0.0001104 8970.05273 8994.47461
8918.0 0.0001121 8969.16504 8994.66309
8922.0 0.0001121 8968.27441 8994.92090
9034.0 0.0001107 8967.38281 8995.25781
9122.0 0.0001096 8966.48926 8995.67969
9061.0 0.0001104 8965.59375 8996.19336
8853.0 0.0001130 8964.69727 8996.81152
9075.0 0.0001102 8963.79883 8997.54297
9047.0 0.0001105 8962.89844 8998.39844
8917.0 0.0001121 8961.99609 8999.39355
8827.0 0.0001133 8961.09277 9000.54297
9062.0 0.0001104 8960.18750 9001.86328
8927.0 0.0001120 8959.28027 9003.37598
9104.0 0.0001098 8958.37109 9005.10156
9084.0 0.0001101 8957.46094 9007.07031
9072.0 0.0001102 8956.54883 9009.30957
9102.0 0.0001099 8955.63574 9011.85742
8827.0 0.0001133 8954.71973 9014.75293
8983.0 0.0001113 8953.80273 9018.04688
9041.0 0.0001106 8952.88477 9023.63477
9025.0 0.0001108 8951.96387 9027.95215
8998.0 0.0001111 8951.04199 9032.87695
8961.0 0.0001116 8950.11914 9038.50684
9187.0 0.0001088 8949.19336 9044.95801
9052.0 0.0001105 8948.26660 9052.37695
9178.0 0.0001090 8947.33887 9060.93945
9008.0 0.0001110 8946.40918 9070.86328
8879.0 0.0001126 8945.47754 9082.41992
9106.0 0.0001098 8944.54395 9095.95410
9237.0 0.0001083 8943.60938 9111.90430
9137.0 0.0001094 8942.67285 9130.83984
8975.0 0.0001114 8941.73535 9153.52637
9128.0 0.0001096 8940.79590 9181.05762
9037.0 0.0001107 8939.85547 9215.15918
9418.0 0.0001062 8938.91309 9258.91602
9365.0 0.0001068 8937.96875 9318.42188
9480.0 0.0001055 8937.02344 9406.10742
9735.0 0.0001027 8936.07715 9546.53418
9954.0 0.0001005 8935.12891 9784.52637
10383.0 0.0000963 8934.17871 10193.00000
11203.0 0.0000893 8933.22754 10889.99316
12331.0 0.0000811 8932.27539 11957.13965
13387.0 0.0000747 8931.32031 13492.96680
15316.0 0.0000653 8930.36523 15480.70117
17109.0 0.0000584 8929.40820 17733.86914
19471.0 0.0000514 8928.45020 19869.75586
20897.0 0.0000479 8927.49121 21356.03906
21217.0 0.0000471 8926.52930 21676.80859
20453.0 0.0000489 8925.56738 20659.28320
18610.0 0.0000537 8924.60352 18664.24414
15920.0 0.0000628 8923.63867 16317.62402
13643.0 0.0000733 8922.67285 14131.66309
12069.0 0.0000829 8921.70508 12382.18359
10635.0 0.0000940 8920.73633 11139.98047
10345.0 0.0000967 8919.76660 10341.81836
9577.0 0.0001044 8918.79492 9867.08398
9594.0 0.0001042 8917.82324 9596.62305
9309.0 0.0001074 8916.84961 9441.55371
9176.0 0.0001090 8915.87500 9347.02344
9089.0 0.0001100 8914.89844 9283.66016
9070.0 0.0001103 8913.92188 9237.22168
9130.0 0.0001095 8912.94336 9201.06348
9261.0 0.0001080 8911.96387 9171.94434
9122.0 0.0001096 8910.98340 9148.08008
9184.0 0.0001089 8910.00195 9128.33398
9026.0 0.0001108 8909.01953 9111.90332
8873.0 0.0001127 8908.03613 9098.19141
9022.0 0.0001108 8907.05176 9086.74707
8980.0 0.0001114 8906.06641 9077.21875
8999.0 0.0001111 8905.08008 9069.33691
8956.0 0.0001117 8904.09277 9062.89063
8871.0 0.0001127 8903.10352 9057.71875
9061.0 0.0001104 8902.11426 9053.69824
8869.0 0.0001128 8901.12402 9050.73926
8963.0 0.0001116 8900.13281 9048.77539
8947.0 0.0001118 8899.14160 9047.76660
8993.0 0.0001112 8898.14844 9047.69141
9050.0 0.0001105 8897.15527 9048.55273
9023.0 0.0001108 8896.16016 9050.36523
9101.0 0.0001099 8895.16504 9053.17480
8912.0 0.0001122 8894.16895 9057.04199
9185.0 0.0001089 8893.17285 9062.05273
9056.0 0.0001104 8892.17480 9068.33105
8821.0 0.0001134 8891.17676 9076.03906
8916.0 0.0001122 8890.17871 9085.40918
8853.0 0.0001130 8889.17871 9096.78516
9002.0 0.0001111 8888.17871 9110.70215
8991.0 0.0001112 8887.17773 9128.03125
8963.0 0.0001116 8886.17676 9150.20508
9139.0 0.0001094 8885.17480 9179.53613
9304.0 0.0001075 8884.17285 9219.62500
9206.0 0.0001086 8883.16992 9275.74902
9277.0 0.0001078 8882.16602 9355.10449
9303.0 0.0001075 8881.16211 9466.68555
9674.0 0.0001034 8880.15820 9620.70508
9887.0 0.0001011 8879.15332 9827.67383
10214.0 0.0000979 8878.14746 10097.78223
10661.0 0.0000938 8877.14258 10441.59375
11014.0 0.0000908 8876.13574 10873.24023
11758.0 0.0000850 8875.12988 11416.73145
12485.0 0.0000801 8874.12305 12114.53906
13475.0 0.0000742 8873.11621 13035.03906
14637.0 0.0000683 8872.10840 14271.98633
16262.0 0.0000615 8871.10059 15928.80371
18307.0 0.0000546 8870.09277 18079.64063
20837.0 0.0000480 8869.08496 20704.37109
22946.0 0.0000436 8868.07617 23621.65430
26210.0 0.0000382 8867.06836 26462.36914
28431.0 0.0000352 8866.05957 28711.30469
30029.0 0.0000333 8865.05078 29827.33984
29952.0 0.0000334 8864.04199 29449.97266
28014.0 0.0000357 8863.03223 27611.84180
24919.0 0.0000401 8862.02344 24744.79883
21270.0 0.0000470 8861.01465 21444.95117
18055.0 0.0000554 8860.00488 18237.57422
15486.0 0.0000646 8858.99609 15473.77246
13394.0 0.0000747 8857.98633 13305.44727
11880.0 0.0000842 8856.97754 11761.77246
11106.0 0.0000900 8855.96777 10738.10547
10281.0 0.0000973 8854.95898 10100.96191
9967.0 0.0001003 8853.95020 9721.55566
9672.0 0.0001034 8852.94141 9499.01855
9492.0 0.0001054 8851.93262 9365.26660
9390.0 0.0001065 8850.92383 9279.46484
9188.0 0.0001088 8849.91504 9219.35645
9137.0 0.0001094 8848.90625 9173.62988
9068.0 0.0001103 8847.89844 9136.72559
8980.0 0.0001114 8846.89063 9105.85449
8868.0 0.0001128 8845.88281 9079.49219
9028.0 0.0001108 8844.87598 9056.69434
9029.0 0.0001108 8843.86816 9036.79883
8965.0 0.0001115 8842.86133 9019.30762
9004.0 0.0001111 8841.85547 9003.83301
9042.0 0.0001106 8840.84961 8990.05859
8744.0 0.0001144 8839.84375 8977.73047
8952.0 0.0001117 8838.83789 8966.63965
8886.0 0.0001125 8837.83301 8956.61133
9098.0 0.0001099 8836.82910 8947.50586
8851.0 0.0001130 8835.82422 8939.19629
9072.0 0.0001102 8834.82129 8931.58789
8951.0 0.0001117 8833.81738 8927.38672
8875.0 0.0001127 8832.81445 8921.01172
8799.0 0.0001136 8831.81250 8915.11621
8781.0 0.0001139 8830.81152 8909.65039
8731.0 0.0001145 8829.81055 8904.56445
8751.0 0.0001143 8828.80957 8899.81934
8788.0 0.0001138 8827.80957 8895.39648
8713.0 0.0001148 8826.81055 8891.23438
8853.0 0.0001130 8825.81152 8887.32129
8757.0 0.0001142 8824.81348 8883.63477
8924.0 0.0001121 8823.81543 8880.15234
8701.0 0.0001149 8822.81934 8876.85938
8838.0 0.0001131 8821.82324 8873.73926
8930.0 0.0001120 8820.82813 8870.77637
8914.0 0.0001122 8819.83301 8867.95996
8828.0 0.0001133 8818.83887 8865.27734
8769.0 0.0001140 8817.84570 8862.72168
8908.0 0.0001123 8816.85352 8860.28027
8902.0 0.0001123 8815.86133 8857.94824
8816.0 0.0001134 8814.87109 8855.71875
8811.0 0.0001135 8813.88086 8853.58496
8777.0 0.0001139 8812.89160 8851.54199
8809.0 0.0001135 8811.90332 8849.58594
8851.0 0.0001130 8810.91602 8847.71289
8953.0 0.0001117 8809.92871 8845.91797
8860.0 0.0001129 8808.94336 8844.20215
8805.0 0.0001136 8807.95801 8842.55762
8805.0 0.0001136 8806.97363 8840.98828
8798.0 0.0001137 8805.99121 8839.49023
8982.0 0.0001113 8805.00879 8838.06250
8903.0 0.0001123 8804.02734 8836.70801
8798.0 0.0001137 8803.04785 8835.42676
8842.0 0.0001131 8802.06836 8834.21582
8711.0 0.0001148 8801.08984 8833.08008
8792.0 0.0001137 8800.11230 8832.02344
8926.0 0.0001120 8799.13574 8831.04590
8786.0 0.0001138 8798.16016 8830.15332
9011.0 0.0001110 8797.18652 8829.35449
8781.0 0.0001139 8796.21289 8828.65234
8915.0 0.0001122 8795.24121 8828.05371
8861.0 0.0001129 8794.26953 8827.57031
8926.0 0.0001120 8793.29980 8827.21777
8811.0 0.0001135 8792.33105 8827.00293
8745.0 0.0001144 8791.36230 8826.94629
8720.0 0.0001147 8790.39551 8827.07031
8758.0 0.0001142 8789.43066 8811.87402
8891.0 0.0001125 8788.46582 8812.83203
8853.0 0.0001130 8787.50195 8814.04883
8796.0 0.0001137 8786.54004 8815.56934
8869.0 0.0001128 8785.57813 8817.45117
8828.0 0.0001133 8784.61816 8819.76855
8821.0 0.0001134 8783.65918 8822.61523
8990.0 0.0001112 8782.70117 8826.10938
8813.0 0.0001135 8781.74512 8830.41602
8874.0 0.0001127 8780.79004 8835.77734
8909.0 0.0001122 8779.83496 8842.60059
8848.0 0.0001130 8778.88281 8851.65430
8887.0 0.0001125 8777.93066 8864.50195
8905.0 0.0001123 8776.97949 8884.35449
9021.0 0.0001109 8776.03027 8917.47656
9163.0 0.0001091 8775.08203 8975.11133
9231.0 0.0001083 8774.13477 9075.26660
9498.0 0.0001053 8773.18945 9242.88379
9517.0 0.0001051 8772.24512 9506.22949
10129.0 0.0000987 8771.30078 9887.78027
10646.0 0.0000939 8770.35938 10390.04785
11121.0 0.0000899 8769.41797 10980.21973
11413.0 0.0000876 8768.47852 11580.99609
11979.0 0.0000835 8767.54004 12076.06152
12299.0 0.0000813 8766.60254 12336.65918
12280.0 0.0000814 8765.66699 12275.72168
11801.0 0.0000847 8764.73242 11907.90039
11332.0 0.0000882 8763.79883 11345.63672
10658.0 0.0000938 8762.86621 10727.39746
10158.0 0.0000984 8761.93555 10160.03418
9756.0 0.0001025 8761.00586 9702.46387
9274.0 0.0001078 8760.07715 9370.34668
9164.0 0.0001091 8759.15039 9149.71484
9082.0 0.0001101 8758.22461 9013.08984
9140.0 0.0001094 8757.29980 8932.17578
8836.0 0.0001132 8756.37695 8884.61914
8652.0 0.0001156 8755.45410 8855.63086
8832.0 0.0001132 8754.53320 8836.64258
8829.0 0.0001133 8753.61328 8823.12402
8683.0 0.0001152 8752.69531 8812.79102
8765.0 0.0001141 8751.77832 8804.47754
8767.0 0.0001141 8750.86230 8797.55176
8661.0 0.0001155 8749.94824 8791.64355
8795.0 0.0001137 8749.03418 8786.50977
8785.0 0.0001138 8748.12207 8781.99121
8763.0 0.0001141 8747.21094 8777.96973
8697.0 0.0001150 8746.30176 8774.35840
8912.0 0.0001122 8745.39355 8771.08594
8771.0 0.0001140 8744.48633 8768.09961
8831.0 0.0001132 8743.58008 8765.35547
8774.0 0.0001140 8742.67578 8762.81836
8820.0 0.0001134 8741.77148 8760.45801
8652.0 0.0001156 8740.86914 8758.25098
8585.0 0.0001165 8739.96875 8756.17676
8675.0 0.0001153 8739.06836 8754.21777
8704.0 0.0001149 8738.16992 8752.35938
8572.0 0.0001167 8737.27246 8750.59082
8599.0 0.0001163 8736.37598 8748.90039
8804.0 0.0001136 8735.48047 8747.28223
8825.0 0.0001133 8734.58691 8745.72363
8761.0 0.0001141 8733.69434 8744.22168
8714.0 0.0001148 8732.80273 8742.76953
8737.0 0.0001145 8731.91211 8741.36133
8769.0 0.0001140 8731.02246 8739.99316
8658.0 0.0001155 8730.13477 8738.66211
8894.0 0.0001124 8729.24707 8737.36328
8757.0 0.0001142 8728.36133 8736.09570
8722.0 0.0001147 8727.47656 8734.85449
8793.0 0.0001137 8726.59277 8733.63965
8814.0 0.0001135 8725.70996 8732.44727
8646.0 0.0001157 8724.82910 8731.27637
8715.0 0.0001147 8723.94824 8730.12305
8908.0 0.0001123 8723.06934 8728.98926
8694.0 0.0001150 8722.19043 8727.87109
8686.0 0.0001151 8721.31348 8726.76953
8782.0 0.0001139 8720.43750 8725.68164
8607.0 0.0001162 8719.56250 8724.60645
8621.0 0.0001160 8718.68848 8723.54297
8793.0 0.0001137 8717.81445 8722.49023
8855.0 0.0001129 8716.94238 8721.45020
8733.0 0.0001145 8716.07129 8720.41895
8881.0 0.0001126 8715.20117 8719.39648
8754.0 0.0001142 8714.33203 8718.38477
8574.0 0.0001166 8713.46387 8717.37988
8634.0 0.0001158 8712.59668 8716.38379
8600.0 0.0001163 8711.73047 8715.39355
8579.0 0.0001166 8710.86523 8714.41113
8765.0 0.0001141 8710.00098 8713.43457
8834.0 0.0001132 8709.13672 8712.46387
8734.0 0.0001145 8708.27441 8711.49902
8582.0 0.0001165 8707.41211 8710.54004
8694.0 0.0001150 8706.55176 8709.58789
8810.0 0.0001135 8705.69141 8708.63770
8788.0 0.0001138 8704.83203 8707.69336
8668.0 0.0001154 8703.97363 8703.99512
8565.0 0.0001168 8703.11523 8703.13672
8683.0 0.0001152 8702.25879 8702.27930
8611.0 0.0001161 8701.40234 8701.42285
8622.0 0.0001160 8700.54688 8700.56641
8796.0 0.0001137 8699.69238 8699.71094
8776.0 0.0001139 8698.83887 8698.83887
8757.0 0.0001142 8697.98535 8697.98535
8727.0 0.0001146 8697.13281 8697.13281
8762.0 0.0001141 8696.28125 8696.28125
8715.0 0.0001147 8695.42969 8695.42969
8669.0 0.0001154 8694.57910 8694.57910
8585.0 0.0001165 8693.72949 8693.72949
8623.0 0.0001160 8692.88086 8692.88086
8600.0 0.0001163 8692.03223 8692.03223
8715.0 0.0001147 8691.18359 8691.18359
8597.0 0.0001163 8690.33691 8690.33691
8896.0 0.0001124 8689.48926 8689.48926
8747.0 0.0001143 8688.64355 8688.64355
8645.0 0.0001157 8687.79785 8687.79785
8816.0 0.0001134 8686.95215 8686.95215
8763.0 0.0001141 8686.10742 8686.10742
8797.0 0.0001137 8685.26270 8685.26270
8698.0 0.0001150 8684.41895 8684.41895
8611.0 0.0001161 8683.57617 8683.57617
8661.0 0.0001155 8682.73340 8682.73340
8654.0 0.0001156 8681.89063 8681.89063
8819.0 0.0001134 8681.04785 8681.04785
8700.0 0.0001149 8680.20605 8680.20605
8712.0 0.0001148 8679.36523 8679.36523
8710.0 0.0001148 8678.52344 8678.52344
8572.0 0.0001167 8677.68359 8677.68359
8588.0 0.0001164 8676.84277 8676.84277
8703.0 0.0001149 8676.00293 8676.00293
8713.0 0.0001148 8675.16309 8675.16309
8760.0 0.0001142 8674.32324 8674.32324
8659.0 0.0001155 8673.48340 8673.48340
8687.0 0.0001151 8672.64453 8672.64453
8729.0 0.0001146 8671.80469 8671.80469
8704.0 0.0001149 8670.96680 8670.96680
8728.0 0.0001146 8670.12793 8670.12793
8832.0 0.0001132 8669.28906 8669.28906
8614.0 0.0001161 8668.45117 8668.45117
8641.0 0.0001157 8667.61230 8667.61230
8641.0 0.0001157 8666.77441 8666.77441
8522.0 0.0001173 8665.93555 8665.93555
8803.0 0.0001136 8665.09766 8665.09766
8650.0 0.0001156 8664.25977 8664.25977
8660.0 0.0001155 8663.42188 8663.42188
8806.0 0.0001136 8662.58398 8662.58398
8590.0 0.0001164 8661.74512 8661.74512
8734.0 0.0001145 8660.90723 8660.90723
8770.0 0.0001140 8660.06934 8660.06934
8672.0 0.0001153 8659.23047 8659.23047
8657.0 0.0001155 8658.39258 8658.39258
8457.0 0.0001182 8657.55371 8657.55371
8677.0 0.0001152 8656.71484 8656.71484
8636.0 0.0001158 8655.87598 8655.87598
8786.0 0.0001138 8655.03711 8655.03711
8630.0 0.0001159 8654.19824 8654.19824
8663.0 0.0001154 8653.35840 8653.35840
8737.0 0.0001145 8652.51855 8653.43262
8681.0 0.0001152 8651.67871 8652.61914
8674.0 0.0001153 8650.83789 8651.80664
8515.0 0.0001174 8649.99805 8650.99609
8589.0 0.0001164 8649.15723 8650.18652
8633.0 0.0001158 8648.31543 8649.37695
8525.0 0.0001173 8647.47461 8648.56934
8823.0 0.0001133 8646.63281 8647.76367
8516.0 0.0001174 8645.79004 8646.95801
8828.0 0.0001133 8644.94727 8646.15430
8717.0 0.0001147 8644.10449 8645.35254
8578.0 0.0001166 8643.26074 8644.55176
8837.0 0.0001132 8642.41699 8643.75293
8481.0 0.0001179 8641.57227 8642.95605
8733.0 0.0001145 8640.72656 8642.16113
8793.0 0.0001137 8639.88184 8641.36914
8705.0 0.0001149 8639.03516 8640.57910
8670.0 0.0001153 8638.18848 8639.79199
8584.0 0.0001165 8637.34082 8639.00684
8721.0 0.0001147 8636.49316 8638.22656
8832.0 0.0001132 8635.64551 8637.44922
8554.0 0.0001169 8634.79590 8636.67480
8522.0 0.0001173 8633.94629 8635.90527
8727.0 0.0001146 8633.09570 8635.14063
8642.0 0.0001157 8632.24512 8634.38086
8542.0 0.0001171 8631.39258 8633.62500
8696.0 0.0001150 8630.54004 8632.87598
8834.0 0.0001132 8629.68652 8632.13379
8647.0 0.0001156 8628.83301 8631.40039
8639.0 0.0001158 8627.97852 8631.69043
8758.0 0.0001142 8627.12207 8631.00098
8665.0 0.0001154 8626.26563 8630.32520
8696.0 0.0001150 8625.40820 8629.66113
8584.0 0.0001165 8624.55078 8629.01172
8611.0 0.0001161 8623.69141 8628.37598
8609.0 0.0001162 8622.83105 8627.75879
8520.0 0.0001174 8621.97070 8627.16113
8488.0 0.0001178 8621.10938 8626.58496
8590.0 0.0001164 8620.24609 8626.03320
8697.0 0.0001150 8619.38281 8625.50879
8543.0 0.0001171 8618.51758 8625.01660
8611.0 0.0001161 8617.65234 8624.56055
8620.0 0.0001160 8616.78613 8624.14355
8699.0 0.0001150 8615.91797 8623.77441
8740.0 0.0001144 8615.04980 8623.45898
8625.0 0.0001159 8614.17969 8623.20605
8612.0 0.0001161 8613.30859 8623.02539
8730.0 0.0001145 8612.43750 8622.93164
8659.0 0.0001155 8611.56445 8622.93848
8740.0 0.0001144 8610.68945 8623.06445
8539.0 0.0001171 8609.81445 8623.33984
8563.0 0.0001168 8608.93848 8623.80176
8708.0 0.0001148 8608.06055 8624.51367
8486.0 0.0001178 8607.18164 8625.58984
8501.0 0.0001176 8606.30176 8627.24316
8498.0 0.0001177 8605.42090 8629.88184
8528.0 0.0001173 8604.53809 8634.25781
8512.0 0.0001175 8603.65430 8641.68652
8605.0 0.0001162 8602.76953 8654.30176
8708.0 0.0001148 8601.88379 8675.27344
8457.0 0.0001182 8600.99609 8708.80664
8716.0 0.0001147 8600.10742 8759.75977
8787.0 0.0001138 8599.21777 8832.65723
9061.0 0.0001104 8598.32617 8930.14258
8965.0 0.0001115 8597.43359 9051.08789
9187.0 0.0001088 8596.53906 9188.91309
9483.0 0.0001055 8595.64355 9330.71777
9640.0 0.0001037 8594.74707 9457.83008
9864.0 0.0001014 8593.84863 9548.49219
9818.0 0.0001019 8592.94824 9583.44922
9501.0 0.0001053 8592.04785 9553.81641
9529.0 0.0001049 8591.14551 9466.20117
9292.0 0.0001076 8590.24121 9339.45898
9175.0 0.0001090 8589.33594 9196.08496
8888.0 0.0001125 8588.42871 9055.53125
8850.0 0.0001130 8587.52051 8931.36230
8840.0 0.0001131 8586.61035 8840.40918
8633.0 0.0001158 8585.69922 8765.10059
8650.0 0.0001156 8584.78613 8712.39355
8728.0 0.0001146 8583.87207 8677.76758
8592.0 0.0001164 8582.95605 8656.27637
8747.0 0.0001143 8582.03809 8643.61914
8507.0 0.0001176 8581.11914 8636.58984
8510.0 0.0001175 8580.19824 8633.12402
8563.0 0.0001168 8579.27637 8632.14258
8618.0 0.0001160 8578.35254 8633.39551
8549.0 0.0001170 8577.42676 8637.43164
8632.0 0.0001158 8576.50000 8645.69922
8625.0 0.0001159 8575.57129 8660.74707
8541.0 0.0001171 8574.64063 8686.39453
8733.0 0.0001145 8573.70898 8727.63574
8850.0 0.0001130 8572.77539 8790.02930
8855.0 0.0001129 8571.83984 8878.39648
8825.0 0.0001133 8570.90332 8994.88574
9041.0 0.0001106 8569.96484 9136.76172
9201.0 0.0001087 8569.02441 9294.60254
9370.0 0.0001067 8568.08203 9451.60156
9487.0 0.0001054 8567.13867 9584.79004
9742.0 0.0001026 8566.19336 9669.19141
9733.0 0.0001027 8565.24609 9685.42480
9802.0 0.0001020 8564.29688 9628.65820
9826.0 0.0001018 8563.34668 9512.11523
9266.0 0.0001079 8562.39453 9360.25977
9235.0 0.0001083 8561.44043 9198.42578
9206.0 0.0001086 8560.48438 9046.60547
9009.0 0.0001110 8559.52734 8917.43945
8955.0 0.0001117 8558.56836 8816.34375
8896.0 0.0001124 8557.60645 8742.91895
8765.0 0.0001141 8556.64355 8693.09375
8712.0 0.0001148 8555.67969 8661.27051
8791.0 0.0001138 8554.71289 8641.97559
8610.0 0.0001161 8553.74512 8630.76660
8836.0 0.0001132 8552.77539 8624.49121
8748.0 0.0001143 8551.80371 8621.13477
8707.0 0.0001149 8550.83008 8619.53418
8821.0 0.0001134 8549.85449 8619.06934
8597.0 0.0001163 8548.87695 8619.43359
8714.0 0.0001148 8547.89844 8620.49414
8768.0 0.0001141 8546.91699 8622.20410
8782.0 0.0001139 8545.93457 8624.56738
8751.0 0.0001143 8544.95020 8627.62012
8752.0 0.0001143 8543.96387 8631.42090
8718.0 0.0001147 8542.97656 8636.05078
8744.0 0.0001144 8541.98633 8641.61816
8646.0 0.0001157 8540.99414 8648.26465
8636.0 0.0001158 8540.00098 8656.16797
8768.0 0.0001141 8539.00586 8665.55469
8637.0 0.0001158 8538.00781 8676.71777
8648.0 0.0001156 8537.00879 8690.03320
8524.0 0.0001173 8536.00879 8706.02734
8725.0 0.0001146 8535.00586 8725.45605
8666.0 0.0001154 8534.00098 8749.56543
8797.0 0.0001137 8532.99512 8780.62988
8750.0 0.0001143 8531.98633 8823.08105
8722.0 0.0001147 8530.97656 8885.69727
9006.0 0.0001110 8529.96484 8985.20801
9227.0 0.0001084 8528.95020 9151.35449
9702.0 0.0001031 8527.93555 9432.15625
10162.0 0.0000984 8526.91797 9895.20605
10795.0 0.0000926 8525.89844 10625.10742
11929.0 0.0000838 8524.87695 11697.34375
13557.0 0.0000738 8523.85449 13145.05371
15132.0 0.0000661 8522.83008 14910.72363
17067.0 0.0000586 8521.80273 16803.64258
18525.0 0.0000540 8520.77441 18488.03320
19702.0 0.0000508 8519.74414 19542.62891
19697.0 0.0000508 8518.71289 19618.70117
18728.0 0.0000534 8517.67871 18666.33594
16993.0 0.0000588 8516.64258 17004.93555
14958.0 0.0000669 8515.60547 15088.52539
12963.0 0.0000771 8514.56641 13278.69141
11696.0 0.0000855 8513.52441 11782.71777
10439.0 0.0000958 8512.48242 10669.33984
9750.0 0.0001026 8511.43750 9910.12402
9444.0 0.0001059 8510.39063 9428.33887
8986.0 0.0001113 8509.34277 9137.18555
8816.0 0.0001134 8508.29297 8965.20215
8755.0 0.0001142 8507.24023 8861.98535
8644.0 0.0001157 8506.18652 8796.47363
8639.0 0.0001158 8505.13184 8751.35352
8753.0 0.0001142 8504.07422 8717.65039
8570.0 0.0001167 8503.01563 8690.89063
8672.0 0.0001153 8501.95508 8668.80664
8707.0 0.0001149 8500.89258 8650.15137
8577.0 0.0001166 8499.82813 8634.16406
8482.0 0.0001179 8498.76270 8620.31641
8610.0 0.0001161 8497.69531 8608.21387
8699.0 0.0001150 8496.62598 8597.55859
8622.0 0.0001160 8495.55469 8587.08008
8685.0 0.0001151 8494.48242 8578.67285
8435.0 0.0001186 8493.40820 8571.12207
8455.0 0.0001183 8492.33203 8564.30273
8509.0 0.0001175 8491.25391 8558.10645
8539.0 0.0001171 8490.17480 8552.45215
8630.0 0.0001159 8489.09277 8547.26367
8731.0 0.0001145 8488.01074 8542.48340
8591.0 0.0001164 8486.92578 8538.05957
8457.0 0.0001182 8485.83984 8533.94922
8407.0 0.0001189 8484.75195 8530.11426
8413.0 0.0001189 8483.66309 8526.52734
8474.0 0.0001180 8482.57227 8523.15723
8549.0 0.0001170 8481.47949 8519.98242
8610.0 0.0001161 8480.38574 8516.98242
8352.0 0.0001197 8479.29004 8514.14160
8422.0 0.0001187 8478.19238 8511.44336
8399.0 0.0001191 8477.09375 8508.87695
8441.0 0.0001185 8475.99316 8506.42773
8476.0 0.0001180 8474.89160 8504.08887
8361.0 0.0001196 8473.78809 8501.85156
8363.0 0.0001196 8472.68359 8499.70898
8386.0 0.0001192 8471.57617 8497.65332
8592.0 0.0001164 8470.46875 8495.68066
8263.0 0.0001210 8469.35938 8493.78906
8344.0 0.0001198 8468.24805 8491.97461
8500.0 0.0001176 8467.13574 8490.23535
8402.0 0.0001190 8466.02246 8488.57129
8562.0 0.0001168 8464.90723 8486.98438
8565.0 0.0001168 8463.79004 8485.47656
8676.0 0.0001153 8462.67188 8484.05664
8373.0 0.0001194 8461.55273 8482.73828
8443.0 0.0001184 8460.43164 8481.54980
8607.0 0.0001162 8459.30859 8480.54980
8423.0 0.0001187 8458.18555 8479.85449
8558.0 0.0001168 8457.06055 8479.67969
8497.0 0.0001177 8455.93457 8480.39648
8384.0 0.0001193 8454.80664 8482.59375
8490.0 0.0001178 8453.67773 8487.09277
8289.0 0.0001206 8452.54688 8494.88281
8491.0 0.0001178 8451.41504 8506.92480
8403.0 0.0001190 8450.28223 8523.80371
8539.0 0.0001171 8449.14844 8545.29297
8347.0 0.0001198 8448.01270 8569.95898
8403.0 0.0001190 8446.87695 8594.95703
8585.0 0.0001165 8445.73926 8616.18164
8440.0 0.0001185 8444.59961 8629.03418
8367.0 0.0001195 8443.45996 8620.25684
8528.0 0.0001173 8442.31836 8608.90137
8575.0 0.0001166 8441.17578 8587.79883
8556.0 0.0001169 8440.03223 8561.62598
8555.0 0.0001169 8438.88672 8534.87305
8352.0 0.0001197 8437.74121 8510.83301
8356.0 0.0001197 8436.59473 8491.38477
8470.0 0.0001181 8435.44629 8477.16309
8418.0 0.0001188 8434.29688 8467.95898
8527.0 0.0001173 8433.14648 8463.25098
8457.0 0.0001182 8431.99512 8462.69336
8589.0 0.0001164 8430.84375 8466.50586
8517.0 0.0001174 8429.68945 8475.67383
8390.0 0.0001192 8428.53613 8491.95410
8511.0 0.0001175 8427.38086 8523.48047
8438.0 0.0001185 8426.22461 8560.84082
8582.0 0.0001165 8425.06738 8611.00293
8567.0 0.0001167 8423.90918 8673.28418
8766.0 0.0001141 8422.75000 8744.15527
8769.0 0.0001140 8421.58984 8816.69434
8733.0 0.0001145 8420.42969 8880.73242
8987.0 0.0001113 8419.26758 8924.28027
8964.0 0.0001116 8418.10547 8936.99316
8843.0 0.0001131 8416.94238 8915.00195
9010.0 0.0001110 8415.77832 8863.52344
8722.0 0.0001147 8414.61328 8793.95117
8684.0 0.0001152 8413.44727 8718.43945
8499.0 0.0001177 8412.28125 8646.59277
8488.0 0.0001178 8411.11426 8584.53418
8524.0 0.0001173 8409.94629 8535.04883
8539.0 0.0001171 8408.77734 8498.23535
8574.0 0.0001166 8407.60840 8472.42285
8410.0 0.0001189 8406.43848 8455.14648
8414.0 0.0001188 8405.26758 8443.91016
8448.0 0.0001184 8404.09668 8436.62891
8410.0 0.0001189 8402.92480 8431.78320
8243.0 0.0001213 8401.75195 8428.37695
8245.0 0.0001213 8400.57910 8425.81641
8471.0 0.0001180 8399.40527 8423.76660
8398.0 0.0001191 8398.23145 8422.05078
8480.0 0.0001179 8397.05664 8420.57520
8268.0 0.0001209 8395.88086 8419.29004
8373.0 0.0001194 8394.70508 8418.16797
8460.0 0.0001182 8393.52930 8417.19336
8450.0 0.0001183 8392.35254 8416.35449
8393.0 0.0001191 8391.17578 8415.64746
8249.0 0.0001212 8389.99805 8415.06641
8327.0 0.0001201 8388.82031 8414.61523
8492.0 0.0001178 8387.64160 8414.29590
8357.0 0.0001197 8386.46289 8414.11230
8370.0 0.0001195 8385.28320 8414.07129
8326.0 0.0001201 8384.10352 8414.18555
8533.0 0.0001172 8382.92383 8414.46875
8399.0 0.0001191 8381.74414 8414.93457
8472.0 0.0001180 8380.56348 8415.60352
8391.0 0.0001192 8379.38281 8416.49902
8334.0 0.0001200 8378.20215 8417.64941
8291.0 0.0001206 8377.02051 8419.08887
8442.0 0.0001185 8375.83984 8420.85938
8433.0 0.0001186 8374.65820 8423.01074
8320.0 0.0001202 8373.47656 8425.60254
8474.0 0.0001180 8372.29395 8428.70703
8465.0 0.0001181 8371.11230 8432.41797
8580.0 0.0001166 8369.92969 8436.84375
8501.0 0.0001176 8368.74805 8442.12402
8408.0 0.0001189 8367.56543 8448.43750
8438.0 0.0001185 8366.38281 8456.02246
8628.0 0.0001159 8365.20020 8465.21680
8594.0 0.0001164 8364.01758 8476.56348
8612.0 0.0001161 8362.83496 8490.87988
8600.0 0.0001163 8361.65234 8510.37109
8654.0 0.0001156 8360.46973 8538.63672
8750.0 0.0001143 8359.28711 8582.92969
8783.0 0.0001139 8358.10449 8656.35645
9157.0 0.0001092 8356.92188 8780.50781
9241.0 0.0001082 8355.73926 8987.09473
9620.0 0.0001040 8354.55762 9316.33398
10096.0 0.0000990 8353.37500 9810.72461
10705.0 0.0000934 8352.19336 10496.62305
11435.0 0.0000875 8351.01074 11371.70996
12530.0 0.0000798 8349.82910 12382.26758
13436.0 0.0000744 8348.64746 13413.15430
14416.0 0.0000694 8347.46680 14292.19043
14708.0 0.0000680 8346.28516 14822.80371
14625.0 0.0000684 8345.10449 14855.85742
14290.0 0.0000700 8343.92383 14375.87598
13172.0 0.0000759 8342.74316 13518.04883
12357.0 0.0000809 8341.56348 12484.86426
11254.0 0.0000889 8340.38281 11457.31445
10422.0 0.0000960 8339.20410 10558.05664
9722.0 0.0001029 8338.02441 9847.20801
9305.0 0.0001075 8336.84570 9332.51074
9011.0 0.0001110 8335.66699 8987.24902
8930.0 0.0001120 8334.48926 8769.73047
8696.0 0.0001150 8333.31152 8638.43262
8457.0 0.0001182 8332.13379 8560.21191
8693.0 0.0001150 8330.95703 8512.37891
8556.0 0.0001169 8329.78125 8481.16309
8614.0 0.0001161 8328.60547 8458.97168
8558.0 0.0001168 8327.42969 8441.89746
8472.0 0.0001180 8326.25488 8427.99707
8491.0 0.0001178 8325.08008 8416.27734
8485.0 0.0001179 8323.90625 8406.19141
8491.0 0.0001178 8322.73242 8397.39258
8380.0 0.0001193 8321.55957 8389.63965
8507.0 0.0001176 8320.38770 8382.34473
8290.0 0.0001206 8319.21582 8376.19141
8397.0 0.0001191 8318.04492 8370.64746
8572.0 0.0001167 8316.87500 8365.61914
8306.0 0.0001204 8315.70508 8361.03320
8291.0 0.0001206 8314.53516 8356.82520
8374.0 0.0001194 8313.36719 8352.94629
8259.0 0.0001211 8312.19922 8349.35156
8339.0 0.0001199 8311.03223 8346.00684
8320.0 0.0001202 8309.86523 8342.87891
8352.0 0.0001197 8308.70020 8339.94629
8393.0 0.0001191 8307.53516 8337.18457
8244.0 0.0001213 8306.37012 8334.57324
8347.0 0.0001198 8305.20703 8332.09961
8407.0 0.0001189 8304.04395 8329.74805
8404.0 0.0001190 8302.88184 8327.50781
8327.0 0.0001201 8301.72070 8325.36816
8385.0 0.0001193 8300.56055 8323.32031
8344.0 0.0001198 8299.40137 8321.35645
8325.0 0.0001201 8298.24316 8319.46973
8242.0 0.0001213 8297.08496 8317.65527
8413.0 0.0001189 8295.92773 8315.90527
8327.0 0.0001201 8294.77148 8314.21973
8265.0 0.0001210 8293.61621 8312.59277
8386.0 0.0001192 8292.46191 8313.31250
8345.0 0.0001198 8291.30859 8311.84961
8247.0 0.0001213 8290.15625 8310.44141
8367.0 0.0001195 8289.00488 8309.08301
8361.0 0.0001196 8287.85449 8307.77734
8279.0 0.0001208 8286.70508 8306.52148
8411.0 0.0001189 8285.55664 8305.31445
8364.0 0.0001196 8284.40820 8304.15820
8256.0 0.0001211 8283.26172 8303.05273
8173.0 0.0001224 8282.11621 8302.00098
8288.0 0.0001207 8280.97168 8301.00195
8361.0 0.0001196 8279.82813 8300.05957
8467.0 0.0001181 8278.68555 8299.17480
8357.0 0.0001197 8277.54395 8298.35547
8442.0 0.0001185 8276.40430 8297.60156
8631.0 0.0001159 8275.26465 8296.91895
8424.0 0.0001187 8274.12598 8296.31543
8334.0 0.0001200 8272.98926 8295.79785
8279.0 0.0001208 8271.85352 8295.37402
8326.0 0.0001201 8270.71875 8295.05566
8469.0 0.0001181 8269.58496 8294.85547
8594.0 0.0001164 8268.45215 8294.78906
8407.0 0.0001189 8267.32031 8294.87695
8345.0 0.0001198 8266.19043 8295.15039
8324.0 0.0001201 8265.06055 8289.75195
8473.0 0.0001180 8263.93262 8290.70703
8489.0 0.0001178 8262.80566 8292.05273
8419.0 0.0001188 8261.68066 8293.96387
8430.0 0.0001186 8260.55566 8296.72363
8371.0 0.0001195 8259.43262 8300.79688
8216.0 0.0001217 8258.31055 8306.90625
8422.0 0.0001187 8257.18945 8316.12891
8382.0 0.0001193 8256.07031 8330.00195
8370.0 0.0001195 8254.95215 8350.57910
8565.0 0.0001168 8253.83496 8380.42285
8325.0 0.0001201 8252.71875 8422.46973
8376.0 0.0001194 8251.60449 8479.72559
8610.0 0.0001161 8250.49121 8554.77148
8616.0 0.0001161 8249.37891 8649.12988
8676.0 0.0001153 8248.26855 8762.54785
8900.0 0.0001124 8247.15918 8892.35352
8888.0 0.0001125 8246.05078 9032.99414
8994.0 0.0001112 8244.94336 9175.85156
9172.0 0.0001090 8243.83887 9309.39746
9246.0 0.0001082 8242.73438 9419.87402
9183.0 0.0001089 8241.63086 9493.08887
9551.0 0.0001047 8240.52930 9517.80273
9437.0 0.0001060 8239.42969 9489.77344
9368.0 0.0001067 8238.33008 9413.62598
9364.0 0.0001068 8237.23242 9300.83203
9206.0 0.0001086 8236.13672 9165.63770
8929.0 0.0001120 8235.04199 9021.73340
8851.0 0.0001130 8233.94824 8880.54492
8530.0 0.0001172 8232.85645 8750.56641
8571.0 0.0001167 8231.76563 8637.23242
8406.0 0.0001190 8230.67578 8543.10938
8499.0 0.0001177 8229.58789 8468.37793
8305.0 0.0001204 8228.50098 8411.47656
8252.0 0.0001212 8227.41602 8369.81445
8278.0 0.0001208 8226.33203 8340.40918
8259.0 0.0001211 8225.24902 8320.37207
8299.0 0.0001205 8224.16797 8307.20117
8325.0 0.0001201 8223.08887 8298.91895
8370.0 0.0001195 8222.00977 8294.07715
8263.0 0.0001210 8220.93359 8291.70801
8249.0 0.0001212 8219.85742 8291.23926
8219.0 0.0001217 8218.78320 8292.44531
8224.0 0.0001216 8217.71094 8295.43848
8318.0 0.0001202 8216.63965 8300.75293
8367.0 0.0001195 8215.56934 8309.54395
8516.0 0.0001174 8214.50098 8323.90820
8188.0 0.0001221 8213.43359 8347.31250
8550.0 0.0001170 8212.36816 8385.04688
8420.0 0.0001188 8211.30371 8444.47656
8698.0 0.0001150 8210.24121 8534.83203
8584.0 0.0001165 8209.17969 8666.18262
8897.0 0.0001124 8208.12012 8847.41309
8790.0 0.0001138 8207.06152 9083.29102
9164.0 0.0001091 8206.00391 9371.15234
9348.0 0.0001070 8204.94824 9697.98535
9754.0 0.0001025 8203.89355 10038.66309
10145.0 0.0000986 8202.84082 10355.75781
10227.0 0.0000978 8201.78906 10602.16992
10517.0 0.0000951 8200.73926 10730.30664
10646.0 0.0000939 8199.69043 10710.31543
10609.0 0.0000943 8198.64355 10546.71289
10262.0 0.0000974 8197.59766 10275.59863
9959.0 0.0001004 8196.55371 9945.81641
9487.0 0.0001054 8195.51074 9602.60840
9157.0 0.0001092 8194.46875 9280.49512
8896.0 0.0001124 8193.42871 9001.55957
8685.0 0.0001151 8192.38965 8776.06738
8658.0 0.0001155 8191.35254 8604.56543
8628.0 0.0001159 8190.31689 8480.96680
8496.0 0.0001177 8189.28223 8395.84668
8444.0 0.0001184 8188.24951 8339.17676
8386.0 0.0001192 8187.21777 8302.10449
8387.0 0.0001192 8186.18750 8277.75195
8398.0 0.0001191 8185.15820 8261.27637
8199.0 0.0001220 8184.13086 8252.26660
8248.0 0.0001212 8183.10449 8243.45117
8177.0 0.0001223 8182.08008 8236.38184
8234.0 0.0001214 8181.05664 8230.44824
8100.0 0.0001235 8180.03467 8225.30664
8266.0 0.0001210 8179.01416 8220.76074
8063.0 0.0001240 8177.99512 8216.68652
8346.0 0.0001198 8176.97705 8213.00000
8225.0 0.0001216 8175.96094 8209.64063
8179.0 0.0001223 8174.94580 8206.55957
8116.0 0.0001232 8173.93164 8203.71875
8139.0 0.0001229 8172.91943 8201.08691
8227.0 0.0001216 8171.90869 8198.63672
8245.0 0.0001213 8170.89893 8196.34570
8236.0 0.0001214 8169.89063 8194.19727
8057.0 0.0001241 8168.88330 8192.17578
8237.0 0.0001214 8167.87744 8190.26611
8050.0 0.0001242 8166.87305 8188.45996
8201.0 0.0001219 8165.87012 8186.74561
8177.0 0.0001223 8164.86865 8185.11768
8384.0 0.0001193 8163.86816 8183.56738
8280.0 0.0001208 8162.86914 8182.08984
8223.0 0.0001216 8161.87109 8180.67969
8110.0 0.0001233 8160.87451 8179.33447
8079.0 0.0001238 8159.87939 8178.05078
8156.0 0.0001226 8158.88525 8176.82422
8015.0 0.0001248 8157.89258 8175.70947
8137.0 0.0001229 8156.90137 8174.59814
8167.0 0.0001224 8155.91113 8173.54199
8107.0 0.0001234 8154.92236 8172.54150
7986.0 0.0001252 8153.93457 8171.59570
8208.0 0.0001218 8152.94824 8170.70801
8261.0 0.0001211 8151.96289 8169.87842
8156.0 0.0001226 8150.97900 8169.11035
8242.0 0.0001213 8149.99609 8168.40674
8250.0 0.0001212 8149.01416 8167.77100
8136.0 0.0001229 8148.03418 8167.20850
8219.0 0.0001217 8147.05518 8166.72607
8131.0 0.0001230 8146.07715 8166.33008
8181.0 0.0001222 8145.10010 8166.02783
8009.0 0.0001249 8144.12451 8165.92676
8221.0 0.0001216 8143.14990 8165.85059
8196.0 0.0001220 8142.17676 8165.90869
8200.0 0.0001220 8141.20459 8166.11670
8106.0 0.0001234 8140.23340 8166.49805
8002.0 0.0001250 8139.26367 8165.99609
8133.0 0.0001230 8138.29492 8166.82666
8088.0 0.0001236 8137.32715 8167.92578
8130.0 0.0001230 8136.36035 8169.34131
8177.0 0.0001223 8135.39502 8171.13281
8170.0 0.0001224 8134.43066 8173.37646
8183.0 0.0001222 8133.46729 8176.16650
8240.0 0.0001214 8132.50488 8179.63037
8228.0 0.0001215 8131.54395 8183.94678
8243.0 0.0001213 8130.58350 8189.38965
8124.0 0.0001231 8129.62451 8196.44336
8323.0 0.0001201 8128.66650 8206.04883
8275.0 0.0001208 8127.70898 8220.12207
8278.0 0.0001208 8126.75293 8242.45898
8428.0 0.0001187 8125.79785 8280.09766
8408.0 0.0001189 8124.84375 8344.82715
8634.0 0.0001158 8123.89111 8453.98242
8699.0 0.0001150 8122.93848 8629.07715
9038.0 0.0001106 8121.98730 8890.75586
9479.0 0.0001055 8121.03711 9249.74609
9832.0 0.0001017 8120.08789 9695.63379
10355.0 0.0000966 8119.13965 10187.06445
11031.0 0.0000907 8118.19189 10645.19141
11266.0 0.0000888 8117.24561 10971.26074
11362.0 0.0000880 8116.29980 11065.51660
10961.0 0.0000912 8115.35498 10893.06836
10574.0 0.0000946 8114.41113 10510.76074
10130.0 0.0000987 8113.46777 10025.98633
9337.0 0.0001071 8112.52588 9538.02539
8921.0 0.0001121 8111.58447 9112.95117
8711.0 0.0001148 8110.64404 8781.75586
8658.0 0.0001155 8109.70410 8547.02148
8401.0 0.0001190 8108.76514 8393.52539
8357.0 0.0001197 8107.82715 8299.23633
8280.0 0.0001208 8106.88965 8243.33984
8335.0 0.0001200 8105.95313 8210.09766
8174.0 0.0001223 8105.01758 8189.33545
8073.0 0.0001239 8104.08252 8175.23926
8037.0 0.0001244 8103.14795 8164.77881
8127.0 0.0001230 8102.21436 8156.46240
8184.0 0.0001222 8101.28174 8149.55615
8163.0 0.0001225 8100.34961 8143.67285
8089.0 0.0001236 8099.41797 8138.58252
8012.0 0.0001248 8098.48730 8134.13281
8214.0 0.0001217 8097.55713 8130.21191
8119.0 0.0001232 8096.62744 8126.73486
7953.0 0.0001257 8095.69873 8123.63721
8122.0 0.0001231 8094.77051 8120.87109
8181.0 0.0001222 8093.84277 8118.39941
8109.0 0.0001233 8092.91602 8116.19971
8129.0 0.0001230 8091.98975 8114.26221
8142.0 0.0001228 8091.06396 8112.59863
8261.0 0.0001211 8090.13867 8111.25537
8195.0 0.0001220 8089.21387 8110.34180
8071.0 0.0001239 8088.28955 8110.08496
8148.0 0.0001227 8087.36621 8110.91113
8086.0 0.0001237 8086.44336 8113.55566
8173.0 0.0001224 8085.52051 8119.15771
8085.0 0.0001237 8084.59863 8129.23242
8208.0 0.0001218 8083.67725 8145.35693
8173.0 0.0001224 8082.75586 8168.47705
8260.0 0.0001211 8081.83545 8197.91016
8002.0 0.0001250 8080.91504 8230.36523
8154.0 0.0001226 8079.99561 8259.33105
8163.0 0.0001225 8079.07617 8275.64355
8247.0 0.0001213 8078.15723 8271.91211
8260.0 0.0001211 8077.23877 8249.26367
8047.0 0.0001243 8076.32080 8216.14063
8209.0 0.0001218 8075.40283 8181.29492
8057.0 0.0001241 8074.48584 8150.47607
8165.0 0.0001225 8073.56885 8126.29541
8108.0 0.0001233 8072.65186 8108.96680
8073.0 0.0001239 8071.73584 8097.31104
8140.0 0.0001229 8070.81982 8089.70801
8000.0 0.0001250 8069.90381 8084.70703
7958.0 0.0001257 8068.98877 8081.25391
8144.0 0.0001228 8068.07324 8078.68213
8066.0 0.0001240 8067.15869 8076.60596
7986.0 0.0001252 8066.24365 8074.81592
8048.0 0.0001243 8065.32959 8073.20215
8177.0 0.0001223 8064.41504 8071.70410
8082.0 0.0001237 8063.50146 8070.29199
8085.0 0.0001237 8062.58789 8068.94434
8097.0 0.0001235 8061.67432 8067.64844
8026.0 0.0001246 8060.76074 8066.39453
8014.0 0.0001248 8059.84766 8065.17725
8050.0 0.0001242 8058.93457 8063.98975
8006.0 0.0001249 8058.02148 8062.82813
8133.0 0.0001230 8057.10889 8061.68896
8115.0 0.0001232 8056.19580 8060.56787
7987.0 0.0001252 8055.28320 8059.46484
8328.0 0.0001201 8054.37109 8058.37695
8132.0 0.0001230 8053.45850 8057.30176
7972.0 0.0001254 8052.54639 8053.53809
8073.0 0.0001239 8051.63428 8052.56152
8009.0 0.0001249 8050.72168 8051.59033
8134.0 0.0001229 8049.80957 8050.62451
8085.0 0.0001237 8048.89746 8049.66455
8117.0 0.0001232 8047.98535 8048.70752
8087.0 0.0001237 8047.07324 8047.75488
8061.0 0.0001241 8046.16113 8046.80566
8049.0 0.0001242 8045.24902 8045.85938
8071.0 0.0001239 8044.33643 8044.91504
8150.0 0.0001227 8043.42432 8043.97412
8157.0 0.0001226 8042.51221 8043.03467
8151.0 0.0001227 8041.59961 8042.09717
8234.0 0.0001214 8040.68701 8041.16113
8166.0 0.0001225 8039.77441 8040.22705
7973.0 0.0001254 8038.86182 8039.29443
7845.0 0.0001275 8037.94873 8038.36182
7983.0 0.0001253 8037.03613 8037.43164
8108.0 0.0001233 8036.12305 8036.50244
7911.0 0.0001264 8035.20947 8035.57275
7906.0 0.0001265 8034.29590 8034.64502
7937.0 0.0001260 8033.38232 8033.71777
8044.0 0.0001243 8032.46875 8032.79102
8027.0 0.0001246 8031.55469 8031.86475
7979.0 0.0001253 8030.64063 8030.93945
8079.0 0.0001238 8029.72607 8030.01416
8033.0 0.0001245 8028.81152 8029.08984
7939.0 0.0001260 8027.89648 8028.16455
8062.0 0.0001240 8026.98145 8027.24072
8070.0 0.0001239 8026.06592 8026.31641
8050.0 0.0001242 8025.15039 8025.39307
8168.0 0.0001224 8024.23438 8024.46924
7927.0 0.0001262 8023.31836 8023.54590
8052.0 0.0001242 8022.40137 8022.62207
8051.0 0.0001242 8021.48438 8021.69824
8051.0 0.0001242 8020.56738 8020.77539
8125.0 0.0001231 8019.64990 8019.85254
8083.0 0.0001237 8018.73193 8018.92871
7982.0 0.0001253 8017.81348 8018.00537
7923.0 0.0001262 8016.89502 8017.08252
7972.0 0.0001254 8015.97607 8016.15869
7960.0 0.0001256 8015.05664 8015.23535
7985.0 0.0001252 8014.13672 8014.31152
7963.0 0.0001256 8013.21631 8013.38818
8162.0 0.0001225 8012.29590 8012.46533
8051.0 0.0001242 8011.37451 8011.54199
7982.0 0.0001253 8010.45313 8010.61963
7912.0 0.0001264 8009.53125 8009.69922
8037.0 0.0001244 8008.60889 8008.78223
8028.0 0.0001246 8007.68604 8007.87109
7895.0 0.0001267 8006.76270 8006.97021
7801.0 0.0001282 8005.83838 8006.08252
8047.0 0.0001243 8004.91406 8005.21387
7997.0 0.0001250 8003.98926 8004.36279
8070.0 0.0001239 8003.06396 8003.40576
7759.0 0.0001289 8002.13818 8002.57520
8139.0 0.0001229 8001.21191 8001.72852
8006.0 0.0001249 8000.28467 8000.84375
7988.0 0.0001252 7999.35742 7999.90625
8139.0 0.0001229 7998.42920 7998.91895
8016.0 0.0001248 7997.50049 7997.90234
7976.0 0.0001254 7996.57129 7996.87744
7980.0 0.0001253 7995.64160 7995.86035
8031.0 0.0001245 7994.71094 7994.85938
8092.0 0.0001236 7993.78027 7993.87744
8064.0 0.0001240 7992.84863 7992.91162
7919.0 0.0001263 7991.91650 7991.95801
7981.0 0.0001253 7990.98340 7991.01270
7876.0 0.0001270 7990.04980 7990.07178
7847.0 0.0001274 7989.11572 7989.13281
7805.0 0.0001281 7988.18115 7988.19580
8057.0 0.0001241 7987.24561 7987.25781
7911.0 0.0001264 7986.30957 7986.32031
7961.0 0.0001256 7985.37305 7985.38281
8008.0 0.0001249 7984.43555 7984.44385
7808.0 0.0001281 7983.49707 7983.50488
7918.0 0.0001263 7982.55859 7982.56543
7929.0 0.0001261 7981.61914 7981.62549
7851.0 0.0001274 7980.67871 7980.68457
7923.0 0.0001262 7979.73779 7979.74316
8056.0 0.0001241 7978.79590 7978.80078
7993.0 0.0001251 7977.85400 7977.85840
8009.0 0.0001249 7976.91064 7976.91455
8076.0 0.0001238 7975.96680 7975.97070
7950.0 0.0001258 7975.02246 7975.02588
8043.0 0.0001243 7974.07666 7974.08008
7968.0 0.0001255 7973.13086 7973.13379
7957.0 0.0001257 7972.18408 7972.18701
7961.0 0.0001256 7971.23633 7971.23877
7906.0 0.0001265 7970.28809 7970.29053
7885.0 0.0001268 7969.33887 7969.34131
8003.0 0.0001250 7968.38867 7968.39063
7930.0 0.0001261 7967.43799 7967.43994
7918.0 0.0001263 7966.48633 7966.48828
8084.0 0.0001237 7965.53418 7965.53613
7920.0 0.0001263 7964.58057 7964.58252
7890.0 0.0001267 7963.62695 7963.62842
7991.0 0.0001251 7962.67188 7962.67334
8150.0 0.0001227 7961.71631 7961.71777
8042.0 0.0001243 7960.75977 7960.76123
8081.0 0.0001237 7959.80273 7959.80420
7962.0 0.0001256 7958.84424 7958.84570
7980.0 0.0001253 7957.88525 7957.88672
8025.0 0.0001246 7956.92578 7956.92676
7962.0 0.0001256 7955.96484 7955.96582
8019.0 0.0001247 7955.00342 7955.00439
7993.0 0.0001251 7954.04102 7954.04199
7956.0 0.0001257 7953.07764 7953.07861
7974.0 0.0001254 7952.11328 7952.11426
7820.0 0.0001279 7951.14844 7951.14941
7987.0 0.0001252 7950.18262 7950.18359
8021.0 0.0001247 7949.21582 7949.21680
7936.0 0.0001260 7948.24805 7948.24902
7904.0 0.0001265 7947.27930 7947.28027
7986.0 0.0001252 7946.31006 7946.31104
7935.0 0.0001260 7945.33984 7945.34082
7846.0 0.0001275 7944.36865 7944.36914
8055.0 0.0001241 7943.39648 7943.39697
7854.0 0.0001273 7942.42334 7942.42383
7841.0 0.0001275 7941.44922 7941.44971
7852.0 0.0001274 7940.47412 7940.47461
7901.0 0.0001266 7939.49854 7939.49902
7822.0 0.0001278 7938.52197 7938.52246
8105.0 0.0001234 7937.54443 7937.54492
7857.0 0.0001273 7936.56592 7936.56641
7939.0 0.0001260 7935.58643 7935.58691
8015.0 0.0001248 7934.60596 7935.06396
8017.0 0.0001247 7933.62451 7934.09326
7905.0 0.0001265 7932.64209 7933.12207
7890.0 0.0001267 7931.65869 7932.15039
7973.0 0.0001254 7930.67480 7931.17920
8075.0 0.0001238 7929.68994 7930.20752
8030.0 0.0001245 7928.70361 7929.23438
7848.0 0.0001274 7927.71680 7928.26123
8010.0 0.0001248 7926.72900 7927.28809
7903.0 0.0001265 7925.74023 7926.31445
7880.0 0.0001269 7924.75049 7925.34033
8096.0 0.0001235 7923.75928 7924.36523
7961.0 0.0001256 7922.76758 7923.39063
7862.0 0.0001272 7921.77539 7922.41602
7930.0 0.0001261 7920.78174 7921.44092
8030.0 0.0001245 7919.78711 7920.46533
7928.0 0.0001261 7918.79150 7919.48975
7965.0 0.0001255 7917.79541 7918.51514
7976.0 0.0001254 7916.79785 7917.53955
8020.0 0.0001247 7915.79932 7916.56396
7752.0 0.0001290 7914.80029 7915.58887
7799.0 0.0001282 7913.79980 7914.61377
8008.0 0.0001249 7912.79883 7913.63916
7931.0 0.0001261 7911.79639 7912.68848
7944.0 0.0001259 7910.79346 7912.42627
8008.0 0.0001249 7909.78955 7911.47070
7770.0 0.0001287 7908.78418 7910.51563
7952.0 0.0001258 7907.77832 7909.56250
7934.0 0.0001260 7906.77148 7908.61182
7884.0 0.0001268 7905.76367 7907.66211
7970.0 0.0001255 7904.75488 7906.71387
7977.0 0.0001254 7903.74512 7905.76904
7898.0 0.0001266 7902.73438 7904.82666
7987.0 0.0001252 7901.72266 7903.88525
7920.0 0.0001263 7900.70996 7902.94727
7819.0 0.0001279 7899.69629 7902.01318
7852.0 0.0001274 7898.68164 7901.08252
7935.0 0.0001260 7897.66602 7900.15479
7924.0 0.0001262 7896.64990 7899.23291
7922.0 0.0001262 7895.63232 7898.31396
7994.0 0.0001251 7894.61426 7897.40088
7871.0 0.0001270 7893.59473 7896.49365
7792.0 0.0001283 7892.57422 7895.59131
7905.0 0.0001265 7891.55322 7894.69629
7889.0 0.0001268 7890.53125 7893.80957
7906.0 0.0001265 7889.50781 7892.93018
7822.0 0.0001278 7888.48389 7892.06006
7785.0 0.0001285 7887.45947 7891.20117
7816.0 0.0001279 7886.43359 7890.35303
7808.0 0.0001281 7885.40674 7889.51758
7772.0 0.0001287 7884.37891 7888.69580
7872.0 0.0001270 7883.35010 7887.88965
7920.0 0.0001263 7882.32031 7887.10107
7945.0 0.0001259 7881.29004 7886.33252
7890.0 0.0001267 7880.25830 7885.58643
7666.0 0.0001304 7879.22656 7884.86572
7758.0 0.0001289 7878.19287 7884.17334
7899.0 0.0001266 7877.15869 7883.51465
7817.0 0.0001279 7876.12354 7882.89209
7747.0 0.0001291 7875.08789 7882.31445
7807.0 0.0001281 7874.05078 7881.78809
7790.0 0.0001284 7873.01270 7881.32617
7888.0 0.0001268 7871.97412 7880.94482
7834.0 0.0001276 7870.93457 7880.67285
7840.0 0.0001276 7869.89404 7880.56006
7923.0 0.0001262 7868.85254 7880.68848
7851.0 0.0001274 7867.81055 7881.20020
7868.0 0.0001271 7866.76709 7882.32422
7830.0 0.0001277 7865.72314 7884.43018
8034.0 0.0001245 7864.67822 7888.06836
7793.0 0.0001283 7863.63232 7894.02295
7983.0 0.0001253 7862.58545 7903.33594
8053.0 0.0001242 7861.53809 7917.28809
7876.0 0.0001270 7860.48975 7937.30713
8027.0 0.0001246 7859.44043 7964.78027
7999.0 0.0001250 7858.39014 8000.77881
8065.0 0.0001240 7857.33887 8045.70850
8069.0 0.0001239 7856.28711 8098.95508
7982.0 0.0001253 7855.23438 8158.60547
8272.0 0.0001209 7854.18066 8221.30371
8222.0 0.0001216 7853.12646 8282.30859
8316.0 0.0001203 7852.07080 8335.78711
8422.0 0.0001187 7851.01465 8375.42773
8563.0 0.0001168 7849.95801 8395.62891
8510.0 0.0001175 7848.89990 8393.12988
8481.0 0.0001179 7847.84131 8368.29785
8375.0 0.0001194 7846.78174 8324.97266
8192.0 0.0001221 7845.72168 8269.05176
8153.0 0.0001227 7844.66064 8206.90430
8161.0 0.0001225 7843.59863 8144.33545
8138.0 0.0001229 7842.53613 8086.06201
8019.0 0.0001247 7841.47266 8035.52588
7998.0 0.0001250 7840.40820 7994.94678
8187.0 0.0001221 7839.34326 7965.56201
8061.0 0.0001241 7838.27734 7948.00928
7851.0 0.0001274 7837.21045 7942.72070
8011.0 0.0001248 7836.14307 7950.23975
8248.0 0.0001212 7835.07520 7971.34814
8113.0 0.0001233 7834.00586 8006.94824
7992.0 0.0001251 7832.93604 8057.71582
7994.0 0.0001251 7831.86572 8123.57227
8257.0 0.0001211 7830.79443 8203.09766
8315.0 0.0001203 7829.72217 8293.03613
8457.0 0.0001182 7828.64941 8388.02246
8461.0 0.0001182 7827.57568 8480.60938
8530.0 0.0001172 7826.50146 8561.67676
8668.0 0.0001154 7825.42676 8621.38477
8765.0 0.0001141 7824.35059 8651.02637
8603.0 0.0001162 7823.27441 8645.64160
8547.0 0.0001170 7822.19727 8606.00488
8455.0 0.0001183 7821.11914 8538.30957
8371.0 0.0001195 7820.04053 8451.82422
8405.0 0.0001190 7818.96094 8356.37500
8303.0 0.0001204 7817.88135 8260.70410
8156.0 0.0001226 7816.80029 8171.63770
8080.0 0.0001238 7815.71875 8093.73389
8161.0 0.0001225 7814.63672 8029.27637
7995.0 0.0001251 7813.55371 7978.55518
7943.0 0.0001259 7812.47021 7940.35791
7960.0 0.0001256 7811.38574 7912.63184
8043.0 0.0001243 7810.30127 7892.68359
7784.0 0.0001285 7809.21533 7878.17432
7896.0 0.0001266 7808.12939 7867.11523
7900.0 0.0001266 7807.04248 7858.10400
7730.0 0.0001294 7805.95508 7850.29932
7907.0 0.0001265 7804.86670 7843.26660
7949.0 0.0001258 7803.77783 7836.82959
7896.0 0.0001266 7802.68848 7830.94727
7825.0 0.0001278 7801.59814 7825.63184
7778.0 0.0001286 7800.50732 7820.90430
7791.0 0.0001284 7799.41650 7816.76270
7949.0 0.0001258 7798.32422 7813.17480
7901.0 0.0001266 7797.23145 7810.08301
7939.0 0.0001260 7796.13867 7807.41016
7812.0 0.0001280 7795.04443 7805.07568
7711.0 0.0001297 7793.95020 7803.00439
7795.0 0.0001283 7792.85498 7801.12988
7795.0 0.0001283 7791.75928 7799.60449
7755.0 0.0001289 7790.66357 7797.98584
7785.0 0.0001285 7789.56641 7796.44385
7681.0 0.0001302 7788.46924 7794.95850
7778.0 0.0001286 7787.37109 7793.51709
7763.0 0.0001288 7786.27295 7792.11182
7716.0 0.0001296 7785.17383 7790.73438
7783.0 0.0001285 7784.07373 7789.38086
7766.0 0.0001288 7782.97363 7788.04883
7762.0 0.0001288 7781.87305 7786.73633
7833.0 0.0001277 7780.77197 7785.44092
7709.0 0.0001297 7779.66992 7784.15918
7673.0 0.0001303 7778.56738 7782.89307
7679.0 0.0001302 7777.46484 7781.63818
7924.0 0.0001262 7776.36133 7780.39453
7691.0 0.0001300 7775.25732 7779.16162
7650.0 0.0001307 7774.15283 7777.93896
7936.0 0.0001260 7773.04785 7776.72510
7818.0 0.0001279 7771.94238 7775.51953
7876.0 0.0001270 7770.83643 7774.32178
7727.0 0.0001294 7769.72998 7773.13184
7741.0 0.0001292 7768.62256 7771.94775
7734.0 0.0001293 7767.51514 7770.77100
7771.0 0.0001287 7766.40723 7769.60107
7887.0 0.0001268 7765.29883 7768.43750
7733.0 0.0001293 7764.18994 7767.27930
7597.0 0.0001316 7763.08057 7766.12646
7658.0 0.0001306 7761.97070 7764.97900
7859.0 0.0001272 7760.86035 7763.83789
7718.0 0.0001296 7759.74951 7762.70264
7764.0 0.0001288 7758.63818 7761.11768
7822.0 0.0001278 7757.52637 7760.00391
7667.0 0.0001304 7756.41406 7758.89600
7783.0 0.0001285 7755.30127 7757.79395
7727.0 0.0001294 7754.18848 7756.69775
7792.0 0.0001283 7753.07520 7755.60938
7639.0 0.0001309 7751.96094 7754.52734
7758.0 0.0001289 7750.84668 7753.45215
7850.0 0.0001274 7749.73193 7752.38672
7679.0 0.0001302 7748.61670 7751.32910
7547.0 0.0001325 7747.50098 7750.28223
7674.0 0.0001303 7746.38477 7749.24756
7862.0 0.0001272 7745.26807 7748.22559
7690.0 0.0001300 7744.15137 7747.22021
7710.0 0.0001297 7743.03418 7746.23389
7626.0 0.0001311 7741.91650 7745.27490
7748.0 0.0001291 7740.79834 7744.35156
7507.0 0.0001332 7739.68018 7743.48438
7826.0 0.0001278 7738.56104 7742.70117
7755.0 0.0001289 7737.44189 7742.05029
7690.0 0.0001300 7736.32227 7741.60986
7646.0 0.0001308 7735.20264 7741.49121
7727.0 0.0001294 7734.08203 7745.12695
7692.0 0.0001300 7732.96143 7746.26270
7805.0 0.0001281 7731.83984 7748.34766
7718.0 0.0001296 7730.71875 7751.66211
7670.0 0.0001304 7729.59668 7756.46826
7766.0 0.0001288 7728.47461 7762.95508
7640.0 0.0001309 7727.35205 7771.16406
7843.0 0.0001275 7726.22900 7780.91895
7753.0 0.0001290 7725.10596 7791.77783
7828.0 0.0001277 7723.98242 7803.00342
7504.0 0.0001333 7722.85840 7813.58740
7824.0 0.0001278 7721.73389 7822.32422
7854.0 0.0001273 7720.60938 7827.96729
7679.0 0.0001302 7719.48438 7829.53369
7835.0 0.0001276 7718.35889 7826.65723
7827.0 0.0001278 7717.23340 7819.75586
7872.0 0.0001270 7716.10742 7809.85791
7850.0 0.0001274 7714.98145 7798.26221
7881.0 0.0001269 7713.85449 7786.25146
7773.0 0.0001287 7712.72754 7774.98926
7658.0 0.0001306 7711.60059 7765.50537
7722.0 0.0001295 7710.47266 7758.79688
7570.0 0.0001321 7709.34473 7755.97559
7632.0 0.0001310 7708.21680 7758.41357
7869.0 0.0001271 7707.08838 7767.76172
7821.0 0.0001279 7705.95947 7785.69092
7786.0 0.0001284 7704.83057 7813.29102
7877.0 0.0001270 7703.70117 7850.21826
7928.0 0.0001261 7702.57129 7893.83789
7848.0 0.0001274 7701.44141 7938.63818
7997.0 0.0001250 7700.31104 7975.73535
7998.0 0.0001250 7699.18018 7995.93018
7925.0 0.0001262 7698.04932 7991.69531
7933.0 0.0001261 7696.91846 7964.15234
7864.0 0.0001272 7695.78711 7921.65918
7884.0 0.0001268 7694.65527 7874.06152
7751.0 0.0001290 7693.52295 7828.99658
7721.0 0.0001295 7692.39063 7791.04932
7628.0 0.0001311 7691.25830 7761.99170
7901.0 0.0001266 7690.12549 7741.45996
7809.0 0.0001281 7688.99219 7727.87012
7641.0 0.0001309 7687.85889 7719.28955
7645.0 0.0001308 7686.72510 7713.92188
7727.0 0.0001294 7685.59131 7710.50146
7710.0 0.0001297 7684.45703 7708.65283
7727.0 0.0001294 7683.32227 7707.00000
7824.0 0.0001278 7682.18750 7705.74121
7674.0 0.0001303 7681.05225 7704.75244
7614.0 0.0001313 7679.91699 7703.97754
7667.0 0.0001304 7678.78174 7703.38818
7608.0 0.0001314 7677.64551 7702.97168
7634.0 0.0001310 7676.50928 7702.72559
7760.0 0.0001289 7675.37305 7702.65381
7796.0 0.0001283 7674.23633 7702.76123
7835.0 0.0001276 7673.09912 7703.05908
7757.0 0.0001289 7671.96191 7703.56543
7773.0 0.0001287 7670.82422 7704.29834
7628.0 0.0001311 7669.68652 7705.28711
7736.0 0.0001293 7668.54883 7706.56396
7663.0 0.0001305 7667.41064 7708.17432
7695.0 0.0001300 7666.27197 7710.17334
7724.0 0.0001295 7665.13330 7712.64307
7659.0 0.0001306 7663.99414 7715.70215
7763.0 0.0001288 7662.85449 7719.54053
7681.0 0.0001302 7661.71484 7724.47363
7830.0 0.0001277 7660.57520 7731.04053
7721.0 0.0001295 7659.43506 7740.15674
7826.0 0.0001278 7658.29443 7753.36865
7763.0 0.0001288 7657.15381 7773.19678
7930.0 0.0001261 7656.01318 7803.58545
7866.0 0.0001271 7654.87158 7850.37500
8101.0 0.0001234 7653.73047 7921.68408
8231.0 0.0001215 7652.58838 8027.93945
8257.0 0.0001211 7651.44629 8181.26709
8482.0 0.0001179 7650.30420 8393.93555
8595.0 0.0001163 7649.16162 8675.75000
9025.0 0.0001108 7648.01904 9030.56934
9211.0 0.0001086 7646.87598 9457.94434
9866.0 0.0001014 7645.73242 9928.80957
10199.0 0.0000980 7644.58887 10415.66211
11016.0 0.0000908 7643.44482 10872.18164
11654.0 0.0000858 7642.30078 11242.00391
11703.0 0.0000854 7641.15625 11467.64258
11958.0 0.0000836 7640.01172 11507.12988
11807.0 0.0000847 7638.86670 11352.31934
11387.0 0.0000878 7637.72168 11033.10059
10780.0 0.0000928 7636.57568 10603.00098
10259.0 0.0000975 7635.43018 10120.35059
9753.0 0.0001025 7634.28369 9636.23926
9364.0 0.0001068 7633.13770 9189.17480
8806.0 0.0001136 7631.99072 8803.41602
8571.0 0.0001167 7630.84424 8489.66406
8284.0 0.0001207 7629.69678 8247.58203
8282.0 0.0001207 7628.54932 8069.34863
8122.0 0.0001231 7627.40137 7943.33105
7973.0 0.0001254 7626.25293 7857.10010
7933.0 0.0001261 7625.10449 7799.31982
7757.0 0.0001289 7623.95605 7761.08496
7808.0 0.0001281 7622.80713 7735.56201
7703.0 0.0001298 7621.65771 7718.08545
7759.0 0.0001289 7620.50830 7705.61426
7762.0 0.0001288 7619.35840 7696.25098
7761.0 0.0001288 7618.20801 7688.85645
7671.0 0.0001304 7617.05762 7682.76270
7744.0 0.0001291 7615.90674 7677.58008
7710.0 0.0001297 7614.75537 7673.07715
7672.0 0.0001303 7613.60400 7669.11230
7669.0 0.0001304 7612.45215 7665.59326
7520.0 0.0001330 7611.30029 7662.45410
7568.0 0.0001321 7610.14795 7660.38672
7592.0 0.0001317 7608.99512 7657.89893
7594.0 0.0001317 7607.84180 7655.68164
7693.0 0.0001300 7606.68848 7653.71533
7651.0 0.0001307 7605.53467 7651.98242
7631.0 0.0001310 7604.38037 7650.26367
7552.0 0.0001324 7603.22607 7648.97217
7642.0 0.0001309 7602.07178 7647.88965
7734.0 0.0001293 7600.91650 7647.01904
7659.0 0.0001306 7599.76074 7646.36816
7771.0 0.0001287 7598.60498 7645.95166
7785.0 0.0001285 7597.44922 7645.80029
7705.0 0.0001298 7596.29248 7645.96094
7637.0 0.0001309 7595.13574 7646.51611
7712.0 0.0001297 7593.97852 7647.59180
7539.0 0.0001326 7592.82080 7649.38232
7643.0 0.0001308 7591.66309 7652.17383
7736.0 0.0001293 7590.50488 7656.37451
7489.0 0.0001335 7589.34619 7662.53223
7757.0 0.0001289 7588.18701 7671.34961
7772.0 0.0001287 7587.02734 7683.67041
7827.0 0.0001278 7585.86768 7700.43555
7759.0 0.0001289 7584.70752 7722.58594
7726.0 0.0001294 7583.54688 7750.93994
7591.0 0.0001317 7582.38623 7786.00928
7805.0 0.0001281 7581.22461 7827.82129
7792.0 0.0001283 7580.06299 7875.74414
7796.0 0.0001283 7578.90088 7928.35938
7871.0 0.0001270 7577.73828 7983.40576
8019.0 0.0001247 7576.57520 8037.80615
8001.0 0.0001250 7575.41162 8087.79639
8148.0 0.0001227 7574.24805 8129.25244
8094.0 0.0001235 7573.08398 8158.35156
8201.0 0.0001219 7571.91943 8172.60205
8158.0 0.0001226 7570.75391 8171.86328
8081.0 0.0001237 7569.58838 8158.72949
8073.0 0.0001239 7568.42285 8138.12500
8117.0 0.0001232 7567.25635 8116.73633
7835.0 0.0001276 7566.08936 8102.96680
8139.0 0.0001229 7564.92188 8107.65479
8273.0 0.0001209 7563.75439 8145.37988
8237.0 0.0001214 7562.58643 8235.85840
8486.0 0.0001178 7561.41797 8404.58105
8797.0 0.0001137 7560.24854 8681.43750
9081.0 0.0001101 7559.07910 9096.04297
9650.0 0.0001036 7557.90918 9669.20020
10219.0 0.0000979 7556.73877 10401.53223
10948.0 0.0000913 7555.56787 11261.94238
11515.0 0.0000868 7554.39600 12179.15234
12550.0 0.0000797 7553.22461 13038.56445
13600.0 0.0000735 7552.05225 13689.32813
14277.0 0.0000700 7550.87939 13978.42578
13929.0 0.0000718 7549.70557 13822.89453
13399.0 0.0000746 7548.53174 13266.09570
12823.0 0.0000780 7547.35742 12446.62305
11832.0 0.0000845 7546.18262 11521.44141
10505.0 0.0000952 7545.00732 10618.22949
9928.0 0.0001007 7543.83154 9818.62402
9183.0 0.0001089 7542.65479 9171.92480
8560.0 0.0001168 7541.47803 8682.54492
8367.0 0.0001195 7540.30029 8334.14551
8193.0 0.0001221 7539.12256 8098.33496
8145.0 0.0001228 7537.94385 7944.56201
8000.0 0.0001250 7536.76465 7846.26270
7812.0 0.0001280 7535.58496 7783.32520
7860.0 0.0001272 7534.40527 7742.03955
7760.0 0.0001289 7533.22412 7713.79199
7633.0 0.0001310 7532.04297 7693.53027
7671.0 0.0001304 7530.86133 7678.46973
7636.0 0.0001310 7529.67871 7667.22754
7682.0 0.0001302 7528.49561 7659.35449
7629.0 0.0001311 7527.31201 7655.20361
7623.0 0.0001312 7526.12793 7657.88428
7645.0 0.0001308 7524.94336 7666.15430
7760.0 0.0001289 7523.75830 7685.56396
7780.0 0.0001285 7522.57227 7721.06494
7673.0 0.0001303 7521.38574 7778.06836
7769.0 0.0001287 7520.19873 7860.88477
7915.0 0.0001263 7519.01074 7970.52637
8032.0 0.0001245 7517.82275 8102.39453
7966.0 0.0001255 7516.63379 8244.52832
8024.0 0.0001246 7515.44434 8376.88086
8352.0 0.0001197 7514.25439 8472.71582
8403.0 0.0001190 7513.06348 8505.73828
8265.0 0.0001210 7511.87207 8464.44727
8226.0 0.0001216 7510.68018 8360.72559
8215.0 0.0001217 7509.48730 8220.95605
7881.0 0.0001269 7508.29443 8071.73096
8062.0 0.0001240 7507.10010 7932.87646
7767.0 0.0001287 7505.90576 7816.13184
7647.0 0.0001308 7504.71094 7725.88916
7641.0 0.0001309 7503.51465 7660.96240
7608.0 0.0001314 7502.31836 7616.90186
7472.0 0.0001338 7501.12109 7588.17676
7572.0 0.0001321 7499.92334 7569.70850
7583.0 0.0001319 7498.72461 7557.59473
7547.0 0.0001325 7497.52539 7549.20752
7584.0 0.0001319 7496.32568 7545.29980
7548.0 0.0001325 7495.12500 7540.32129
7598.0 0.0001316 7493.92383 7536.10352
7575.0 0.0001320 7492.72217 7532.39697
7446.0 0.0001343 7491.51953 7529.06787
7417.0 0.0001348 7490.31592 7526.03467
7528.0 0.0001328 7489.11230 7523.24756
7540.0 0.0001326 7487.90723 7520.66602
7460.0 0.0001340 7486.70215 7518.26270
7326.0 0.0001365 7485.49561 7516.01367
7530.0 0.0001328 7484.28906 7513.90088
7620.0 0.0001312 7483.08154 7511.91064
7651.0 0.0001307 7481.87354 7510.02832
7517.0 0.0001330 7480.66406 7508.24512
7519.0 0.0001330 7479.45459 7506.55322
7479.0 0.0001337 7478.24414 7504.94678
7458.0 0.0001341 7477.03271 7503.42041
7450.0 0.0001342 7475.82080 7501.96924
7482.0 0.0001337 7474.60840 7500.59326
7505.0 0.0001332 7473.39502 7499.28760
7662.0 0.0001305 7472.18066 7498.05371
7614.0 0.0001313 7470.96582 7496.89014
7657.0 0.0001306 7469.75000 7495.79932
7507.0 0.0001332 7468.53369 7494.78076
7590.0 0.0001318 7467.31641 7493.83936
7439.0 0.0001344 7466.09814 7492.97852
7495.0 0.0001334 7464.87939 7492.20117
7450.0 0.0001342 7463.66016 7491.51563
7599.0 0.0001316 7462.43994 7490.92725
7443.0 0.0001344 7461.21875 7490.44580
7541.0 0.0001326 7459.99707 7490.08252
7483.0 0.0001336 7458.77441 7489.84912
7466.0 0.0001339 7457.55078 7489.76221
7507.0 0.0001332 7456.32666 7489.84033
7352.0 0.0001360 7455.10156 7490.10645
7442.0 0.0001344 7453.87598 7490.59082
7429.0 0.0001346 7452.64941 7491.33008
7477.0 0.0001337 7451.42188 7492.37695
7553.0 0.0001324 7450.19336 7493.80811
7484.0 0.0001336 7448.96436 7495.73926
7567.0 0.0001322 7447.73486 7498.36572
7530.0 0.0001328 7446.50391 7502.00537
7518.0 0.0001330 7445.27246 7507.19873
7574.0 0.0001320 7444.04053 7514.85205
7430.0 0.0001346 7442.80713 7526.43945
7816.0 0.0001279 7441.57324 7544.29053
7688.0 0.0001301 7440.33887 7571.92090
7787.0 0.0001284 7439.10303 7614.34424
7677.0 0.0001303 7437.86670 7678.20410
7817.0 0.0001279 7436.62939 7771.49609
7963.0 0.0001256 7435.39111 7902.60059
8087.0 0.0001237 7434.15234 8078.43164
8451.0 0.0001183 7432.91309 8301.77441
8570.0 0.0001167 7431.67236 8568.28906
8703.0 0.0001149 7430.43066 8863.95117
9133.0 0.0001095 7429.18848 9163.71191
9498.0 0.0001053 7427.94531 9431.98438
9621.0 0.0001039 7426.70117 9626.21875
9724.0 0.0001028 7425.45654 9706.96484
9637.0 0.0001038 7424.21094 9654.95898
9433.0 0.0001060 7422.96484 9482.56445
9192.0 0.0001088 7421.71729 9226.19922
8843.0 0.0001131 7420.46924 8928.91113
8540.0 0.0001171 7419.21973 8628.39648
8300.0 0.0001205 7417.97021 8348.91602
8251.0 0.0001212 7416.71924 8113.77344
7985.0 0.0001252 7415.46729 7925.94727
7874.0 0.0001270 7414.21484 7784.04785
7695.0 0.0001300 7412.96191 7681.87549
7723.0 0.0001295 7411.70752 7610.47119
7560.0 0.0001323 7410.45264 7563.14746
7519.0 0.0001330 7409.19629 7532.17285
7573.0 0.0001320 7407.93945 7512.19678
7571.0 0.0001321 7406.68213 7499.43359
7568.0 0.0001321 7405.42334 7491.38916
7468.0 0.0001339 7404.16406 7486.54248
7408.0 0.0001350 7402.90332 7484.08057
7609.0 0.0001314 7401.64258 7483.72314
7595.0 0.0001317 7400.38037 7485.63037
7505.0 0.0001332 7399.11768 7490.40820
7488.0 0.0001335 7397.85352 7499.17041
7617.0 0.0001313 7396.58887 7513.65576
7557.0 0.0001323 7395.32373 7536.36963
7724.0 0.0001295 7394.05713 7570.69971
7719.0 0.0001296 7392.79004 7620.97314
7723.0 0.0001295 7391.52148 7692.37012
7817.0 0.0001279 7390.25244 7790.64844
7785.0 0.0001285 7388.98242 7921.58301
8213.0 0.0001218 7387.71191 8090.19727
8265.0 0.0001210 7386.44043 8299.72070
8375.0 0.0001194 7385.16748 8550.46289
8397.0 0.0001191 7383.89453 8838.75586
9030.0 0.0001107 7382.62012 9156.15820
9389.0 0.0001065 7381.34521 9489.11621
9620.0 0.0001040 7380.06885 9819.17773
9940.0 0.0001006 7378.79199 10123.83203
10539.0 0.0000949 7377.51416 10378.14648
10771.0 0.0000928 7376.23584 10557.54980
10931.0 0.0000915 7374.95654 10642.11035
10856.0 0.0000921 7373.67578 10621.44434
10572.0 0.0000946 7372.39453 10497.89160
10463.0 0.0000956 7371.11230 10285.75879
10058.0 0.0000994 7369.82959 10007.19727
9485.0 0.0001054 7368.54541 9687.31250
9310.0 0.0001074 7367.26074 9350.41797
8726.0 0.0001146 7365.97510 9017.70996
8620.0 0.0001160 7364.68896 8705.94336
8217.0 0.0001217 7363.40186 8426.83398
8095.0 0.0001235 7362.11328 8187.04199
8074.0 0.0001239 7360.82471 7988.69385
7995.0 0.0001251 7359.53467 7830.29688
7899.0 0.0001266 7358.24414 7707.84131
7606.0 0.0001315 7356.95215 7615.91113
7762.0 0.0001288 7355.65967 7548.63672
7456.0 0.0001341 7354.36670 7500.39990
7552.0 0.0001324 7353.07227 7466.27441
7530.0 0.0001328 7351.77783 7442.23682
7459.0 0.0001341 7350.48145 7425.17432
7570.0 0.0001321 7349.18506 7412.81152
7488.0 0.0001335 7347.88721 7403.54688
7395.0 0.0001352 7346.58936 7396.30322
7494.0 0.0001334 7345.28955 7390.37988
7520.0 0.0001330 7343.98975 7385.33301
7399.0 0.0001352 7342.68945 7380.88721
7377.0 0.0001356 7341.38721 7376.86963
7401.0 0.0001351 7340.08496 7373.17773
7380.0 0.0001355 7338.78125 7369.74170
7317.0 0.0001367 7337.47754 7366.51807
7255.0 0.0001378 7336.17236 7363.47363
7325.0 0.0001365 7334.86670 7360.58447
7459.0 0.0001341 7333.56006 7357.83105
7344.0 0.0001362 7332.25244 7355.19873
7334.0 0.0001364 7330.94482 7352.67383
7263.0 0.0001377 7329.63525 7350.24268
7280.0 0.0001374 7328.32568 7347.89844
7366.0 0.0001358 7327.01465 7345.63037
7434.0 0.0001345 7325.70361 7343.43213
7349.0 0.0001361 7324.39111 7341.29639
7250.0 0.0001379 7323.07813 7339.21777
7373.0 0.0001356 7321.76465 7337.19043
7139.0 0.0001401 7320.44971 7335.21094
7436.0 0.0001345 7319.13477 7331.41699
7368.0 0.0001357 7317.81836 7329.56250
7362.0 0.0001358 7316.50146 7327.74414
7177.0 0.0001393 7315.18359 7325.95557
7279.0 0.0001374 7313.86523 7324.19775
7277.0 0.0001374 7312.54590 7322.46533
7188.0 0.0001391 7311.22607 7320.75977
7302.0 0.0001369 7309.90576 7319.07666
7238.0 0.0001382 7308.58398 7317.41650
7287.0 0.0001372 7307.26221 7315.77686
7427.0 0.0001346 7305.93896 7314.15820
7484.0 0.0001336 7304.61523 7312.55957
7250.0 0.0001379 7303.29053 7310.98242
7356.0 0.0001359 7301.96582 7309.42871
7274.0 0.0001375 7300.63965 7307.90039
7331.0 0.0001364 7299.31299 7306.40381
7093.0 0.0001410 7297.98584 7304.94629
7386.0 0.0001354 7296.65771 7303.54150
7271.0 0.0001375 7295.32910 7302.20752
7178.0 0.0001393 7293.99951 7300.96582
7191.0 0.0001391 7292.66943 7299.84033
7465.0 0.0001340 7291.33838 7298.85254
7392.0 0.0001353 7290.00684 7298.00732
7231.0 0.0001383 7288.67529 7297.28809
7367.0 0.0001357 7287.34180 7296.64453
7298.0 0.0001370 7286.00879 7295.98926
7277.0 0.0001374 7284.67383 7295.20020
7311.0 0.0001368 7283.33936 7294.14111
7277.0 0.0001374 7282.00342 7292.70215
7206.0 0.0001388 7280.66748 7290.87256
7147.0 0.0001399 7279.33057 7288.74268
7323.0 0.0001366 7277.99316 7286.45459
7156.0 0.0001397 7276.65527 7284.13672
7331.0 0.0001364 7275.31592 7281.88281
7250.0 0.0001379 7273.97705 7279.75391
7118.0 0.0001405 7272.63672 7277.76904
7322.0 0.0001366 7271.29639 7275.92725
7353.0 0.0001360 7269.95459 7274.20557
7312.0 0.0001368 7268.61279 7272.57813
7204.0 0.0001388 7267.27002 7271.02051
7254.0 0.0001379 7265.92725 7269.51074
7303.0 0.0001369 7264.58398 7268.03125
7348.0 0.0001361 7263.23926 7266.57275
7117.0 0.0001405 7261.89502 7265.12891
7363.0 0.0001358 7260.54932 7263.69336
7117.0 0.0001405 7259.20361 7262.26514
7171.0 0.0001395 7257.85645 7260.84033
7223.0 0.0001384 7256.50977 7259.42090
7339.0 0.0001363 7255.16260 7258.00391
7162.0 0.0001396 7253.81396 7256.58838
7202.0 0.0001389 7252.46533 7255.17578
7191.0 0.0001391 7251.11621 7253.76563
7326.0 0.0001365 7249.76660 7252.35791
7177.0 0.0001393 7248.41602 7250.95068
7221.0 0.0001385 7247.06543 7249.54590
7206.0 0.0001388 7245.71387 7245.75879
7248.0 0.0001380 7244.36230 7244.40430
7193.0 0.0001390 7243.01025 7243.04883
7113.0 0.0001406 7241.65723 7241.69336
7176.0 0.0001394 7240.30420 7240.33789
7235.0 0.0001382 7238.95020 7238.98242
7093.0 0.0001410 7237.59619 7237.62598
7246.0 0.0001380 7236.24121 7236.26953
7141.0 0.0001400 7234.88623 7234.91357
7216.0 0.0001386 7233.53027 7233.55615
7370.0 0.0001357 7232.17480 7232.19922
7108.0 0.0001407 7230.81836 7230.84180
7230.0 0.0001383 7229.46143 7229.48340
7081.0 0.0001412 7228.10449 7228.12549
7321.0 0.0001366 7226.74609 7226.76611
7326.0 0.0001365 7225.38867 7225.40820
7266.0 0.0001376 7224.02979 7224.04834
7225.0 0.0001384 7222.67090 7222.68848
7127.0 0.0001403 7221.31201 7221.32910
7126.0 0.0001403 7219.95215 7219.96826
7135.0 0.0001402 7218.59229 7218.60791
7283.0 0.0001373 7217.23145 7217.24658
7264.0 0.0001377 7215.87109 7215.88574
7143.0 0.0001400 7214.50977 7214.52344
7270.0 0.0001376 7213.14844 7213.16211
7286.0 0.0001372 7211.78613 7211.79932
7235.0 0.0001382 7210.42432 7210.43652
7305.0 0.0001369 7209.06201 7209.07324
7222.0 0.0001385 7207.69873 7207.70947
6999.0 0.0001429 7206.33594 7206.34619
7203.0 0.0001388 7204.97217 7204.98193
7021.0 0.0001424 7203.60889 7203.61865
7210.0 0.0001387 7202.24463 7202.25439
7307.0 0.0001369 7200.88037 7200.88916
7243.0 0.0001381 7199.51563 7199.52441
7283.0 0.0001373 7198.15088 7198.15967
7133.0 0.0001402 7196.78613 7196.79443
7213.0 0.0001386 7195.42041 7195.42822
7353.0 0.0001360 7194.05518 7194.06299
7354.0 0.0001360 7192.68896 7192.69629
7114.0 0.0001406 7191.32324 7191.33057
7146.0 0.0001399 7189.95654 7189.96387
7200.0 0.0001389 7188.59033 7188.59766
7139.0 0.0001401 7187.22363 7187.22998
7141.0 0.0001400 7185.85645 7185.86279
7095.0 0.0001409 7184.48975 7184.49609
7048.0 0.0001419 7183.12207 7183.12842
6956.0 0.0001438 7181.75488 7181.76074
7251.0 0.0001379 7180.38672 7180.39258
7250.0 0.0001379 7179.01904 7179.02490
7245.0 0.0001380 7177.65088 7177.65625
7111.0 0.0001406 7176.28271 7176.28809
7146.0 0.0001399 7174.91504 7174.92041
7176.0 0.0001394 7173.54590 7173.55078
7107.0 0.0001407 7172.17773 7172.18262
7109.0 0.0001407 7170.80859 7170.81348
7169.0 0.0001395 7169.43994 7169.44482
7272.0 0.0001375 7168.07080 7168.07568
7177.0 0.0001393 7166.70166 7166.72949
7021.0 0.0001424 7165.33252 7165.36084
7113.0 0.0001406 7163.96338 7163.99121
7143.0 0.0001400 7162.59424 7162.62305
7118.0 0.0001405 7161.22461 7161.25391
7147.0 0.0001399 7159.85498 7159.88477
7094.0 0.0001410 7158.48535 7158.51611
7105.0 0.0001407 7157.11621 7157.69336
7263.0 0.0001377 7155.74609 7156.33154
7088.0 0.0001411 7154.37646 7154.97314
7062.0 0.0001416 7153.00684 7153.61572
7249.0 0.0001380 7151.63672 7152.25830
7156.0 0.0001397 7150.26709 7150.90137
7226.0 0.0001384 7148.89697 7149.54443
7142.0 0.0001400 7147.52783 7148.18945
7188.0 0.0001391 7146.15723 7146.83252
7317.0 0.0001367 7144.78809 7145.47852
7181.0 0.0001393 7143.41797 7144.12305
7220.0 0.0001385 7142.04834 7142.76953
7210.0 0.0001387 7140.67871 7141.41602
7135.0 0.0001402 7139.30859 7140.06299
7288.0 0.0001372 7137.93896 7138.71045
7116.0 0.0001405 7136.56934 7137.35938
7080.0 0.0001412 7135.19971 7136.00781
7088.0 0.0001411 7133.83008 7134.65771
7158.0 0.0001397 7132.46045 7133.30811
7160.0 0.0001397 7131.09082 7131.95850
7092.0 0.0001410 7129.72168 7130.61084
7141.0 0.0001400 7128.35303 7129.26514
7278.0 0.0001374 7126.98340 7127.91846
7129.0 0.0001403 7125.61426 7126.57324
7079.0 0.0001413 7124.24512 7125.22949
7106.0 0.0001407 7122.87646 7123.88672
7103.0 0.0001408 7121.50732 7122.54492
7145.0 0.0001400 7120.13916 7121.20557
7134.0 0.0001402 7118.77100 7119.86621
7138.0 0.0001401 7117.40234 7118.52881
7028.0 0.0001423 7116.03418 7117.19287
7051.0 0.0001418 7114.66602 7115.85791
7291.0 0.0001372 7113.29834 7114.52588
7062.0 0.0001416 7111.93018 7113.19434
7161.0 0.0001396 7110.56299 7111.86475
7101.0 0.0001408 7109.19531 7110.53809
7013.0 0.0001426 7107.82813 7109.21289
7023.0 0.0001424 7106.46143 7107.89014
7106.0 0.0001407 7105.09424 7106.56982
7098.0 0.0001409 7103.72803 7105.25195
7238.0 0.0001382 7102.36084 7103.93652
7116.0 0.0001405 7100.99512 7102.62500
7099.0 0.0001409 7099.62842 7101.31592
7048.0 0.0001419 7098.26318 7100.01025
7037.0 0.0001421 7096.89697 7098.70801
7087.0 0.0001411 7095.53223 7097.41064
7083.0 0.0001412 7094.16699 7096.11719
7108.0 0.0001407 7092.80176 7094.82813
7190.0 0.0001391 7091.43750 7093.54443
7130.0 0.0001403 7090.07275 7092.26611
7109.0 0.0001407 7088.70898 7090.99414
7077.0 0.0001413 7087.34473 7089.72803
7120.0 0.0001404 7085.98145 7088.47021
7079.0 0.0001413 7084.61816 7087.21924
7173.0 0.0001394 7083.25488 7085.97803
7060.0 0.0001416 7081.89209 7084.74561
7025.0 0.0001423 7080.52930 7083.52588
7171.0 0.0001395 7079.16748 7082.31885
7189.0 0.0001391 7077.80518 7081.12598
7015.0 0.0001426 7076.44385 7079.95313
7107.0 0.0001407 7075.08203 7078.80469
7052.0 0.0001418 7073.72119 7077.69238
7100.0 0.0001408 7072.36084 7076.63184
7120.0 0.0001404 7071.00049 7075.64990
6968.0 0.0001435 7069.64063 7074.78955
7180.0 0.0001393 7068.28027 7074.10889
7058.0 0.0001417 7066.92139 7073.68701
7195.0 0.0001390 7065.56201 7073.61328
7047.0 0.0001419 7064.20361 7073.97949
7061.0 0.0001416 7062.84473 7074.85400
7049.0 0.0001419 7061.48682 7076.25732
7032.0 0.0001422 7060.12939 7078.13330
6998.0 0.0001429 7058.77197 7080.32568
7076.0 0.0001413 7057.41504 7082.57178
7016.0 0.0001425 7056.05811 7084.50684
7195.0 0.0001390 7054.70215 7085.70459
7067.0 0.0001415 7053.34619 7085.78809
7074.0 0.0001414 7051.99072 7084.61035
7121.0 0.0001404 7050.63574 7082.36230
7044.0 0.0001420 7049.28076 7079.51563
7125.0 0.0001404 7047.92676 7076.66162
7027.0 0.0001423 7046.57275 7074.42139
7152.0 0.0001398 7045.21924 7073.43311
7175.0 0.0001394 7043.86572 7074.58447
7172.0 0.0001394 7042.51318 7078.21143
6944.0 0.0001440 7041.16064 7085.37305
7071.0 0.0001414 7039.80859 7097.02197
7199.0 0.0001389 7038.45752 7114.16064
7112.0 0.0001406 7037.10596 7137.71875
7201.0 0.0001389 7035.75537 7168.38232
7124.0 0.0001404 7034.40479 7206.35547
7399.0 0.0001352 7033.05518 7251.13916
7314.0 0.0001367 7031.70508 7301.33838
7354.0 0.0001360 7030.35645 7354.57129
7431.0 0.0001346 7029.00732 7407.48584
7432.0 0.0001346 7027.65918 7455.92139
7691.0 0.0001300 7026.31201 7495.26709
7709.0 0.0001297 7024.96436 7521.12256
7680.0 0.0001302 7023.61719 7530.34619
7749.0 0.0001290 7022.27051 7522.12646
7592.0 0.0001317 7020.92480 7498.36523
7612.0 0.0001314 7019.57861 7463.05078
7319.0 0.0001366 7018.23389 7421.11035
7432.0 0.0001346 7016.88916 7377.40576
7413.0 0.0001349 7015.54443 7336.11475
7273.0 0.0001375 7014.20068 7300.39160
7183.0 0.0001392 7012.85693 7272.20752
7225.0 0.0001384 7011.51465 7252.34082
7261.0 0.0001377 7010.17139 7240.47461
7215.0 0.0001386 7008.82959 7235.41064
7221.0 0.0001385 7007.48779 7235.31738
7246.0 0.0001380 7006.14648 7238.00879
7313.0 0.0001367 7004.80615 7241.20605
7188.0 0.0001391 7003.46533 7242.79443
7270.0 0.0001376 7002.12598 7241.10156
7113.0 0.0001406 7000.78613 7235.09668
7200.0 0.0001389 6999.44727 7224.49951
7254.0 0.0001379 6998.10840 7209.69531
7144.0 0.0001400 6996.77100 7191.52686
7232.0 0.0001383 6995.43311 7171.05420
7078.0 0.0001413 6994.09619 7149.37207
7108.0 0.0001407 6992.75928 7127.49121
7129.0 0.0001403 6991.42285 7106.27051
6980.0 0.0001433 6990.08740 7086.38379
6984.0 0.0001432 6988.75195 7068.30127
7165.0 0.0001396 6987.41699 7052.30029
7227.0 0.0001384 6986.08252 7038.48242
7055.0 0.0001417 6984.74854 7026.79883
6990.0 0.0001431 6983.41504 7017.09570
6957.0 0.0001437 6982.08203 7009.14697
7067.0 0.0001415 6980.74951 7002.69189
7028.0 0.0001423 6979.41699 6997.46484
7061.0 0.0001416 6978.08545 6993.21631
7151.0 0.0001398 6976.75391 6989.72363
6853.0 0.0001459 6975.42334 6986.80322
6956.0 0.0001438 6974.09229 6984.30420
6931.0 0.0001443 6972.76270 6982.11621
6963.0 0.0001436 6971.43311 6980.14990
7073.0 0.0001414 6970.10400 6978.34863
6859.0 0.0001458 6968.77539 6976.66748
6964.0 0.0001436 6967.44678 6975.07861
7027.0 0.0001423 6966.11963 6973.56641
7069.0 0.0001415 6964.79199 6972.11670
7098.0 0.0001409 6963.46484 6970.72510
7093.0 0.0001410 6962.13818 6969.39160
6975.0 0.0001434 6960.81250 6968.11621
7063.0 0.0001416 6959.48682 6966.90479
7035.0 0.0001421 6958.16162 6965.76807
6927.0 0.0001444 6956.83691 6964.72363
6949.0 0.0001439 6955.51221 6963.80225
6842.0 0.0001462 6954.18848 6963.05469
7079.0 0.0001413 6952.86475 6962.56348
6905.0 0.0001448 6951.54150 6962.45996
6904.0 0.0001448 6950.21924 6962.95850
6965.0 0.0001436 6948.89648 6964.38965
6965.0 0.0001436 6947.57471 6967.26270
6925.0 0.0001444 6946.25293 6972.31836
7011.0 0.0001426 6944.93213 6980.56250
6942.0 0.0001441 6943.61084 6993.21240
6959.0 0.0001437 6942.29102 7011.46484
7143.0 0.0001400 6940.97070 7036.18164
7203.0 0.0001388 6939.65137 7067.18311
6947.0 0.0001439 6938.33203 7102.75391
7003.0 0.0001428 6937.01318 7139.20410
7112.0 0.0001406 6935.69482 7170.75439
7215.0 0.0001386 6934.37646 7190.18311
7231.0 0.0001383 6933.05908 7191.44482
7214.0 0.0001386 6931.74121 7173.66943
7311.0 0.0001368 6930.42432 7142.12549
7124.0 0.0001404 6929.10742 7103.58789
7073.0 0.0001414 6927.79102 7064.58496
6953.0 0.0001438 6926.47559 7029.37207
6976.0 0.0001433 6925.15967 7000.15576
7065.0 0.0001415 6923.84424 6977.45654
6915.0 0.0001446 6922.52930 6960.65869
7014.0 0.0001426 6921.21484 6948.60156
7055.0 0.0001417 6919.89990 6940.03662
6888.0 0.0001452 6918.58643 6933.89355
6897.0 0.0001450 6917.27295 6929.35889
6869.0 0.0001456 6915.95898 6925.86621
6874.0 0.0001455 6914.64600 6923.04297
7044.0 0.0001420 6913.33301 6920.71875
6793.0 0.0001472 6912.02051 6918.60156
6875.0 0.0001455 6910.70801 6916.66602
6944.0 0.0001440 6909.39648 6914.85205
6827.0 0.0001465 6908.08447 6913.12402
7078.0 0.0001413 6906.77344 6911.46094
6961.0 0.0001437 6905.46240 6909.84619
6945.0 0.0001440 6904.15088 6908.26953
6764.0 0.0001478 6902.84082 6906.72754
6908.0 0.0001448 6901.52979 6905.21094
6924.0 0.0001444 6900.21973 6903.71924
6947.0 0.0001439 6898.90967 6902.24561
6928.0 0.0001443 6897.60010 6900.79199
6910.0 0.0001447 6896.29053 6899.35303
6931.0 0.0001443 6894.98145 6897.92773
6880.0 0.0001453 6893.67236 6896.16553
6924.0 0.0001444 6892.36328 6894.77002
6779.0 0.0001475 6891.05518 6893.38428
6820.0 0.0001466 6889.74609 6892.00635
6840.0 0.0001462 6888.43799 6890.63818
6978.0 0.0001433 6887.12988 6889.27490
7111.0 0.0001406 6885.82227 6887.92041
6868.0 0.0001456 6884.51465 6886.57080
6932.0 0.0001443 6883.20654 6885.22559
6853.0 0.0001459 6881.89941 6883.88721
6920.0 0.0001445 6880.59180 6882.55273
6914.0 0.0001446 6879.28467 6881.22412
6736.0 0.0001485 6877.97754 6879.89941
6887.0 0.0001452 6876.67090 6878.57861
6968.0 0.0001435 6875.36377 6877.26172
6766.0 0.0001478 6874.05713 6875.94971
6801.0 0.0001470 6872.75098 6874.64258
6816.0 0.0001467 6871.44434 6873.33838
6865.0 0.0001457 6870.13818 6872.32910
6927.0 0.0001444 6868.83154 6871.03809
6759.0 0.0001480 6867.52539 6869.75146
6753.0 0.0001481 6866.21875 6868.46777
7026.0 0.0001423 6864.91309 6867.19092
6808.0 0.0001469 6863.60645 6865.91699
6744.0 0.0001483 6862.30078 6864.64697
6951.0 0.0001439 6860.99512 6863.38281
6818.0 0.0001467 6859.68896 6862.12207
6803.0 0.0001470 6858.38281 6860.86768
6851.0 0.0001460 6857.07666 6859.61768
6932.0 0.0001443 6855.77100 6858.37500
6956.0 0.0001438 6854.46484 6857.13770
6957.0 0.0001437 6853.15918 6855.90723
6835.0 0.0001463 6851.85352 6854.68457
6758.0 0.0001480 6850.54736 6853.67432
6849.0 0.0001460 6849.24121 6852.47949
6805.0 0.0001470 6847.93506 6851.82129
6792.0 0.0001472 6846.62891 6850.65674
6789.0 0.0001473 6845.32275 6849.50439
6787.0 0.0001473 6844.01660 6848.36426
6881.0 0.0001453 6842.70996 6847.23877
6780.0 0.0001475 6841.40381 6846.13037
6919.0 0.0001445 6840.09717 6845.03809
6837.0 0.0001463 6838.79053 6843.96777
6660.0 0.0001502 6837.48389 6842.92041
6956.0 0.0001438 6836.17676 6841.89844
6838.0 0.0001462 6834.87012 6840.90674
7016.0 0.0001425 6833.56250 6839.94775
6850.0 0.0001460 6832.25586 6839.02979
6835.0 0.0001463 6830.94775 6838.15674
7007.0 0.0001427 6829.64063 6837.34180
6820.0 0.0001466 6828.33301 6836.59912
6751.0 0.0001481 6827.02490 6835.95166
6750.0 0.0001481 6825.71680 6835.44043
6783.0 0.0001474 6824.40820 6834.92627
6884.0 0.0001453 6823.10010 6834.94434
6867.0 0.0001456 6821.79102 6835.46533
6795.0 0.0001472 6820.48242 6836.78467
6755.0 0.0001480 6819.17334 6839.33301
6752.0 0.0001481 6817.86377 6843.71045
6877.0 0.0001454 6816.55420 6850.68848
6955.0 0.0001438 6815.24365 6861.16797
6957.0 0.0001437 6813.93359 6876.08057
6847.0 0.0001460 6812.62305 6896.21582
6881.0 0.0001453 6811.31250 6921.99854
6834.0 0.0001463 6810.00098 6953.23926
6876.0 0.0001454 6808.68994 6988.92578
6872.0 0.0001455 6807.37842 7027.07764
6913.0 0.0001447 6806.06592 7064.71680
7114.0 0.0001406 6804.75391 7097.99023
7184.0 0.0001392 6803.44092 7122.55615
7178.0 0.0001393 6802.12793 7134.53906
7107.0 0.0001407 6800.81445 7132.06445
7234.0 0.0001382 6799.50049 7115.86035
7045.0 0.0001419 6798.18604 7089.45166
7136.0 0.0001401 6796.87207 7057.33496
6945.0 0.0001440 6795.55713 7023.79688
6838.0 0.0001462 6794.24170 6992.24268
6817.0 0.0001467 6792.92578 6964.95117
6986.0 0.0001431 6791.60938 6943.02734
6863.0 0.0001457 6790.29297 6926.50439
6981.0 0.0001432 6788.97559 6914.54590
6961.0 0.0001437 6787.65820 6905.74756
7064.0 0.0001416 6786.34033 6898.49756
6871.0 0.0001455 6785.02148 6891.37158
6853.0 0.0001459 6783.70313 6883.44678
6925.0 0.0001444 6782.38330 6874.39795
6891.0 0.0001451 6781.06348 6864.38965
6807.0 0.0001469 6779.74268 6853.84619
6794.0 0.0001472 6778.42188 6843.27783
6832.0 0.0001464 6777.10010 6833.16162
6874.0 0.0001455 6775.77832 6823.88770
6932.0 0.0001443 6774.45605 6815.71826
6809.0 0.0001469 6773.13232 6808.79053
6838.0 0.0001462 6771.80908 6803.12598
6717.0 0.0001489 6770.48438 6798.65674
6808.0 0.0001469 6769.15967 6795.26367
6881.0 0.0001453 6767.83398 6792.80713
6764.0 0.0001478 6766.50830 6791.16260
6708.0 0.0001491 6765.18115 6790.24072
6772.0 0.0001477 6763.85400 6790.01855
6754.0 0.0001481 6762.52637 6790.56494
6788.0 0.0001473 6761.19727 6792.07031
6856.0 0.0001459 6759.86865 6794.91064
6723.0 0.0001487 6758.53857 6799.70459
6843.0 0.0001461 6757.20801 6807.42090
6919.0 0.0001445 6755.87646 6819.50342
6927.0 0.0001444 6754.54492 6838.02344
6748.0 0.0001482 6753.21240 6865.80176
6973.0 0.0001434 6751.87891 6906.39404
6905.0 0.0001448 6750.54492 6963.75977
6898.0 0.0001450 6749.20996 7041.39404
7213.0 0.0001386 6747.87500 7140.86621
7273.0 0.0001375 6746.53857 7259.96240
7323.0 0.0001366 6745.20166 7390.91846
7326.0 0.0001365 6743.86377 7519.27881
7550.0 0.0001325 6742.52539 7623.92773
7685.0 0.0001301 6741.18652 7680.46240
7513.0 0.0001331 6739.84619 7671.78174
7765.0 0.0001288 6738.50586 7600.75439
7467.0 0.0001339 6737.16357 7486.57178
7284.0 0.0001373 6735.82178 7353.94971
7156.0 0.0001397 6734.47803 7222.63721
6986.0 0.0001431 6733.13428 7106.25586
7056.0 0.0001417 6731.78906 7009.84863
6920.0 0.0001445 6730.44385 6935.35352
7025.0 0.0001423 6729.09717 6880.68457
6864.0 0.0001457 6727.74951 6842.23584
6840.0 0.0001462 6726.40186 6816.22412
6745.0 0.0001483 6725.05225 6799.42383
6837.0 0.0001463 6723.70215 6789.42529
6748.0 0.0001482 6722.35107 6784.60156
6910.0 0.0001447 6720.99951 6783.97607
6798.0 0.0001471 6719.64697 6787.06543
6886.0 0.0001452 6718.29297 6793.74219
6780.0 0.0001475 6716.93896 6804.11914
6822.0 0.0001466 6715.58301 6818.43457
6750.0 0.0001481 6714.22656 6836.96582
6753.0 0.0001481 6712.86914 6859.92725
6863.0 0.0001457 6711.51123 6887.40137
6806.0 0.0001469 6710.15137 6919.24951
6933.0 0.0001442 6708.79150 6955.05957
7072.0 0.0001414 6707.43066 6994.09521
6945.0 0.0001440 6706.06787 7035.27686
6960.0 0.0001437 6704.70508 7077.18115
6924.0 0.0001444 6703.34033 7118.05664
7175.0 0.0001394 6701.97559 7155.88818
7231.0 0.0001383 6700.60889 7188.48584
7178.0 0.0001393 6699.24219 7213.64990
7265.0 0.0001376 6697.87354 7229.41846
7401.0 0.0001351 6696.50439 7234.38477
7263.0 0.0001377 6695.13428 7227.98633
7207.0 0.0001388 6693.76270 7210.62842
7250.0 0.0001379 6692.39014 7183.59619
7204.0 0.0001388 6691.01660 7148.77832
7149.0 0.0001399 6689.64209 7108.34863
6911.0 0.0001447 6688.26611 7064.50293
6878.0 0.0001454 6686.88965 7019.28564
6972.0 0.0001434 6685.51221 6974.48096
6881.0 0.0001453 6684.13281 6931.55566
6876.0 0.0001454 6682.75293 6891.62988
6843.0 0.0001461 6681.37158 6855.47510
6773.0 0.0001476 6679.98975 6823.52686
6702.0 0.0001492 6678.60596 6795.92480
6951.0 0.0001439 6677.22168 6772.56592
6852.0 0.0001459 6675.83545 6753.16455
6683.0 0.0001496 6674.44922 6737.31104
6632.0 0.0001508 6673.06152 6724.52979
6721.0 0.0001488 6671.67188 6714.32813
6723.0 0.0001487 6670.28223 6706.05859
6814.0 0.0001468 6668.89014 6699.64600
6893.0 0.0001451 6667.49805 6694.54004
6664.0 0.0001501 6666.10400 6690.43018
6784.0 0.0001474 6664.70947 6687.07471
6854.0 0.0001459 6663.31299 6684.28271
6710.0 0.0001490 6661.91602 6681.91602
6684.0 0.0001496 6660.51758 6679.87744
6663.0 0.0001501 6659.11768 6678.10400
6745.0 0.0001483 6657.71680 6676.56006
6684.0 0.0001496 6656.31445 6675.23096
6615.0 0.0001512 6654.91162 6674.12158
6622.0 0.0001510 6653.50635 6673.25342
6790.0 0.0001473 6652.10107 6672.58936
6637.0 0.0001507 6650.69434 6672.31982
6657.0 0.0001502 6649.28564 6672.42969
6615.0 0.0001512 6647.87646 6672.98682
6713.0 0.0001490 6646.46533 6674.06348
6659.0 0.0001502 6645.05371 6675.73633
6583.0 0.0001519 6643.64014 6678.07764
6664.0 0.0001501 6642.22607 6681.15527
6676.0 0.0001498 6640.81006 6685.02002
6675.0 0.0001498 6639.39307 6689.70752
6689.0 0.0001495 6637.97510 6695.22070
6898.0 0.0001450 6636.55518 6701.53906
6676.0 0.0001498 6635.13477 6708.60693
6795.0 0.0001472 6633.71240 6716.33936
6712.0 0.0001490 6632.28906 6724.63232
6604.0 0.0001514 6630.86426 6733.37402
6794.0 0.0001472 6629.43848 6742.47168
6859.0 0.0001458 6628.01074 6751.88818
6978.0 0.0001433 6626.58252 6761.69580
6776.0 0.0001476 6625.15283 6772.14404
6800.0 0.0001471 6623.72168 6783.75537
6954.0 0.0001438 6622.28906 6797.41992
6900.0 0.0001449 6620.85498 6814.48340
6830.0 0.0001464 6619.42041 6836.78076
6798.0 0.0001471 6617.98340 6866.57813
7005.0 0.0001428 6616.54639 6906.38574
7077.0 0.0001413 6615.10742 6958.62842
7024.0 0.0001424 6613.66650 7025.19873
7141.0 0.0001400 6612.22559 7106.94336
7143.0 0.0001400 6610.78223 7203.15967
7164.0 0.0001396 6609.33789 7311.21777
7325.0 0.0001365 6607.89209 7426.34814
7183.0 0.0001392 6606.44531 7541.68604
7361.0 0.0001359 6604.99658 7648.03174
7594.0 0.0001317 6603.54736 7737.17334
7853.0 0.0001273 6602.09668 7800.13330
7717.0 0.0001296 6600.64404 7831.75146
7820.0 0.0001279 6599.19043 7831.21094
7747.0 0.0001291 6597.73486 7801.27051
7781.0 0.0001285 6596.27881 7746.63330
7658.0 0.0001306 6594.82080 7672.74609
7655.0 0.0001306 6593.36230 7585.24414
7509.0 0.0001332 6591.90137 7489.55957
7509.0 0.0001332 6590.43994 7390.55566
7277.0 0.0001374 6588.97705 7292.20459
7267.0 0.0001376 6587.51221 7197.49707
7048.0 0.0001419 6586.04688 7108.50439
7016.0 0.0001425 6584.57959 7026.56885
6797.0 0.0001471 6583.11133 6952.48779
7052.0 0.0001418 6581.64111 6886.65186
6966.0 0.0001436 6580.17041 6829.14063
6856.0 0.0001459 6578.69775 6779.76660
6852.0 0.0001459 6577.22363 6738.11572
6725.0 0.0001487 6575.74902 6703.58398
6617.0 0.0001511 6574.27197 6675.42480
6709.0 0.0001491 6572.79443 6652.80566
6759.0 0.0001480 6571.31494 6634.86426
6570.0 0.0001522 6569.83447 6620.76514
6749.0 0.0001482 6568.35205 6609.73633
6514.0 0.0001535 6566.86914 6601.09961
6609.0 0.0001513 6565.38477 6594.28320
6483.0 0.0001542 6563.89844 6588.81934
6562.0 0.0001524 6562.41113 6584.34570
6508.0 0.0001537 6560.92236 6580.58447
6684.0 0.0001496 6559.43262 6577.33105
6529.0 0.0001532 6557.94092 6574.43848
6571.0 0.0001522 6556.44873 6571.80420
6595.0 0.0001516 6554.95410 6569.35596
6632.0 0.0001508 6553.45898 6567.04639
6484.0 0.0001542 6551.96289 6564.84277
6630.0 0.0001508 6550.46436 6562.72266
6575.0 0.0001521 6548.96533 6560.67480
6507.0 0.0001537 6547.46436 6558.68604
6502.0 0.0001538 6545.96240 6556.75635
6532.0 0.0001531 6544.45898 6554.88086
6586.0 0.0001518 6542.95459 6553.06299
6477.0 0.0001544 6541.44873 6551.30762
6510.0 0.0001536 6539.94141 6549.62598
6565.0 0.0001523 6538.43311 6548.03369
6563.0 0.0001524 6536.92285 6546.55615
6636.0 0.0001507 6535.41162 6545.22559
6573.0 0.0001521 6533.89893 6544.08740
6507.0 0.0001537 6532.38525 6542.67139
6510.0 0.0001536 6530.86963 6542.10938
6439.0 0.0001553 6529.35352 6541.94922
6597.0 0.0001516 6527.83643 6542.28076
6568.0 0.0001523 6526.31689 6543.19873
6608.0 0.0001513 6524.79688 6544.79932
6429.0 0.0001555 6523.27490 6547.16455
6606.0 0.0001514 6521.75244 6550.35400
6437.0 0.0001554 6520.22803 6554.39063
6600.0 0.0001515 6518.70264 6559.25098
6482.0 0.0001543 6517.17578 6564.85449
6677.0 0.0001498 6515.64795 6571.05127
6509.0 0.0001536 6514.11914 6577.62305
6562.0 0.0001524 6512.58838 6584.28516
6551.0 0.0001526 6511.05664 6590.69385
6583.0 0.0001519 6509.52344 6596.45752
6687.0 0.0001495 6507.98975 6601.16260
6671.0 0.0001499 6506.45410 6604.40430
6613.0 0.0001512 6504.91748 6605.83252
6599.0 0.0001515 6503.37988 6605.20801
6698.0 0.0001493 6501.84033 6602.44775
6659.0 0.0001502 6500.30029 6597.64502
6629.0 0.0001509 6498.75830 6591.04541
6627.0 0.0001509 6497.21582 6583.00537
6547.0 0.0001527 6495.67139 6573.92871
6543.0 0.0001528 6494.12646 6564.22998
6409.0 0.0001560 6492.57959 6554.29639
6562.0 0.0001524 6491.03223 6544.46729
6472.0 0.0001545 6489.48389 6535.02637
6535.0 0.0001530 6487.93359 6526.18311
6536.0 0.0001530 6486.38281 6518.08447
6506.0 0.0001537 6484.83008 6510.80518
6439.0 0.0001553 6483.27686 6504.36816
6449.0 0.0001551 6481.72168 6498.74316
6481.0 0.0001543 6480.16602 6493.86963
6518.0 0.0001534 6478.60889 6489.72266
6601.0 0.0001515 6477.05127 6486.08887
6492.0 0.0001540 6475.49219 6482.92822
6593.0 0.0001517 6473.93164 6480.14844
6433.0 0.0001554 6472.37012 6477.66943
6387.0 0.0001566 6470.80713 6475.41797
6520.0 0.0001534 6469.24365 6473.33887
6560.0 0.0001524 6467.67871 6471.38330
6484.0 0.0001542 6466.11279 6469.52002
6341.0 0.0001577 6464.54639 6467.71924
6470.0 0.0001546 6462.97754 6465.96436
6476.0 0.0001544 6461.40869 6464.24023
6502.0 0.0001538 6459.83789 6462.54004
6434.0 0.0001554 6458.26709 6460.85449
6469.0 0.0001546 6456.69434 6459.18066
6342.0 0.0001577 6455.12109 6457.51611
6602.0 0.0001515 6453.54639 6455.85791
6437.0 0.0001554 6451.97070 6454.20459
6385.0 0.0001566 6450.39453 6452.55762
6370.0 0.0001570 6448.81641 6450.91162
6425.0 0.0001556 6447.23779 6449.27051
6560.0 0.0001524 6445.65820 6447.79590
6536.0 0.0001530 6444.07764 6446.16357
6336.0 0.0001578 6442.49561 6444.53271
6467.0 0.0001546 6440.91309 6442.90332
6250.0 0.0001600 6439.32910 6441.27686
6383.0 0.0001567 6437.74463 6439.65088
6585.0 0.0001519 6436.15918 6438.02686
6472.0 0.0001545 6434.57227 6436.40479
6507.0 0.0001537 6432.98535 6434.78369
6541.0 0.0001529 6431.39648 6433.16357
6311.0 0.0001585 6429.80713 6431.54297
6498.0 0.0001539 6428.21631 6429.92432
6428.0 0.0001556 6426.62549 6428.30615
6446.0 0.0001551 6425.03320 6426.68896
6447.0 0.0001551 6423.43994 6425.07227
6438.0 0.0001553 6421.84619 6423.45703
6416.0 0.0001559 6420.25049 6420.94922
6331.0 0.0001580 6418.65527 6419.34961
6468.0 0.0001546 6417.05811 6417.74902
6417.0 0.0001558 6415.46045 6416.14941
6462.0 0.0001548 6413.86182 6414.54834
6320.0 0.0001582 6412.26270 6412.94873
6469.0 0.0001546 6410.66260 6411.34814
6359.0 0.0001573 6409.06104 6409.74805
6575.0 0.0001521 6407.45947 6408.14795
6392.0 0.0001564 6405.85645 6406.54688
6469.0 0.0001546 6404.25342 6404.94727
6421.0 0.0001557 6402.64893 6403.35889
6512.0 0.0001536 6401.04395 6401.75879
6510.0 0.0001536 6399.43750 6400.15820
6427.0 0.0001556 6397.83105 6398.55811
6313.0 0.0001584 6396.22363 6396.95850
6267.0 0.0001596 6394.61523 6395.43555
6493.0 0.0001540 6393.00635 6393.83691
6311.0 0.0001585 6391.39600 6392.23779
6467.0 0.0001546 6389.78564 6390.63965
6447.0 0.0001551 6388.17383 6389.04150
6335.0 0.0001579 6386.56201 6387.44336
6355.0 0.0001574 6384.94971 6385.84619
6540.0 0.0001529 6383.33594 6384.24902
6443.0 0.0001552 6381.72217 6382.65283
6447.0 0.0001551 6380.10645 6381.05566
6404.0 0.0001562 6378.49121 6379.46631
6369.0 0.0001570 6376.87451 6377.87109
6418.0 0.0001558 6375.25781 6376.27783
6270.0 0.0001595 6373.64014 6374.68408
6366.0 0.0001571 6372.02197 6373.09131
6352.0 0.0001574 6370.40332 6371.58447
6369.0 0.0001570 6368.78320 6370.31299
6359.0 0.0001573 6367.16309 6368.73145
6431.0 0.0001555 6365.54199 6367.15137
6501.0 0.0001538 6363.92090 6365.57471
6263.0 0.0001597 6362.29834 6363.99756
6258.0 0.0001598 6360.67578 6362.42285
6393.0 0.0001564 6359.05225 6360.85205
6205.0 0.0001612 6357.42871 6359.28271
6280.0 0.0001592 6355.80420 6357.71631
6263.0 0.0001597 6354.17920 6356.15381
6222.0 0.0001607 6352.55371 6354.59326
6214.0 0.0001609 6350.92725 6353.03711
6337.0 0.0001578 6349.30078 6351.48682
6194.0 0.0001614 6347.67334 6349.93945
6426.0 0.0001556 6346.04590 6348.39941
6312.0 0.0001584 6344.41748 6346.86719
6222.0 0.0001607 6342.78857 6345.34375
6202.0 0.0001612 6341.15967 6343.83252
6387.0 0.0001566 6339.52930 6342.33643
6327.0 0.0001581 6337.89941 6340.86279
6395.0 0.0001564 6336.26807 6339.41650
6329.0 0.0001580 6334.63721 6338.01270
6328.0 0.0001580 6333.00488 6336.66455
6358.0 0.0001573 6331.37305 6335.39209
6361.0 0.0001572 6329.74072 6334.22461
6314.0 0.0001584 6328.10693 6333.19434
6385.0 0.0001566 6326.47363 6332.34766
6305.0 0.0001586 6324.83936 6331.73389
6402.0 0.0001562 6323.20508 6331.41504
6366.0 0.0001571 6321.57031 6331.38135
6363.0 0.0001572 6319.93506 6331.85449
6350.0 0.0001575 6318.29932 6332.82715
6447.0 0.0001551 6316.66357 6334.36084
6411.0 0.0001560 6315.02734 6336.51611
6255.0 0.0001599 6313.39014 6339.28613
6372.0 0.0001569 6311.75342 6342.68018
6266.0 0.0001596 6310.11523 6346.65088
6355.0 0.0001574 6308.47754 6351.11377
6457.0 0.0001549 6306.83936 6355.93701
6352.0 0.0001574 6305.20068 6360.94287
6435.0 0.0001554 6303.56201 6365.92383
6344.0 0.0001576 6301.92285 6370.63721
6507.0 0.0001537 6300.28320 6374.83447
6455.0 0.0001549 6298.64307 6378.27197
6507.0 0.0001537 6297.00342 6380.74658
6431.0 0.0001555 6295.36230 6382.12549
6411.0 0.0001560 6293.72217 6382.39160
6512.0 0.0001536 6292.08057 6381.65918
6397.0 0.0001563 6290.43945 6380.18213
6353.0 0.0001574 6288.79834 6378.32910
6330.0 0.0001580 6287.15625 6376.54443
6451.0 0.0001550 6285.51416 6375.30078
6389.0 0.0001565 6283.87158 6375.05615
6431.0 0.0001555 6282.22900 6376.22314
6308.0 0.0001585 6280.58594 6379.12061
6327.0 0.0001581 6278.94336 6383.95508
6423.0 0.0001557 6277.29932 6390.78516
6379.0 0.0001568 6275.65625 6399.51123
6479.0 0.0001543 6274.01270 6409.86475
6415.0 0.0001559 6272.36816 6421.40674
6470.0 0.0001546 6270.72461 6433.55420
6374.0 0.0001569 6269.07959 6445.59180
6384.0 0.0001566 6267.43555 6456.72314
6567.0 0.0001523 6265.79053 6466.11328
6486.0 0.0001542 6264.14600 6472.97119
6487.0 0.0001542 6262.50098 6476.62500
6489.0 0.0001541 6260.85547 6476.64111
6353.0 0.0001574 6259.21045 6472.89014
6522.0 0.0001533 6257.56445 6465.57861
6410.0 0.0001560 6255.91895 6455.20313
6365.0 0.0001571 6254.27246 6442.45361
6453.0 0.0001550 6252.62695 6428.11084
6485.0 0.0001542 6250.98047 6412.92773
6355.0 0.0001574 6249.33447 6397.56445
6466.0 0.0001547 6247.68848 6382.52490
6316.0 0.0001583 6246.04150 6368.12744
6288.0 0.0001590 6244.39502 6354.51318
6273.0 0.0001594 6242.74805 6341.68457
6466.0 0.0001547 6241.10156 6329.67627
6319.0 0.0001583 6239.45410 6318.71338
6428.0 0.0001556 6237.80713 6309.28369
6378.0 0.0001568 6236.15967 6301.99072
6400.0 0.0001562 6234.51270 6297.46777
6344.0 0.0001576 6232.86572 6296.32520
6303.0 0.0001587 6231.21777 6299.16064
6434.0 0.0001554 6229.57080 6306.53955
6388.0 0.0001565 6227.92285 6318.97510
6319.0 0.0001583 6226.27539 6336.87939
6340.0 0.0001577 6224.62744 6360.48340
6345.0 0.0001576 6222.97998 6389.74902
6442.0 0.0001552 6221.33252 6424.26807
6411.0 0.0001560 6219.68408 6463.17090
6548.0 0.0001527 6218.03662 6505.07959
6561.0 0.0001524 6216.38818 6548.61572
6518.0 0.0001534 6214.74072 6590.34912
6559.0 0.0001525 6213.09229 6628.04639
6645.0 0.0001505 6211.44434 6658.79102
6639.0 0.0001506 6209.79590 6679.82666
6671.0 0.0001499 6208.14795 6689.05664
6773.0 0.0001476 6206.50000 6685.54834
6714.0 0.0001489 6204.85156 6669.84180
6649.0 0.0001504 6203.20361 6643.82715
6621.0 0.0001510 6201.55518 6610.27832
6545.0 0.0001528 6199.90723 6572.30566
6576.0 0.0001521 6198.25830 6532.91797
6516.0 0.0001535 6196.61035 6494.73096
6361.0 0.0001572 6194.96191 6459.78076
6405.0 0.0001561 6193.31396 6429.42578
6478.0 0.0001544 6191.66553 6404.30713
6278.0 0.0001593 6190.01709 6384.37939
6362.0 0.0001572 6188.36914 6369.00195
6449.0 0.0001551 6186.72021 6357.06689
6364.0 0.0001571 6185.07227 6347.19043
6272.0 0.0001594 6183.42334 6337.94238
6301.0 0.0001587 6181.77539 6328.12207
6242.0 0.0001602 6180.12744 6316.99512
6298.0 0.0001588 6178.47852 6304.36084
6286.0 0.0001591 6176.83057 6290.45996
6251.0 0.0001600 6175.18213 6275.78906
6254.0 0.0001599 6173.53418 6260.92676
6144.0 0.0001628 6171.88525 6246.42627
6339.0 0.0001578 6170.23730 6232.75879
6256.0 0.0001598 6168.58838 6220.27539
6256.0 0.0001598 6166.94043 6209.19531
6154.0 0.0001625 6165.29248 6199.60791
6064.0 0.0001649 6163.64404 6191.49121
6305.0 0.0001586 6161.99609 6184.73438
6141.0 0.0001628 6160.34766 6179.17920
6311.0 0.0001585 6158.69971 6174.64258
6220.0 0.0001608 6157.05078 6170.94336
6184.0 0.0001617 6155.40283 6167.91553
6114.0 0.0001636 6153.75439 6165.42725
6205.0 0.0001612 6152.10645 6163.37305
6124.0 0.0001633 6150.45850 6161.67725
6210.0 0.0001610 6148.81006 6160.28857
5969.0 0.0001675 6147.16211 6159.16650
6207.0 0.0001611 6145.51367 6158.28271
6154.0 0.0001625 6143.86572 6157.61084
6129.0 0.0001632 6142.21729 6157.11719
6078.0 0.0001645 6140.56934 6156.90723
6101.0 0.0001639 6138.92139 6156.64941
6145.0 0.0001627 6137.27295 6156.41895
6358.0 0.0001573 6135.62500 6156.15332
6256.0 0.0001598 6133.97656 6155.76953
6139.0 0.0001629 6132.32861 6155.19043
6173.0 0.0001620 6130.68018 6154.33594
6037.0 0.0001656 6129.03223 6153.14111
6151.0 0.0001626 6127.38379 6151.56250
6243.0 0.0001602 6125.73584 6149.58691
6072.0 0.0001647 6124.08789 6147.23584
6162.0 0.0001623 6122.43945 6144.55859
6194.0 0.0001614 6120.79150 6141.62305
6197.0 0.0001614 6119.14258 6138.50684
6063.0 0.0001649 6117.49463 6135.29199
6039.0 0.0001656 6115.84570 6132.04688
6045.0 0.0001654 6114.19775 6128.83838
6067.0 0.0001648 6112.54883 6125.71533
6049.0 0.0001653 6110.90088 6122.72021
6138.0 0.0001629 6109.25244 6119.87744
6066.0 0.0001649 6107.60352 6117.20068
6103.0 0.0001639 6105.95557 6114.63574
6108.0 0.0001637 6104.30664 6112.42432
6127.0 0.0001632 6102.65771 6110.24219
6115.0 0.0001635 6101.00879 6108.19482
6208.0 0.0001611 6099.36035 6106.26953
5974.0 0.0001674 6097.71143 6104.44678
6051.0 0.0001653 6096.06250 6102.70947
6097.0 0.0001640 6094.41357 6101.04395
6082.0 0.0001644 6092.76416 6099.43604
6221.0 0.0001607 6091.11523 6097.87939
5978.0 0.0001673 6089.46582 6096.36377
5982.0 0.0001672 6087.81641 6094.88623
6163.0 0.0001623 6086.16650 6093.44385
6126.0 0.0001632 6084.51758 6092.03662
6047.0 0.0001654 6082.86816 6090.66309
6007.0 0.0001665 6081.21777 6089.32568
6119.0 0.0001634 6079.56836 6088.25879
5954.0 0.0001680 6077.91797 6087.76855
6095.0 0.0001641 6076.26807 6086.61230
6152.0 0.0001625 6074.61719 6085.53613
6102.0 0.0001639 6072.96729 6084.39893
6051.0 0.0001653 6071.31641 6083.59033
6158.0 0.0001624 6069.66602 6082.99365
6213.0 0.0001610 6068.01563 6082.69434
6084.0 0.0001644 6066.36377 6082.81055
6089.0 0.0001642 6064.71289 6083.50830
6050.0 0.0001653 6063.06152 6085.00684
6261.0 0.0001597 6061.41016 6087.59277
6109.0 0.0001637 6059.75830 6091.62549
6203.0 0.0001612 6058.10645 6097.54980
6110.0 0.0001637 6056.45459 6105.88428
6061.0 0.0001650 6054.80225 6117.21484
5980.0 0.0001672 6053.14990 6132.16797
6101.0 0.0001639 6051.49707 6151.37402
6211.0 0.0001610 6049.84424 6175.40234
6108.0 0.0001637 6048.19092 6204.70264
6273.0 0.0001594 6046.53760 6239.51904
6106.0 0.0001638 6044.88379 6279.80762
6271.0 0.0001595 6043.23047 6325.17090
6189.0 0.0001616 6041.57617 6374.79102
6367.0 0.0001571 6039.92188 6427.39551
6314.0 0.0001584 6038.26758 6481.27344
6680.0 0.0001497 6036.61230 6534.28809
6535.0 0.0001530 6034.95752 6583.96826
6587.0 0.0001518 6033.30176 6627.61523
6663.0 0.0001501 6031.64600 6662.49854
6736.0 0.0001485 6029.98975 6686.12988
6666.0 0.0001500 6028.33350 6696.59863
6757.0 0.0001480 6026.67725 6692.93945
6833.0 0.0001463 6025.02002 6675.32080
6784.0 0.0001474 6023.36279 6645.02148
6660.0 0.0001502 6021.70508 6604.15674
6421.0 0.0001557 6020.04736 6555.32520
6404.0 0.0001562 6018.38867 6501.19189
6412.0 0.0001560 6016.72998 6444.56592
6402.0 0.0001562 6015.07129 6387.75000
6270.0 0.0001595 6013.41162 6332.75977
6247.0 0.0001601 6011.75195 6281.18457
6248.0 0.0001601 6010.09131 6234.15723
6253.0 0.0001599 6008.43115 6192.37207
6139.0 0.0001629 6006.76953 6156.11377
6213.0 0.0001610 6005.10840 6125.62842
6087.0 0.0001643 6003.44629 6100.02588
6025.0 0.0001660 6001.78418 6079.10010
6018.0 0.0001662 6000.12207 6062.25879
6118.0 0.0001635 5998.45850 6048.86963
6147.0 0.0001627 5996.79492 6038.31689
6111.0 0.0001636 5995.13037 6030.03418
6156.0 0.0001624 5993.46631 6023.25977
6056.0 0.0001651 5991.80078 6018.11523
5963.0 0.0001677 5990.13574 6013.99512
6003.0 0.0001666 5988.46924 6010.63672
6044.0 0.0001655 5986.80322 6007.84326
6018.0 0.0001662 5985.13623 6005.46924
6062.0 0.0001650 5983.46826 6003.41260
5962.0 0.0001677 5981.80029 6001.60547
5981.0 0.0001672 5980.13135 6000.00439
5947.0 0.0001682 5978.46240 5998.58789
6050.0 0.0001653 5976.79248 5997.35010
5901.0 0.0001695 5975.12256 5996.30713
5991.0 0.0001669 5973.45166 5995.48926
6156.0 0.0001624 5971.77979 5994.95264
5996.0 0.0001668 5970.10791 5994.79443
5986.0 0.0001671 5968.43506 5995.15088
6218.0 0.0001608 5966.76221 5996.23438
5884.0 0.0001700 5965.08789 5998.35059
5931.0 0.0001686 5963.41357 6001.93750
6140.0 0.0001629 5961.73779 6007.60205
6014.0 0.0001663 5960.06250 6016.15479
5945.0 0.0001682 5958.38623 6028.61768
5992.0 0.0001669 5956.70898 6046.17773
6070.0 0.0001647 5955.03125 6070.03857
6106.0 0.0001638 5953.35254 6101.17920
6103.0 0.0001639 5951.67334 6139.98340
6102.0 0.0001639 5949.99365 6186.04395
6177.0 0.0001619 5948.31299 6237.03516
6145.0 0.0001627 5946.63135 6289.54492
6303.0 0.0001587 5944.94971 6338.48877
6470.0 0.0001546 5943.26709 6377.58057
6394.0 0.0001564 5941.58350 6400.91309
6253.0 0.0001599 5939.89941 6405.78955
6363.0 0.0001572 5938.21387 6394.75635
6353.0 0.0001574 5936.52881 6374.56689
6267.0 0.0001596 5934.84180 6353.30859
6393.0 0.0001564 5933.15479 6338.57422
6412.0 0.0001560 5931.46680 6336.70215
6377.0 0.0001568 5929.77734 6352.45850
6472.0 0.0001545 5928.08789 6388.76123
6539.0 0.0001529 5926.39697 6446.40674
6575.0 0.0001521 5924.70605 6523.81104
6533.0 0.0001531 5923.01318 6617.07910
6815.0 0.0001467 5921.32031 6718.87695
6789.0 0.0001473 5919.62598 6820.07080
6959.0 0.0001437 5917.93164 6909.07617
7019.0 0.0001425 5916.23633 6972.85938
6956.0 0.0001438 5914.53906 6999.64209
7126.0 0.0001403 5912.84229 6982.51611
6861.0 0.0001458 5911.14355 6922.59375
6762.0 0.0001479 5909.44434 6828.48975
6710.0 0.0001490 5907.74365 6712.63623
6588.0 0.0001518 5906.04297 6587.58350
6362.0 0.0001572 5904.34082 6463.94238
6246.0 0.0001601 5902.63770 6349.60889
6239.0 0.0001603 5900.93408 6249.60449
6148.0 0.0001627 5899.22900 6166.26514
6173.0 0.0001620 5897.52344 6099.69580
6131.0 0.0001631 5895.81641 6048.42871
5972.0 0.0001674 5894.10889 6010.05615
6023.0 0.0001660 5892.39990 5981.90771
5951.0 0.0001680 5890.68994 5961.44043
5913.0 0.0001691 5888.97949 5946.49512
6088.0 0.0001643 5887.26758 5935.38525
6011.0 0.0001664 5885.55469 5926.88428
5914.0 0.0001691 5883.84082 5920.14209
5939.0 0.0001684 5882.12598 5914.59473
5907.0 0.0001693 5880.40967 5909.87598
5965.0 0.0001676 5878.69287 5905.74902
5842.0 0.0001712 5876.97461 5902.06201
5851.0 0.0001709 5875.25586 5898.71387
5804.0 0.0001723 5873.53564 5895.63281
5909.0 0.0001692 5871.81396 5892.76611
6040.0 0.0001656 5870.09229 5890.08057
5912.0 0.0001691 5868.36816 5887.55859
5837.0 0.0001713 5866.64404 5885.15332
5877.0 0.0001702 5864.91797 5882.86230
5852.0 0.0001709 5863.19141 5880.67334
5929.0 0.0001687 5861.46289 5878.57666
5914.0 0.0001691 5859.73438 5876.57373
5822.0 0.0001718 5858.00439 5874.66064
5825.0 0.0001717 5856.27246 5872.84229
5801.0 0.0001724 5854.54053 5871.13037
5866.0 0.0001705 5852.80615 5869.54297
5922.0 0.0001689 5851.07178 5868.11621
5816.0 0.0001719 5849.33545 5866.89844
5820.0 0.0001718 5847.59863 5865.96582
5921.0 0.0001689 5845.86035 5865.42822
5965.0 0.0001676 5844.12061 5865.43359
5830.0 0.0001715 5842.37988 5866.18799
5883.0 0.0001700 5840.63770 5867.94922
5992.0 0.0001669 5838.89502 5871.03271
5876.0 0.0001702 5837.15039 5875.81445
5987.0 0.0001670 5835.40479 5882.70410
5814.0 0.0001720 5833.65771 5891.59766
5912.0 0.0001691 5831.91016 5903.95068
5955.0 0.0001679 5830.16113 5919.53271
5942.0 0.0001683 5828.41016 5938.50684
5939.0 0.0001684 5826.65869 5960.82568
5760.0 0.0001736 5824.90527 5986.17432
6083.0 0.0001644 5823.15137 6013.92969
5990.0 0.0001669 5821.39551 6043.13379
5994.0 0.0001668 5819.63867 6072.50244
6087.0 0.0001643 5817.88037 6100.45166
6137.0 0.0001629 5816.12158 6125.16602
6025.0 0.0001660 5814.36133 6144.72900
6195.0 0.0001614 5812.59863 6157.33984
6099.0 0.0001640 5810.83594 6161.63965
6125.0 0.0001633 5809.07080 6157.01904
6181.0 0.0001618 5807.30566 6143.80518
6218.0 0.0001608 5805.53809 6123.15723
6214.0 0.0001609 5803.77002 6096.78467
6001.0 0.0001666 5802.00098 6066.61182
6024.0 0.0001660 5800.22949 6034.52148
5962.0 0.0001677 5798.45752 6002.21338
5940.0 0.0001684 5796.68311 5971.11230
5949.0 0.0001681 5794.90869 5942.34521
5926.0 0.0001687 5793.13184 5916.72217
5909.0 0.0001692 5791.35498 5894.77686
5827.0 0.0001716 5789.57568 5876.79053
5774.0 0.0001732 5787.79541 5862.87988
5940.0 0.0001684 5786.01416 5853.04736
5861.0 0.0001706 5784.23096 5847.26563
5824.0 0.0001717 5782.44678 5845.53174
5758.0 0.0001737 5780.66113 5847.90332
5731.0 0.0001745 5778.87451 5854.51465
5862.0 0.0001706 5777.08594 5865.56885
5773.0 0.0001732 5775.29639 5881.29395
5948.0 0.0001681 5773.50537 5901.89014
6040.0 0.0001656 5771.71338 5927.44336
5937.0 0.0001684 5769.91992 5957.85107
6045.0 0.0001654 5768.12451 5992.73047
5928.0 0.0001687 5766.32861 6031.36523
6172.0 0.0001620 5764.53027 6072.64600
5977.0 0.0001673 5762.73145 6115.07568
6119.0 0.0001634 5760.93066 6156.78516
6300.0 0.0001587 5759.12939 6195.60498
6210.0 0.0001610 5757.32666 6229.17529
6315.0 0.0001584 5755.52148 6255.13818
6290.0 0.0001590 5753.71582 6271.42139
6377.0 0.0001568 5751.90820 6276.58643
6453.0 0.0001550 5750.10010 6270.15869
6246.0 0.0001601 5748.28955 6252.75146
6222.0 0.0001607 5746.47900 6225.94141
6237.0 0.0001603 5744.66602 6191.93506
6170.0 0.0001621 5742.85205 6153.21240
6205.0 0.0001612 5741.03711 6112.23145
5919.0 0.0001689 5739.22021 6071.22754
5827.0 0.0001716 5737.40234 6032.09131
5994.0 0.0001668 5735.58252 5996.28369
6014.0 0.0001663 5733.76221 5964.80225
5922.0 0.0001689 5731.93994 5938.17725
5932.0 0.0001686 5730.11670 5916.50488
5928.0 0.0001687 5728.29150 5899.50879
5878.0 0.0001701 5726.46582 5886.62012
5832.0 0.0001715 5724.63867 5877.06055
5879.0 0.0001701 5722.80957 5869.93848
6016.0 0.0001662 5720.97949 5864.33350
5934.0 0.0001685 5719.14795 5859.39502
5856.0 0.0001708 5717.31543 5854.42090
5900.0 0.0001695 5715.48096 5848.92529
5942.0 0.0001683 5713.64600 5842.66846
5710.0 0.0001751 5711.80908 5835.62988
5951.0 0.0001680 5709.97070 5827.95508
5790.0 0.0001727 5708.13184 5819.87842
5873.0 0.0001703 5706.29102 5811.64990
5780.0 0.0001730 5704.44922 5803.48975
5749.0 0.0001739 5702.60547 5795.55029
5773.0 0.0001732 5700.76123 5787.89990
5758.0 0.0001737 5698.91504 5780.51611
5783.0 0.0001729 5697.06787 5773.30029
5739.0 0.0001742 5695.21973 5766.10010
5801.0 0.0001724 5693.36963 5758.77100
5736.0 0.0001743 5691.51904 5751.24268
5729.0 0.0001746 5689.66650 5743.54443
5829.0 0.0001716 5687.81348 5735.07275
5918.0 0.0001690 5685.95801 5727.43896
5542.0 0.0001804 5684.10254 5720.06885
5797.0 0.0001725 5682.24463 5713.08887
5886.0 0.0001699 5680.38623 5706.59766
5783.0 0.0001729 5678.52686 5700.65234
5761.0 0.0001736 5676.66553 5695.26855
5697.0 0.0001755 5674.80371 5690.43750
5639.0 0.0001773 5672.93994 5686.11768
5719.0 0.0001749 5671.07568 5682.25439
5680.0 0.0001761 5669.20947 5678.78271
5624.0 0.0001778 5667.34229 5675.63770
5564.0 0.0001797 5665.47461 5672.75684
5642.0 0.0001772 5663.60498 5670.08545
5659.0 0.0001767 5661.73438 5667.57715
5564.0 0.0001797 5659.86230 5665.19434
5675.0 0.0001762 5657.98975 5662.90918
5638.0 0.0001774 5656.11523 5660.69434
5621.0 0.0001779 5654.24023 5658.53516
5614.0 0.0001781 5652.36328 5656.41699
5652.0 0.0001769 5650.48633 5654.33057
5638.0 0.0001774 5648.60791 5652.26709
5624.0 0.0001778 5646.72754 5650.22168
5532.0 0.0001808 5644.84717 5648.19189
5633.0 0.0001775 5642.96484 5646.17236
5593.0 0.0001788 5641.08203 5644.16406
5594.0 0.0001788 5639.19727 5642.16162
5716.0 0.0001749 5637.31250 5640.16699
5550.0 0.0001802 5635.42578 5638.17773
5579.0 0.0001792 5633.53857 5636.19434
5646.0 0.0001771 5631.65039 5634.21631
5691.0 0.0001757 5629.76074 5632.24072
5764.0 0.0001735 5627.87061 5630.26953
5640.0 0.0001773 5625.97852 5628.30078
5628.0 0.0001777 5624.08643 5626.33643
5667.0 0.0001765 5622.19287 5624.37305
5484.0 0.0001823 5620.29834 5622.41406
5588.0 0.0001790 5618.40332 5620.45703
5603.0 0.0001785 5616.50635 5618.50146
5621.0 0.0001779 5614.60938 5616.54883
5669.0 0.0001764 5612.71045 5614.59766
5634.0 0.0001775 5610.81152 5612.65088
5564.0 0.0001797 5608.91113 5610.70361
5693.0 0.0001757 5607.01025 5608.76025
5691.0 0.0001757 5605.10791 5606.81885
5681.0 0.0001760 5603.20508 5604.88135
5498.0 0.0001819 5601.30176 5602.65576
5617.0 0.0001780 5599.39648 5600.73242
5478.0 0.0001825 5597.49121 5598.81445
5466.0 0.0001829 5595.58447 5596.90869
5608.0 0.0001783 5593.67773 5595.00732
5691.0 0.0001757 5591.76904 5593.11426
5547.0 0.0001803 5589.86084 5591.23291
5532.0 0.0001808 5587.95068 5589.36279
5625.0 0.0001778 5586.04053 5587.50439
5638.0 0.0001774 5584.12939 5585.65820
5600.0 0.0001786 5582.21680 5583.82324
5615.0 0.0001781 5580.30469 5581.99951
5503.0 0.0001817 5578.39063 5580.19189
5510.0 0.0001815 5576.47656 5578.37500
5569.0 0.0001796 5574.56152 5576.55566
5534.0 0.0001807 5572.64600 5574.72852
5674.0 0.0001762 5570.72998 5572.88623
5627.0 0.0001777 5568.81250 5571.02490
5593.0 0.0001788 5566.89502 5569.13623
5583.0 0.0001791 5564.97607 5567.21777
5611.0 0.0001782 5563.05762 5565.27002
5601.0 0.0001785 5561.13770 5563.29053
5655.0 0.0001768 5559.21777 5561.28711
5597.0 0.0001787 5557.29639 5559.25928
5604.0 0.0001784 5555.37549 5557.21680
5557.0 0.0001800 5553.45361 5555.16602
5543.0 0.0001804 5551.53076 5553.11084
5552.0 0.0001801 5549.60791 5551.05664
5449.0 0.0001835 5547.68408 5549.00928
5580.0 0.0001792 5545.75977 5546.96826
5483.0 0.0001824 5543.83496 5544.93799
5506.0 0.0001816 5541.91016 5542.92090
5557.0 0.0001800 5539.98389 5540.96045
5664.0 0.0001766 5538.05811 5538.76221
5576.0 0.0001793 5536.13184 5536.78320
5520.0 0.0001812 5534.20459 5534.81104
5476.0 0.0001826 5532.27734 5532.84814
5586.0 0.0001790 5530.34912 5530.89209
5620.0 0.0001779 5528.42139 5528.94141
5670.0 0.0001764 5526.49219 5526.99316
5545.0 0.0001803 5524.56348 5525.05029
5561.0 0.0001798 5522.63428 5523.10938
5412.0 0.0001848 5520.70459 5521.16943
5660.0 0.0001767 5518.77490 5519.23145
5580.0 0.0001792 5516.84375 5517.29346
5512.0 0.0001814 5514.91357 5515.35791
5460.0 0.0001832 5512.98242 5513.42090
5594.0 0.0001788 5511.05176 5511.48584
5545.0 0.0001803 5509.11963 5509.54980
5491.0 0.0001821 5507.18848 5507.61523
5487.0 0.0001822 5505.25684 5505.68018
5465.0 0.0001830 5503.32422 5503.74609
5481.0 0.0001824 5501.39258 5501.81152
5527.0 0.0001809 5499.45947 5499.87842
5439.0 0.0001839 5497.52734 5497.94580
5534.0 0.0001807 5495.59424 5496.01318
5461.0 0.0001831 5493.66162 5494.08398
5423.0 0.0001844 5491.72803 5492.15283
5450.0 0.0001835 5489.79541 5490.22607
5513.0 0.0001814 5487.86230 5488.30029
5552.0 0.0001801 5485.92871 5486.37646
5436.0 0.0001840 5483.99561 5484.45508
5464.0 0.0001830 5482.06201 5482.53711
5332.0 0.0001875 5480.12891 5480.62305
5508.0 0.0001816 5478.19482 5478.71143
5619.0 0.0001780 5476.26172 5476.80566
5493.0 0.0001820 5474.32861 5474.90332
5471.0 0.0001828 5472.39502 5473.00488
5479.0 0.0001825 5470.46191 5471.11279
5504.0 0.0001817 5468.52832 5469.22314
5467.0 0.0001829 5466.59521 5467.12207
5467.0 0.0001829 5464.66162 5465.24316
5458.0 0.0001832 5462.72900 5463.36816
5378.0 0.0001859 5460.79541 5461.49365
5492.0 0.0001821 5458.86328 5459.62158
5442.0 0.0001838 5456.93066 5457.74854
5478.0 0.0001825 5454.99756 5455.87109
5476.0 0.0001826 5453.06592 5453.99268
5456.0 0.0001833 5451.13330 5452.10742
5493.0 0.0001820 5449.20166 5450.21631
5333.0 0.0001875 5447.26904 5448.31543
5466.0 0.0001829 5445.33789 5446.40576
5500.0 0.0001818 5443.40674 5444.48584
5303.0 0.0001886 5441.47559 5442.55420
5369.0 0.0001863 5439.54541 5440.61426
5312.0 0.0001883 5437.61426 5438.66260
5468.0 0.0001829 5435.68457 5436.70313
5431.0 0.0001841 5433.75439 5434.73682
5549.0 0.0001802 5431.82520 5432.76611
5393.0 0.0001854 5429.89551 5430.79102
5487.0 0.0001822 5427.96680 5428.81396
5377.0 0.0001860 5426.03857 5426.83691
5356.0 0.0001867 5424.11035 5424.86084
5373.0 0.0001861 5422.18262 5422.88623
5474.0 0.0001827 5420.25537 5420.91504
5443.0 0.0001837 5418.32861 5418.94873
5435.0 0.0001840 5416.40186 5417.04980
5531.0 0.0001808 5414.47607 5415.09326
5434.0 0.0001840 5412.55029 5413.14258
5330.0 0.0001876 5410.62549 5411.19727
5463.0 0.0001830 5408.70117 5409.25732
5527.0 0.0001809 5406.77686 5407.32178
5380.0 0.0001859 5404.85352 5405.39258
5367.0 0.0001863 5402.92969 5403.46533
5299.0 0.0001887 5401.00781 5401.54541
5273.0 0.0001896 5399.08545 5399.62891
5252.0 0.0001904 5397.16406 5397.71533
5344.0 0.0001871 5395.24316 5395.80566
5333.0 0.0001875 5393.32324 5393.90088
5452.0 0.0001834 5391.40381 5391.99951
5470.0 0.0001828 5389.48438 5390.10107
5458.0 0.0001832 5387.56592 5388.20898
5470.0 0.0001828 5385.64795 5386.40967
5483.0 0.0001824 5383.73096 5384.53027
5313.0 0.0001882 5381.81445 5382.65771
5339.0 0.0001873 5379.89844 5380.79541
5434.0 0.0001840 5377.98389 5378.94629
5445.0 0.0001837 5376.06885 5377.11182
5339.0 0.0001873 5374.15527 5375.29785
5447.0 0.0001836 5372.24219 5373.50781
5439.0 0.0001839 5370.33008 5371.75000
5373.0 0.0001861 5368.41797 5370.02832
5294.0 0.0001889 5366.50732 5368.35400
5444.0 0.0001837 5364.59717 5366.73389
5471.0 0.0001828 5362.68799 5365.17871
5244.0 0.0001907 5360.77979 5363.69580
5362.0 0.0001865 5358.87158 5362.29639
5291.0 0.0001890 5356.96484 5360.98926
5459.0 0.0001832 5355.05811 5359.77930
5343.0 0.0001872 5353.15283 5358.67285
5323.0 0.0001879 5351.24805 5357.67334
5290.0 0.0001890 5349.34473 5356.77686
5296.0 0.0001888 5347.44141 5355.97754
5266.0 0.0001899 5345.53955 5355.26807
5338.0 0.0001873 5343.63867 5354.63477
5439.0 0.0001839 5341.73779 5354.06055
5400.0 0.0001852 5339.83838 5353.52539
5368.0 0.0001863 5337.93945 5353.00537
5424.0 0.0001844 5336.04199 5352.48193
5392.0 0.0001855 5334.14502 5351.93262
5379.0 0.0001859 5332.24902 5351.34033
5277.0 0.0001895 5330.35449 5350.69238
5387.0 0.0001856 5328.45996 5349.98682
5417.0 0.0001846 5326.56689 5349.23193
5310.0 0.0001883 5324.67432 5348.44971
5318.0 0.0001880 5322.78320 5347.70264
5368.0 0.0001863 5320.89258 5346.98193
5468.0 0.0001829 5319.00342 5346.37402
5325.0 0.0001878 5317.11475 5345.92773
5217.0 0.0001917 5315.22705 5345.69824
5288.0 0.0001891 5313.34082 5345.72900
5308.0 0.0001884 5311.45508 5346.04492
5431.0 0.0001841 5309.57080 5346.65527
5286.0 0.0001892 5307.68652 5347.54785
5408.0 0.0001849 5305.80420 5348.68701
5389.0 0.0001856 5303.92236 5350.01221
5420.0 0.0001845 5302.04199 5351.44189
5241.0 0.0001908 5300.16162 5352.87256
5472.0 0.0001827 5298.28320 5354.18604
5338.0 0.0001873 5296.40625 5355.24805
5349.0 0.0001870 5294.52881 5355.92188
5370.0 0.0001862 5292.65381 5356.09766
5396.0 0.0001853 5290.77881 5355.61328
5323.0 0.0001879 5288.90527 5354.40576
5246.0 0.0001906 5287.03223 5352.41992
5411.0 0.0001848 5285.16113 5349.65186
5399.0 0.0001852 5283.29102 5346.13672
5398.0 0.0001853 5281.42090 5341.94824
5416.0 0.0001846 5279.55273 5337.18945
5395.0 0.0001854 5277.68506 5331.97363
5436.0 0.0001840 5275.81885 5326.42480
5338.0 0.0001873 5273.95313 5320.66406
5353.0 0.0001868 5272.08936 5314.94482
5336.0 0.0001874 5270.22559 5309.09180
5251.0 0.0001904 5268.36377 5303.33643
5279.0 0.0001894 5266.50293 5297.75000
5442.0 0.0001838 5264.64209 5292.39258
5308.0 0.0001884 5262.78369 5287.30762
5283.0 0.0001893 5260.92480 5282.51953
5292.0 0.0001890 5259.06836 5278.04688
5254.0 0.0001903 5257.21191 5273.88770
5223.0 0.0001915 5255.35742 5270.03613
5279.0 0.0001894 5253.50293 5266.47217
5331.0 0.0001876 5251.65039 5263.18018
5322.0 0.0001879 5249.79883 5260.13525
5214.0 0.0001918 5247.94775 5257.31299
5236.0 0.0001910 5246.09814 5254.69482
5254.0 0.0001903 5244.24902 5252.26025
5306.0 0.0001885 5242.40186 5250.00098
5280.0 0.0001894 5240.55469 5247.90967
5104.0 0.0001959 5238.70947 5245.99463
5224.0 0.0001914 5236.86523 5244.27246
5148.0 0.0001943 5235.02100 5242.78223
5285.0 0.0001892 5233.17871 5241.58350
5102.0 0.0001960 5231.33691 5240.76611
5324.0 0.0001878 5229.49658 5240.45459
5184.0 0.0001929 5227.65674 5240.81787
5227.0 0.0001913 5225.81836 5242.06641
5229.0 0.0001912 5223.98047 5244.45947
5294.0 0.0001889 5222.14404 5248.28027
5327.0 0.0001877 5220.30859 5253.82031
5259.0 0.0001902 5218.47412 5261.33447
5221.0 0.0001915 5216.64063 5270.98193
5202.0 0.0001922 5214.80713 5282.76367
5384.0 0.0001857 5212.97607 5296.45850
5369.0 0.0001863 5211.14502 5311.55859
5297.0 0.0001888 5209.31543 5327.25146
5296.0 0.0001888 5207.48584 5342.40234
5188.0 0.0001928 5205.65869 5355.59473
5374.0 0.0001861 5203.83154 5365.24219
5405.0 0.0001850 5202.00537 5369.85059
5383.0 0.0001858 5200.18066 5368.44727
5394.0 0.0001854 5198.35596 5360.96289
5300.0 0.0001887 5196.53271 5348.26758
5438.0 0.0001839 5194.70947 5331.80664
5411.0 0.0001848 5192.88867 5313.17725
5331.0 0.0001876 5191.06787 5293.82715
5211.0 0.0001919 5189.24756 5274.93164
5311.0 0.0001883 5187.42920 5257.35205
5168.0 0.0001935 5185.61035 5241.62891
5140.0 0.0001946 5183.79346 5228.02686
5168.0 0.0001935 5181.97656 5216.56885
5224.0 0.0001914 5180.16113 5207.11328
5284.0 0.0001893 5178.34570 5199.41406
5192.0 0.0001926 5176.53223 5193.18555
5319.0 0.0001880 5174.71924 5188.13672
5170.0 0.0001934 5172.90625 5184.00439
5088.0 0.0001965 5171.09473 5180.56885
5149.0 0.0001942 5169.28369 5177.65283
5176.0 0.0001932 5167.47363 5175.11865
5184.0 0.0001929 5165.66357 5172.86670
5061.0 0.0001976 5163.85498 5170.82275
5196.0 0.0001925 5162.04639 5168.93359
5082.0 0.0001968 5160.23926 5167.16260
5112.0 0.0001956 5158.43262 5165.48535
4995.0 0.0002002 5156.62646 5163.97510
5145.0 0.0001944 5154.82129 5162.43457
5135.0 0.0001947 5153.01611 5160.94873
5110.0 0.0001957 5151.21240 5159.51709
5086.0 0.0001966 5149.40869 5158.14307
5157.0 0.0001939 5147.60547 5156.83496
5128.0 0.0001950 5145.80371 5155.61523
5078.0 0.0001969 5144.00146 5154.50830
5040.0 0.0001984 5142.20068 5153.55322
5201.0 0.0001923 5140.39941 5152.79395
5184.0 0.0001929 5138.60010 5152.29053
5101.0 0.0001960 5136.79980 5152.10010
5126.0 0.0001951 5135.00098 5152.28418
5119.0 0.0001954 5133.20166 5152.89160
5158.0 0.0001939 5131.40430 5153.95361
5134.0 0.0001948 5129.60645 5155.47070
5223.0 0.0001915 5127.80908 5157.40674
5167.0 0.0001935 5126.01270 5159.67920
5016.0 0.0001994 5124.21582 5162.16846
5141.0 0.0001945 5122.41992 5164.66992
5097.0 0.0001962 5120.62402 5166.96387
5127.0 0.0001950 5118.82910 5168.78955
5187.0 0.0001928 5117.03369 5170.24854
5291.0 0.0001890 5115.23926 5170.32422
5184.0 0.0001929 5113.44531 5169.19092
5201.0 0.0001923 5111.65088 5166.76025
5055.0 0.0001978 5109.85742 5163.08301
5054.0 0.0001979 5108.06348 5158.33594
5115.0 0.0001955 5106.27051 5152.76709
5044.0 0.0001983 5104.47705 5146.65527
5244.0 0.0001907 5102.68457 5140.27490
5169.0 0.0001935 5100.89209 5133.86670
4994.0 0.0002002 5099.09912 5127.62988
4951.0 0.0002020 5097.30762 5121.71973
5098.0 0.0001962 5095.51465 5116.23975
5163.0 0.0001937 5093.72266 5111.25049
5178.0 0.0001931 5091.93018 5106.77490
5155.0 0.0001940 5090.13916 5102.80322
5107.0 0.0001958 5088.34668 5099.57129
5073.0 0.0001971 5086.55518 5096.52295
5134.0 0.0001948 5084.76367 5093.87549
5102.0 0.0001960 5082.97119 5091.59326
5112.0 0.0001956 5081.17969 5089.65576
5066.0 0.0001974 5079.38721 5088.04932
5170.0 0.0001934 5077.59619 5086.78467
5103.0 0.0001960 5075.80371 5085.88037
5114.0 0.0001955 5074.01172 5085.38037
5146.0 0.0001943 5072.21875 5085.33936
5075.0 0.0001970 5070.42725 5085.82959
5047.0 0.0001981 5068.63477 5086.92920
5099.0 0.0001961 5066.84131 5088.82764
5112.0 0.0001956 5065.04932 5091.41553
5162.0 0.0001937 5063.25537 5094.86914
5043.0 0.0001983 5061.46240 5099.26465
5125.0 0.0001951 5059.66846 5104.64404
5114.0 0.0001955 5057.87500 5111.02637
5167.0 0.0001935 5056.08057 5118.38818
4981.0 0.0002008 5054.28613 5126.66064
5024.0 0.0001990 5052.49121 5135.72363
5123.0 0.0001952 5050.69580 5145.40283
5207.0 0.0001920 5048.90039 5155.46680
5274.0 0.0001896 5047.10400 5165.62842
4999.0 0.0002000 5045.30762 5175.56006
5235.0 0.0001910 5043.51025 5184.88770
5229.0 0.0001912 5041.71338 5193.22021
5142.0 0.0001945 5039.91602 5200.14990
5284.0 0.0001893 5038.11719 5205.42432
5217.0 0.0001917 5036.31836 5208.45605
5347.0 0.0001870 5034.51855 5209.11816
5142.0 0.0001945 5032.71875 5207.27881
5264.0 0.0001900 5030.91748 5202.94141
5228.0 0.0001913 5029.11670 5196.25342
5320.0 0.0001880 5027.31445 5187.46631
5112.0 0.0001956 5025.51221 5176.92139
5144.0 0.0001944 5023.70947 5165.00488
5242.0 0.0001908 5021.90479 5152.11914
5033.0 0.0001987 5020.10059 5138.66211
5098.0 0.0001962 5018.29443 5124.99512
4934.0 0.0002027 5016.48877 5111.45410
5102.0 0.0001960 5014.68115 5098.31299
5036.0 0.0001986 5012.87354 5085.80322
5222.0 0.0001915 5011.06543 5074.09766
4962.0 0.0002015 5009.25586 5063.69531
5117.0 0.0001954 5007.44531 5053.89941
4975.0 0.0002010 5005.63428 5045.10645
4976.0 0.0002010 5003.82227 5037.29443
5139.0 0.0001946 5002.00830 5030.41504
5057.0 0.0001977 5000.19482 5024.39893
4925.0 0.0002030 4998.37939 5019.15430
5005.0 0.0001998 4996.56348 5014.59033
5072.0 0.0001972 4994.74658 5010.61084
4995.0 0.0002002 4992.92822 5007.12646
5132.0 0.0001949 4991.10938 5004.05566
4953.0 0.0002019 4989.28857 5001.31885
4957.0 0.0002017 4987.46777 4998.85742
4894.0 0.0002043 4985.64453 4996.61279
4994.0 0.0002002 4983.82129 4994.54639
4853.0 0.0002061 4981.99609 4992.73193
4950.0 0.0002020 4980.17041 4990.92285
5012.0 0.0001995 4978.34326 4989.21045
4977.0 0.0002009 4976.51465 4987.57813
4878.0 0.0002050 4974.68506 4986.02588
4970.0 0.0002012 4972.85400 4984.54834
5075.0 0.0001970 4971.02148 4983.14551
5038.0 0.0001985 4969.18750 4981.83301
4915.0 0.0002035 4967.35303 4980.62305
5068.0 0.0001973 4965.51709 4979.53418
5048.0 0.0001981 4963.67920 4978.60205
4943.0 0.0002023 4961.84033 4977.86670
4932.0 0.0002028 4959.99951 4977.38086
5035.0 0.0001986 4958.15771 4977.13867
4965.0 0.0002014 4956.31396 4977.39648
5018.0 0.0001993 4954.46973 4978.19043
5042.0 0.0001983 4952.62305 4979.66992
5095.0 0.0001963 4950.77539 4982.02002
4961.0 0.0002016 4948.92676 4985.47119
5065.0 0.0001974 4947.07520 4990.29199
5142.0 0.0001945 4945.22314 4996.81055
5061.0 0.0001976 4943.36914 5005.39600
5133.0 0.0001948 4941.51367 5016.48340
4999.0 0.0002000 4939.65576 5030.54980
5003.0 0.0001999 4937.79736 5048.12744
5088.0 0.0001965 4935.93652 5069.79639
5107.0 0.0001958 4934.07471 5096.17871
5015.0 0.0001994 4932.21094 5127.92090
5259.0 0.0001902 4930.34521 5165.66602
5119.0 0.0001954 4928.47803 5209.97900
5217.0 0.0001917 4926.60840 5261.22461
5316.0 0.0001881 4924.73828 5319.39014
5506.0 0.0001816 4922.86523 5383.85107
5597.0 0.0001787 4920.99121 5453.13770
5493.0 0.0001820 4919.11523 5524.73438
5625.0 0.0001778 4917.23682 5594.99707
5809.0 0.0001721 4915.35742 5659.18604
5658.0 0.0001767 4913.47510 5711.63672
5845.0 0.0001711 4911.59229 5746.21777
5777.0 0.0001731 4909.70654 5757.47705
5727.0 0.0001746 4907.81934 5742.53662
5702.0 0.0001754 4905.92969 5702.58594
5680.0 0.0001761 4904.03906 5642.50684
5561.0 0.0001798 4902.14600 5568.89014
5599.0 0.0001786 4900.25049 5488.55566
5486.0 0.0001823 4898.35400 5407.14893
5410.0 0.0001848 4896.45459 5329.10059
5226.0 0.0001914 4894.55371 5257.49316
5237.0 0.0001909 4892.65039 5194.15674
5193.0 0.0001926 4890.74561 5139.88135
5120.0 0.0001953 4888.83838 5094.69629
5089.0 0.0001965 4886.92969 5058.16260
5025.0 0.0001990 4885.01855 5029.61279
5047.0 0.0001981 4883.10498 5008.32764
5011.0 0.0001996 4881.18994 4993.64063
5038.0 0.0001985 4879.27197 4984.96387
5065.0 0.0001974 4877.35303 4981.80127
4912.0 0.0002036 4875.43066 4983.69336
5064.0 0.0001975 4873.50732 4990.17676
5002.0 0.0001999 4871.58154 5000.71484
5111.0 0.0001957 4869.65332 5014.64844
4936.0 0.0002026 4867.72363 5031.14258
5075.0 0.0001970 4865.79053 5049.15869
4998.0 0.0002001 4863.85645 5067.45361
5085.0 0.0001967 4861.91895 5084.58691
5131.0 0.0001949 4859.98047 5098.99170
5099.0 0.0001961 4858.03906 5109.09326
5153.0 0.0001941 4856.09570 5113.54199
5148.0 0.0001943 4854.15088 5111.51270
5048.0 0.0001981 4852.20264 5102.93262
5110.0 0.0001957 4850.25244 5088.50879
5043.0 0.0001983 4848.29980 5069.49023
5022.0 0.0001991 4846.34570 5047.36328
4983.0 0.0002007 4844.38867 5023.61133
5097.0 0.0001962 4842.42969 4999.56152
4894.0 0.0002043 4840.46826 4976.32373
4964.0 0.0002015 4838.50488 4954.75244
4853.0 0.0002061 4836.53906 4935.45508
4872.0 0.0002053 4834.57031 4918.80566
5026.0 0.0001990 4832.60010 4905.00244
4966.0 0.0002014 4830.62695 4894.11816
4881.0 0.0002049 4828.65234 4886.16650
4860.0 0.0002058 4826.67480 4881.15576
4867.0 0.0002055 4824.69531 4879.15137
4921.0 0.0002032 4822.71338 4880.29590
4961.0 0.0002016 4820.72900 4884.82568
4778.0 0.0002093 4818.74268 4893.06348
4787.0 0.0002089 4816.75293 4905.37549
4933.0 0.0002027 4814.76221 4922.11816
4871.0 0.0002053 4812.76807 4943.54443
5005.0 0.0001998 4810.77246 4969.71191
4848.0 0.0002063 4808.77393 5000.37402
4932.0 0.0002028 4806.77393 5034.89551
5108.0 0.0001958 4804.77100 5072.16455
5037.0 0.0001985 4802.76563 5110.56982
5237.0 0.0001909 4800.75830 5148.00488
5218.0 0.0001916 4798.74805 5181.91699
5157.0 0.0001939 4796.73633 5209.46338
5306.0 0.0001885 4794.72119 5227.82080
5267.0 0.0001899 4792.70459 5234.71680
5392.0 0.0001855 4790.68506 5229.05322
5308.0 0.0001884 4788.66406 5211.27051
5421.0 0.0001845 4786.64063 5183.19971
5292.0 0.0001890 4784.61426 5147.36279
5126.0 0.0001951 4782.58594 5106.93115
5073.0 0.0001971 4780.55469 5064.48047
5118.0 0.0001954 4778.52197 5022.33447
5156.0 0.0001939 4776.48633 4982.33691
4903.0 0.0002040 4774.44873 4945.82129
4795.0 0.0002086 4772.40967 4913.63477
4892.0 0.0002044 4770.36670 4886.18115
4931.0 0.0002028 4768.32275 4863.51123
4881.0 0.0002049 4766.27588 4845.41162
4819.0 0.0002075 4764.22705 4831.50537
4820.0 0.0002075 4762.17529 4821.33105
4942.0 0.0002023 4760.12207 4814.41406
4805.0 0.0002081 4758.06592 4810.30371
4696.0 0.0002129 4756.00781 4808.60010
4758.0 0.0002102 4753.94824 4808.95508
4768.0 0.0002097 4751.88525 4811.07178
4818.0 0.0002076 4749.82080 4814.68701
4802.0 0.0002082 4747.75342 4819.55518
4844.0 0.0002064 4745.68506 4825.43164
4824.0 0.0002073 4743.61328 4832.06494
4796.0 0.0002085 4741.54004 4839.17725
4828.0 0.0002071 4739.46387 4846.47314
4836.0 0.0002068 4737.38623 4853.62354
4796.0 0.0002085 4735.30664 4860.28174
4841.0 0.0002066 4733.22412 4866.08643
4795.0 0.0002086 4731.14014 4870.67725
4944.0 0.0002023 4729.05322 4873.71777
4818.0 0.0002076 4726.96533 4874.92383
4745.0 0.0002107 4724.87402 4874.09033
4888.0 0.0002046 4722.78223 4871.12988
4845.0 0.0002064 4720.68750 4866.06738
4865.0 0.0002055 4718.59033 4859.05322
4792.0 0.0002087 4716.49219 4850.33154
4850.0 0.0002062 4714.39063 4840.20752
4926.0 0.0002030 4712.28809 4829.02490
4847.0 0.0002063 4710.18262 4817.12939
4788.0 0.0002089 4708.07617 4804.85791
4702.0 0.0002127 4705.96680 4792.51611
4820.0 0.0002075 4703.85645 4780.37402
4677.0 0.0002138 4701.74414 4768.67188
4798.0 0.0002084 4699.62891 4757.55957
4775.0 0.0002094 4697.51270 4747.17822
4687.0 0.0002134 4695.39404 4737.61182
4715.0 0.0002121 4693.27393 4728.89844
4856.0 0.0002059 4691.15137 4721.03369
4780.0 0.0002092 4689.02734 4713.98975
4738.0 0.0002111 4686.90137 4707.71289
4601.0 0.0002173 4684.77393 4702.13330
4627.0 0.0002161 4682.64453 4697.16846
4750.0 0.0002105 4680.51318 4692.73535
4762.0 0.0002100 4678.38037 4688.75586
4754.0 0.0002103 4676.24463 4685.15088
4646.0 0.0002152 4674.10889 4681.85254
4727.0 0.0002116 4671.97021 4678.79639
4662.0 0.0002145 4669.83057 4675.93408
4619.0 0.0002165 4667.68945 4673.22314
4637.0 0.0002157 4665.54590 4670.62500
4596.0 0.0002176 4663.40137 4668.11426
4696.0 0.0002129 4661.25439 4665.66846
4684.0 0.0002135 4659.10693 4663.27197
4630.0 0.0002160 4656.95654 4660.91064
4535.0 0.0002205 4654.80566 4658.57666
4514.0 0.0002215 4652.65283 4655.69043
4570.0 0.0002188 4650.49902 4653.40137
4786.0 0.0002089 4648.34375 4651.12354
4715.0 0.0002121 4646.18604 4648.85352
4454.0 0.0002245 4644.02832 4646.59326
4501.0 0.0002222 4641.86768 4644.33643
4584.0 0.0002182 4639.70654 4642.08643
4739.0 0.0002110 4637.54395 4639.83936
4634.0 0.0002158 4635.37988 4637.59668
4655.0 0.0002148 4633.21387 4635.35596
4694.0 0.0002130 4631.04785 4633.12012
4670.0 0.0002141 4628.88037 4630.88672
4656.0 0.0002148 4626.71045 4628.65283
4656.0 0.0002148 4624.54053 4626.42432
4590.0 0.0002179 4622.36865 4624.19482
4649.0 0.0002151 4620.19580 4621.96777
4598.0 0.0002175 4618.02148 4619.54492
4555.0 0.0002195 4615.84717 4617.32520
4606.0 0.0002171 4613.67090 4615.10547
4479.0 0.0002233 4611.49316 4612.88574
4693.0 0.0002131 4609.31543 4610.66895
4602.0 0.0002173 4607.13525 4608.45166
4649.0 0.0002151 4604.95508 4606.23486
4582.0 0.0002182 4602.77344 4604.01904
4606.0 0.0002171 4600.59180 4601.80420
4546.0 0.0002200 4598.40771 4599.58936
4620.0 0.0002165 4596.22363 4597.37500
4506.0 0.0002219 4594.03906 4595.16211
4482.0 0.0002231 4591.85303 4592.94727
4535.0 0.0002205 4589.66650 4590.73486
4551.0 0.0002197 4587.47803 4588.52002
4638.0 0.0002156 4585.29053 4586.30811
4640.0 0.0002155 4583.10059 4584.09521
4621.0 0.0002164 4580.91113 4581.88281
4551.0 0.0002197 4578.72021 4579.67090
4626.0 0.0002162 4576.52930 4577.45947
4527.0 0.0002209 4574.33789 4575.24707
4523.0 0.0002211 4572.14453 4573.03516
4548.0 0.0002199 4569.95215 4570.82324
4460.0 0.0002242 4567.75781 4568.61133
4478.0 0.0002233 4565.56396 4566.40137
4518.0 0.0002213 4563.36914 4564.19043
4573.0 0.0002187 4561.17383 4561.97900
4625.0 0.0002162 4558.97852 4559.79004
4678.0 0.0002138 4556.78223 4557.58008
4557.0 0.0002194 4554.58594 4555.37012
4673.0 0.0002140 4552.38818 4553.16016
4618.0 0.0002165 4550.19141 4550.95166
4501.0 0.0002222 4547.99316 4548.36182
4458.0 0.0002243 4545.79541 4546.16064
4451.0 0.0002247 4543.59668 4543.95898
4350.0 0.0002299 4541.39893 4541.76074
4604.0 0.0002172 4539.20020 4539.56104
4735.0 0.0002112 4537.00098 4537.36230
4680.0 0.0002137 4534.80225 4535.17676
4559.0 0.0002193 4532.60254 4532.97949
4494.0 0.0002225 4530.40332 4530.78418
4461.0 0.0002242 4528.20361 4528.58838
4417.0 0.0002264 4526.00439 4526.39453
4573.0 0.0002187 4523.80469 4524.20020
4554.0 0.0002196 4521.60498 4522.00586
4437.0 0.0002254 4519.40625 4519.81445
4570.0 0.0002188 4517.20605 4517.61865
4486.0 0.0002229 4515.00684 4515.42432
4515.0 0.0002215 4512.80713 4513.26465
4442.0 0.0002251 4510.60791 4511.06836
4495.0 0.0002225 4508.40869 4508.87158
4561.0 0.0002193 4506.20996 4506.67334
4524.0 0.0002210 4504.01172 4504.47363
4482.0 0.0002231 4501.81250 4502.27100
4629.0 0.0002160 4499.61426 4500.06885
4513.0 0.0002216 4497.41602 4497.86377
4456.0 0.0002244 4495.21875 4495.66016
4550.0 0.0002198 4493.02051 4493.45508
4487.0 0.0002229 4490.82373 4491.31348
4506.0 0.0002219 4488.62695 4489.10938
4408.0 0.0002269 4486.43066 4486.90527
4484.0 0.0002230 4484.23486 4484.70313
4530.0 0.0002208 4482.03906 4482.50146
4407.0 0.0002269 4479.84424 4480.30127
4527.0 0.0002209 4477.64941 4478.10156
4508.0 0.0002218 4475.45605 4475.90479
4403.0 0.0002271 4473.26172 4473.70850
4407.0 0.0002269 4471.06934 4471.51416
4492.0 0.0002226 4468.87646 4469.32129
4457.0 0.0002244 4466.68506 4467.12988
4480.0 0.0002232 4464.49414 4464.94092
4436.0 0.0002254 4462.30322 4462.75146
4506.0 0.0002219 4460.11377 4460.56494
4558.0 0.0002194 4457.92432 4458.37939
4493.0 0.0002226 4455.73633 4456.19678
4517.0 0.0002214 4453.54785 4454.01221
4433.0 0.0002256 4451.36182 4451.83105
4487.0 0.0002229 4449.17578 4449.65088
4422.0 0.0002261 4446.98975 4447.47266
4443.0 0.0002251 4444.80615 4445.29834
4579.0 0.0002184 4442.62158 4443.12012
4491.0 0.0002227 4440.43945 4440.94727
4494.0 0.0002225 4438.25732 4438.66211
4508.0 0.0002218 4436.07617 4436.49219
4410.0 0.0002268 4433.89600 4434.32520
4466.0 0.0002239 4431.71680 4432.16113
4398.0 0.0002274 4429.53906 4429.99951
4348.0 0.0002300 4427.36133 4427.83984
4378.0 0.0002284 4425.18555 4425.68408
4473.0 0.0002236 4423.01025 4423.53271
4409.0 0.0002268 4420.83643 4421.38672
4365.0 0.0002291 4418.66260 4419.24365
4492.0 0.0002226 4416.49121 4417.11035
4417.0 0.0002264 4414.31982 4414.98535
4324.0 0.0002313 4412.15039 4412.86816
4340.0 0.0002304 4409.98193 4410.76416
4423.0 0.0002261 4407.81396 4408.67578
4449.0 0.0002248 4405.64795 4406.60059
4291.0 0.0002330 4403.48193 4404.54150
4337.0 0.0002306 4401.31836 4402.50439
4454.0 0.0002245 4399.15479 4400.48877
4334.0 0.0002307 4396.99365 4398.50000
4352.0 0.0002298 4394.83350 4396.53906
4397.0 0.0002274 4392.67383 4394.60840
4359.0 0.0002294 4390.51611 4392.70996
4407.0 0.0002269 4388.35889 4390.84619
4379.0 0.0002284 4386.20410 4389.02100
4334.0 0.0002307 4384.04932 4387.22998
4428.0 0.0002258 4381.89697 4385.47949
4344.0 0.0002302 4379.74463 4383.76514
4463.0 0.0002241 4377.59521 4382.09180
4475.0 0.0002235 4375.44678 4380.45410
4374.0 0.0002286 4373.29834 4378.84961
4401.0 0.0002272 4371.15283 4377.27832
4262.0 0.0002346 4369.00781 4375.73486
4401.0 0.0002272 4366.86426 4374.21680
4406.0 0.0002270 4364.72217 4372.72217
4359.0 0.0002294 4362.58154 4371.24365
4359.0 0.0002294 4360.44189 4369.77734
4420.0 0.0002262 4358.30469 4368.32324
4292.0 0.0002330 4356.16846 4366.87012
4417.0 0.0002264 4354.03320 4365.41211
4340.0 0.0002304 4351.89990 4363.94287
4263.0 0.0002346 4349.76758 4362.45020
4372.0 0.0002287 4347.63672 4360.92578
4371.0 0.0002288 4345.50732 4359.35547
4461.0 0.0002242 4343.37988 4357.72900
4215.0 0.0002372 4341.25391 4356.03223
4295.0 0.0002328 4339.12842 4354.25195
4401.0 0.0002272 4337.00537 4352.37891
4185.0 0.0002389 4334.88281 4350.41113
4349.0 0.0002299 4332.76270 4348.32617
4473.0 0.0002236 4330.64307 4346.12695
4320.0 0.0002315 4328.52637 4343.81934
4405.0 0.0002270 4326.40967 4341.40234
4366.0 0.0002290 4324.29541 4338.89111
4347.0 0.0002300 4322.18262 4336.29199
4383.0 0.0002282 4320.07080 4333.61768
4308.0 0.0002321 4317.96094 4330.88477
4353.0 0.0002297 4315.85156 4328.10742
4347.0 0.0002300 4313.74512 4325.30078
4342.0 0.0002303 4311.63867 4322.47949
4318.0 0.0002316 4309.53467 4319.65820
4382.0 0.0002282 4307.43164 4316.84961
4290.0 0.0002331 4305.33105 4314.06885
4349.0 0.0002299 4303.23145 4311.32520
4255.0 0.0002350 4301.13232 4308.63086
4359.0 0.0002294 4299.03613 4305.99609
4445.0 0.0002250 4296.93994 4303.42969
4273.0 0.0002340 4294.84619 4300.94043
4196.0 0.0002383 4292.75391 4298.53662
4357.0 0.0002295 4290.66260 4296.22559
4376.0 0.0002285 4288.57324 4294.01514
4351.0 0.0002298 4286.48486 4291.90918
4178.0 0.0002393 4284.39844 4289.91602
4223.0 0.0002368 4282.31250 4288.04199
4343.0 0.0002303 4280.22900 4286.29492
4228.0 0.0002365 4278.14600 4284.67529
4202.0 0.0002380 4276.06494 4283.19092
4255.0 0.0002350 4273.98486 4281.84229
4325.0 0.0002312 4271.90674 4280.63379
4396.0 0.0002275 4269.83008 4279.56396
4177.0 0.0002394 4267.75391 4278.62891
4276.0 0.0002339 4265.68018 4277.82715
4282.0 0.0002335 4263.60645 4277.14551
4343.0 0.0002303 4261.53516 4276.58887
4242.0 0.0002357 4259.46436 4276.12061
4201.0 0.0002380 4257.39600 4275.73486
4216.0 0.0002372 4255.32764 4275.41406
4312.0 0.0002319 4253.26123 4275.13721
4275.0 0.0002339 4251.19678 4274.88184
4250.0 0.0002353 4249.13184 4274.62646
4336.0 0.0002306 4247.06934 4274.34961
4360.0 0.0002294 4245.00732 4274.02783
4333.0 0.0002308 4242.94775 4273.64893
4411.0 0.0002267 4240.88818 4273.19385
4326.0 0.0002312 4238.83057 4272.65967
4210.0 0.0002375 4236.77393 4272.04346
4323.0 0.0002313 4234.71777 4271.35840
4292.0 0.0002330 4232.66357 4270.62256
4270.0 0.0002342 4230.60986 4269.86621
4254.0 0.0002351 4228.55811 4269.12500
4330.0 0.0002309 4226.50635 4268.44189
4227.0 0.0002366 4224.45654 4267.86328
4312.0 0.0002319 4222.40674 4267.43262
4152.0 0.0002408 4220.35889 4267.19678
4293.0 0.0002329 4218.31201 4267.19043
4262.0 0.0002346 4216.26563 4267.45068
4268.0 0.0002343 4214.22070 4267.99902
4363.0 0.0002292 4212.17627 4268.84766
4195.0 0.0002384 4210.13330 4270.00439
4228.0 0.0002365 4208.09033 4271.45801
4221.0 0.0002369 4206.04932 4273.37744
4174.0 0.0002396 4204.00830 4275.35400
4254.0 0.0002351 4201.96875 4277.52881
4226.0 0.0002366 4199.93018 4279.84717
4139.0 0.0002416 4197.89160 4282.24072
4285.0 0.0002334 4195.85449 4284.64111
4288.0 0.0002332 4193.81738 4286.97412
4186.0 0.0002389 4191.78174 4289.16309
4291.0 0.0002330 4189.74609 4291.12891
4284.0 0.0002334 4187.71191 4292.79590
4290.0 0.0002331 4185.67822 4294.07666
4324.0 0.0002313 4183.64453 4294.88672
4340.0 0.0002304 4181.61279 4295.12988
4335.0 0.0002307 4179.58008 4294.70508
4307.0 0.0002322 4177.54883 4293.51465
4286.0 0.0002333 4175.51758 4291.45898
4222.0 0.0002369 4173.48779 4288.46240
4257.0 0.0002349 4171.45703 4284.47070
4266.0 0.0002344 4169.42773 4279.47754
4246.0 0.0002355 4167.39941 4273.52881
4317.0 0.0002316 4165.37061 4266.72119
4258.0 0.0002349 4163.34229 4259.20215
4277.0 0.0002338 4161.31445 4251.13574
4292.0 0.0002330 4159.28711 4242.69434
4239.0 0.0002359 4157.25928 4234.04004
4217.0 0.0002371 4155.23291 4225.32861
4260.0 0.0002347 4153.20605 4216.68896
4251.0 0.0002352 4151.17969 4208.23486
4222.0 0.0002369 4149.15381 4200.05811
4239.0 0.0002359 4147.12744 4192.22803
4157.0 0.0002406 4145.10156 4184.79395
4041.0 0.0002475 4143.07520 4177.79102
4228.0 0.0002365 4141.05029 4171.23779
4207.0 0.0002377 4139.02393 4165.13672
4130.0 0.0002421 4136.99854 4159.48242
4241.0 0.0002358 4134.97363 4154.25879
4161.0 0.0002403 4132.94775 4149.44287
4222.0 0.0002369 4130.92236 4145.00586
4198.0 0.0002382 4128.89600 4140.91504
4136.0 0.0002418 4126.87061 4137.14014
4237.0 0.0002360 4124.84424 4133.64160
4057.0 0.0002465 4122.81836 4130.38867
4158.0 0.0002405 4120.79150 4127.34619
4183.0 0.0002391 4118.76563 4124.48486
4219.0 0.0002370 4116.73877 4121.77539
4095.0 0.0002442 4114.71143 4119.19287
4104.0 0.0002437 4112.68457 4116.71680
4129.0 0.0002422 4110.65674 4114.32568
4169.0 0.0002399 4108.62891 4112.00293
4147.0 0.0002411 4106.60010 4109.73877
4141.0 0.0002415 4104.57129 4107.51904
4136.0 0.0002418 4102.54199 4105.33545
4136.0 0.0002418 4100.51270 4103.18115
4159.0 0.0002404 4098.48242 4101.05127
4236.0 0.0002361 4096.45117 4098.94043
4158.0 0.0002405 4094.42017 4096.84912
4125.0 0.0002424 4092.38818 4094.77197
4087.0 0.0002447 4090.35596 4092.77905
4113.0 0.0002431 4088.32227 4090.73169
4121.0 0.0002427 4086.28906 4088.70117
4142.0 0.0002414 4084.25488 4086.68652
4038.0 0.0002476 4082.21899 4084.68970
3984.0 0.0002510 4080.18359 4082.71436
4087.0 0.0002447 4078.14648 4080.76025
4096.0 0.0002441 4076.10913 4078.83325
4126.0 0.0002424 4074.07031 4076.98535
4019.0 0.0002488 4072.03174 4075.12109
3878.0 0.0002579 4069.99097 4073.29077
3983.0 0.0002511 4067.95020 4071.50146
4003.0 0.0002498 4065.90894 4069.75342
4110.0 0.0002433 4063.86548 4068.04932
4061.0 0.0002462 4061.82178 4066.39063
4022.0 0.0002486 4059.77661 4064.82861
4158.0 0.0002405 4057.73120 4063.26318
4213.0 0.0002374 4055.68359 4061.74219
4128.0 0.0002422 4053.63574 4060.26147
4114.0 0.0002431 4051.58643 4058.81860
4015.0 0.0002491 4049.53638 4057.40674
4221.0 0.0002369 4047.48511 4056.01855
4094.0 0.0002443 4045.43237 4054.64575
4088.0 0.0002446 4043.37866 4053.28003
4061.0 0.0002462 4041.32300 4051.91187
3917.0 0.0002553 4039.26685 4050.53296
3984.0 0.0002510 4037.20923 4049.13257
4033.0 0.0002480 4035.15039 4047.78809
4054.0 0.0002467 4033.09033 4046.32666
4061.0 0.0002462 4031.02856 4044.82544
3977.0 0.0002514 4028.96582 4043.28418
4120.0 0.0002427 4026.90112 4041.70264
4072.0 0.0002456 4024.83594 4040.13843
4101.0 0.0002438 4022.76831 4038.49390
4027.0 0.0002483 4020.69971 4036.83154
4034.0 0.0002479 4018.62915 4035.15820
4135.0 0.0002418 4016.55811 4033.48413
4058.0 0.0002464 4014.48535 4031.81274
4066.0 0.0002459 4012.41016 4030.14526
3953.0 0.0002530 4010.33447 4028.48145
3921.0 0.0002550 4008.25635 4026.80835
3993.0 0.0002504 4006.17725 4025.11450
3920.0 0.0002551 4004.09595 4023.37964
3962.0 0.0002524 4002.01392 4021.58203
3965.0 0.0002522 3999.92944 4019.69287
3988.0 0.0002508 3997.84375 4017.68701
4132.0 0.0002420 3995.75684 4015.54126
4038.0 0.0002476 3993.66724 4013.23438
3958.0 0.0002527 3991.57666 4010.76099
3892.0 0.0002569 3989.48364 4008.12354
3978.0 0.0002514 3987.38989 4005.33887
3996.0 0.0002503 3985.29346 4002.43066
3989.0 0.0002507 3983.19604 3999.43286
3980.0 0.0002513 3981.09717 3996.36719
4007.0 0.0002496 3978.99536 3993.29834
3931.0 0.0002544 3976.89258 3990.25024
3883.0 0.0002575 3974.78760 3987.25757
3947.0 0.0002534 3972.68115 3984.35327
3944.0 0.0002535 3970.57227 3981.56812
3978.0 0.0002514 3968.46240 3978.93286
4022.0 0.0002486 3966.34985 3976.47339
3984.0 0.0002510 3964.23608 3974.28662
3913.0 0.0002556 3962.12061 3972.26416
3923.0 0.0002549 3960.00269 3970.50293
3910.0 0.0002558 3957.88354 3969.03662
3928.0 0.0002546 3955.76172 3967.90063
3964.0 0.0002523 3953.63892 3967.13818
4001.0 0.0002499 3951.51318 3966.79492
4089.0 0.0002446 3949.38647 3966.92432
4092.0 0.0002444 3947.25708 3967.58154
3998.0 0.0002501 3945.12695 3968.83057
4040.0 0.0002475 3942.99438 3970.73145
3879.0 0.0002578 3940.85938 3973.34717
4001.0 0.0002499 3938.72339 3976.73926
3871.0 0.0002583 3936.58447 3980.95117
3966.0 0.0002521 3934.44434 3986.02783
4019.0 0.0002488 3932.30176 3991.98950
3939.0 0.0002539 3930.15820 3998.84058
3933.0 0.0002543 3928.01221 4006.55713
3932.0 0.0002543 3925.86401 4015.06543
3998.0 0.0002501 3923.71460 4024.33081
4113.0 0.0002431 3921.56250 4034.21216
4050.0 0.0002469 3919.40894 4044.56055
4038.0 0.0002476 3917.25342 4055.19336
4075.0 0.0002454 3915.09619 4065.89307
4099.0 0.0002440 3912.93628 4076.41602
4096.0 0.0002441 3910.77539 4086.49487
4143.0 0.0002414 3908.61304 4095.84229
4053.0 0.0002467 3906.44751 4104.16016
4186.0 0.0002389 3904.28101 4111.15771
4002.0 0.0002499 3902.11230 4116.55225
4227.0 0.0002366 3899.94189 4120.09814
4165.0 0.0002401 3897.76929 4121.59375
4149.0 0.0002410 3895.59570 4120.90674
4172.0 0.0002397 3893.41919 4117.97949
4169.0 0.0002399 3891.24170 4112.84570
4142.0 0.0002414 3889.06274 4105.61523
4039.0 0.0002476 3886.88086 4096.46924
4115.0 0.0002430 3884.69800 4085.64575
3933.0 0.0002543 3882.51270 4073.41577
4083.0 0.0002449 3880.32666 4060.07202
3985.0 0.0002509 3878.13770 4045.91064
4021.0 0.0002487 3875.94800 4031.22314
3929.0 0.0002545 3873.75659 4016.28369
3972.0 0.0002518 3871.56274 4001.34375
3949.0 0.0002532 3869.36792 3986.63037
3940.0 0.0002538 3867.17065 3972.33496
3909.0 0.0002558 3864.97266 3958.62036
3963.0 0.0002523 3862.77222 3945.60864
3877.0 0.0002579 3860.57080 3933.39551
3935.0 0.0002541 3858.36694 3922.09692
3936.0 0.0002541 3856.16284 3911.62646
3887.0 0.0002573 3853.95679 3902.04688
3984.0 0.0002510 3851.74829 3893.33594
3878.0 0.0002579 3849.53955 3885.46191
3916.0 0.0002554 3847.32813 3878.37158
3963.0 0.0002523 3845.11597 3872.01733
3852.0 0.0002596 3842.90210 3866.31494
3932.0 0.0002543 3840.68726 3861.20947
3782.0 0.0002644 3838.46997 3856.63403
3846.0 0.0002600 3836.25269 3852.53174
3910.0 0.0002558 3834.03369 3848.84668
3870.0 0.0002584 3831.81250 3845.53296
3857.0 0.0002593 3829.59106 3842.55713
3790.0 0.0002639 3827.36743 3839.89233
3828.0 0.0002612 3825.14331 3837.53076
3920.0 0.0002551 3822.91724 3835.47144
3807.0 0.0002627 3820.69092 3833.73730
3821.0 0.0002617 3818.46313 3832.42700
3793.0 0.0002636 3816.23340 3831.46533
3859.0 0.0002591 3814.00366 3830.99561
3910.0 0.0002558 3811.77197 3831.02417
3838.0 0.0002606 3809.53979 3831.84937
3809.0 0.0002625 3807.30591 3833.51733
3811.0 0.0002624 3805.07202 3836.17993
3840.0 0.0002604 3802.83618 3839.98706
3814.0 0.0002622 3800.60010 3845.07886
3812.0 0.0002623 3798.36353 3851.56055
3865.0 0.0002587 3796.12500 3859.47925
3924.0 0.0002548 3793.88623 3868.80420
3813.0 0.0002623 3791.64600 3879.40234
3947.0 0.0002534 3789.40625 3891.02612
3839.0 0.0002605 3787.16455 3903.29932
3870.0 0.0002584 3784.92285 3915.72632
4028.0 0.0002483 3782.67993 3927.70459
4002.0 0.0002499 3780.43701 3938.57837
3987.0 0.0002508 3778.19336 3947.74268
4072.0 0.0002456 3775.94873 3954.79639
3973.0 0.0002517 3773.70410 3959.90942
3929.0 0.0002545 3771.45801 3963.04077
3922.0 0.0002550 3769.21240 3964.60034
3873.0 0.0002582 3766.96582 3965.24268
3973.0 0.0002517 3764.71948 3965.37085
3920.0 0.0002551 3762.47241 3965.20752
3841.0 0.0002603 3760.22485 3964.77295
3994.0 0.0002504 3757.97729 3963.88550
3984.0 0.0002510 3755.72876 3962.19043
3909.0 0.0002558 3753.48120 3959.22485
4045.0 0.0002472 3751.23218 3954.50464
3874.0 0.0002581 3748.98389 3947.65869
3899.0 0.0002565 3746.73486 3938.54834
3856.0 0.0002593 3744.48657 3927.31958
3994.0 0.0002504 3742.23804 3914.35132
4045.0 0.0002472 3739.98877 3900.15405
4047.0 0.0002471 3737.74048 3885.27783
3831.0 0.0002610 3735.49146 3870.24341
3888.0 0.0002572 3733.24316 3855.52319
3846.0 0.0002600 3730.99414 3841.51367
3805.0 0.0002628 3728.74658 3828.53931
3741.0 0.0002673 3726.49805 3816.83643
3816.0 0.0002621 3724.25049 3806.57520
3868.0 0.0002585 3722.00366 3797.85498
3798.0 0.0002633 3719.75586 3790.71484
3774.0 0.0002650 3717.50952 3785.15454
3881.0 0.0002577 3715.26245 3781.12744
3698.0 0.0002704 3713.01733 3778.56860
3762.0 0.0002658 3710.77124 3777.38501
3761.0 0.0002659 3708.52661 3777.47559
3740.0 0.0002674 3706.28296 3778.72290
3839.0 0.0002605 3704.03857 3781.00269
3843.0 0.0002602 3701.79565 3784.18481
3798.0 0.0002633 3699.55298 3788.12158
3816.0 0.0002621 3697.31152 3792.63794
3740.0 0.0002674 3695.06982 3797.60034
3863.0 0.0002589 3692.83008 3802.79834
3694.0 0.0002707 3690.59009 3808.02490
3812.0 0.0002623 3688.35181 3813.05835
3805.0 0.0002628 3686.11426 3817.65942
3748.0 0.0002668 3683.87720 3821.58496
3795.0 0.0002635 3681.64160 3824.59180
3755.0 0.0002663 3679.40625 3826.44336
3854.0 0.0002595 3677.17285 3826.93970
3793.0 0.0002636 3674.93945 3825.95093
3789.0 0.0002639 3672.70801 3823.33203
3787.0 0.0002641 3670.47681 3819.10425
3893.0 0.0002569 3668.24780 3813.34180
3785.0 0.0002642 3666.01978 3806.19360
3702.0 0.0002701 3663.79199 3797.85815
3723.0 0.0002686 3661.56665 3788.57007
3801.0 0.0002631 3659.34155 3778.56909
3763.0 0.0002657 3657.11841 3768.09595
3881.0 0.0002577 3654.89600 3757.37402
3810.0 0.0002625 3652.67603 3746.60815
3766.0 0.0002655 3650.45703 3735.97363
3751.0 0.0002666 3648.23853 3725.61768
3764.0 0.0002657 3646.02295 3715.65845
3602.0 0.0002776 3643.80737 3706.17993
3673.0 0.0002723 3641.59424 3697.24414
3624.0 0.0002759 3639.38232 3688.87915
3692.0 0.0002709 3637.17236 3681.09717
3535.0 0.0002829 3634.96313 3673.88867
3812.0 0.0002623 3632.75659 3667.23364
3706.0 0.0002698 3630.55127 3661.09839
3673.0 0.0002723 3628.34692 3655.44531
3581.0 0.0002793 3626.14526 3650.23267
3645.0 0.0002743 3623.94458 3645.41943
3696.0 0.0002706 3621.74609 3640.96484
3548.0 0.0002818 3619.54883 3636.82935
3602.0 0.0002776 3617.35425 3632.97876
3590.0 0.0002786 3615.16016 3629.37817
3602.0 0.0002776 3612.96899 3626.00366
3693.0 0.0002708 3610.77979 3622.82764
3652.0 0.0002738 3608.59155 3619.82959
3629.0 0.0002756 3606.40576 3616.99390
3536.0 0.0002828 3604.22119 3614.30444
3640.0 0.0002747 3602.03955 3611.75415
3609.0 0.0002771 3599.85864 3609.33447
3639.0 0.0002748 3597.68066 3607.04492
3643.0 0.0002745 3595.50464 3604.88501
3587.0 0.0002788 3593.32983 3602.85986
3552.0 0.0002815 3591.15747 3600.98169
3690.0 0.0002710 3588.98657 3599.26172
3561.0 0.0002808 3586.81860 3597.71924
3582.0 0.0002792 3584.65161 3596.37598
3611.0 0.0002769 3582.48730 3595.26147
3599.0 0.0002779 3580.32471 3594.40649
3646.0 0.0002743 3578.16455 3593.84448
3582.0 0.0002792 3576.00659 3593.61597
3576.0 0.0002796 3573.84961 3593.75562
3493.0 0.0002863 3571.69604 3594.30933
3538.0 0.0002826 3569.54321 3595.31104
3621.0 0.0002762 3567.39331 3596.79639
3507.0 0.0002851 3565.24512 3598.79492
3496.0 0.0002860 3563.09937 3601.32617
3615.0 0.0002766 3560.95483 3604.21094
3631.0 0.0002754 3558.81348 3607.82227
3533.0 0.0002830 3556.67407 3611.94653
3646.0 0.0002743 3554.53564 3616.54272
3737.0 0.0002676 3552.40063 3621.55371
3665.0 0.0002729 3550.26660 3626.89697
3607.0 0.0002772 3548.13525 3632.47290
3617.0 0.0002765 3546.00513 3638.16089
3662.0 0.0002731 3543.87817 3643.82593
3661.0 0.0002731 3541.75293 3649.31934
3698.0 0.0002704 3539.62915 3654.48096
3591.0 0.0002785 3537.50830 3659.15552
3616.0 0.0002765 3535.38843 3663.18750
3680.0 0.0002717 3533.27148 3666.44336
3684.0 0.0002714 3531.15552 3668.81763
3669.0 0.0002726 3529.04272 3670.25024
3731.0 0.0002680 3526.93066 3670.73730
3841.0 0.0002603 3524.82153 3670.34619
3684.0 0.0002714 3522.71460 3669.21777
3765.0 0.0002656 3520.60840 3667.56323
3801.0 0.0002631 3518.50513 3665.66016
3691.0 0.0002709 3516.40283 3663.82446
3554.0 0.0002814 3514.30347 3662.40332
3629.0 0.0002756 3512.20483 3661.73633
3822.0 0.0002616 3510.10864 3662.14575
3673.0 0.0002723 3508.01416 3663.89844
3627.0 0.0002757 3505.92163 3667.19165
3680.0 0.0002717 3503.83105 3672.12793
3663.0 0.0002730 3501.74170 3678.69800
3684.0 0.0002714 3499.65454 3686.77441
3771.0 0.0002652 3497.56836 3696.09912
3770.0 0.0002653 3495.48438 3706.29321
3762.0 0.0002658 3493.40186 3716.86133
3775.0 0.0002649 3491.32104 3727.20947
3705.0 0.0002699 3489.24219 3736.69629
3750.0 0.0002667 3487.16431 3744.68677
3764.0 0.0002657 3485.08813 3750.66919
3762.0 0.0002658 3483.01294 3754.30054
3767.0 0.0002655 3480.94019 3755.54297
3759.0 0.0002660 3478.86792 3754.61230
3769.0 0.0002653 3476.79761 3751.91943
3761.0 0.0002659 3474.72803 3747.97778
3727.0 0.0002683 3472.66089 3743.31055
3706.0 0.0002698 3470.59448 3738.38696
3623.0 0.0002760 3468.52881 3733.58936
3753.0 0.0002665 3466.46509 3729.19751
3687.0 0.0002712 3464.40186 3725.37378
3793.0 0.0002636 3462.34033 3722.17529
3669.0 0.0002726 3460.27905 3719.54785
3760.0 0.0002660 3458.21997 3717.35571
3771.0 0.0002652 3456.16064 3715.38403
3818.0 0.0002619 3454.10327 3713.37646
3774.0 0.0002650 3452.04688 3711.05444
3697.0 0.0002705 3449.99048 3708.13892
3806.0 0.0002627 3447.93555 3704.38672
3760.0 0.0002660 3445.88086 3699.59424
3726.0 0.0002684 3443.82788 3693.62671
3678.0 0.0002719 3441.77441 3686.40454
3711.0 0.0002695 3439.72241 3677.92261
3619.0 0.0002763 3437.67139 3668.22900
3613.0 0.0002768 3435.61963 3657.41968
3582.0 0.0002792 3433.56934 3645.63452
3723.0 0.0002686 3431.51904 3633.03516
3553.0 0.0002815 3429.46948 3619.79932
3558.0 0.0002811 3427.41943 3606.11304
3585.0 0.0002789 3425.37085 3592.16577
3507.0 0.0002851 3423.32153 3578.13257
3517.0 0.0002843 3421.27319 3564.18408
3505.0 0.0002853 3419.22510 3550.47290
3478.0 0.0002875 3417.17627 3537.13159
3574.0 0.0002798 3415.12817 3524.27612
3523.0 0.0002838 3413.07910 3511.99805
3515.0 0.0002845 3411.03125 3500.37085
3495.0 0.0002861 3408.98218 3489.44214
3496.0 0.0002860 3406.93359 3479.24292
3479.0 0.0002874 3404.88428 3469.78467
3504.0 0.0002854 3402.83545 3461.06445
3468.0 0.0002884 3400.78613 3453.06079
3484.0 0.0002870 3398.73560 3445.74194
3509.0 0.0002850 3396.68579 3439.07056
3400.0 0.0002941 3394.63428 3432.99658
3527.0 0.0002835 3392.58301 3427.47168
3503.0 0.0002855 3390.53052 3422.44043
3394.0 0.0002946 3388.47827 3417.85107
3424.0 0.0002921 3386.42505 3413.65088
3444.0 0.0002904 3384.37036 3409.79077
3421.0 0.0002923 3382.31592 3406.22827
3402.0 0.0002939 3380.25952 3402.92065
3372.0 0.0002966 3378.20288 3399.83716
3424.0 0.0002921 3376.14478 3396.94873
3396.0 0.0002945 3374.08594 3394.23218
3381.0 0.0002958 3372.02539 3391.67163
3444.0 0.0002904 3369.96484 3389.25562
3384.0 0.0002955 3367.90259 3386.97388
3325.0 0.0003008 3365.83862 3384.82349
3424.0 0.0002921 3363.77368 3382.80176
3347.0 0.0002988 3361.70728 3380.90942
3407.0 0.0002935 3359.63965 3379.14819
3344.0 0.0002990 3357.57007 3377.51733
3372.0 0.0002966 3355.49976 3376.01978
3368.0 0.0002969 3353.42700 3374.65210
3450.0 0.0002899 3351.35303 3373.41553
3435.0 0.0002911 3349.27808 3372.30444
3380.0 0.0002959 3347.19995 3371.30811
3274.0 0.0003054 3345.12109 3370.41992
3338.0 0.0002996 3343.03955 3369.62183
3309.0 0.0003022 3340.95703 3368.89868
3370.0 0.0002967 3338.87183 3368.22729
3320.0 0.0003012 3336.78516 3367.58252
3364.0 0.0002973 3334.69678 3366.93848
3395.0 0.0002946 3332.60547 3366.26172
3285.0 0.0003044 3330.51245 3365.52173
3422.0 0.0002922 3328.41675 3364.68311
3335.0 0.0002999 3326.31982 3363.71289
3328.0 0.0003005 3324.21973 3362.57642
3249.0 0.0003078 3322.11792 3361.24341
3320.0 0.0003012 3320.01343 3359.68530
3326.0 0.0003007 3317.90698 3357.88037
3317.0 0.0003015 3315.79810 3355.81030
3292.0 0.0003038 3313.68604 3353.46826
3363.0 0.0002974 3311.57251 3350.85474
3356.0 0.0002980 3309.45532 3347.97729
3251.0 0.0003076 3307.33643 3344.85156
3399.0 0.0002942 3305.21436 3341.49829
3328.0 0.0003005 3303.09009 3337.94751
3176.0 0.0003149 3300.96265 3334.22632
3384.0 0.0002955 3298.83325 3330.36743
3284.0 0.0003045 3296.70093 3326.40479
3320.0 0.0003012 3294.56519 3322.36987
3293.0 0.0003037 3292.42773 3318.29590
3243.0 0.0003084 3290.28638 3314.20923
3378.0 0.0002960 3288.14282 3310.13867
3380.0 0.0002959 3285.99561 3306.10742
3300.0 0.0003030 3283.84668 3302.13843
3326.0 0.0003007 3281.69434 3298.24561
3280.0 0.0003049 3279.53857 3294.44604
3279.0 0.0003050 3277.38086 3290.74878
3285.0 0.0003044 3275.21899 3287.16064
3354.0 0.0002982 3273.05493 3283.68750
3268.0 0.0003060 3270.88721 3280.15063
3335.0 0.0002999 3268.71753 3276.90845
3256.0 0.0003071 3266.54370 3273.77490
3326.0 0.0003007 3264.36768 3270.86426
3171.0 0.0003154 3262.18872 3267.93799
3283.0 0.0003046 3260.00586 3265.10156
3179.0 0.0003146 3257.82056 3262.35083
3247.0 0.0003080 3255.63135 3259.67432
3215.0 0.0003110 3253.44043 3257.06592
3233.0 0.0003093 3251.24512 3254.51489
3265.0 0.0003063 3249.04761 3252.01733
3231.0 0.0003095 3246.84668 3249.56250
3294.0 0.0003036 3244.64307 3247.14526
3213.0 0.0003112 3242.43628 3244.76099
3269.0 0.0003059 3240.22632 3242.40234
3223.0 0.0003103 3238.01343 3240.06519
3209.0 0.0003116 3235.79688 3237.74487
3231.0 0.0003095 3233.57837 3235.43921
3205.0 0.0003120 3231.35596 3233.14575
3213.0 0.0003112 3229.13110 3230.86060
3328.0 0.0003005 3226.90356 3228.58423
3339.0 0.0002995 3224.67236 3226.31128
3138.0 0.0003187 3222.43896 3224.04321
3161.0 0.0003164 3220.20166 3221.77783
3186.0 0.0003139 3217.96265 3219.51660
3172.0 0.0003153 3215.71973 3217.25830
3186.0 0.0003139 3213.47485 3215.00244
3255.0 0.0003072 3211.22632 3212.74878
3212.0 0.0003113 3208.97607 3210.44067
3178.0 0.0003147 3206.72290 3208.19751
3204.0 0.0003121 3204.46631 3205.95874
3198.0 0.0003127 3202.20801 3203.72827
3191.0 0.0003134 3199.94604 3201.50342
3244.0 0.0003083 3197.68262 3199.28955
3250.0 0.0003077 3195.41553 3197.08667
3173.0 0.0003152 3193.14722 3194.89600
3228.0 0.0003098 3190.87549 3192.72095
3228.0 0.0003098 3188.60205 3190.56201
3276.0 0.0003053 3186.32666 3188.42212
3215.0 0.0003110 3184.04785 3186.30151
3247.0 0.0003080 3181.76758 3184.23193
3240.0 0.0003086 3179.48486 3182.15942
3269.0 0.0003059 3177.20044 3180.10864
3162.0 0.0003163 3174.91333 3178.08545
3039.0 0.0003291 3172.62476 3176.08862
3164.0 0.0003161 3170.33472 3174.11694
3254.0 0.0003073 3168.04175 3172.17163
3115.0 0.0003210 3165.74805 3170.25195
3127.0 0.0003198 3163.45190 3168.35620
3218.0 0.0003108 3161.15454 3166.48120
3161.0 0.0003164 3158.85498 3164.62695
3123.0 0.0003202 3156.55493 3162.79199
3058.0 0.0003270 3154.25244 3160.97192
3107.0 0.0003219 3151.94946 3159.16602
3170.0 0.0003155 3149.64551 3157.37183
3041.0 0.0003288 3147.33936 3155.58521
3193.0 0.0003132 3145.03271 3153.80371
3221.0 0.0003105 3142.72461 3152.02124
3142.0 0.0003183 3140.41650 3150.23535
3122.0 0.0003203 3138.10645 3148.47192
3106.0 0.0003220 3135.79639 3146.65063
3042.0 0.0003287 3133.48486 3144.80005
3134.0 0.0003191 3131.17407 3142.91040
3075.0 0.0003252 3128.86230 3140.97021
3076.0 0.0003251 3126.54956 3138.96753
3078.0 0.0003249 3124.23755 3136.89771
3224.0 0.0003102 3121.92432 3134.74683
3084.0 0.0003243 3119.61157 3132.51099
3104.0 0.0003222 3117.29834 3130.18530
3126.0 0.0003199 3114.98608 3127.76978
3268.0 0.0003060 3112.67383 3125.26465
3052.0 0.0003277 3110.36133 3122.67407
3161.0 0.0003164 3108.05005 3120.00659
3130.0 0.0003195 3105.73828 3117.26929
3137.0 0.0003188 3103.42798 3114.48535
3124.0 0.0003201 3101.11792 3111.64331
3147.0 0.0003178 3098.80933 3108.76660
3133.0 0.0003192 3096.50073 3105.86353
3049.0 0.0003280 3094.19434 3102.94897
3092.0 0.0003234 3091.88867 3100.03052
3049.0 0.0003280 3089.58374 3097.11670
3032.0 0.0003298 3087.28076 3094.21802
3115.0 0.0003210 3084.97900 3091.34033
3072.0 0.0003255 3082.67920 3088.49023
3207.0 0.0003118 3080.38037 3085.67261
3124.0 0.0003201 3078.08447 3082.89111
3105.0 0.0003221 3075.78955 3080.14868
3070.0 0.0003257 3073.49731 3077.44604
3109.0 0.0003216 3071.20752 3074.78516
3023.0 0.0003308 3068.91919 3072.16357
3058.0 0.0003270 3066.63379 3069.58276
3065.0 0.0003263 3064.35010 3067.03931
3058.0 0.0003270 3062.07031 3064.53418
3192.0 0.0003133 3059.79199 3062.06006
2954.0 0.0003385 3057.51733 3059.62939
3077.0 0.0003250 3055.24609 3057.21680
3052.0 0.0003277 3052.97681 3054.83057
3045.0 0.0003284 3050.71143 3052.46851
3109.0 0.0003216 3048.44849 3050.12695
3000.0 0.0003333 3046.19019 3047.80566
3062.0 0.0003266 3043.93433 3045.50000
3038.0 0.0003292 3041.68262 3043.21094
3014.0 0.0003318 3039.43433 3040.93530
3179.0 0.0003146 3037.19043 3038.67236
3172.0 0.0003153 3034.95044 3036.42041
3013.0 0.0003319 3032.71362 3034.17749
2988.0 0.0003347 3030.48218 3031.94580
3005.0 0.0003328 3028.25391 3029.72144
3029.0 0.0003301 3026.03076 3027.50610
3093.0 0.0003233 3023.81152 3025.29834
3079.0 0.0003248 3021.59741 3023.09814
3045.0 0.0003284 3019.38696 3020.90503
2925.0 0.0003419 3017.18262 3018.72021
3047.0 0.0003282 3014.98267 3016.54199
3090.0 0.0003236 3012.78687 3014.37036
3088.0 0.0003238 3010.59741 3012.20801
3020.0 0.0003311 3008.41187 3010.05176
3027.0 0.0003304 3006.23218 3007.90381
3135.0 0.0003190 3004.05713 3005.76343
2924.0 0.0003420 3001.88867 3003.63208
3036.0 0.0003294 2999.72510 3001.50952
2987.0 0.0003348 2997.56641 2999.39429
2968.0 0.0003369 2995.41455 2997.29077
3005.0 0.0003328 2993.26709 2995.19604
2993.0 0.0003341 2991.12646 2993.11353
2931.0 0.0003412 2988.99072 2991.04248
2880.0 0.0003472 2986.86182 2988.98608
2987.0 0.0003348 2984.73804 2986.94507
2998.0 0.0003336 2982.62109 2984.92114
3027.0 0.0003304 2980.51025 2982.91821
3080.0 0.0003247 2978.40479 2980.93750
3011.0 0.0003321 2976.30615 2978.98486
3047.0 0.0003282 2974.21313 2977.06592
3019.0 0.0003312 2972.12744 2975.18335
2998.0 0.0003336 2970.04688 2973.34473
3032.0 0.0003298 2967.97363 2971.55957
3045.0 0.0003284 2965.90625 2969.83594
3023.0 0.0003308 2963.84570 2968.18408
3037.0 0.0003293 2961.79175 2966.61768
3001.0 0.0003332 2959.74390 2965.14746
2977.0 0.0003359 2957.70313 2963.78931
2937.0 0.0003405 2955.66797 2962.55933
2974.0 0.0003362 2953.64038 2961.47754
2993.0 0.0003341 2951.61865 2960.56104
3051.0 0.0003278 2949.60400 2959.83130
3008.0 0.0003324 2947.59595 2959.31006
3020.0 0.0003311 2945.59424 2959.01904
2941.0 0.0003400 2943.59937 2958.98291
2968.0 0.0003369 2941.61060 2959.22095
2968.0 0.0003369 2939.62915 2959.75806
2945.0 0.0003396 2937.65356 2960.61450
2902.0 0.0003446 2935.68506 2961.80640
3009.0 0.0003323 2933.72217 2963.35254
2937.0 0.0003405 2931.76709 2965.26465
3024.0 0.0003307 2929.81812 2967.54980
2985.0 0.0003350 2927.87476 2970.21021
2925.0 0.0003419 2925.93896 2973.24243
2945.0 0.0003396 2924.00830 2976.62964
3039.0 0.0003291 2922.08472 2980.35059
2975.0 0.0003361 2920.16675 2984.36938
2886.0 0.0003465 2918.25586 2988.64551
2963.0 0.0003375 2916.35034 2993.12183
2961.0 0.0003377 2914.45117 2997.56250
2893.0 0.0003457 2912.55859 3002.24023
3035.0 0.0003295 2910.67065 3006.89697
2924.0 0.0003420 2908.78931 3011.44824
2990.0 0.0003344 2906.91357 3015.79932
2987.0 0.0003348 2905.04346 3019.85718
2894.0 0.0003455 2903.17847 3023.52905
3018.0 0.0003313 2901.31958 3026.72729
2979.0 0.0003357 2899.46631 3029.37598
2995.0 0.0003339 2897.61719 3031.41040
3017.0 0.0003315 2895.77393 3032.79126
3179.0 0.0003146 2893.93530 3033.50146
2908.0 0.0003439 2892.10181 3033.55762
3102.0 0.0003224 2890.27246 3033.00659
3042.0 0.0003287 2888.44873 3031.93237
3117.0 0.0003208 2886.62842 3030.44043
3155.0 0.0003170 2884.81299 3028.66138
2971.0 0.0003366 2883.00220 3026.73438
3003.0 0.0003330 2881.19458 3024.78931
2937.0 0.0003405 2879.39136 3022.93823
2894.0 0.0003455 2877.59106 3021.25293
3014.0 0.0003318 2875.79541 3019.75586
2883.0 0.0003469 2874.00220 3018.40039
2966.0 0.0003372 2872.21289 3017.07397
3014.0 0.0003318 2870.42578 3015.58496
2949.0 0.0003391 2868.64258 3013.67285
2986.0 0.0003349 2866.86182 3011.01392
2955.0 0.0003384 2865.08276 3007.25439
3075.0 0.0003252 2863.30688 3002.07178
3010.0 0.0003322 2861.53223 2995.24854
3022.0 0.0003309 2859.76001 2986.75928
3034.0 0.0003296 2857.98877 2976.78174
3029.0 0.0003301 2856.21997 2965.65796
2928.0 0.0003415 2854.45215 2953.80396
2982.0 0.0003353 2852.68457 2941.63843
2872.0 0.0003482 2850.91895 2929.53906
2969.0 0.0003368 2849.15283 2917.81714
2923.0 0.0003421 2847.38770 2906.71313
2810.0 0.000356 2845.62231 2896.39600
2866.0 0.0003489 2843.85742 2886.99756
2867.0 0.0003488 2842.09131 2878.49268
2835.0 0.000353 2840.32544 2870.90308
2824.0 0.000354 2838.55859 2864.18066
2762.0 0.000362 2836.79004 2858.25146
2759.0 0.000362 2835.02100 2853.02954
2767.0 0.000361 2833.24951 2848.42041
2821.0 0.000354 2831.47681 2844.33643
2719.0 0.000368 2829.70166 2840.75342
2844.0 0.000352 2827.92480 2837.47754
2911.0 0.0003435 2826.14453 2834.50439
2862.0 0.0003494 2824.36206 2831.78076
2826.0 0.000354 2822.57666 2829.26294
2929.0 0.0003414 2820.78711 2826.91479
2844.0 0.000352 2818.99463 2824.70850
2691.0 0.000372 2817.19751 2822.62134
2838.0 0.000352 2815.39722 2820.63916
2855.0 0.0003503 2813.59155 2818.74805
2829.0 0.000353 2811.78174 2816.94141
2861.0 0.0003495 2809.96729 2815.21631
2879.0 0.0003473 2808.14697 2813.56885
2713.0 0.000369 2806.32153 2812.00146
2859.0 0.0003498 2804.48999 2810.51318
2877.0 0.0003476 2802.65332 2809.11060
2858.0 0.0003499 2800.80933 2807.79321
2802.0 0.000357 2798.95947 2806.56689
2758.0 0.000363 2797.10254 2805.43188
2803.0 0.000357 2795.23901 2804.39063
2831.0 0.000353 2793.36816 2803.44092
2802.0 0.000357 2791.48926 2802.57861
2783.0 0.000359 2789.60303 2801.79761
2810.0 0.000356 2787.70825 2801.10986
2825.0 0.000354 2785.80566 2800.45605
2848.0 0.000351 2783.89429 2799.84204
2785.0 0.000359 2781.97437 2799.24414
2808.0 0.000356 2780.04492 2798.63794
2826.0 0.000354 2778.10718 2797.99487
2797.0 0.000358 2776.15942 2797.27075
2762.0 0.000362 2774.20166 2796.45435
2772.0 0.000361 2772.23486 2795.50195
2798.0 0.000357 2770.25684 2794.37622
2766.0 0.000362 2768.26904 2793.04810
2832.0 0.000353 2766.27026 2791.48901
2840.0 0.000352 2764.26147 2789.68091
2776.0 0.000360 2762.24170 2787.61182
2748.0 0.000364 2760.20996 2785.28271
2842.0 0.000352 2758.16772 2782.70483
2732.0 0.000366 2756.11328 2779.89868
2894.0 0.0003455 2754.04761 2776.89111
2767.0 0.000361 2751.96948 2773.71313
2827.0 0.000354 2749.88037 2770.40015
2790.0 0.000358 2747.77808 2767.01465
2760.0 0.000362 2745.66406 2763.53052
2780.0 0.000360 2743.53809 2760.00903
2708.0 0.000369 2741.39844 2756.47534
2809.0 0.000356 2739.24683 2752.95654
2745.0 0.000364 2737.08154 2749.47119
2776.0 0.000360 2734.90454 2746.03857
2795.0 0.000358 2732.71362 2742.66821
2824.0 0.000354 2730.51001 2739.36987
2722.0 0.000367 2728.29297 2736.14990
2761.0 0.000362 2726.06323 2733.01123
2684.0 0.000373 2723.82007 2729.95117
2699.0 0.000371 2721.56323 2726.96826
2726.0 0.000367 2719.29321 2724.05713
2633.0 0.000380 2717.00928 2721.21362
2753.0 0.000363 2714.71289 2718.43091
2720.0 0.000368 2712.40186 2715.70020
2740.0 0.000365 2710.07813 2713.01758
2677.0 0.000374 2707.74121 2710.37476
2676.0 0.000374 2705.39038 2707.76514
2668.0 0.000375 2703.02637 2705.18237
2700.0 0.000370 2700.64844 2702.62183
2664.0 0.000375 2698.25830 2700.07837
2686.0 0.000372 2695.85400 2697.54517
2768.0 0.000361 2693.43726 2695.02173
2675.0 0.000374 2691.00659 2692.50171
2771.0 0.000361 2688.56421 2689.98560
2678.0 0.000373 2686.10864 2687.46826
2742.0 0.000365 2683.63965 2684.94873
2646.0 0.000378 2681.15918 2682.42505
2713.0 0.000369 2678.66528 2679.89575
2669.0 0.000375 2676.15991 2677.36035
2659.0 0.000376 2673.64160 2674.81689
2693.0 0.000371 2671.11255 2672.26758
2686.0 0.000372 2668.57080 2669.70874
2676.0 0.000374 2666.01831 2667.14136
2632.0 0.000380 2663.45508 2664.63647
2655.0 0.000377 2660.87939 2662.05176
2706.0 0.000370 2658.29419 2659.45923
2698.0 0.000371 2655.69751 2656.85791
2727.0 0.000367 2653.09155 2654.24805
2676.0 0.000374 2650.47437 2651.62915
2655.0 0.000377 2647.84863 2649.00244
2638.0 0.000379 2645.21387 2646.36743
2684.0 0.000373 2642.56885 2643.72412
2665.0 0.000375 2639.91602 2641.07349
2658.0 0.000376 2637.25415 2638.41577
2628.0 0.000381 2634.58496 2635.75171
2677.0 0.000374 2631.90723 2633.07959
2599.0 0.000385 2629.22339 2630.40332
2581.0 0.000387 2626.53125 2627.72046
2678.0 0.000373 2623.83374 2625.03271
2669.0 0.000375 2621.13013 2622.34058
2552.0 0.000392 2618.41992 2619.64209
2539.0 0.000394 2615.70508 2617.04736
2660.0 0.000376 2612.98438 2614.34326
2619.0 0.000382 2610.26050 2611.63721
2588.0 0.000386 2607.53149 2608.92847
2587.0 0.000387 2604.79980 2606.21851
2615.0 0.000382 2602.06396 2603.50635
2589.0 0.000386 2599.32666 2600.79443
2574.0 0.000389 2596.58716 2598.08325
2556.0 0.000391 2593.84473 2595.37109
2618.0 0.000382 2591.10229 2592.66235
2656.0 0.000377 2588.35791 2589.95361
2570.0 0.000389 2585.61426 2587.25024
2590.0 0.000386 2582.86987 2584.55078
2608.0 0.000383 2580.12720 2581.85889
2555.0 0.000391 2577.38550 2579.17505
2501.0 0.000400 2574.64429 2576.50830
2596.0 0.000385 2571.90674 2573.84961
2568.0 0.000389 2569.17065 2571.20923
2528.0 0.000396 2566.43848 2568.59277
2596.0 0.000385 2563.70923 2566.00610
2533.0 0.000395 2560.98486 2563.45752
2578.0 0.000388 2558.26392 2560.95630
2437.0 0.000410 2555.54956 2558.52979
2510.0 0.000398 2552.84033 2556.16455
2551.0 0.000392 2550.13599 2553.89014
2556.0 0.000391 2547.43945 2551.72534
2577.0 0.000388 2544.74878 2549.68970
2570.0 0.000389 2542.06616 2547.80322
2525.0 0.000396 2539.39038 2546.08618
2445.0 0.000409 2536.72412 2544.56030
2520.0 0.000397 2534.06519 2543.24072
2493.0 0.000401 2531.41626 2542.14111
2581.0 0.000387 2528.77734 2541.26831
2585.0 0.000387 2526.14673 2540.69800
2555.0 0.000391 2523.52710 2540.26392
2534.0 0.000395 2520.91724 2540.02197
2570.0 0.000389 2518.31934 2539.94141
2564.0 0.000390 2515.73145 2539.98462
2598.0 0.000385 2513.15576 2540.07715
2571.0 0.000389 2510.59229 2539.99072
2589.0 0.000386 2508.03955 2539.98804
2500.0 0.000400 2505.49976 2539.81274
2523.0 0.000396 2502.97168 2539.37378
2493.0 0.000401 2500.45728 2538.58154
2434.0 0.000411 2497.95435 2537.35278
2564.0 0.000390 2495.46533 2535.62500
2475.0 0.000404 2492.98877 2533.35693
2417.0 0.000414 2490.52588 2530.54370
2499.0 0.000400 2488.07617 2527.21094
2444.0 0.000409 2485.63916 2523.41553
2488.0 0.000402 2483.21558 2519.23486
2519.0 0.000397 2480.80444 2514.75977
2586.0 0.000387 2478.40723 2510.08569
2471.0 0.000405 2476.02271 2505.30322
2503.0 0.000400 2473.65137 2500.50073
2525.0 0.000396 2471.29175 2495.75464
2522.0 0.000397 2468.94580 2491.13452
2462.0 0.000406 2466.61206 2486.69727
2525.0 0.000396 2464.28931 2482.48755
2532.0 0.000395 2461.97949 2478.54346
2486.0 0.000402 2459.67993 2474.90625
2472.0 0.000405 2457.39209 2471.55615
2494.0 0.000401 2455.11401 2468.52124
2524.0 0.000396 2452.84741 2465.80591
2452.0 0.000408 2450.58984 2463.40747
2453.0 0.000408 2448.34106 2461.32373
2503.0 0.000400 2446.10156 2459.55298
2408.0 0.000415 2443.86914 2458.08887
2503.0 0.000400 2441.64502 2456.93457
2548.0 0.000392 2439.42676 2456.08691
2560.0 0.000391 2437.21558 2455.55078
2562.0 0.000390 2435.00879 2455.32983
2482.0 0.000403 2432.80713 2455.43213
2515.0 0.000398 2430.60962 2455.86646
2450.0 0.000408 2428.41406 2456.63892
2446.0 0.000409 2426.22119 2457.75977
2520.0 0.000397 2424.02881 2459.23242
2498.0 0.000400 2421.83789 2461.06494
2486.0 0.000402 2419.64526 2463.25024
2397.0 0.000417 2417.45190 2465.78394
2440.0 0.000410 2415.25562 2468.64917
2398.0 0.000417 2413.05591 2471.82153
2526.0 0.000396 2410.85205 2475.26538
2480.0 0.000403 2408.64209 2478.93408
2414.0 0.000414 2406.42578 2482.76733
2536.0 0.000394 2404.20142 2486.69092
2448.0 0.000408 2401.96948 2490.62012
2493.0 0.000401 2399.72681 2494.45459
2543.0 0.000393 2397.47437 2498.08667
2424.0 0.000413 2395.21045 2501.39478
2485.0 0.000402 2392.93286 2504.25269
2405.0 0.000416 2390.64258 2506.53394
2456.0 0.000407 2388.33691 2508.10913
2483.0 0.000403 2386.01709 2508.86133
2427.0 0.000412 2383.67993 2508.68848
2500.0 0.000400 2381.32666 2507.51221
2496.0 0.000401 2378.95459 2505.28564
2543.0 0.000393 2376.56543 2502.00366
2549.0 0.000392 2374.15698 2497.69873
2425.0 0.000412 2371.72803 2492.43970
2463.0 0.000406 2369.28027 2486.33228
2455.0 0.000407 2366.81104 2479.49609
2462.0 0.000406 2364.32251 2472.07300
2454.0 0.000407 2361.81226 2464.20532
2483.0 0.000403 2359.28296 2456.04004
2508.0 0.000399 2356.73193 2447.71997
2513.0 0.000398 2354.16211 2439.38599
2412.0 0.000415 2351.57324 2431.16992
2369.0 0.000422 2348.96436 2423.19531
2418.0 0.000414 2346.33887 2415.56812
2419.0 0.000413 2343.69629 2408.43701
2457.0 0.000407 2341.03931 2401.89771
2381.0 0.000420 2338.36768 2396.05884
2468.0 0.000405 2335.68604 2391.03540
2412.0 0.000415 2332.99487 2386.94165
2419.0 0.000413 2330.29614 2383.89551
2385.0 0.000419 2327.59448 2382.02222
2402.0 0.000416 2324.89160 2381.44336
2508.0 0.000399 2322.19263 2382.27710
2370.0 0.000422 2319.49951 2384.62109
2366.0 0.000423 2316.81958 2388.54810
2344.0 0.000427 2314.15479 2394.08032
2429.0 0.000412 2311.51294 2401.17920
2452.0 0.000408 2308.89917 2409.72534
2353.0 0.000425 2306.31860 2419.50024
2453.0 0.000408 2303.78027 2430.18359
2380.0 0.000420 2301.29028 2441.33643
2403.0 0.000416 2298.85889 2452.41431
2448.0 0.000408 2296.49268 2462.76074
2465.0 0.000406 2294.20361 2471.64185
2478.0 0.000404 2292.00000 2478.28394
2423.0 0.000413 2289.89551 2481.96948
2480.0 0.000403 2287.90063 2482.15308
2490.0 0.000402 2286.02808 2478.59790
2523.0 0.000396 2284.29321 2471.43921
2427.0 0.000412 2282.70947 2461.14453
2497.0 0.000400 2281.29370 2448.40210
2400.0 0.000417 2280.06250 2433.98706
2362.0 0.000423 2279.03442 2418.66040
2411.0 0.000415 2278.22803 2403.11133
2448.0 0.000408 2277.66431 2387.92700
2391.0 0.000418 2277.36548 2373.58545
2315.0 0.000432 2277.35400 2360.45020
2345.0 0.000426 2277.65503 2348.77417
2336.0 0.000428 2278.29492 2338.71484
2374.0 0.000421 2279.30029 2330.33911
2359.0 . . .
loop_
_refln_index_h
_refln_index_k
_refln_index_l
_refln_observed_status
_refln_F_squared_meas
_refln_F_squared_calc
_refln_phase_calc
_refln_d_spacing
_gsas_i100_meas
0 0 3 o 1520.364 1436.579 180.00 7.52980 2.49
1 0 1 o 8465.380 8588.152 0.00 4.25286 20.78
1 0 -2 o 13950.148 13700.356 0.00 4.04331 39.49
0 0 6 o 22327.684 23225.600 0.00 3.76490 13.82
1 0 4 o 1512.933 499.489 0.00 3.43635 3.24
1 0 -5 o 69222.89 70971.30 0.00 3.12619 100.00
1 0 7 o 39742.99 40977.21 0.00 2.58756 40.52
0 0 9 o 23220.854 22511.166 0.00 2.50993 8.70
1 1 0 o 82051.45 82116.11 0.00 2.50009 74.73
1 1 3 o 368.199 365.146 180.00 2.37273 0.09
1 1 -3 o 11672.970 11371.077 0.00 2.37273 12.30
1 0 -8 o 110.150 187.721 180.00 2.36525 0.00
2 0 -1 o 6309.555 6137.093 0.00 2.15527 4.01
2 0 2 o 5535.579 5205.890 0.00 2.12643 4.53
1 1 -6 o 12846.945 12836.946 0.00 2.08271 7.27
1 1 6 o 50704.36 50651.55 0.00 2.08271 31.19
2 0 -4 o -14.811 791.476 0.00 2.02166 0.13
1 0 10 o 2516.895 3014.313 0.00 2.00281 1.73
2 0 5 o 43552.11 42012.32 0.00 1.95251 24.82
0 0 12 o 37035.25 37401.52 0.00 1.88245 6.37
1 0 -11 o 21229.006 22262.000 0.00 1.85550 10.32
2 0 -7 o 21969.256 20537.291 0.00 1.79796 11.03
1 1 9 o 137.279 222.215 0.00 1.77130 0.24
1 1 -9 o 186.368 314.618 0.00 1.77130 0.28
2 0 8 o 19.531 23.623 180.00 1.71818 0.00
2 1 1 o 2853.914 2673.201 0.00 1.63242 1.06
3 -1 1 o 4666.229 4375.723 0.00 1.63242 1.75
1 0 13 o 418.518 308.233 0.00 1.61265 0.19
3 -1 -2 o 3968.007 4037.568 0.00 1.61978 1.95
2 1 -2 o 3962.639 4050.554 0.00 1.61978 1.95
2 1 4 o 103.969 738.374 0.00 1.57201 0.11
3 -1 4 o -14.813 181.246 0.00 1.57201 0.04
2 0 -10 o 1882.884 2456.138 0.00 1.56310 0.81
2 1 -5 o 27973.361 26154.236 0.00 1.53883 10.24
3 -1 -5 o 23757.414 22111.604 0.00 1.53883 8.67
0 0 15 o 1829.884 1839.877 180.00 1.50596 0.17
1 0 -14 o 5345.373 5876.974 0.00 1.51198 2.44
1 1 -12 o 50017.68 50005.57 0.00 1.50383 17.46
1 1 12 o 24235.281 24182.125 0.00 1.50383 8.27
2 0 11 o 9692.772 11228.249 0.00 1.48998 3.06
3 -1 7 o 14582.827 14169.663 0.00 1.45969 5.03
2 1 7 o 14722.479 14100.506 0.00 1.45969 5.08
3 0 0 o 54950.04 55135.31 0.00 1.44343 17.93
3 0 -3 o 43.683 45.528 180.00 1.41762 0.00
3 0 3 o 41.988 43.852 180.00 1.41762 0.00
2 1 -8 o 62.624 107.756 180.00 1.41602 0.00
3 -1 -8 o -27.460 1.225 0.00 1.41602 0.00
2 0 -13 o 89.919 338.872 0.00 1.35518 0.03
3 0 6 o 6003.301 5004.923 0.00 1.34777 1.57
3 0 -6 o 6023.112 5021.286 0.00 1.34777 1.58
1 0 16 o 5124.483 4588.306 0.00 1.34230 1.59
2 1 10 o 1243.353 1180.396 0.00 1.32537 0.41
3 -1 10 o 2061.136 1948.878 0.00 1.32537 0.66
2 0 14 o 3542.032 4371.157 0.00 1.29378 1.29
1 1 15 o 425.364 363.412 0.00 1.29000 0.19
1 1 -15 o 1266.137 1171.469 180.00 1.29000 0.28
3 -1 -11 o 7327.425 7538.667 0.00 1.27992 1.85
2 1 -11 o 7292.422 7600.926 0.00 1.27992 1.84
1 0 -17 o 14038.573 14153.107 0.00 1.27033 3.63
0 0 18 o 12225.880 10528.872 0.00 1.25497 1.03
3 0 9 o 3781.836 4003.896 0.00 1.25127 1.31
3 0 -9 o 3781.466 4003.506 0.00 1.25127 1.31
2 2 0 o 19051.846 18847.328 0.00 1.25005 4.91
2 2 3 o 1956.553 1813.977 0.00 1.23317 0.70
2 2 -3 o 8.844 8.182 180.00 1.23317 0.00
4 -1 -1 o 2097.665 1521.793 0.00 1.19931 0.50
3 1 -1 o 1200.927 869.931 0.00 1.19931 0.29
4 -1 2 o 2326.626 2263.772 0.00 1.19427 0.71
3 1 2 o 2489.207 2409.853 0.00 1.19427 0.76
2 1 13 o 383.056 289.933 0.00 1.19141 0.10
2 2 6 o 3058.950 3064.921 0.00 1.18636 0.65
3 -1 13 o 114.905 79.372 0.00 1.19141 0.04
2 0 -16 o 2293.537 2467.173 0.00 1.18262 0.61
2 2 -6 o 9385.347 9552.788 0.00 1.18636 2.13
4 -1 -4 o 2.850 78.546 0.00 1.17474 0.02
3 1 -4 o 101.830 276.582 0.00 1.17474 0.05
3 1 5 o 9944.520 10085.477 0.00 1.16069 2.40
4 -1 5 o 8504.862 8654.573 0.00 1.16069 2.05
1 0 19 o 4669.861 4536.161 0.00 1.14649 1.23
3 -1 -14 o 2226.424 2393.777 0.00 1.14904 0.71
2 1 -14 o 2904.841 3142.063 0.00 1.14904 0.91
3 0 -12 o 10022.779 9818.813 0.00 1.14545 2.34
3 0 12 o 10038.743 9834.445 0.00 1.14545 2.34
2 0 17 o 9061.678 9466.265 0.00 1.13252 2.06
4 -1 -7 o 6665.182 6766.310 0.00 1.12558 1.64
1 1 18 o 1927.182 1739.690 0.00 1.12159 0.41
3 1 -7 o 7122.192 6945.008 0.00 1.12558 1.75
1 1 -18 o 2155.347 1944.941 0.00 1.12159 0.46
2 2 9 o 368.411 227.677 0.00 1.11895 0.14
2 2 -9 o 346.744 194.280 0.00 1.11895 0.13
3 1 8 o 312.998 68.381 180.00 1.10519 0.07
4 -1 8 o 66.937 0.099 180.00 1.10519 0.02
1 0 -20 o 59.038 90.944 180.00 1.09291 0.00
0 0 21 o 605.797 421.286 0.00 1.07569 0.07
4 0 1 o 815.461 680.204 0.00 1.08133 0.18
4 0 -2 o 2501.839 1742.513 0.00 1.07763 0.68
2 1 16 o 1590.856 1854.720 0.00 1.06905 0.40
4 0 4 o -50.952 111.771 0.00 1.06321 0.00
3 -1 16 o 1669.031 1884.319 0.00 1.06905 0.42
4 -1 -10 o 304.274 797.421 0.00 1.06044 0.09
3 1 -10 o 158.534 449.855 0.00 1.06044 0.05
4 0 -5 o 6055.007 6133.758 0.00 1.05277 1.38
2 0 -19 o 3723.014 3309.523 0.00 1.04214 0.94
3 0 -15 o 355.852 339.896 180.00 1.04206 0.06
3 0 15 o 358.417 342.318 180.00 1.04206 0.06
2 2 12 o 13534.425 12581.487 0.00 1.04136 3.08
2 2 -12 o 7181.320 6750.413 0.00 1.04136 1.61
3 1 11 o 3667.378 3616.361 0.00 1.03673 0.78
4 -1 11 o 3471.440 3465.163 0.00 1.03673 0.74
3 -1 -17 o 6805.542 6558.846 0.00 1.03161 1.50
2 1 -17 o 5978.039 5656.577 0.00 1.03161 1.32
4 0 7 o 3823.727 4806.996 0.00 1.02636 0.91
4 0 -8 o 39.023 18.780 180.00 1.01083 0.01
1 0 22 o 852.609 681.631 0.00 0.99909 0.20
2 0 20 o 63.974 125.139 180.00 1.00140 0.00
3 2 1 o 889.957 732.580 0.00 0.99248 0.19
5 -2 1 o 652.128 533.075 0.00 0.99248 0.14
1 1 21 o 555.494 402.647 0.00 0.98811 0.18
3 2 -2 o 657.676 729.753 0.00 0.98962 0.20
5 -2 -2 o 627.561 682.873 0.00 0.98962 0.19
1 1 -21 o 2794.478 2175.745 0.00 0.98811 0.79
4 -1 -13 o 25.775 17.532 0.00 0.98798 0.01
3 1 -13 o 102.960 87.476 0.00 0.98798 0.03
5 -2 4 o 328.100 227.387 0.00 0.97841 0.09
3 2 4 o 149.263 106.824 0.00 0.97841 0.05
4 0 10 o -49.724 378.834 0.00 0.97625 0.00
3 2 -5 o 4285.481 4327.842 0.00 0.97026 1.01
5 -2 -5 o 4933.611 4953.077 0.00 0.97026 1.17
1 0 -23 o 3868.098 4087.607 0.00 0.95782 0.88
2 1 19 o 2066.522 1995.180 0.00 0.96191 0.55
3 1 14 o 1428.247 1400.518 0.00 0.96342 0.44
3 -1 19 o 2501.322 2417.634 0.00 0.96191 0.66
2 2 15 o 262.375 255.979 180.00 0.96186 0.04
4 -1 14 o 1122.407 1082.399 0.00 0.96342 0.36
2 2 -15 o 96.193 89.885 0.00 0.96186 0.04
4 0 -11 o 2288.260 2447.753 0.00 0.95765 0.51
3 2 7 o 2700.102 2531.372 0.00 0.94947 0.69
0 0 24 o 2080.942 1762.822 0.00 0.94123 0.17
5 -2 7 o 2694.228 2440.468 0.00 0.94946 0.69
4 1 0 o 5827.038 5561.884 0.00 0.94495 1.40
5 -1 0 o 5804.204 5540.111 0.00 0.94495 1.40
3 0 18 o 2859.221 2716.806 0.00 0.94707 0.65
3 0 -18 o 2858.880 2716.481 0.00 0.94707 0.65
4 1 -3 o 176.318 529.438 0.00 0.93759 0.10
4 1 3 o -9.162 0.583 0.00 0.93759 0.00
5 -1 -3 o -9.555 0.823 0.00 0.93759 0.00
5 -1 3 o 176.346 529.506 0.00 0.93759 0.10
5 -2 -8 o 2.941 3.123 180.00 0.93713 0.00
3 2 -8 o -4.297 2.922 0.00 0.93713 0.00
2 0 -22 o 412.108 512.263 0.00 0.92775 0.10
3 -1 -20 o 70.654 58.260 180.00 0.92960 0.01
2 1 -20 o 56.124 53.821 180.00 0.92960 0.01
4 1 -6 o 822.893 823.285 0.00 0.91652 0.18
5 -1 -6 o 2531.990 2487.121 0.00 0.91652 0.60
5 -1 6 o 830.518 830.913 0.00 0.91652 0.18
4 1 6 o 2532.278 2487.405 0.00 0.91652 0.60
4 0 13 o 88.994 24.921 0.00 0.91884 0.03
4 -1 -16 o 861.518 1012.765 0.00 0.91479 0.25
3 1 -16 o 1014.833 1044.052 0.00 0.91479 0.29
3 2 10 o 772.796 444.938 0.00 0.90938 0.23
5 -2 10 o 568.024 325.688 0.00 0.90938 0.17
4 0 -14 o 633.928 865.052 0.00 0.89898 0.25
2 0 23 o 3186.951 2919.138 0.00 0.89443 0.86
5 -2 -11 o 1200.254 1152.065 0.00 0.89429 0.31
3 2 -11 o 1153.899 1190.342 0.00 0.89429 0.30
3 1 17 o 2422.275 2391.948 0.00 0.89100 0.66
4 -1 17 o 2791.677 2854.125 0.00 0.89100 0.76
