#------------------------------------------------------------------------------
#$Date: 2021-02-22 10:09:13 +0200 (Mon, 22 Feb 2021) $
#$Revision: 262126 $
#$URL: file:///home/coder/svn-repositories/cod/cif/1/56/05/1560511.cif $
#------------------------------------------------------------------------------
#
# This file is available in the Crystallography Open Database (COD),
# http://www.crystallography.net/
#
# All data on this site have been placed in the public domain by the
# contributors.
#
data_1560511
loop_
_publ_author_name
'Konatham, Satish'
'Vidyasagar, Kanamaluru'
_publ_section_title
;
 Syntheses and structural characterization of vanado-tellurites and
 vanadyl-selenites: SrVTeO 5 (OH), Cd 2 V 2 Te 2 O 11 , Ca 3 VSe 4 O 13
 &#x00B7;H 2 O and Ba 2 VSe 3 O 10
;
_journal_name_full               'Journal of Solid State Chemistry'
_journal_page_first              39
_journal_page_last               45
_journal_paper_doi               10.1016/j.jssc.2017.02.017
_journal_volume                  249
_journal_year                    2017
_chemical_formula_moiety         'Ba2 O10 Se3 V'
_chemical_formula_sum            'Ba2 O10 Se3 V'
_chemical_formula_weight         722.47
_space_group_crystal_system      orthorhombic
_space_group_IT_number           62
_space_group_name_Hall           '-P 2ac 2n'
_space_group_name_H-M_alt        'P n m a'
_atom_sites_solution_hydrogens   .
_cell_angle_alpha                90
_cell_angle_beta                 90
_cell_angle_gamma                90
_cell_formula_units_Z            4
_cell_length_a                   16.2799(5)
_cell_length_b                   5.3489(2)
_cell_length_c                   11.6559(5)
_cell_measurement_reflns_used    1307
_cell_measurement_temperature    293(2)
_cell_measurement_theta_max      29.03
_cell_measurement_theta_min      3.05
_cell_volume                     1014.99(7)
_computing_cell_refinement       APEXII,Bruker,2004
_computing_data_collection       APEXII,Bruker,2004
_computing_data_reduction        SAINT,Bruker,2004
_computing_molecular_graphics    'ORTEP-3 (Farrugia, 1997)'
_computing_publication_material  'SHELXL-97 (Sheldrick, 1997)'
_computing_structure_refinement  'SHELXL-2014/7 (Sheldrick, 2014)'
_computing_structure_solution    'SHELXL-2014/7 (Sheldrick, 2014)'
_diffrn_ambient_temperature      293(2)
_diffrn_measured_fraction_theta_full 0.998
_diffrn_measured_fraction_theta_max 0.872
_diffrn_measurement_device_type  'Bruker ApexII ccd area detector'
_diffrn_measurement_method       'phi and omega scans'
_diffrn_radiation_type           MoK\a
_diffrn_radiation_wavelength     0.71073
_diffrn_reflns_av_R_equivalents  0.0437
_diffrn_reflns_av_unetI/netI     0.0657
_diffrn_reflns_Laue_measured_fraction_full 0.998
_diffrn_reflns_Laue_measured_fraction_max 0.872
_diffrn_reflns_limit_h_max       20
_diffrn_reflns_limit_h_min       -20
_diffrn_reflns_limit_k_max       6
_diffrn_reflns_limit_k_min       -7
_diffrn_reflns_limit_l_max       15
_diffrn_reflns_limit_l_min       -7
_diffrn_reflns_number            2952
_diffrn_reflns_point_group_measured_fraction_full 0.998
_diffrn_reflns_point_group_measured_fraction_max 0.872
_diffrn_reflns_theta_full        25.242
_diffrn_reflns_theta_max         29.034
_diffrn_reflns_theta_min         3.052
_diffrn_source                   'fine-focus sealed tube'
_exptl_absorpt_coefficient_mu    19.372
_exptl_absorpt_correction_T_max  0.144
_exptl_absorpt_correction_T_min  0.077
_exptl_absorpt_correction_type   multi-scan
_exptl_crystal_colour            Blue
_exptl_crystal_density_diffrn    4.728
_exptl_crystal_density_method    'not measured'
_exptl_crystal_description       Plate
_exptl_crystal_F_000             1268
_exptl_crystal_size_max          0.150
_exptl_crystal_size_mid          0.120
_exptl_crystal_size_min          0.100
_refine_diff_density_max         1.955
_refine_diff_density_min         -1.958
_refine_diff_density_rms         0.412
_refine_ls_extinction_coef       0.00050(11)
_refine_ls_extinction_expression Fc^*^=kFc[1+0.001xFc^2^\l^3^/sin(2\q)]^-1/4^
_refine_ls_extinction_method     'SHELXL-2016/6 (Sheldrick 2016)'
_refine_ls_goodness_of_fit_ref   1.130
_refine_ls_hydrogen_treatment    undef
_refine_ls_matrix_type           full
_refine_ls_number_parameters     88
_refine_ls_number_reflns         1307
_refine_ls_number_restraints     0
_refine_ls_restrained_S_all      1.130
_refine_ls_R_factor_all          0.0705
_refine_ls_R_factor_gt           0.0570
_refine_ls_shift/su_max          0.004
_refine_ls_shift/su_mean         0.001
_refine_ls_structure_factor_coef Fsqd
_refine_ls_weighting_details
'w=1/[\s^2^(Fo^2^)+(0.0194P)^2^+36.2689P] where P=(Fo^2^+2Fc^2^)/3'
_refine_ls_weighting_scheme      calc
_refine_ls_wR_factor_gt          0.1065
_refine_ls_wR_factor_ref         0.1134
_reflns_Friedel_coverage         0.000
_reflns_Friedel_fraction_full    .
_reflns_Friedel_fraction_max     .
_reflns_number_gt                1116
_reflns_number_total             1307
_reflns_threshold_expression     'I > 2\s(I)'
_cod_data_source_file            JSSC-2017-249-39.cif
_cod_data_source_block           Ba2VSe3O10
_cod_database_code               1560511
_shelx_space_group_comment
;
The symmetry employed for this shelxl refinement is uniquely defined
by the following loop, which should always be used as a source of
symmetry information in preference to the above space-group names.
They are only intended as comments.
;
_shelx_estimated_absorpt_t_min   0.159
_shelx_estimated_absorpt_t_max   0.248
_shelx_res_file
;
TITL exp_4230 in Pnma #(No.62)
    shelx.res
    created by SHELXL-2016/6 at 05:19:07 on 12-Dec-2016
CELL  0.71073  16.2799   5.3489  11.6559   90.000   90.000   90.000
ZERR    4.00   0.0005   0.0002   0.0005    0.000    0.000    0.000
LATT   1
SYMM  1/2 - X, - Y, 1/2 + Z
SYMM  1/2 + X, 1/2 - Y, 1/2 - Z
SYMM  - X, 1/2 + Y, - Z
SFAC  O        3.04850 13.27711  2.28680  5.70111   1.54630   0.32390 =
         0.86700  32.90894   0.25080   0.011   0.006    32.500   0.660  15.999
SFAC  V       10.29711  6.86571  7.35111  0.43850   2.07030  26.89383 =
         2.05710 102.47810   1.21990   0.301   0.529  2200.000   1.310  50.942
SFAC  SE      17.00063  2.40980  5.81961  0.27260   3.97310  15.23721 =
         4.35430  43.81635   2.84090  -0.093   2.226  9110.000   1.170  78.960
SFAC  BA      20.33612  3.21600 19.29703  0.27560  10.88801  20.20732 =
         2.69590 167.20219   2.77310  -0.324   2.282  9650.000   1.350 137.327
UNIT  40 4 12 8
SIZE 0.12 0.15 0.1
L.S.   4
ACTA
MERG   2
PLAN 20
FMAP   2
WGHT    0.019400   36.268902
EXTI    0.000500
FVAR       0.69941
BA1   4    0.490333    0.750000    0.824275    10.50000    0.01458    0.01459 =
         0.01562    0.00000    0.00014    0.00000
BA2   4    0.405869    0.750000    0.431277    10.50000    0.01512    0.01096 =
         0.01524    0.00000   -0.00021    0.00000
SE1   3    0.647354    0.250000    0.913215    10.50000    0.01408    0.01017 =
         0.01617    0.00000    0.00175    0.00000
SE2   3    0.217807    0.750000    0.797680    10.50000    0.02046    0.02173 =
         0.02375    0.00000   -0.00037    0.00000
SE3   3    0.381821    0.250000    0.664727    10.50000    0.01640    0.01550 =
         0.01543    0.00000   -0.00029    0.00000
V1    2    0.316882    0.250000    0.943603    10.50000    0.01291    0.01173 =
         0.01918    0.00000   -0.00160    0.00000
O1    1    0.584738    0.250000    0.801703    10.50000    0.02633    0.07065 =
         0.01709    0.00000   -0.00802    0.00000
O2    1    0.605411    0.007529    0.989362    11.00000    0.02082    0.04236 =
         0.06348    0.02965   -0.00032    0.00100
O3    1    0.122923    0.750000    0.842206    10.50000    0.03713    0.01277 =
         0.11855    0.00000    0.03544    0.00000
O4A   1    0.256339    0.038992    0.825036    10.50000    0.03059
O4B   1    0.255752    0.957212    0.896634    10.50000    0.08257
O5    1    0.399035    0.250000    0.809002    10.50000    0.04298    0.10191 =
         0.01620    0.00000   -0.00783    0.00000
O6    1    0.443682    0.009908    0.626252    11.00000    0.03130    0.00561 =
         0.02385   -0.00518   -0.00907    0.00436
O7    1    0.248983    0.250000    0.039663    10.50000    0.01524    0.16398 =
         0.03372    0.00000    0.00547    0.00000
HKLF    4




REM  exp_4230 in Pnma #(No.62)
REM R1 =  0.0570 for    1116 Fo > 4sig(Fo)  and  0.0705 for all    1307 data
REM     88 parameters refined using      0 restraints

END

WGHT      0.0177     36.8510

REM Highest difference peak  1.955,  deepest hole -1.958,  1-sigma level  0.412
Q1    1   0.3814  0.2500  0.5889  10.50000  0.05    1.95
Q2    1   0.2911 -0.0499  0.8334  11.00000  0.05    1.77
Q3    1   0.1056  0.7500  0.9590  10.50000  0.05    1.76
Q4    1   0.3366  0.2500  0.6231  10.50000  0.05    1.62
Q5    1   0.5197  0.1316  0.9541  11.00000  0.05    1.57
Q6    1   0.3739  0.1449  0.6839  11.00000  0.05    1.55
Q7    1   0.3791  0.7500  0.8279  10.50000  0.05    1.55
Q8    1   0.4592  0.0176  0.4982  11.00000  0.05    1.38
Q9    1   0.4225  0.0682  0.7401  11.00000  0.05    1.34
Q10   1   0.4678  0.8420  0.8956  11.00000  0.05    1.28
Q11   1   0.6692  0.2500  0.8534  10.50000  0.05    1.28
Q12   1   0.1823  0.2500  0.8311  10.50000  0.05    1.28
Q13   1   0.4188  0.8250  0.5025  11.00000  0.05    1.28
Q14   1   0.4346  0.0994  0.5843  11.00000  0.05    1.27
Q15   1   0.4060  0.2500  0.7221  10.50000  0.05    1.26
Q16   1   0.2359  0.9557  0.9207  11.00000  0.05    1.23
Q17   1   0.3520  0.2500  0.5054  10.50000  0.05    1.22
Q18   1   0.1912  0.8460  0.7217  11.00000  0.05    1.22
Q19   1   0.3054  0.2500  0.1407  10.50000  0.05    1.18
Q20   1   0.6031  0.1521  0.9790  11.00000  0.05    1.15
;
_shelx_res_checksum              11522
_shelx_hkl_file
;
  -3   0   0 18.2700 22.6027   3
  -4   0   0 7637.35 301.509   3
   4   0   0 7658.89 324.933   3
   5   0   0-42.9908 41.9164   3
  -5   0   0 22.1033 24.6306   3
  -6   0   0 2911.76 196.310   3
   6   0   0 3130.40 223.240   3
   7   0   0 4.60377 39.2041   3
  -7   0   0 12.2766 21.6523   3
  -8   0   0 30101.9 745.269   3
   8   0   0 28936.7 811.632   3
   9   0   0 35.2175 30.5995   3
  -9   0   0 63.9500 37.1792   3
 -10   0   0 27210.3 716.949   3
  10   0   0 24842.7 780.957   3
  11   0   0 38.9104 35.3568   3
 -11   0   0 54.8699 36.0392   3
  11   0   0 81.8083 63.9268   1
 -11   0   0 40.6970 30.4824   2
 -12   0   0 4495.32 313.594   2
  12   0   0 4547.30 411.984   1
 -12   0   0 3764.17 254.621   3
  12   0   0 4408.47 308.654   3
 -13   0   0-42.3948 49.5939   2
  13   0   0 37.2125 68.7545   1
 -14   0   0 737.615 141.204   2
  14   0   0 915.797 206.935   1
  15   0   0 27.1457 74.6352   1
 -15   0   0 51.5283 54.6311   2
 -16   0   0 729.320 145.684   2
  16   0   0 553.002 165.578   1
  17   0   0 100.199 112.440   1
  18   0   0 1118.28 268.353   1
  19   0   0 116.991 92.9659   1
  20   0   0 2237.41 407.598   1
  -2   0  -1 489.828 50.7540   2
  -3   0  -1 359.595 47.7471   2
   3   0   1 278.463 80.8030   3
  -3   0   1 416.170 62.8109   1
   4   0   1 4522.91 327.938   3
   4   0   1 5519.21 214.205   2
  -4   0  -1 5368.47 209.786   2
  -4   0  -1 5208.71 345.020   3
  -4   0   1 5784.09 266.190   1
  -5   0   1 35849.0 832.596   1
  -5   0  -1 32056.7 945.248   3
   5   0   1 32894.0 985.963   3
  -5   0   1 34030.5 564.762   3
   5   0  -1 33860.2 598.943   3
  -5   0  -1 34448.7 700.864   2
  -6   0  -1 26.3060 16.7601   2
   6   0   1 62.3322 72.1876   3
  -6   0   1 50.7192 32.6307   1
  -6   0   1 23.3750 14.7071   3
   6   0  -1 21.7835 15.9424   3
  -6   0  -1 81.4600 60.4893   3
   7   0   1 24094.2 848.008   3
   7   0  -1 23859.1 528.047   3
  -7   0   1 22583.9 485.152   3
  -7   0  -1 24698.4 617.863   2
  -7   0  -1 23182.0 773.881   3
   8   0   1 10332.4 548.065   3
  -8   0   1 10614.7 307.663   3
  -8   0  -1 10319.1 400.293   2
   8   0  -1 10242.0 334.919   3
  -8   0  -1 10741.0 506.148   3
   9   0  -1 4435.00 226.349   3
   9   0   1 5126.56 383.466   3
  -9   0   1 4333.98 198.732   3
  -9   0  -1 4611.02 267.586   2
  -9   0  -1 4931.35 336.788   3
 -10   0   1 1707.24 127.338   3
  10   0   1 1772.09 222.070   3
 -10   0  -1 1890.26 177.883   2
 -11   0   1 63.0320 31.7260   3
  11   0  -1 32.2567 48.9736   1
  11   0   1-1.75715 39.9456   1
 -11   0  -1 60.0258 40.7600   2
  11   0   1 22.7366 55.0125   3
  12   0   1 10273.4 570.475   3
  12   0  -1 10975.2 651.380   1
  12   0   1 10590.2 631.200   1
 -12   0  -1 10190.4 467.971   2
 -12   0   1 10332.1 360.916   3
  13   0   1 1821.96 237.445   3
  13   0  -1 1506.56 250.265   1
 -13   0  -1 1451.16 183.407   2
  13   0   1 1892.67 278.059   1
  14   0   1 1637.58 234.520   3
 -14   0  -1 1295.44 176.302   2
  14   0  -1 1843.36 281.710   1
  14   0   1 1119.05 235.316   1
 -15   0  -1 3967.43 324.830   2
  15   0   1 4651.67 476.607   1
 -15   0   1 4506.50 362.770   2
  15   0  -1 4596.14 474.946   1
  16   0  -1 89.2860 103.173   1
 -16   0   1 8.27481 30.2736   2
  16   0   1 47.1141 79.3813   1
  17   0  -1 515.407 186.212   1
  17   0   1 526.674 171.300   1
  18   0   1 13823.5 947.136   1
  18   0  -1 13802.2 944.606   1
  19   0  -1 125.618 92.2740   1
  19   0   1 258.145 138.893   1
  20   0   1 3792.86 533.872   1
   0   0   2 114.217 54.9635   3
  -1   0   2 3068.61 203.485   3
   1   0   2 2843.11 256.730   3
   2   0   2 1529.40 198.485   3
  -2   0   2 2015.12 124.770   3
   3   0   2 3311.73 312.784   3
  -4   0   2 29318.0 730.645   1
   4   0   2 26459.2 977.429   3
   4   0   2 29981.0 668.824   2
  -5   0  -2 16263.8 739.678   3
  -5   0   2 15917.8 538.272   1
  -5   0  -2 15580.9 464.905   2
   5   0   2 13610.7 702.588   3
   5   0   2 16038.7 463.156   2
   6   0   2 3754.98 219.847   2
  -6   0  -2 3706.90 346.247   3
   6   0   2 3867.92 363.946   3
  -6   0  -2 3812.95 223.909   2
  -7   0  -2 83.9755 67.8165   3
   7   0   2 29.0519 51.2726   3
  -7   0  -2 78.4608 39.5681   2
   8   0   2 6637.32 491.854   3
  -8   0  -2 6431.10 321.793   2
   9   0   2 9026.94 585.592   3
  -9   0  -2 9176.63 407.217   2
  10   0   2 903.190 189.371   3
 -10   0  -2 1203.83 149.012   2
 -11   0  -2 6314.75 359.602   2
  11   0  -2 6346.14 472.183   1
  11   0   2 7316.63 533.470   3
  12   0   2 2816.90 336.067   3
  12   0  -2 3171.08 346.256   1
  12   0   2 3422.66 365.775   1
 -12   0  -2 3168.97 264.947   2
  13   0   2 17365.7 854.940   3
  13   0  -2 17927.5 883.594   1
 -13   0  -2 17083.0 665.786   2
  13   0   2 16829.1 870.068   1
 -14   0  -2 6002.06 393.687   2
  14   0   2 6041.45 524.784   1
  14   0   2 5852.14 490.960   3
  15   0   2 5203.41 506.569   1
 -15   0  -2 5630.05 394.462   2
  15   0   2 5033.90 459.811   3
  16   0   2 1800.09 312.041   1
  17   0   2 74.6057 91.2739   1
  18   0   2 5196.72 578.885   1
  19   0   2-26.7878 110.996   1
  20   0   2 2153.90 399.994   1
   0   0   3 143.116 82.1715   3
   1   0   3 2208.06 263.480   3
  -1   0   3 2187.39 216.090   3
  -2   0   3 17657.4 556.222   3
   2   0   3 18340.1 798.047   3
   2   0  -3 16838.8 544.705   3
  -3   0   3 47139.3 894.871   3
   3   0   3 44329.5 1377.80   3
   3   0  -3 47069.3 885.854   3
   4   0   3 9590.27 376.957   2
   4   0  -3 9283.82 236.082   3
   4   0   3 9867.97 619.735   3
   5   0   3 11989.4 692.283   3
   5   0   3 10213.0 407.110   2
   6   0   3 26397.1 1078.95   3
   6   0   3 26048.1 715.231   2
   7   0   3 9484.85 412.763   2
   7   0   3 10267.5 656.790   3
  -8   0  -3 147.977 63.6446   2
   8   0   3 75.1676 42.5153   2
   8   0   3 86.6809 68.3074   3
   9   0   3 249.018 116.786   3
  -9   0  -3 198.357 73.5061   2
 -10   0  -3 148.219 54.6387   2
  10   0   3 90.4614 61.0802   3
 -11   0  -3 14267.0 588.342   2
  11   0   3 15899.8 875.878   3
 -12   0  -3 356.576 88.9517   2
  12   0   3 278.628 130.333   3
  13   0   3 12659.2 792.023   3
 -13   0  -3 11991.9 565.647   2
 -14   0  -3 8822.57 490.337   2
  14   0   3 8314.04 649.055   3
  15   0   3 445.589 138.905   3
 -15   0  -3 449.075 111.370   2
  15   0   3 741.370 201.646   1
  16   0   3 2070.41 340.609   1
  16   0   3 2208.58 336.172   3
  17   0   3 932.189 249.307   1
  18   0   3 5561.97 605.445   1
  19   0   3 101.614 101.896   1
  20   0   3 587.731 218.470   1
   0   0   4 15018.4 695.491   3
   1   0   4-25.1308 77.7787   3
  -1   0   4 115.687 71.8597   3
   1   0  -4-5.26806 36.1481   3
   2   0  -4 4341.20 308.595   3
   2   0   4 4602.53 414.016   3
  -2   0   4 4712.25 318.516   3
  -3   0   4 27278.4 759.275   3
   3   0   4 29929.2 1138.38   3
   3   0  -4 29010.2 754.776   3
   4   0   4 1651.03 264.019   3
   4   0  -4 1591.27 127.551   3
  -4   0   4 1564.88 133.070   3
   5   0   4 2186.41 200.437   2
   5   0  -4 2176.78 119.785   3
   5   0   4 2182.45 320.472   3
   6   0   4 1720.15 282.897   3
   6   0   4 1523.38 169.157   2
   7   0   4 11875.9 758.311   3
   8   0   4 2974.83 377.568   3
   9   0   4 30599.9 1291.31   3
  10   0   4 721.671 209.639   3
  11   0   4 90.7973 70.0332   3
  12   0   4 139.554 132.899   3
  13   0   4 5563.92 560.487   3
  14   0   4 645.118 202.608   3
  15   0   4 14022.3 912.850   3
  16   0   4 494.146 174.541   1
  16   0   4 485.171 170.708   3
  17   0   4 1204.37 276.439   1
  17   0   4 1050.54 246.524   3
  18   0   4 156.451 149.807   1
  19   0   4 3634.77 508.414   1
   0   0   5-1.60224 57.2610   3
   0   0  -5-23.0285 51.9036   3
   1   0   5 13606.8 736.908   3
  -1   0   5 12750.2 645.246   3
   1   0  -5 14331.2 670.616   3
  -2   0   5 27662.1 927.238   3
   2   0   5 28156.6 1126.24   3
   2   0  -5 28901.5 925.860   3
   3   0   5 35482.4 1305.69   3
  -3   0   5 32928.2 941.853   3
   3   0  -5 32281.3 910.897   3
  -4   0   5 17598.1 584.244   3
   4   0  -5 19007.1 589.019   3
   4   0   5 18825.1 948.317   3
   5   0  -5 2690.54 172.393   3
  -5   0   5 2655.20 186.042   3
   5   0   5 3169.40 392.371   3
   6   0   5 6388.94 566.162   3
   6   0  -5 6205.80 225.026   3
   7   0   5 50.5406 91.7854   3
   8   0   5 4038.39 464.714   3
   9   0   5 2466.69 369.040   3
  10   0   5 6278.11 603.741   3
  11   0   5 26571.9 1286.70   3
  12   0   5 3116.04 434.957   3
  13   0   5 7.94424 74.0592   3
  14   0   5 5823.59 614.800   3
  15   0   5 190.224 109.962   3
  16   0   5 433.021 162.801   3
  17   0   5 647.696 205.453   3
  18   0   5 492.858 183.226   1
  19   0   5 159.035 120.498   1
   0   0   6 2735.19 322.630   3
   1   0   6 15031.2 808.022   3
  -1   0   6 14407.4 729.761   3
   2   0   6 9982.50 673.280   3
   2   0  -6 7863.94 489.301   3
  -2   0   6 8869.77 532.854   3
   3   0  -6 958.540 156.115   3
   3   0   6 759.616 198.169   3
  -3   0   6 987.082 166.970   3
   4   0  -6 18442.3 649.577   3
   4   0   6 17972.2 965.774   3
  -4   0   6 18075.2 671.176   3
   5   0   6 1198.66 260.400   3
  -5   0   6 807.252 122.278   3
   5   0  -6 1049.47 128.976   3
   6   0  -6 3416.47 199.541   3
   6   0   6 3509.63 430.975   3
   7   0   6 217.230 126.449   3
   7   0  -6 162.263 38.2341   3
   8   0   6 16314.0 986.478   3
   9   0   6 2363.31 378.598   3
  10   0   6 7088.32 662.997   3
  11   0   6 2176.22 369.366   3
  12   0   6 2171.16 386.081   3
  13   0   6 507.492 188.461   3
  14   0   6 129.125 114.325   3
  15   0   6 2516.69 417.261   3
  16   0   6 10430.3 870.541   3
  17   0   6 351.664 140.582   3
  18   0   6 5659.09 652.429   3
   0   0   7-62.2656 76.7813   3
   1   0   7 430.497 150.996   3
  -1   0   7 293.490 97.5515   3
  -2   0   7 4827.10 416.887   3
   2   0   7 5341.88 505.248   3
   3   0   7 2060.42 326.650   3
  -3   0   7 2241.11 266.061   3
   4   0   7 151.659 93.1335   3
  -4   0   7 247.838 80.7902   3
  -5   0   7 686.792 125.946   3
   5   0  -7 483.341 103.749   3
   5   0   7 704.086 203.989   3
   6   0  -7 2109.49 183.594   3
   6   0   7 2254.19 362.889   3
   7   0   7 12761.5 874.879   3
   7   0  -7 12759.2 411.685   3
   8   0   7 7044.31 656.170   3
   9   0   7 10523.1 819.141   3
  10   0   7 2722.56 408.291   3
  11   0   7 3992.81 527.458   3
  12   0   7 3128.09 471.717   3
  13   0   7 1339.84 311.781   3
  14   0   7 28.3605 76.9579   3
  15   0   7 3795.30 545.984   3
  16   0   7 1760.35 357.272   3
  17   0   7 2160.43 420.301   3
  18   0   7 4678.80 620.308   3
   0   0   8 64020.6 1903.83   3
  -1   0   8 1189.91 228.811   3
   1   0   8 1033.05 229.270   3
   2   0   8 1270.58 255.879   3
  -2   0   8 1353.34 231.780   3
   3   0   8-20.1862 76.5065   3
  -3   0   8 38.6527 42.5272   3
  -4   0   8 56.8855 63.3094   3
   4   0   8 85.7634 79.2879   3
   5   0   8 1449.22 294.044   3
  -5   0   8 1419.15 203.116   3
   6   0   8 264.834 157.674   3
   7   0   8 9935.30 790.774   3
   8   0   8 5418.63 598.787   3
   9   0   8 2668.62 427.002   3
  10   0   8 16385.9 1078.93   3
  11   0   8 2655.59 441.377   3
  12   0   8 4593.04 583.784   3
  13   0   8 36.0444 111.680   3
  14   0   8 172.717 126.081   3
  15   0   8 2397.25 442.562   3
  16   0   8 526.675 191.848   3
  17   0   8 1784.29 389.875   3
  18   0   8 114.452 140.262   3
   0   0   9 144.920 102.312   3
   1   0   9 239.842 143.917   3
  -1   0   9 34.0864 56.8482   3
   2   0   9 11339.8 797.900   3
  -2   0   9 11291.2 711.671   3
   3   0   9 8704.87 715.094   3
  -3   0   9 8079.36 574.067   3
  -4   0   9 192.652 81.4250   3
   4   0   9 282.737 133.643   3
   5   0   9 39379.3 1650.35   3
  -5   0   9 41442.8 1265.72   3
   6   0   9 549.071 196.900   3
   7   0   9 1874.74 366.722   3
   8   0   9 3511.54 495.257   3
   9   0   9 573.864 230.102   3
  10   0   9-110.986 70.0155   3
  11   0   9 253.505 152.828   3
  12   0   9 2661.58 461.275   3
  13   0   9 2612.49 468.680   3
  14   0   9 1321.04 349.981   3
  15   0   9 3613.55 562.441   3
  16   0   9-62.3266 162.911   3
  17   0   9 1279.54 340.423   3
   0   0  10-23.4386 71.9750   3
   1   0  10 93.0762 60.8481   3
  -1   0  10 235.329 129.678   3
   2   0  10 609.021 184.175   3
  -2   0  10 971.467 210.783   3
  -3   0  10 2120.34 307.878   3
   3   0  10 2101.41 358.791   3
  -4   0  10 1567.67 257.166   3
   4   0  10 1630.52 332.394   3
   5   0  10 7488.94 712.420   3
   6   0  10 357.524 166.721   3
   7   0  10-141.165 119.919   3
   8   0  10 171.082 140.175   3
   9   0  10 2550.19 450.722   3
  10   0  10 2457.79 441.287   3
  11   0  10 1481.74 359.511   3
  12   0  10 612.685 247.436   3
  13   0  10 12345.3 1034.21   3
  14   0  10 5301.51 687.152   3
  15   0  10 1707.06 400.122   3
   0   0  11 116.122 85.1680   3
   1   0  11 6102.75 602.944   3
  -1   0  11 5731.19 554.438   3
  -2   0  11 68.5369 109.640   3
   2   0  11 305.178 163.830   3
   3   0  11 2947.89 435.802   3
  -3   0  11 2491.34 338.779   3
  -4   0  11 4766.36 462.268   3
   4   0  11 4066.11 525.828   3
   5   0  11 1652.14 343.394   3
   6   0  11 1864.71 368.520   3
   7   0  11 5780.35 664.185   3
   8   0  11 329.545 188.779   3
   9   0  11 211.765 139.719   3
  10   0  11 4665.16 629.624   3
  11   0  11 161.090 143.523   3
  12   0  11-151.237 126.158   3
  13   0  11 4527.85 645.151   3
   0   0  12 9727.92 765.189   3
   1   0  12 967.778 251.819   3
  -1   0  12 1179.62 264.001   3
  -2   0  12 4815.92 511.960   3
   2   0  12 4901.54 568.284   3
  -3   0  12 3099.50 398.567   3
   3   0  12 2391.61 394.768   3
   4   0  12 3447.01 496.988   3
   5   0  12 418.227 162.967   3
   6   0  12 2177.96 411.413   3
   7   0  12 1022.57 275.122   3
   8   0  12 8468.77 833.348   3
   9   0  12 3356.06 541.439   3
  10   0  12 918.118 244.532   3
  11   0  12 290.949 157.453   3
   0   0  13 168.616 121.804   3
  -1   0  13 2497.01 386.404   3
   1   0  13 1964.11 358.205   3
  -2   0  13 1020.48 246.054   3
   2   0  13 1005.59 271.222   3
   3   0  13 563.812 219.154   3
   4   0  13 2768.80 457.601   3
   5   0  13 3606.94 542.231   3
   6   0  13-132.843 111.870   3
   7   0  13 162.876 162.988   3
   8   0  13 3728.47 570.951   3
   9   0  13 1582.97 382.825   3
   0   0  14-42.8790 123.179   3
   1   0  14 4723.07 589.916   3
   2   0  14 986.478 276.253   3
   3   0  14 770.243 255.211   3
   4   0  14 4055.53 571.798   3
   5   0  14 1784.28 377.995   3
   6   0  14 7189.10 791.944   3
   2   0  15 1829.11 390.388   3
   3   0  15 723.656 246.838   3
   0  -1   0 6.57928 19.7856   2
   1  -1   0 8.73757 15.7258   2
  -2  -1   0 2437.10 117.460   1
   2  -1   0 2591.89 105.481   2
  -3  -1   0 30.2529 18.6056   1
   3   1   0 5.60273 16.9388   1
  -4  -1   0 29565.1 674.358   1
   4   1   0 29706.6 667.600   3
   4   1   0 29831.7 678.211   1
   5   1   0-22.7560 31.8381   1
   5   1   0 44.9884 33.9167   3
  -6   1   0 2924.97 214.373   3
   6   1   0 2602.52 185.015   3
   6   1   0 2502.26 205.686   1
  -7   1   0 21.8084 33.7884   3
   7   1   0 100.748 49.1792   1
   7   1   0 52.3757 23.5341   3
  -8   1   0 5411.83 333.681   3
   8   1   0 5044.27 299.373   3
   8   1   0 5003.78 339.505   1
   9   1   0 78.3742 47.4321   3
  -9   1   0 23.7343 29.1179   3
  -9   1   0 105.108 35.0329   2
   9   1   0 104.223 47.2510   1
 -10   1   0 2940.97 306.093   3
  10   1   0 2928.22 283.154   3
  10   1   0 2805.41 284.888   1
 -10   1   0 2980.58 168.279   2
 -11   1   0 55.3742 28.3476   2
  11  -1   0 151.354 84.7901   1
  11   1   0 54.0164 64.3266   1
  11   1   0 174.693 109.318   3
 -11  -1   0 58.9108 55.8290   2
 -12   1   0 1371.27 127.432   2
  12  -1   0 1418.00 233.361   1
 -12  -1   0 1762.44 232.526   2
  12   1   0 1270.27 216.298   1
  12   1   0 1167.86 214.251   3
 -13   1   0 97.1862 41.1521   2
 -13  -1   0 88.4521 58.1635   2
  13   1   0 297.479 120.491   3
  13   1   0 142.523 93.7474   1
  13  -1   0 248.933 98.2174   1
 -14  -1   0 30854.9 1100.89   2
  14   1   0 30697.4 1224.45   1
 -14   1   0 29838.7 760.521   2
  14   1   0 31601.1 1136.79   3
  14  -1   0 29479.5 1225.29   1
  15  -1   0 212.836 95.1122   1
  15   1   0 28.1724 68.6762   1
 -15  -1   0 158.462 77.6318   2
  16   1   0 11284.3 789.132   1
 -16  -1   0 12653.1 713.286   2
  16  -1   0 12492.9 836.772   1
  17  -1   0-47.9523 106.270   1
  17   1   0-45.8308 78.4271   1
 -17  -1   0 23.7796 46.6148   2
  18   1   0 3614.52 480.175   1
  18  -1   0 2839.57 429.624   1
  19  -1   0 245.077 175.005   1
  19   1   0 21.0838 73.9661   1
  20  -1   0 380.639 177.010   1
   0  -1  -1 101.178 34.5467   2
   1  -1  -1 79.3412 28.3497   2
  -1  -1  -1 94.6275 36.8205   2
  -1   1   1 104.149 22.2732   1
  -2  -1  -1 774.356 96.8922   2
  -2   1   1 1005.10 86.6803   2
   2   1   1 779.923 92.1624   3
  -2   1   1 885.543 78.1354   1
  -3  -1  -1 741.858 103.251   2
   3   1   1 783.615 97.9517   3
  -4  -1  -1 94010.1 1700.93   2
  -4  -1   1 93510.8 1619.11   1
   4   1   1 94010.4 1631.50   3
  -4  -1  -1 93234.9 1624.34   3
  -5  -1  -1 4792.63 294.156   2
   5   1   1 4713.34 267.763   3
  -5  -1  -1 4482.99 250.332   3
  -5   1  -1 4650.37 294.332   3
  -5  -1   1 4168.45 253.763   1
   5   1   1 4868.20 256.464   1
  -6  -1   1 13219.4 502.155   1
   6   1   1 13677.5 496.212   3
  -6  -1  -1 13128.7 521.162   2
   6   1  -1 12906.0 395.458   3
   6   1   1 12815.4 479.645   1
  -6   1  -1 12909.1 531.074   3
  -6  -1  -1 13155.9 465.330   3
  -7   1   1 2762.91 193.463   3
  -7  -1  -1 2791.92 238.447   2
  -7   1  -1 2830.62 250.879   3
  -7  -1  -1 2755.43 207.276   3
   7   1   1 2369.66 210.631   1
   7   1  -1 2469.30 170.818   3
   7   1   1 2558.80 218.970   3
  -8   1  -1 1905.06 223.542   3
   8   1   1 1701.68 196.718   3
  -8   1  -1 1516.99 91.9694   2
   8   1  -1 1309.56 181.644   1
   8   1  -1 1477.57 140.134   3
  -8  -1  -1 1491.57 184.790   2
  -8   1   1 1567.25 154.768   3
   8   1   1 1757.51 197.003   1
   9   1  -1 28059.5 766.289   3
   9   1  -1 28233.3 940.124   1
  -9  -1  -1 28130.0 906.716   2
  -9   1   1 29049.4 826.306   3
   9   1   1 28517.5 956.672   3
  -9   1  -1 29702.2 587.796   2
   9   1   1 28827.6 925.870   1
  10   1   1 2111.95 267.183   3
 -10   1   1 2333.22 241.140   3
  10   1  -1 2033.21 209.421   3
  10   1  -1 2160.89 254.065   1
 -10  -1  -1 2223.75 240.392   2
  10   1   1 2464.88 266.923   1
 -10   1  -1 2528.10 148.291   2
  11  -1   1 201.654 81.8579   1
 -11   1  -1 219.788 46.0038   2
  11   1  -1 32.4505 36.3689   1
  11   1   1 257.194 93.5408   1
  11   1  -1 60.0277 71.2800   3
 -11  -1  -1 406.423 105.245   2
  11   1   1 292.619 114.135   3
  11  -1  -1 348.349 119.599   1
 -11   1   1 151.778 74.4811   3
  12   1   1 64.9537 77.9420   3
  12  -1  -1 249.400 106.459   1
 -12   1  -1 243.933 50.7166   2
 -12  -1  -1 257.841 89.5695   2
  12  -1   1 228.952 98.3103   1
 -12   1   1 202.387 66.8307   3
  12   1  -1 131.829 69.6460   1
  12   1   1 278.441 104.508   1
  12   1  -1 221.010 94.3592   3
  13   1  -1 10314.7 661.393   1
  13  -1   1 11283.8 701.539   1
  13  -1  -1 10931.8 692.792   1
 -13  -1  -1 11644.0 620.021   2
  13   1   1 11897.9 696.824   1
 -13   1  -1 11625.9 406.019   2
  13   1  -1 11683.2 611.095   3
  13   1   1 10777.4 734.862   3
  14   1  -1 11218.8 552.103   3
  14   1   1 9723.55 668.312   3
  14   1  -1 10219.8 683.809   1
  14  -1   1 10282.3 693.862   1
 -14   1   1 9002.51 415.054   2
  14   1   1 8652.90 628.108   1
  14  -1  -1 9441.14 669.613   1
 -14  -1  -1 8994.90 559.480   2
  15   1   1 1791.64 271.163   3
  15   1   1 1293.54 251.799   1
  15  -1   1 1783.95 299.211   1
  15  -1  -1 2070.70 322.819   1
 -15  -1  -1 1813.50 253.349   2
 -15  -1   1 1666.43 256.506   2
  16  -1  -1 251.952 144.896   1
  16  -1   1 166.881 111.571   1
 -16  -1  -1 208.069 93.0689   2
 -16  -1   1 224.629 94.2893   2
  16   1   1 246.467 126.217   1
 -17  -1  -1 1029.51 204.105   2
  17   1   1 593.494 187.633   1
  17  -1  -1 1021.90 247.128   1
  17  -1   1 760.701 216.410   1
 -17  -1   1 1060.52 205.657   2
  18  -1   1 2002.29 369.654   1
  18   1   1 2770.49 415.487   1
  18  -1  -1 1991.44 355.926   1
 -18  -1   1 1859.13 292.043   2
  19   1   1 3980.10 519.123   1
  19  -1  -1 3861.47 519.425   1
  19  -1   1 4773.22 588.292   1
  20  -1  -1 145.486 178.076   1
  20   1   1 392.303 191.087   1
  20  -1   1-4.10741 98.5703   1
   0   1   2 23.9870 27.1387   3
  -1   1   2 23296.5 555.148   3
  -1  -1  -2 22124.8 614.299   2
   1   1   2 23981.1 603.491   3
  -2  -1  -2 20922.8 607.378   2
   2   1   2 20975.6 585.431   3
  -2   1   2 21656.5 511.938   1
   3   1   2 29726.1 756.551   3
  -3  -1  -2 30014.4 777.446   2
  -3   1   2 29399.7 682.648   1
  -4   1   2 222.953 56.0667   1
  -4  -1  -2 240.151 69.3134   2
   4   1   2 390.398 89.6498   3
   5   1   2 5618.61 326.751   3
  -5   1   2 5743.14 306.119   1
   5  -1   2 5511.34 186.326   2
  -5  -1  -2 5599.23 310.695   3
  -5   1  -2 6042.74 374.459   3
  -5  -1   2 5585.76 309.964   1
  -5  -1  -2 5232.48 313.414   2
   6   1   2 7202.63 393.258   3
  -6  -1  -2 6834.83 374.531   2
   6  -1   2 7628.61 224.463   2
   7   1   2 1910.50 217.806   3
   7   1  -2 1838.88 129.144   3
  -7  -1  -2 1691.38 187.230   2
  -8  -1  -2 18092.1 677.962   2
   8   1   2 18081.0 753.370   3
  -8   1   2 18302.8 503.401   3
   8   1  -2 18472.7 486.252   3
  -9   1   2 22902.1 624.569   3
   9   1   2 22322.3 933.367   3
  -9  -1  -2 21760.6 780.024   2
   9   1  -2 22991.6 581.796   3
  10   1   2 2235.08 309.885   3
 -10   1   2 2141.08 196.506   3
  10  -1  -2 2133.32 262.929   1
 -10  -1  -2 1605.91 206.106   2
  10   1  -2 2335.04 186.106   3
  10   1   2 1605.88 222.066   1
  11   1  -2 16681.4 633.588   3
  11  -1  -2 16698.1 797.372   1
 -11   1   2 14996.8 588.247   3
  11   1   2 14855.7 906.480   3
  11   1   2 18311.1 799.158   1
 -11  -1  -2 17586.2 731.153   2
  12  -1  -2 2189.33 296.637   1
 -12   1   2 1969.44 169.465   3
  12   1   2 2154.74 277.242   1
 -12  -1  -2 2227.28 258.927   2
  12   1  -2 1975.56 212.978   3
  12   1   2 2009.03 329.168   3
  13   1   2 345.469 118.452   1
  13   1  -2 446.954 91.9713   3
 -13  -1  -2 160.924 79.0406   2
  13   1   2 542.490 193.073   3
  13  -1  -2 284.115 117.409   1
  14  -1   2 304.379 118.870   1
  14   1   2 306.363 138.095   3
  14   1   2 283.494 127.033   1
 -14  -1  -2 222.017 86.4216   2
  14  -1  -2 166.981 98.2171   1
  15  -1   2 213.886 125.762   1
 -15  -1  -2 211.587 101.050   2
  15   1   2 211.918 104.674   1
  15  -1  -2-19.5219 82.9008   1
  15   1   2 123.488 61.1567   3
 -16  -1  -2 746.597 175.876   2
  16   1   2 496.419 154.817   3
  16  -1   2 1125.69 251.363   1
  16   1   2 650.506 191.123   1
  16  -1  -2 470.820 173.067   1
  17   1   2 1764.85 326.163   1
  17  -1   2 1806.00 335.165   1
  17  -1  -2 1752.68 326.339   1
 -17  -1  -2 1597.69 259.213   2
  18   1   2 6999.47 664.663   1
  18  -1   2 8018.80 736.619   1
 -18  -1   2 8420.08 628.946   2
  19  -1   2 455.106 197.868   1
  19   1   2 615.132 220.701   1
  20   1   2 149.560 151.318   1
   0   1   3 78003.9 1441.16   3
   1   1   3 31877.3 810.464   3
  -1   1   3 32376.8 751.764   3
   2   1   3 441.966 90.6397   3
  -2   1   3 418.715 70.5296   3
  -3  -1  -3 5087.55 309.249   2
  -3   1   3 4575.58 223.913   3
   3   1   3 4457.00 287.693   3
  -4   1   3 10330.0 326.969   3
   4   1   3 9139.68 446.195   3
  -4  -1  -3 10323.3 463.221   2
  -4   1   3 9739.12 404.726   1
  -5  -1  -3 260.088 86.2103   2
   5   1   3 258.370 80.7675   3
  -5   1   3 489.715 65.0945   3
  -6  -1  -3 83.1458 53.5737   2
   6  -1   3 151.149 47.0786   2
   6   1   3 190.376 83.1375   3
   7   1   3 1095.37 190.903   3
   7  -1   3 1116.10 106.065   2
  -7  -1  -3 678.871 122.617   2
  -8  -1  -3 36.7503 38.3490   2
   8  -1   3 52.0658 26.9880   2
   8   1  -3 22.5391 15.9995   3
   8   1   3 116.364 87.7739   3
  -9  -1  -3 1154.34 174.853   2
  -9   1   3 1087.42 97.8785   3
   9   1   3 890.659 198.707   3
   9   1  -3 1483.73 107.690   3
 -10  -1  -3 4678.27 360.646   2
 -10   1   3 4214.23 222.645   3
  10   1   3 3649.36 440.092   3
  10   1  -3 4307.33 210.279   3
 -11   1   3 12834.7 330.583   3
  11   1   3 11899.8 847.663   3
 -11  -1  -3 14234.7 662.290   2
  11   1  -3 11036.9 422.297   3
  12   1   3 1904.01 339.067   3
 -12  -1  -3 2415.06 277.041   2
  12   1  -3 2073.14 138.824   3
 -13  -1  -3 1566.46 232.226   2
  13   1   3 1596.20 319.857   3
  13   1   3 1652.28 257.696   1
  14   1   3 706.172 219.042   3
 -14  -1  -3 617.610 169.805   2
  14   1   3 528.062 155.843   1
 -15  -1  -3 1614.44 248.041   2
  15   1   3 1740.54 287.024   1
  15   1   3 1449.62 288.501   3
  16  -1   3 6129.19 607.267   1
 -16  -1  -3 5982.73 489.890   2
  16   1   3 6564.72 597.394   1
  16   1   3 6647.29 612.352   3
  17  -1   3 887.035 243.498   1
  17   1   3 1134.05 241.805   3
 -17  -1  -3 717.833 164.729   2
  17   1   3 1135.72 267.385   1
  18  -1   3 271.027 147.839   1
  18   1   3 92.4805 89.7512   1
  19  -1   3 6128.89 673.166   1
  19   1   3 5500.39 614.579   1
  20   1   3 1776.41 376.120   1
   0   1   4 70.5349 52.0953   3
   1   1   4 5293.70 322.379   3
   1   1  -4 5431.09 338.290   3
  -1   1   4 4866.46 286.466   3
   1  -1  -4 5575.19 295.767   3
  -2   1   4 816.982 110.812   3
   2   1  -4 474.690 93.8651   3
   2  -1  -4 803.125 107.079   3
   2   1   4 877.876 143.517   3
   3   1   4 2046.09 222.711   3
  -3   1   4 2090.68 165.487   3
   3   1  -4 2242.49 196.176   3
  -4   1   4 1213.91 120.200   3
   4   1   4 1242.27 179.467   3
   5   1   4 27975.2 976.269   3
  -5   1   4 28213.4 653.399   3
   6   1   4 1745.11 247.922   3
  -6  -1  -4 1993.11 224.356   2
  -6   1   4 1945.71 133.412   3
   7  -1   4 66210.1 1286.77   2
   7   1   4 62489.9 1796.70   3
  -7  -1  -4 66746.2 1564.28   2
  -7   1   4 66405.4 1108.51   3
  -8  -1  -4 442.838 116.573   2
   8   1   4 687.571 184.096   3
   8  -1   4 702.462 98.7052   2
  -8   1   4 415.038 52.2552   3
  -9  -1  -4 1062.48 174.077   2
  -9   1   4 948.319 64.3684   3
  -9   1   4 1109.45 75.7860   3
   9   1  -4 1051.53 77.1281   3
   9   1   4 888.045 231.187   3
   9  -1   4 1051.75 125.187   2
 -10  -1  -4 141.419 71.4840   2
  10  -1   4 68.8435 39.1342   2
  10   1   4-14.2029 104.375   3
  11   1   4 39.5796 70.6299   3
 -11  -1  -4 153.037 80.7366   2
 -12  -1  -4 318.320 110.218   2
  12   1   4 189.729 81.3166   3
 -13  -1  -4 34.3842 65.6093   2
  13   1   4 37.6846 91.5021   3
  14   1   4 2870.61 437.389   3
 -14  -1  -4 2729.59 317.894   2
  15   1   4 10735.7 747.408   1
 -15  -1  -4 11284.0 673.401   2
  15   1   4 11668.1 882.043   3
  16   1   4 2226.87 351.659   1
 -16  -1  -4 1590.06 249.885   2
  16   1   4 1520.30 314.274   3
  17  -1   4 9193.46 790.456   1
  17   1   4 8764.89 728.536   1
  17   1   4 8166.94 721.726   3
  18   1   4 700.589 208.458   1
  18  -1   4 267.609 165.115   1
  19  -1   4 195.882 137.003   1
  19   1   4 57.2677 57.1764   1
  20   1   4-69.4328 122.780   1
   0   1   5 25845.8 836.340   3
  -1   1   5 5631.39 349.289   3
   1   1   5 5457.04 374.400   3
   2   1   5 7677.07 469.321   3
  -2   1   5 7588.64 388.579   3
   2   1  -5 7191.25 412.677   3
   2  -1  -5 7241.99 360.423   3
   3   1   5 870.887 166.431   3
   3   1  -5 1398.09 172.494   3
   3  -1  -5 1217.40 136.810   3
  -3   1   5 1144.64 141.993   3
   4   1   5 387.797 123.885   3
  -4   1   5 666.063 105.895   3
   4   1  -5 552.231 102.781   3
   5   1  -5 8865.99 397.819   3
   5   1   5 8847.57 594.920   3
  -5   1   5 9292.36 381.599   3
   5  -1   5 7261.06 566.777   3
   6   1  -5 3489.11 234.559   3
  -6   1   5 4288.04 235.315   3
   6   1   5 3570.46 405.405   3
   6  -1   5 3453.85 400.186   3
   7   1   5 2139.80 322.590   3
  -7   1   5 2283.34 163.720   3
   7   1  -5 2118.68 172.505   3
   7  -1   5 2000.23 191.270   2
   7  -1   5 1764.31 297.877   3
   8  -1   5 204.171 67.8396   2
  -8   1   5 270.367 55.9809   3
   8  -1   5 116.993 83.4490   3
   8   1   5 321.758 131.810   3
   8   1  -5 172.792 44.5179   3
   9   1  -5 3384.01 190.195   3
   9  -1   5 3765.60 269.665   2
   9   1   5 2327.67 394.910   3
  10   1   5 6303.43 652.959   3
  10  -1   5 9030.30 425.415   2
  11   1   5 12660.2 955.570   3
  12   1   5 13851.6 1005.58   3
  13   1   5 3649.13 512.412   3
  14   1   5 888.600 246.010   3
  15   1   5 2035.28 377.939   3
  16   1   5 1501.91 306.846   1
  16   1   5 1727.33 359.921   3
  17   1   5 233.254 146.661   3
  17   1   5-26.8490 94.2160   1
  18   1   5 790.331 228.959   3
  18   1   5 362.735 142.828   1
  19   1   5 3043.88 461.284   1
   0   1   6-45.1929 60.0608   3
  -1   1   6 1812.46 231.211   3
   1   1   6 1768.07 249.393   3
   2   1   6 31782.3 1156.33   3
  -2   1   6 32171.1 1001.19   3
   3   1   6 5251.76 476.372   3
  -3   1   6 5652.90 380.608   3
   4   1   6 636.526 173.912   3
  -4   1   6 480.701 105.211   3
   4  -1   6 673.330 195.459   3
   4  -1  -6 627.901 105.780   3
   4   1  -6 562.147 125.411   3
   5   1   6 4472.22 476.386   3
   5   1  -6 5839.29 375.109   3
   5  -1   6 4556.35 487.597   3
  -5   1   6 5553.76 353.691   3
   6  -1   6 19042.6 1031.42   3
   6   1   6 20129.3 1101.36   3
   6   1  -6 22418.6 745.332   3
  -6   1   6 19337.2 694.164   3
   7   1   6 3815.79 488.395   3
   7   1  -6 5198.40 336.681   3
   7  -1   6 4319.53 492.925   3
  -7   1   6 3793.14 280.845   3
   8   1   6 8377.90 751.405   3
   8  -1   6 8066.82 687.337   3
  -8   1   6 8134.79 376.978   3
   8   1  -6 7042.12 389.128   3
   9   1  -6 166.500 46.7013   3
   9  -1   6 137.881 88.0973   3
  -9   1   6 165.204 38.2340   3
   9   1   6 240.977 159.908   3
  10   1   6 193.164 129.492   3
  11   1   6 2685.88 448.490   3
  12   1   6 904.717 276.242   3
  13   1   6 522.392 226.927   3
  14   1   6-64.5669 74.8382   3
  15   1   6-35.4495 82.9386   3
  16   1   6 1316.39 320.785   3
  17   1   6 506.475 176.756   1
  17   1   6 598.778 199.309   3
  18   1   6 7949.07 732.867   1
  18   1   6 8737.95 816.939   3
  19   1   6-47.1422 98.6470   1
   0   1   7 4545.21 445.221   3
  -1   1   7 397.555 127.549   3
   1   1   7 509.011 156.285   3
   2   1   7 2705.84 373.488   3
  -2   1   7 2686.82 314.650   3
   3   1   7 14035.3 889.590   3
   3  -1   7 15273.0 902.420   3
  -3   1   7 13706.0 719.085   3
   4   1   7 15185.0 941.744   3
  -4   1   7 14606.6 730.425   3
   4  -1   7 17808.0 1005.48   3
   5   1   7 152.186 113.824   3
   5  -1   7-61.7638 98.9338   3
  -5   1   7 107.102 67.1445   3
  -6   1   7 8283.47 509.144   3
   6  -1   7 7261.71 673.585   3
   6   1   7 8577.71 755.262   3
   6   1  -7 7586.02 513.774   3
  -7   1   7 4448.34 336.848   3
   7  -1   7 4322.16 522.090   3
   7   1   7 3418.69 490.966   3
   7   1  -7 4196.35 360.823   3
  -8   1   7 4140.17 278.073   3
   8  -1   7 3464.10 475.298   3
   8   1   7 3555.10 499.593   3
  -9   1   7 6704.19 287.487   3
   9   1   7 6394.24 691.384   3
   9  -1   7 6186.20 650.192   3
  10   1   7 128.437 123.700   3
  11   1   7 2554.96 447.678   3
  12   1   7 3016.70 485.338   3
  13   1   7 11961.2 973.311   3
  14   1   7 10173.4 906.543   3
  15   1   7 2938.61 496.669   3
  16   1   7 587.435 243.712   3
  17   1   7 158.776 150.022   3
  18   1   7 429.412 199.975   3
  19   1   7 44.6157 111.105   3
   0   1   8-46.1988 84.1927   3
  -1   1   8 6260.73 574.555   3
   1   1   8 6593.44 611.786   3
  -2   1   8 1375.65 260.699   3
   2   1   8 1684.53 329.366   3
   3  -1   8 889.537 226.611   3
  -3   1   8 556.078 164.854   3
   3   1   8 775.757 222.650   3
  -4   1   8 10386.0 668.785   3
   4   1   8 9714.83 815.015   3
   4  -1   8 10954.6 829.746   3
   5   1   8 1485.63 335.427   3
  -5   1   8 1900.15 264.786   3
   5  -1   8 1383.98 294.513   3
   6  -1   8 1207.62 318.179   3
  -6   1   8 1194.25 198.474   3
   6   1   8 1153.13 298.392   3
   7  -1   8 5766.04 626.522   3
  -7   1   8 6745.83 425.597   3
   7   1   8 5489.33 634.729   3
   8  -1   8 117.453 117.157   3
  -8   1   8 50.3590 48.6965   3
   8   1   8 24.9685 84.3432   3
   9  -1   8 3806.07 532.987   3
   9   1   8 4559.12 594.499   3
  10   1   8 248.104 129.818   3
  11   1   8 2329.96 432.415   3
  12   1   8 2132.66 407.477   3
  13   1   8 879.526 269.932   3
  14   1   8 9284.69 897.413   3
  15   1   8 1631.65 371.554   3
  16   1   8 3163.34 519.978   3
  17   1   8 277.877 163.965   3
  18   1   8 634.515 266.260   3
   0   1   9 1083.22 246.806   3
   1   1   9 2282.60 380.848   3
  -1   1   9 2376.45 366.289   3
  -2   1   9 160.338 101.647   3
   2   1   9 254.290 163.999   3
  -3   1   9 507.977 163.258   3
   3   1   9 177.269 144.083   3
  -4   1   9 17026.7 883.803   3
   4   1   9 16146.3 1091.45   3
   4  -1   9 16492.8 1061.95   3
   5   1   9 113.559 115.610   3
   5  -1   9-135.773 160.895   3
  -5   1   9 96.1695 81.9973   3
   6  -1   9 2141.43 390.452   3
  -6   1   9 1628.23 234.285   3
   6   1   9 1733.16 368.412   3
   7   1   9 276.114 155.068   3
   7  -1   9 72.2925 112.178   3
  -7   1   9 177.889 80.8134   3
   8   1   9 141.207 137.851   3
   8  -1   9 21.1416 127.253   3
   9  -1   9 8910.00 849.117   3
   9   1   9 9073.07 859.573   3
  10   1   9 1413.50 354.759   3
  11   1   9 3169.93 504.977   3
  12   1   9 1571.73 370.877   3
  13   1   9 114.386 137.383   3
  14   1   9 679.240 256.139   3
  15   1   9 296.376 204.821   3
  16   1   9 1284.49 334.448   3
  17   1   9 2855.35 519.405   3
   0   1  10 95.0212 68.7410   3
   1   1  10 15005.7 995.769   3
  -1   1  10 15408.4 963.837   3
  -2   1  10 836.781 214.220   3
   2   1  10 1008.29 268.423   3
   3   1  10 5304.05 611.059   3
  -3   1  10 4580.47 478.690   3
  -4   1  10 223.065 97.7817   3
   4   1  10 704.425 276.531   3
  -5   1  10 338.119 122.298   3
   5   1  10 608.859 224.256   3
   6   1  10 2230.69 412.465   3
  -6   1  10 2366.60 290.146   3
   7   1  10 173.270 141.609   3
   8   1  10 4683.82 620.762   3
   9   1  10 16969.3 1200.11   3
  10   1  10 122.686 134.455   3
  11   1  10 8181.13 848.408   3
  12   1  10 326.907 204.365   3
  13   1  10 210.200 186.294   3
  14   1  10 1289.19 365.361   3
  15   1  10 120.707 160.832   3
   0   1  11 13994.8 949.192   3
   1   1  11 4165.02 529.619   3
  -1   1  11 4746.04 531.571   3
   2   1  11 1833.84 354.070   3
  -2   1  11 2309.72 366.680   3
  -3   1  11 619.442 186.251   3
   3   1  11 1062.45 297.750   3
   4   1  11 6852.88 724.378   3
  -4   1  11 6794.33 570.016   3
  -5   1  11 758.803 189.687   3
   5   1  11 864.410 282.707   3
   6   1  11 5627.04 681.373   3
   7   1  11 678.402 237.898   3
   8   1  11 209.957 147.726   3
   9   1  11 3445.23 558.058   3
  10   1  11 2276.68 455.837   3
  11   1  11 1044.60 322.935   3
  12   1  11 341.021 201.702   3
  13   1  11 108.267 97.3330   3
   0   1  12 89.7423 103.431   3
  -1   1  12 384.398 169.450   3
   1   1  12 401.807 163.889   3
  -2   1  12 1663.99 310.825   3
   2   1  12 1876.74 368.640   3
  -3   1  12 2472.67 361.444   3
   3   1  12 3376.90 505.682   3
   4   1  12 662.744 251.235   3
  -4   1  12 586.894 171.663   3
   5   1  12 10715.8 942.056   3
   6   1  12 2103.59 426.577   3
   7   1  12 4772.22 649.991   3
   8   1  12-207.872 149.926   3
   9   1  12 654.218 251.111   3
  10   1  12 403.752 245.802   3
  11   1  12 47.6459 147.452   3
   0   1  13 1477.23 325.348   3
  -1   1  13 49.3021 65.9099   3
   1   1  13 55.3250 84.9297   3
  -2   1  13 6063.38 609.349   3
   2   1  13 6882.37 723.176   3
  -3   1  13 97.6503 114.158   3
   3   1  13 50.0437 72.5896   3
   4   1  13 2624.56 463.134   3
   5   1  13 3140.16 521.481   3
   6   1  13 664.119 286.203   3
   7   1  13 44.3321 90.7369   3
   8   1  13 16.1314 100.766   3
   0   1  14 49.7870 104.566   3
  -1   1  14 453.818 157.490   3
   1   1  14 285.393 163.002   3
   2   1  14 2823.63 478.010   3
  -2   1  14 2097.13 374.635   3
   3   1  14 220.038 183.657   3
   4   1  14 1150.67 327.106   3
   5   1  14 575.012 234.665   3
   6   1  14 4740.77 681.800   3
   0   1  15 2402.44 432.197   3
   1   1  15 1133.57 299.892   3
   2   1  15 2010.94 409.630   3
   3   1  15 8275.34 860.274   3
   0  -2   0 195452. 3080.54   2
   1  -2   0-8.95938 34.2280   2
  -1  -2   0 1.93135 30.2648   2
   2  -2   0 2262.19 159.690   2
  -2  -2   0 2903.54 237.409   2
  -3  -2   0 535.532 66.1249   1
   3  -2   0 445.167 63.9237   2
  -4  -2   0 8155.95 302.480   1
   4  -2   0 8446.32 277.353   2
  -5  -2   0 51.8615 25.5376   1
   6   2   0 4211.70 286.732   3
   7   2   0 76.5850 51.5553   3
   8   2   0 18219.9 659.351   3
  -8  -2   0 18862.7 799.646   2
  -9  -2   0 158.622 74.3079   2
   9   2   0 198.636 65.6587   3
   9  -2   0 204.482 89.7695   1
  10  -2   0 28017.4 1015.67   1
  10   2   0 28025.4 901.008   3
 -10  -2   0 28368.1 1053.43   2
 -11  -2   0 15.0409 65.9187   2
  11  -2   0 181.557 81.8164   1
  11   2   0 82.2059 70.6469   3
  12   2   0 3588.33 329.227   3
  12  -2   0 3434.13 371.186   1
 -12  -2   0 3194.88 352.509   2
  13   2   0 19.6896 62.4206   3
  13  -2   0-64.1232 86.2741   1
 -13  -2   0 16.3990 55.2297   2
 -14  -2   0 2678.64 346.542   2
  14   2   0 2238.44 299.676   3
  14  -2   0 2263.08 329.178   1
  15  -2   0-37.3105 67.0862   1
 -15  -2   0-22.2213 78.3491   2
 -16  -2   0 1356.89 262.867   2
  16  -2   0 1605.98 306.514   1
  17  -2   0 43.3889 57.5209   1
 -17  -2   0-13.7693 62.9921   2
  18  -2   0 214.008 98.3199   1
 -18  -2   0 120.644 49.9165   2
  19  -2   0-152.716 153.577   1
 -19  -2   0 8.30374 40.2358   2
   0  -2  -1-2.30257 27.7783   2
   0   2   1 53.5082 37.8918   2
  -1  -2  -1 306.451 72.0995   2
   1  -2  -1 404.835 76.1968   2
  -1   2   1 208.545 61.9368   2
   1  -2  -1 293.958 37.5359   1
   2  -2  -1 2575.00 143.657   1
   2  -2  -1 2659.81 187.512   2
  -2  -2  -1 2281.02 210.238   2
  -2   2   1 2416.27 178.105   2
   3  -2  -1 1513.11 127.181   1
   3  -2  -1 1520.33 132.806   2
  -3  -2  -1 1393.58 177.372   2
  -3   2   1 1171.99 118.107   2
   4  -2  -1 1164.93 129.747   1
   4   2   1 1026.36 143.387   3
  -4  -2  -1 1033.43 160.761   2
  -4  -2   1 1043.93 116.670   1
  -4   2   1 988.771 99.1806   2
   4  -2   1 1067.39 88.0846   2
   5   2   1 40539.4 1036.71   3
   5  -2  -1 40556.2 976.510   1
  -5  -2   1 42551.0 957.174   1
   5   2   1 41072.8 880.065   1
   5  -2   1 40506.3 688.073   2
  -5   2   1 41338.2 800.482   2
  -5  -2  -1 40211.8 1136.30   2
   6   2   1 1551.03 179.725   3
   6  -2  -1 1765.10 189.086   1
  -6  -2   1 1541.08 164.717   1
   6   2   1 1597.96 158.411   1
  -6  -2  -1 1408.57 205.041   2
  -6   2   1 1763.58 120.500   2
  -7  -2  -1 14111.8 664.862   2
   7   2   1 13578.7 576.458   3
   7   2   1 14324.8 546.327   1
   7   2  -1 14630.4 543.111   3
  -7   2   1 14323.3 364.955   2
   8   2   1 8665.25 463.936   3
   8   2  -1 7604.93 389.563   3
  -8   2   1 8504.41 252.653   2
   8   2   1 8460.44 436.544   1
  -8  -2  -1 8337.44 517.640   2
   9   2  -1 14784.0 571.218   3
   9  -2  -1 15472.2 697.038   1
   9   2   1 15771.3 666.260   3
   9   2   1 15893.1 655.773   1
  -9   2   1 14881.1 346.046   2
  -9  -2  -1 15406.5 736.209   2
  10   2  -1 1961.74 208.300   3
  10  -2  -1 1703.72 234.573   1
 -10  -2  -1 1728.24 249.064   2
 -10   2   1 1637.65 90.4611   2
  10   2   1 1639.39 216.531   1
  10   2   1 1986.59 238.386   3
  11   2   1 1077.58 184.663   3
  11   2  -1 1405.86 177.542   3
 -11  -2  -1 1359.98 230.873   2
  11  -2  -1 1482.12 232.038   1
  11   2   1 1319.04 205.304   1
  12  -2   1 11392.0 698.190   1
  12   2   1 12665.0 690.341   1
  12  -2  -1 12495.0 728.416   1
  12   2   1 12737.1 683.974   3
  12   2  -1 13143.1 588.770   3
 -12  -2  -1 12825.7 725.988   2
  13  -2   1 2309.33 317.671   1
  13   2   1 2255.08 299.958   3
  13  -2  -1 2752.39 350.569   1
  13   2  -1 2022.77 237.391   3
  13   2   1 2646.85 323.064   1
 -13  -2  -1 2329.97 309.210   2
  14   2   1 468.263 145.472   3
  14   2  -1 464.942 124.064   3
  14   2   1 809.710 203.160   1
 -14  -2  -1 481.057 145.944   2
  14  -2   1 633.365 175.227   1
  14  -2  -1 437.737 141.694   1
 -14  -2   1 672.561 175.477   2
  15  -2   1 6854.14 604.183   1
 -15  -2   1 6583.73 559.763   2
  15   2   1 5282.19 541.556   3
  15  -2  -1 6450.27 589.919   1
  15   2   1 6660.16 570.595   1
 -15  -2  -1 6341.91 543.685   2
  16   2   1 43.9014 85.3195   1
  16  -2  -1-2.30660 61.9460   1
  16  -2   1-39.3704 85.2438   1
 -16  -2   1 122.690 85.5386   2
  17  -2  -1 783.560 224.213   1
  17   2   1 735.832 220.930   1
 -17  -2  -1 510.312 163.905   2
  17  -2   1 639.280 206.409   1
 -17  -2   1 466.478 159.818   2
  18  -2  -1 11933.5 898.061   1
  18  -2   1 10807.7 865.735   1
 -18  -2  -1 10966.7 779.562   2
 -18  -2   1 9045.14 716.561   2
  19  -2   1 223.235 159.229   1
 -19  -2   1 155.797 102.626   2
 -19  -2  -1 278.165 135.291   2
  19  -2  -1 444.439 183.300   1
   0  -2  -2 2920.34 233.361   2
   0   2   2 2617.27 219.027   2
   1  -2  -2 494.565 93.9938   2
  -1  -2  -2 632.025 114.559   2
  -1   2   2 696.924 110.866   2
  -2  -2  -2 3040.28 252.273   2
   2   2   2 2904.46 239.739   3
  -2   2   2 2976.46 226.081   2
   3   2   2 2916.43 138.526   1
   3   2   2 3167.16 257.010   3
  -3   2   2 2989.41 216.450   2
  -3  -2  -2 2991.35 263.616   2
   4   2   2 10033.7 325.795   1
  -4   2   2 10146.3 402.911   2
   4   2   2 9381.35 457.119   3
  -4  -2  -2 9895.05 502.919   2
   4  -2  -2 9957.37 397.313   1
  -5   2   2 16078.6 512.550   2
   5   2   2 16835.9 639.893   3
   5   2   2 16163.4 488.247   1
   5  -2  -2 17013.4 582.724   1
  -5  -2  -2 17089.6 694.348   2
   6   2   2 1146.19 131.707   1
   6   2   2 1046.86 156.068   3
  -6  -2  -2 965.770 163.484   2
  -6   2   2 973.028 111.447   2
   6  -2  -2 1307.95 164.935   1
   7   2   2 1468.92 194.751   3
  -7   2   2 1404.03 135.359   2
  -7  -2  -2 1933.17 238.779   2
   7   2   2 1458.81 164.048   1
   8   2   2 7633.20 416.312   1
   8   2   2 8362.51 488.567   3
  -8  -2  -2 7909.48 503.889   2
   9   2   2 11915.2 562.131   1
   9  -2  -2 12385.6 631.695   1
   9   2   2 12692.8 629.407   3
   9   2  -2 12457.0 494.728   3
  -9  -2  -2 12379.3 655.016   2
  10  -2  -2 3144.14 329.165   1
  10   2   2 3230.61 301.968   1
  10   2  -2 2992.40 235.057   3
 -10  -2  -2 3575.40 359.271   2
  10   2   2 2834.82 313.093   3
  11   2   2 5073.92 433.612   3
  11   2   2 4466.85 382.474   1
  11   2  -2 4867.14 313.081   3
  11  -2  -2 4331.49 406.303   1
 -11  -2  -2 4745.69 426.085   2
  12   2   2 3302.71 346.857   1
  12   2  -2 3964.22 287.874   3
  12   2   2 3100.57 361.530   3
  12  -2  -2 3284.55 369.356   1
 -12  -2  -2 2950.93 345.215   2
  13   2   2 9039.07 669.396   3
  13  -2  -2 9717.68 671.615   1
  13   2   2 10012.1 639.866   1
  13   2  -2 8037.70 433.113   3
 -13  -2  -2 8298.57 597.908   2
  14   2   2 2925.06 413.083   3
  14  -2   2 2976.61 390.447   1
  14   2   2 2899.52 358.630   1
 -14  -2  -2 2953.32 367.762   2
  14  -2  -2 2364.52 343.081   1
  15   2   2 2901.01 435.280   3
  15  -2   2 3164.85 416.324   1
  15   2   2 3795.90 427.595   1
  15  -2  -2 3891.29 458.330   1
 -15  -2  -2 4113.29 442.081   2
  16  -2   2 1003.16 242.832   1
 -16  -2  -2 913.076 218.506   2
  16  -2  -2 891.535 225.497   1
  16   2   2 743.371 198.731   1
  16   2   2 853.341 238.810   3
  17   2   2-9.30632 57.6599   1
  17  -2   2 107.230 125.641   1
 -17  -2  -2 212.096 105.327   2
  17  -2  -2 153.140 116.086   1
 -17  -2   2 168.642 125.371   2
  18  -2   2 4995.31 588.204   1
  18   2   2 4031.48 507.439   1
 -18  -2  -2 5167.86 529.738   2
  18  -2  -2 5136.05 585.907   1
 -18  -2   2 4985.02 540.169   2
  19   2   2 508.453 190.068   1
 -19  -2   2 414.355 172.769   2
  19  -2   2 349.645 172.020   1
  20   2   2 1170.69 289.309   1
   0   2   3-12.3762 25.9609   3
   1   2   3 13705.8 550.497   3
  -1  -2  -3 13819.9 577.573   2
  -1   2   3 13136.1 369.165   1
  -2  -2  -3 16164.8 645.526   2
   2   2   3 16757.4 628.587   3
  -2   2   3 15973.5 452.344   1
  -3   2   3 35298.7 956.537   2
  -3   2   3 34997.4 806.189   1
  -3  -2  -3 36285.3 1048.56   2
   3   2   3 35998.0 1001.38   3
  -4   2   3 12967.1 467.555   1
   4   2   3 13408.8 586.323   3
  -4  -2  -3 11988.7 581.511   2
  -4   2   3 13569.5 535.366   2
  -5  -2  -3 1177.96 180.133   2
   5   2   3 1094.84 168.971   3
  -5   2   3 795.468 125.174   2
   6   2   3 11719.0 585.957   3
  -6  -2  -3 12019.8 607.514   2
  -7  -2  -3 5122.73 403.451   2
   7   2   3 5424.59 403.187   3
   8   2   3 29.7584 64.3426   3
  -8  -2  -3 36.5968 41.6264   2
   9   2   3 657.014 157.300   3
  -9  -2  -3 574.657 147.649   2
   9   2   3 566.513 118.661   1
  10   2   3 382.738 103.662   1
  10   2   3 428.925 139.636   3
 -10  -2  -3 298.332 106.393   2
  10   2  -3 259.804 62.6525   3
  11   2   3 13776.1 688.571   1
  11   2   3 14166.9 800.792   3
  11   2  -3 14320.5 525.228   3
 -11  -2  -3 13646.1 747.640   2
  12   2   3 44.0874 52.0098   3
  12   2  -3 49.1764 42.9942   3
  12   2   3 14.2673 74.3155   1
 -12  -2  -3 181.318 96.3884   2
  13   2   3 7149.87 541.823   1
  13   2   3 6154.60 601.911   3
 -13  -2  -3 7091.82 554.839   2
  14   2   3 5158.65 481.451   1
  14   2   3 5012.56 587.903   3
 -14  -2  -3 5691.40 514.115   2
  15   2   3 228.888 154.331   3
 -15  -2  -3 408.726 143.190   2
  15   2   3 271.278 113.960   1
  16   2   3 1095.45 249.169   1
  16  -2   3 1634.09 321.054   1
 -16  -2  -3 1439.56 269.531   2
  16   2   3 1582.99 361.703   3
 -17  -2  -3 251.643 125.076   2
  17   2   3 304.699 143.821   1
  17  -2   3 537.296 206.549   1
  18  -2   3 4814.86 579.138   1
 -18  -2  -3 5171.42 534.236   2
  18   2   3 4857.63 554.312   1
  19   2   3 604.745 201.789   1
  19  -2   3 578.579 219.649   1
 -19  -2   3 579.297 194.486   2
  20   2   3 669.117 234.826   1
   0   2   4 6600.83 384.272   3
   1   2   4 581.383 119.229   3
  -1   2   4 924.605 140.440   3
   2   2   4 2720.73 260.366   3
  -2   2   4 2478.26 220.511   3
   3   2   4 19452.7 743.863   3
  -3   2   4 19587.2 599.943   1
  -3   2   4 18969.5 640.523   3
  -3  -2  -4 19241.7 769.149   2
  -4   2   4 8494.66 399.847   1
  -4  -2  -4 8627.58 510.250   2
   4   2   4 9314.42 515.755   3
  -4   2   4 8691.53 404.328   3
  -5  -2  -4 944.612 176.343   2
   5   2   4 879.743 161.436   3
  -5   2   4 934.557 127.405   3
  -6  -2  -4 1547.61 230.386   2
   6   2   4 1766.47 234.715   3
   7   2   4 14474.0 717.446   3
  -7  -2  -4 13180.3 678.353   2
   8  -2   4 7542.49 283.391   2
  -8  -2  -4 7305.05 508.750   2
   8   2   4 8187.80 553.281   3
  -9  -2  -4 22664.7 946.059   2
   9   2   4 22737.5 996.606   3
   9  -2   4 21425.5 497.640   2
  10   2   4 1112.03 233.942   3
 -10  -2  -4 832.282 186.483   2
  10   2  -4 801.978 112.318   3
  11   2   4 76.5293 84.3783   3
 -11  -2  -4 54.1384 63.5976   2
  11   2  -4 121.964 43.0658   3
  12   2   4 52.6254 89.5252   3
 -12  -2  -4 110.156 83.8994   2
  12   2   4 77.5757 51.0164   1
  13   2   4 4626.95 439.752   1
 -13  -2  -4 5631.31 500.655   2
  13   2   4 4977.67 590.282   3
  14   2   4-81.1255 105.597   3
 -14  -2  -4 18.7504 47.4106   2
  14   2   4 33.6509 47.7940   1
  15   2   4 12591.9 795.863   1
  15   2   4 9473.77 905.090   3
 -15  -2  -4 12983.9 808.519   2
 -16  -2  -4 14.4300 56.3799   2
  16   2   4 62.8038 83.5355   1
  16   2   4-59.7022 118.423   3
 -17  -2  -4 1160.94 242.788   2
  17   2   4 1276.83 281.304   1
  17   2   4 1765.58 373.890   3
 -18  -2  -4 115.626 81.0188   2
  18  -2   4-25.9216 94.3571   1
  19   2   4 3356.47 480.766   1
  20   2   4 36.1130 77.6065   1
   0   2   5 16.1561 41.4064   3
   1   2   5 1603.89 206.220   3
  -1   2   5 1512.21 188.989   3
  -2   2   5 12671.2 554.897   3
   2   2   5 12937.7 623.502   3
  -3   2   5 26252.5 810.197   3
   3   2   5 25679.8 934.787   3
   4   2   5 7194.66 486.792   3
  -4   2   5 7391.80 391.396   3
   5   2   5 432.780 123.635   3
  -5   2   5 316.044 79.3550   3
  -6  -2  -5 7847.97 522.330   2
  -6   2   5 8133.18 390.814   3
   6   2   5 8131.15 553.951   3
   7   2   5 534.653 155.307   3
  -7   2   5 767.152 116.110   3
  -7  -2  -5 687.748 182.089   2
  -8  -2  -5 1561.05 248.354   2
   8   2   5 1887.74 289.439   3
  -8   2   5 1889.49 175.268   3
  -9  -2  -5 1416.07 226.403   2
   9   2   5 1404.82 258.179   3
  -9   2   5 1159.20 130.906   3
  10   2   5 4649.72 502.901   3
 -10  -2  -5 4230.46 413.140   2
 -10   2   5 5034.92 268.477   3
 -11  -2  -5 21018.6 976.051   2
  11   2   5 20872.0 1169.41   3
  12   2   5 2856.05 463.171   3
 -12  -2  -5 3033.44 369.210   2
 -13  -2  -5 271.268 113.455   2
  13   2   5 178.357 101.473   3
  14   2   5 5146.86 488.436   1
 -14  -2  -5 5028.91 493.397   2
  14   2   5 2840.33 502.254   3
 -15  -2  -5 160.431 94.2399   2
  15   2   5-28.9890 62.9731   1
  15   2   5 335.418 158.480   3
 -16  -2  -5 1087.13 242.303   2
  16   2   5 1044.97 238.472   1
  16   2   5 1025.89 317.015   3
  17   2   5-124.796 160.033   3
 -17  -2  -5-50.6423 91.6998   2
 -18  -2  -5 249.472 127.275   2
  18   2   5 285.324 152.531   1
  18   2   5 436.918 207.510   3
  19   2   5 192.102 107.359   1
   0   2   6 127.798 85.2147   3
   1   2   6 11966.5 618.843   3
  -1   2   6 11011.1 566.990   3
   2   2   6 7069.88 489.322   3
  -2   2   6 6500.92 418.762   3
   3   2   6 182.267 85.2181   3
  -3   2   6 143.434 62.5779   3
  -4   2   6 18736.9 703.851   3
   4   2   6 19360.0 875.659   3
   5   2   6-24.0962 69.9390   3
  -5   2   6 70.4144 55.8436   3
   6   2   6 6050.15 516.227   3
  -6   2   6 5763.47 351.619   3
   7   2   6 555.172 170.824   3
  -7   2   6 466.940 98.6681   3
   8   2   6 9028.83 692.726   3
  -8   2   6 9309.27 424.652   3
   9   2   6 1781.81 326.692   3
  -9   2   6 1907.18 180.899   3
  10   2   6 3016.64 446.074   3
 -10   2   6 2901.83 206.508   3
  11   2   6 3022.99 475.462   3
  12   2   6 1267.64 362.130   3
  13   2   6 813.087 292.216   3
  14   2   6 618.641 253.486   3
  15   2   6 1783.54 308.154   1
  15   2   6 1922.73 422.424   3
  16   2   6 9261.97 727.338   1
  16   2   6 10722.7 1024.73   3
  17   2   6 376.837 155.227   1
  17   2   6 186.185 132.593   3
  18   2   6 4460.92 535.976   1
  18   2   6 5031.38 675.795   3
  19   2   6-32.5764 126.226   1
   0   2   7 76.6812 84.4444   3
   1   2   7 696.977 176.063   3
  -1   2   7 641.275 143.883   3
  -2   2   7 7901.95 505.529   3
   2   2   7 8259.30 576.062   3
   3   2   7 3792.17 404.061   3
  -3   2   7 3335.73 312.142   3
   4   2   7 274.643 117.333   3
  -4   2   7 119.713 69.6369   3
   5   2   7 540.038 176.837   3
  -5   2   7 205.347 75.2058   3
   6   2   7 1447.43 282.581   3
  -6   2   7 1222.36 177.444   3
   7   2   7 13459.2 892.704   3
  -7   2   7 11761.2 544.157   3
   8   2   7 5763.19 607.468   3
  -8   2   7 6370.05 378.508   3
   9   2   7 4571.42 569.683   3
  -9   2   7 4308.39 296.454   3
  10   2   7 2005.72 397.213   3
  11   2   7 1865.45 416.436   3
  12   2   7 1511.48 376.749   3
  13   2   7 874.814 317.110   3
  14   2   7-92.4711 173.197   3
  15   2   7 2633.64 540.554   3
  16   2   7 1089.04 258.401   1
  16   2   7 1510.04 382.780   3
  17   2   7 1158.85 348.971   3
  17   2   7 831.741 226.214   1
  18   2   7 2427.89 403.233   1
  18   2   7 3094.88 546.287   3
   0   2   8 72625.1 1986.46   3
   1   2   8 497.960 165.204   3
  -1   2   8 638.843 163.050   3
   2   2   8 3914.53 433.947   3
  -2   2   8 4242.36 400.242   3
   3   2   8 49.2286 72.4295   3
  -3   2   8 150.029 78.8596   3
   4   2   8 646.283 201.190   3
  -4   2   8 543.615 142.615   3
   5   2   8 1267.66 290.189   3
  -5   2   8 1560.13 224.362   3
   6   2   8 284.723 167.113   3
  -6   2   8 215.557 92.4630   3
  -7   2   8 6688.63 448.299   3
   7   2   8 6479.41 685.698   3
   8   2   8 1697.65 345.861   3
  -8   2   8 1908.97 232.841   3
   9   2   8 1956.54 385.205   3
  10   2   8 12701.9 1104.80   3
  11   2   8 1066.14 316.467   3
  12   2   8 1538.91 401.019   3
  13   2   8 605.493 259.087   3
  14   2   8-37.7280 105.910   3
  15   2   8 1811.93 431.318   3
  16   2   8 561.279 240.238   3
  17   2   8 2209.85 380.625   1
  17   2   8 1527.04 412.072   3
  18   2   8 215.601 149.477   1
   0   2   9 52.7956 96.6110   3
   1   2   9 273.459 134.193   3
  -1   2   9 549.128 167.264   3
   2   2   9 8703.18 742.937   3
  -2   2   9 8562.33 649.380   3
   3   2   9 5194.27 583.153   3
  -3   2   9 4349.75 454.968   3
   4   2   9 211.999 118.848   3
  -4   2   9 651.904 172.429   3
  -5   2   9 28364.1 1154.92   3
   5   2   9 27601.2 1473.64   3
   6   2   9 1140.10 300.316   3
  -6   2   9 1321.60 239.416   3
   7   2   9 1042.92 324.204   3
  -7   2   9 1211.56 221.553   3
   8   2   9 3126.78 553.945   3
   9   2   9 197.524 166.156   3
  10   2   9 46.4423 89.1641   3
  11   2   9 857.955 313.308   3
  12   2   9 1384.93 400.480   3
  13   2   9 2562.91 544.055   3
  14   2   9 817.907 328.469   3
  15   2   9 1422.55 420.431   3
   0   2  10 284.711 161.601   3
   1   2  10 56.2552 90.6324   3
  -1   2  10 176.469 129.675   3
   2   2  10 575.495 216.625   3
  -2   2  10 1028.50 254.708   3
   3   2  10 1028.13 290.967   3
  -3   2  10 1323.12 274.230   3
   4   2  10 1575.02 382.135   3
  -4   2  10 1370.93 288.907   3
  -5   2  10 2607.68 385.882   3
   5   2  10 1686.14 408.309   3
   6   2  10 232.378 89.0342   3
  -6   2  10 122.068 87.0762   3
   7   2  10-9.61665 89.0115   3
   8   2  10-158.234 146.060   3
   9   2  10 2565.74 530.160   3
  10   2  10 1257.76 390.702   3
  11   2  10 1211.17 366.552   3
  12   2  10 517.261 236.020   3
  13   2  10 11926.5 1150.19   3
  14   2  10 5963.43 822.060   3
   0   2  11-430.201 199.852   3
  -1   2  11 2284.60 433.836   3
   1   2  11 1998.23 419.332   3
  -2   2  11 21.5223 100.783   3
   2   2  11-27.2159 152.331   3
  -3   2  11 1293.16 309.866   3
   3   2  11 1645.57 390.589   3
  -4   2  11 2306.39 397.914   3
   4   2  11 2110.38 452.958   3
  -5   2  11 1213.25 277.822   3
   5   2  11 2300.44 478.486   3
   6   2  11 2128.91 473.926   3
   7   2  11 6350.79 834.361   3
   8   2  11 550.892 270.585   3
   9   2  11 1014.52 354.371   3
  10   2  11 4709.44 731.829   3
  11   2  11 464.249 206.145   3
  12   2  11 194.752 233.805   3
   0   2  12 8159.79 856.059   3
  -1   2  12 1092.81 312.856   3
   1   2  12 1258.38 352.550   3
  -2   2  12 6164.57 701.883   3
   2   2  12 6578.61 803.298   3
  -3   2  12 1787.95 374.925   3
   3   2  12 1653.07 403.348   3
  -4   2  12 2160.80 384.602   3
   4   2  12 2635.41 536.086   3
   5   2  12 524.591 263.668   3
   6   2  12 1570.81 421.799   3
   7   2  12 856.076 317.300   3
   8   2  12 5960.94 822.484   3
   9   2  12 3037.68 574.444   3
   0   2  13 12.0207 68.8314   3
  -1   2  13 2470.56 457.186   3
   1   2  13 1828.57 421.373   3
  -2   2  13 1874.84 385.841   3
   2   2  13 856.731 306.418   3
  -3   2  13 342.720 182.740   3
   3   2  13 312.180 173.953   3
   4   2  13 3111.32 583.485   3
   5   2  13 3860.99 634.669   3
   6   2  13 903.349 354.283   3
   7   2  13 364.826 230.954   3
   0   2  14 191.880 128.336   3
   1   2  14 6151.82 749.615   3
  -1   2  14 5214.42 662.819   3
   2   2  14 2547.72 503.084   3
   3   2  14 587.010 247.853   3
   4   2  14 3311.19 579.752   3
   0   2  15 115.745 122.101   3
   1   2  15 1560.83 373.507   3
   0  -3   0 45.3720 45.4405   2
   1  -3   0 44.3895 48.8162   2
  -1  -3   0 68.5362 55.9977   2
  -2  -3   0 1743.33 105.657   1
   2  -3   0 1999.81 197.717   2
  -2  -3   0 1814.59 228.210   2
   3  -3   0 76.7910 44.6466   2
  -3  -3   0 29.4465 17.4753   1
  -3  -3   0-20.9967 63.6653   2
   4  -3   0 16831.2 564.144   2
  -4  -3   0 17389.6 462.877   1
  -4  -3   0 17225.3 765.365   2
   5  -3   0 54.5614 32.9361   2
  -5  -3   0 57.6048 50.6702   2
  -6  -3   0 1858.12 254.106   2
   7   3   0 100.662 60.4188   3
  -7  -3   0 97.9168 70.9963   2
   8  -3   0 3983.21 340.685   1
   8   3   0 3982.43 343.651   3
  -8  -3   0 3770.21 394.796   2
   9   3   0 43.2670 40.9112   3
  -9  -3   0 23.3688 60.5090   2
   9  -3   0 26.2535 37.3242   1
  10  -3   0 1940.72 261.552   1
  10   3   0 2040.92 250.460   3
 -10  -3   0 1700.59 270.155   2
  11  -3   0 9.41627 42.5965   1
  11   3   0 161.125 94.0001   3
 -11  -3   0 79.0152 74.9845   2
  12   3   0 812.264 171.506   3
  12  -3   0 779.672 183.903   1
 -12  -3   0 1057.74 229.681   2
  13   3   0 105.865 70.2971   3
  13  -3   0 46.9520 56.5127   1
 -13  -3   0 210.942 109.287   2
  14  -3   0 21259.1 1071.21   1
  14   3   0 19905.7 906.731   3
 -14  -3   0 19733.9 1065.14   2
 -15  -3   0 10.6061 53.0203   2
  15  -3   0 133.180 99.2078   1
  16  -3   0 8602.65 725.663   1
 -16  -3   0 7454.49 663.562   2
  17  -3   0 137.015 93.0898   1
 -17  -3   0-3.29877 87.0931   2
  18  -3   0 2188.43 401.111   1
 -18  -3   0 1937.60 351.010   2
 -19  -3   0 115.762 117.537   2
 -20  -3   0 600.729 227.582   2
   0  -3  -1 992.958 156.192   2
   1  -3  -1 61.1615 38.8236   2
   1  -3  -1 47.2499 21.5524   1
  -1  -3  -1 49.0811 44.9622   2
   1  -3   1 296.941 85.6576   2
   2  -3  -1 812.251 130.974   2
   2  -3  -1 977.598 91.4759   1
  -2  -3  -1 835.879 151.087   2
   2  -3   1 1214.90 156.670   2
   3  -3  -1 799.261 128.332   2
   3  -3  -1 1103.94 114.744   1
  -3  -3  -1 772.591 156.805   2
   3  -3   1 1510.68 160.369   2
   4  -3  -1 51442.1 1090.46   1
   4  -3  -1 50699.5 1158.11   2
  -4  -3   1 50566.6 1055.55   1
   4  -3   1 51364.0 1083.27   2
  -4  -3  -1 50965.9 1417.38   2
   5  -3  -1 3015.52 234.749   1
  -5  -3   1 2800.97 211.176   1
   5  -3   1 3393.00 207.629   2
  -5  -3  -1 3097.83 326.429   2
   6   3   1 6808.97 452.730   3
   6  -3  -1 6060.74 367.380   1
  -6  -3   1 6002.50 331.971   1
   6  -3   1 6347.26 258.237   2
  -6  -3  -1 6724.77 495.074   2
   7   3   1 1582.66 224.045   3
  -7  -3  -1 1530.76 244.176   2
  -8  -3  -1 1107.26 213.308   2
   8   3   1 1483.84 216.077   3
   9  -3  -1 19375.0 818.764   1
   9   3   1 19182.4 817.323   3
   9   3  -1 20003.6 789.107   3
  -9  -3  -1 18397.9 915.093   2
  10   3   1 1381.60 214.111   3
  10   3  -1 1578.24 213.598   3
 -10  -3  -1 970.444 204.663   2
  10  -3  -1 1307.87 215.322   1
 -11  -3   1 50.0142 72.2772   2
  11  -3   1 56.5571 56.9751   1
  11   3   1 203.510 82.3681   3
  11   3  -1 33.5637 51.4108   3
 -11  -3  -1 223.262 128.465   2
  11  -3  -1-52.8206 69.2876   1
  12   3   1 447.415 142.557   3
  12   3  -1 196.512 78.3850   3
 -12  -3  -1 395.687 128.318   2
  12  -3   1 334.081 125.201   1
  12  -3  -1 475.184 144.199   1
 -12  -3   1 224.963 110.327   2
  13  -3   1 7532.68 603.992   1
  13  -3  -1 7878.00 616.328   1
  13   3  -1 6833.95 477.253   3
  13   3   1 6908.90 536.891   3
 -13  -3  -1 6534.89 580.938   2
 -13  -3   1 7512.59 631.033   2
  14  -3   1 5005.49 514.559   1
  14   3   1 5892.49 512.743   3
  14  -3  -1 6358.04 572.208   1
  14   3  -1 6019.74 452.613   3
 -14  -3  -1 5886.18 559.048   2
 -14  -3   1 6537.59 605.698   2
  15   3   1 1126.81 228.292   3
  15  -3   1 1571.58 301.348   1
  15  -3  -1 1202.08 255.806   1
 -15  -3  -1 1380.58 274.813   2
 -15  -3   1 1344.96 280.273   2
  16  -3   1 290.053 160.360   1
 -16  -3  -1 278.331 160.630   2
 -16  -3   1 107.325 90.5801   2
  16  -3  -1 332.536 141.658   1
  17  -3  -1 736.525 221.946   1
 -17  -3  -1 595.168 198.657   2
  17  -3   1 972.941 260.377   1
 -17  -3   1 646.719 203.604   2
 -18  -3  -1 1830.74 346.316   2
  18  -3  -1 1770.18 354.517   1
 -18  -3   1 1544.24 329.362   2
  18  -3   1 1007.74 255.435   1
 -19  -3  -1 2772.39 436.920   2
 -19  -3   1 2646.02 429.018   2
 -20  -3  -1 95.6665 102.155   2
 -20  -3   1-26.5482 80.1448   2
   0  -3  -2 15.7107 33.3436   2
   1  -3  -2 13091.3 582.642   2
  -1  -3  -2 13333.6 622.031   2
   2  -3  -2 10606.1 514.074   2
  -2  -3  -2 9710.75 548.173   2
  -3  -3  -2 15551.8 722.239   2
  -4  -3  -2 262.979 112.116   2
   4   3   2 137.187 59.5339   3
   5   3   2 5232.00 400.017   3
   5  -3  -2 5365.21 311.242   1
  -5  -3  -2 5127.88 427.620   2
  -5   3   2 4402.76 294.108   2
   5  -3   2 4363.43 245.013   2
   6  -3  -2 3186.57 263.783   1
   6   3   2 3391.86 326.418   3
  -6  -3  -2 3544.14 362.473   2
   6  -3   2 3664.84 191.594   2
  -6   3   2 3213.81 234.666   2
   7   3   2 1314.34 205.886   3
  -7  -3  -2 1460.70 241.435   2
   7  -3   2 1285.77 86.9330   2
  -7   3   2 1154.84 133.581   2
   8   3   2 10723.4 610.253   3
  -8  -3  -2 11394.8 692.581   2
  -8   3   2 10266.1 393.480   2
   9  -3  -2 16886.9 759.120   1
   9   3   2 16511.9 783.602   3
  -9  -3  -2 17078.7 879.530   2
   9   3   2 16509.5 657.118   1
  10  -3  -2 934.320 185.149   1
  10   3   2 1092.37 203.391   3
  10   3  -2 1046.09 174.461   3
 -10  -3  -2 1005.74 216.590   2
  10   3   2 938.743 165.936   1
  11   3   2 13631.1 744.941   3
  11  -3  -2 14160.5 767.323   1
  11   3  -2 13416.5 629.722   3
 -11  -3  -2 13313.9 812.296   2
  11   3   2 13841.5 678.869   1
  12   3   2 1873.59 264.114   1
  12   3   2 1601.09 262.107   3
  12  -3  -2 1818.12 281.839   1
  12   3  -2 1598.23 213.942   3
 -12  -3  -2 1960.93 310.384   2
  13   3   2 237.293 123.893   3
  13   3  -2 232.657 86.0272   3
 -13  -3  -2 166.881 92.4003   2
  13  -3  -2 306.877 121.245   1
  13   3   2 251.964 109.452   1
  14  -3   2 265.903 116.678   1
  14   3   2 201.617 120.374   3
 -14  -3  -2 165.848 106.973   2
  14  -3  -2 54.5850 101.836   1
 -15  -3   2 167.966 123.461   2
  15  -3   2 250.858 149.876   1
  15  -3  -2 209.197 143.802   1
  15   3   2 277.339 128.960   3
 -15  -3  -2 264.863 114.608   2
  16   3   2 360.944 148.235   3
  16  -3   2 256.966 132.282   1
 -16  -3  -2 343.536 156.096   2
  16  -3  -2 268.178 150.067   1
 -16  -3   2 455.056 165.122   2
  17  -3   2 1413.20 311.924   1
  17  -3  -2 885.883 255.992   1
 -17  -3  -2 963.033 243.128   2
 -17  -3   2 1686.81 334.972   2
  18  -3   2 5826.24 655.261   1
 -18  -3  -2 5423.46 603.430   2
 -18  -3   2 5519.61 616.187   2
 -19  -3  -2 201.791 136.797   2
 -19  -3   2 186.801 103.104   2
 -20  -3  -2 87.4571 104.435   2
   0  -3  -3 52055.6 1382.28   2
   1  -3  -3 17010.7 709.851   2
  -1  -3  -3 16908.8 736.146   2
  -2  -3  -3 414.228 114.135   2
   2   3   3 497.002 125.831   3
  -3  -3  -3 2437.29 282.399   2
   3   3   3 2782.82 291.665   3
   4   3   3 5710.16 425.954   3
  -4  -3  -3 5909.34 455.348   2
   4   3   3 6031.27 202.914   1
  -5  -3  -3 180.752 102.127   2
   5   3   3 269.318 53.1708   1
   5   3   3 217.711 91.4349   3
   6   3   3 255.567 57.2013   1
  -6  -3  -3 273.877 105.845   2
   6   3   3 230.672 97.7872   3
   7   3   3 1085.74 135.105   1
  -7  -3  -3 1121.07 212.077   2
   7   3   3 1073.22 186.231   3
   7  -3   3 1395.65 109.535   2
   8   3   3 330.573 80.0249   1
   8   3   3 303.763 112.170   3
  -8  -3  -3 346.773 130.361   2
   9   3   3 1247.92 173.524   1
   9   3   3 923.827 193.599   3
  -9  -3  -3 1311.65 247.812   2
  10   3   3 3381.62 307.445   1
  10   3   3 3463.53 377.676   3
 -10  -3  -3 3221.20 390.335   2
  11   3   3 9416.73 554.149   1
  11   3   3 9834.06 662.731   3
  11   3  -3 10245.2 530.572   3
 -11  -3  -3 10269.2 720.779   2
  12   3   3 1810.02 300.471   3
 -12  -3  -3 1921.96 319.898   2
  12   3   3 2469.65 296.576   1
  12   3  -3 2444.83 252.767   3
  13   3   3 1954.11 319.015   3
 -13  -3  -3 1244.65 269.468   2
  13   3   3 1671.87 256.967   1
  14   3   3 514.837 184.082   3
  14   3   3 225.861 111.882   1
 -14  -3  -3 239.228 128.739   2
  15   3   3 849.500 251.990   3
 -15  -3  -3 873.160 231.420   2
  15   3   3 945.635 215.332   1
  16   3   3 3530.38 512.837   3
  16  -3   3 4241.34 529.574   1
 -16  -3  -3 4049.01 509.095   2
  16   3   3 4726.94 497.258   1
  17  -3   3 614.889 216.165   1
 -17  -3   3 941.942 267.638   2
 -17  -3  -3 739.660 233.168   2
  17   3   3 1014.65 244.912   1
  18  -3   3 198.289 84.3825   1
 -18  -3  -3 478.487 196.881   2
 -18  -3   3 516.602 192.785   2
 -19  -3  -3 4236.13 545.653   2
 -19  -3   3 2777.95 453.060   2
   0   3   4-4.04753 11.1444   1
   0   3   4 35.4328 72.7027   3
  -1   3   4 4202.29 192.136   1
  -1  -3  -4 5111.11 407.931   2
   1   3   4 3874.17 140.790   1
   1   3   4 4645.42 378.232   3
  -1   3   4 4526.78 364.305   3
  -2  -3  -4 429.424 123.452   2
  -2   3   4 689.378 86.1887   1
   2   3   4 760.594 155.768   3
  -2   3   4 1047.16 176.763   3
  -3  -3  -4 1264.24 217.154   2
   3   3   4 1253.33 203.204   3
  -4  -3  -4 298.255 118.592   2
   4   3   4 225.807 90.5403   3
   5   3   4 14482.8 722.968   3
  -5  -3  -4 13500.4 736.486   2
   6   3   4 1079.88 124.826   1
  -6  -3  -4 1037.55 201.775   2
   6   3   4 970.110 195.476   3
   7   3   4 44521.9 1050.17   1
   7   3   4 44075.4 1410.81   3
  -7  -3  -4 44141.5 1468.76   2
   8   3   4 347.912 90.9223   1
  -8  -3  -4 335.743 125.833   2
   8   3   4 338.519 130.499   3
  -9  -3  -4 686.317 185.269   2
   9   3   4 315.607 131.552   3
   9   3   4 446.181 105.711   1
 -10  -3  -4 197.159 123.706   2
  10   3   4 64.7999 67.9216   3
  10   3   4 8.08581 50.4031   1
  11   3   4 110.825 69.9261   3
 -11  -3  -4 185.626 103.812   2
  11   3  -4 309.125 89.7729   3
  11   3   4 278.372 96.0264   1
  12   3   4 367.576 153.701   3
 -12  -3  -4 394.984 160.948   2
  12   3   4 390.004 116.344   1
  13   3   4 39.6626 106.976   3
 -13  -3  -4 112.467 102.974   2
  13   3   4 377.898 122.271   1
  14   3   4 2274.22 392.677   3
  14   3   4 2218.20 312.955   1
 -14  -3  -4 2507.49 384.011   2
  15   3   4 7562.56 764.157   3
 -15  -3  -4 7703.08 690.567   2
  15   3   4 7338.18 597.881   1
  16   3   4 888.071 283.228   3
 -16  -3  -4 1084.65 265.228   2
  16   3   4 948.196 222.394   1
  17   3   4 4617.15 668.088   3
  17  -3   4 7279.94 730.265   1
 -17  -3  -4 6312.47 647.105   2
 -18  -3  -4 361.910 142.481   2
 -19  -3  -4-46.8694 79.7042   2
   0   3   5 20836.9 848.646   3
  -1   3   5 3852.64 222.421   1
   1   3   5 4629.01 393.176   3
  -1   3   5 4174.34 363.279   3
  -2   3   5 3240.90 215.783   1
   2   3   5 3505.03 342.402   3
  -2   3   5 3328.99 321.229   3
   3   3   5 253.666 82.6824   3
  -3   3   5 408.340 82.2954   1
  -3   3   5 367.617 112.922   3
   4   3   5 481.269 141.209   3
  -4   3   5 339.753 93.8053   3
  -4  -3  -5 555.030 146.948   2
  -5  -3  -5 7794.89 569.177   2
   5   3   5 8360.13 572.317   3
  -5   3   5 8120.01 482.048   3
  -6  -3  -5 1575.94 257.115   2
   6   3   5 1628.77 263.266   3
  -6   3   5 1355.30 189.008   3
  -7  -3  -5 1744.35 284.410   2
   7   3   5 1540.08 258.892   3
  -7   3   5 1735.65 218.272   3
  -8  -3  -5-23.0053 73.0778   2
   8   3   5 114.972 118.358   3
  -8   3   5 58.9590 50.7923   3
   9   3   5 1940.72 229.390   1
  -9  -3  -5 1634.73 285.211   2
   9   3   5 2203.94 330.236   3
  -9   3   5 2064.63 228.102   3
  10   3   5 5017.61 386.537   1
  10   3   5 4652.14 496.918   3
 -10  -3  -5 5031.28 509.381   2
 -10   3   5 4768.87 343.856   3
  11   3   5 7393.05 500.785   1
  11   3   5 7424.91 649.128   3
 -11  -3  -5 8305.66 667.286   2
 -12  -3  -5 8962.82 704.547   2
  12   3   5 9535.38 598.818   1
  12   3   5 10453.6 808.880   3
 -13  -3  -5 2888.17 412.962   2
  13   3   5 2851.03 443.443   3
  13   3   5 3079.54 355.328   1
  14   3   5 153.737 165.701   3
 -14  -3  -5 243.341 121.229   2
  14   3   5 91.1689 56.8132   1
  15   3   5 655.652 259.607   3
 -15  -3  -5 279.514 119.871   2
  15   3   5 821.556 202.182   1
  16   3   5 912.166 329.227   3
 -16  -3  -5 642.491 209.647   2
 -17  -3  -5 23.2567 68.2519   2
  17   3   5-101.392 199.985   3
 -18  -3  -5 543.038 197.235   2
 -19  -3  -5 2945.74 462.396   2
   0   3   6 35.9000 85.1789   3
   1   3   6 1786.63 257.179   3
  -1   3   6 1770.73 245.875   3
   2   3   6 22224.7 949.101   3
  -2   3   6 22850.4 900.800   3
  -2   3   6 22430.5 718.165   1
   3   3   6 3664.89 381.430   3
  -3   3   6 3884.31 351.265   3
   4   3   6 518.117 154.437   3
  -4   3   6 372.013 112.001   3
   5   3   6 3052.13 360.892   3
  -5   3   6 3213.53 307.888   3
   6   3   6 15641.1 853.834   3
  -6   3   6 16633.6 708.013   3
   7   3   6 2282.73 325.517   3
  -7   3   6 2577.20 267.839   3
  -8  -3  -6 7139.67 590.078   2
   8   3   6 6100.47 560.212   3
  -8   3   6 6772.50 431.742   3
   9   3   6 314.891 170.537   3
  -9   3   6 322.825 93.4872   3
  -9  -3  -6 207.085 120.700   2
  10   3   6 414.769 159.784   3
 -10  -3  -6 176.461 135.241   2
  11   3   6 1704.35 339.951   3
 -11  -3  -6 2355.85 364.548   2
  12   3   6 693.925 228.688   3
  12   3   6 763.821 170.979   1
 -12  -3  -6 880.331 222.707   2
  13   3   6 594.747 223.508   3
  13   3   6 392.824 126.350   1
 -13  -3  -6 327.736 147.864   2
  14   3   6-244.433 163.315   3
 -14  -3  -6 38.5406 54.8542   2
  15   3   6-5.62214 164.072   3
 -15  -3  -6-128.026 124.504   2
  16   3   6 390.363 204.622   3
 -16  -3  -6 974.659 263.671   2
 -17  -3  -6 467.489 191.486   2
  17   3   6-58.0683 119.744   3
  18   3   6 6702.16 885.473   3
   0   3   7 4998.89 442.249   3
   1   3   7 414.782 131.694   3
  -1   3   7 507.664 141.575   3
   2   3   7 2128.45 300.956   3
  -2   3   7 1477.31 232.940   3
   3   3   7 10290.2 675.225   3
  -3   3   7 9985.45 595.067   3
   4   3   7 12824.0 774.655   3
  -4   3   7 13029.6 669.682   3
   5   3   7 65.8410 104.252   3
  -5   3   7 84.2596 54.9203   3
   6   3   7 7095.87 609.823   3
  -6   3   7 7549.61 483.233   3
   7   3   7 3570.98 441.010   3
  -7   3   7 4642.53 369.457   3
   8   3   7 4135.50 493.451   3
  -8   3   7 3749.63 329.205   3
   9   3   7 4559.09 538.650   3
  -9   3   7 4870.43 363.934   3
  10   3   7 52.1022 120.222   3
  11   3   7 1239.80 312.766   3
  12   3   7 1231.41 312.276   3
  13   3   7 8467.24 896.318   3
  14   3   7 4868.34 712.163   3
  15   3   7 801.964 328.408   3
  16   3   7-132.012 118.346   3
  17   3   7-681.967 298.882   3
   0   3   8 78.8148 82.4837   3
   1   3   8 5694.73 504.649   3
  -1   3   8 5752.40 492.708   3
   2   3   8 2318.30 333.534   3
  -2   3   8 2373.96 307.515   3
   3   3   8 547.234 171.835   3
  -3   3   8 654.951 159.135   3
   4   3   8 7460.90 631.432   3
  -4   3   8 7461.14 527.738   3
   5   3   8 1814.98 311.884   3
  -5   3   8 2006.33 272.170   3
   6   3   8 1716.64 339.045   3
  -6   3   8 1439.90 225.569   3
   7   3   8 5036.05 564.150   3
  -7   3   8 5254.36 418.517   3
   8   3   8 9.59508 75.6760   3
  -8   3   8 95.7314 66.1629   3
   9   3   8 2375.15 418.548   3
  10   3   8 173.606 153.840   3
  11   3   8 2010.69 414.838   3
  12   3   8 1877.05 423.965   3
  13   3   8 1118.55 364.267   3
  14   3   8 6203.84 865.447   3
  15   3   8 1344.75 415.796   3
   0   3   9 849.792 215.606   3
   1   3   9 1478.13 284.642   3
  -1   3   9 1134.76 236.962   3
   2   3   9 79.3308 80.2337   3
  -2   3   9 222.887 119.080   3
   3   3   9 99.7850 97.0975   3
  -3   3   9 345.551 134.738   3
   4   3   9 12294.9 880.888   3
  -4   3   9 12446.0 734.514   3
   5   3   9 49.4348 74.4165   3
  -5   3   9 138.169 78.2433   3
   6   3   9 1473.34 329.344   3
  -6   3   9 1231.72 219.459   3
   7   3   9-27.9372 83.3857   3
  -7   3   9 16.5269 49.2468   3
   8   3   9 247.492 140.689   3
   9   3   9 6822.01 786.481   3
  10   3   9 587.804 244.694   3
  11   3   9 1693.52 404.651   3
  12   3   9 558.159 236.534   3
  13   3   9 371.448 240.822   3
   0   3  10 152.415 111.608   3
   1   3  10 11514.0 860.395   3
  -1   3  10 11358.5 819.139   3
   2   3  10 597.275 200.114   3
  -2   3  10 782.567 214.443   3
   3   3  10 2896.29 441.790   3
  -3   3  10 3563.23 430.437   3
   4   3  10 483.073 206.891   3
  -4   3  10 401.091 157.527   3
   5   3  10 720.772 246.049   3
  -5   3  10 618.685 174.745   3
   6   3  10 1424.26 338.048   3
  -6   3  10 1277.00 245.364   3
   7   3  10 57.2381 110.511   3
   8   3  10 4114.09 640.771   3
   9   3  10 12384.6 1158.22   3
  10   3  10 53.2928 133.362   3
  11   3  10 4894.14 791.573   3
   0   3  11 11415.8 928.564   3
   1   3  11 2356.43 428.855   3
  -1   3  11 2117.27 390.668   3
   2   3  11 1949.23 405.170   3
  -2   3  11 826.765 239.256   3
   3   3  11-57.6376 154.869   3
  -3   3  11 302.412 118.656   3
   4   3  11 4825.93 666.506   3
  -4   3  11 5145.38 578.579   3
   5   3  11 672.234 256.336   3
  -5   3  11 371.487 163.307   3
   6   3  11 2984.96 564.607   3
   7   3  11 823.750 300.342   3
   8   3  11 38.6171 89.0609   3
   9   3  11 1979.71 504.130   3
   0   3  12-188.365 150.428   3
   1   3  12 579.706 268.950   3
  -1   3  12 343.944 160.482   3
   2   3  12 1013.47 314.922   3
  -2   3  12 1432.33 344.403   3
   3   3  12 2013.82 464.569   3
  -3   3  12 1988.77 417.231   3
   4   3  12 71.6551 145.954   3
   5   3  12 7148.25 932.736   3
   6   3  12 1382.87 407.310   3
   7   3  12 1960.77 495.688   3
   0   3  13 637.333 275.158   3
  -1   3  13 20.9989 124.543   3
   1   3  13-202.438 180.106   3
  -2   3  13 3811.92 624.850   3
   2   3  13 3586.32 659.380   3
   3   3  13-225.056 181.424   3
   4   3  13 877.824 341.366   3
   0   3  14-42.6038 95.2115   3
  -1   3  14 217.654 198.078   3
   1   3  14 110.665 149.555   3
   0  -4   0 149039. 2918.65   2
   1  -4   0 87.5518 48.4947   2
  -1  -4   0 154.812 81.1319   2
   2  -4   0 3133.93 298.493   2
  -2  -4   0 2928.14 330.413   2
   3  -4   0 73.3388 42.5985   2
  -3  -4   0 131.999 89.7828   2
   4  -4   0 3435.24 287.879   2
  -4  -4   0 3520.63 378.013   2
   5  -4   0 27.7336 31.4405   1
   5  -4   0-18.5666 28.9002   2
  -5  -4   0 64.9374 60.5636   2
  -6  -4   0 1298.47 246.773   2
  -7  -4   0 130.868 106.216   2
   8  -4   0 8877.18 531.833   1
   8   4   0 8538.18 604.055   3
  -8  -4   0 8473.99 666.361   2
   9  -4   0-10.8652 41.1355   1
   9   4   0-23.7344 43.2007   3
  -9  -4   0-15.0053 84.8778   2
  10  -4   0 14753.0 768.357   1
  10   4   0 13965.1 777.907   3
 -10  -4   0 12947.3 871.200   2
  11  -4   0 31.6189 47.0044   1
  11   4   0 62.6528 63.9869   3
 -11  -4   0-27.0202 89.0620   2
  12   4   0 1642.63 257.942   3
  12  -4   0 1650.19 278.846   1
 -12  -4   0 1626.05 317.621   2
  13   4   0 38.9271 77.1748   3
 -13  -4   0-50.2378 78.8997   2
  13  -4   0-22.4087 81.3024   1
  14   4   0 808.633 197.622   3
 -14  -4   0 744.213 224.371   2
  14  -4   0 1185.72 254.386   1
 -15  -4   0 203.577 132.440   2
  15  -4   0-5.73793 72.3012   1
  16  -4   0 644.747 212.738   1
 -16  -4   0 571.038 207.615   2
  17  -4   0 155.575 151.874   1
 -17  -4   0 107.269 80.6461   2
  18  -4   0 449.036 203.651   1
   0  -4  -1-13.8862 58.5471   2
   0  -4   1 68.9516 66.8125   2
   1  -4  -1 1062.06 184.432   2
  -1  -4  -1 931.538 188.307   2
   1  -4   1 889.737 164.682   2
  -1  -4   1 699.040 168.862   2
   2  -4  -1 609.714 133.584   2
  -2  -4  -1 393.485 129.315   2
   2  -4  -1 445.410 58.0413   1
   2  -4   1 107.731 63.8627   2
  -2  -4   1 57.5759 49.9465   2
   3  -4  -1 123.429 57.7078   2
  -3  -4   1 65.1044 34.6832   1
   3  -4  -1 154.068 47.8138   1
  -3  -4  -1 71.5797 56.3312   2
   3  -4   1 47.2895 38.3018   2
  -3  -4   1 35.1559 47.1706   2
   4  -4  -1 1871.09 170.191   1
  -4  -4  -1 1548.53 259.919   2
   4  -4  -1 1993.16 230.600   2
   4  -4   1 1850.02 207.395   2
  -4  -4   1 2111.71 295.263   2
   5  -4  -1 15974.5 580.010   1
   5  -4   1 15530.0 599.881   2
  -5  -4  -1 15055.3 824.372   2
  -5  -4   1 14793.5 827.066   2
   6  -4   1 307.177 81.0203   2
  -6  -4  -1 93.8017 58.3570   2
  -6  -4   1 300.406 119.460   2
   7   4   1 9115.96 625.355   3
  -7  -4  -1 10535.5 716.635   2
  -7  -4   1 10809.9 737.041   2
   8  -4  -1 4712.64 379.434   1
   8   4   1 4833.87 451.821   3
  -8  -4  -1 4811.04 489.596   2
  -8  -4   1 4023.40 463.760   2
   9  -4  -1 3256.67 332.264   1
   9   4   1 4164.34 420.574   3
   9   4  -1 3230.13 362.506   3
  -9  -4  -1 3326.90 416.795   2
  -9  -4   1 3329.26 433.043   2
  10  -4  -1 1089.65 193.415   1
  10  -4   1 992.975 215.916   1
  10   4   1 371.234 133.367   3
  10   4  -1 930.532 197.922   3
 -10  -4  -1 494.301 186.970   2
 -10  -4   1 764.404 206.079   2
  11  -4  -1 248.621 97.7305   1
  11   4   1 318.496 126.250   3
  11   4  -1 308.472 110.680   3
 -11  -4  -1 260.026 123.310   2
 -11  -4   1 607.778 202.873   2
  11  -4   1 305.130 130.156   1
  12  -4   1 4669.32 475.582   1
  12  -4  -1 4381.99 447.727   1
  12   4   1 4584.41 459.576   3
  12   4  -1 4282.59 417.399   3
 -12  -4  -1 4566.94 523.354   2
 -12  -4   1 5603.79 593.625   2
  13  -4   1 848.037 217.593   1
  13   4   1 1204.41 240.002   3
  13   4  -1 797.585 186.393   3
  13  -4  -1 1210.36 247.567   1
 -13  -4  -1 705.267 217.743   2
 -13  -4   1 667.438 216.145   2
  14   4   1 414.993 143.674   3
  14  -4   1 676.622 199.529   1
 -14  -4  -1 397.352 170.017   2
  14  -4  -1 635.894 195.776   1
 -14  -4   1 555.938 200.658   2
  15   4   1 2791.78 375.108   3
  15  -4   1 2778.94 417.189   1
 -15  -4  -1 2070.67 376.804   2
 -15  -4   1 3184.74 476.227   2
  15  -4  -1 2429.97 377.984   1
  16  -4  -1 9.61878 77.6597   1
 -16  -4  -1 253.516 135.038   2
  16  -4   1-20.8018 94.1478   1
 -16  -4   1 4.98815 93.3839   2
 -17  -4  -1 277.264 146.867   2
 -17  -4   1 555.994 219.199   2
  17  -4  -1 226.244 123.871   1
  17  -4   1 317.445 158.727   1
  18  -4  -1 6400.45 688.080   1
   0  -4  -2 233.574 100.556   2
   1  -4  -2 430.493 129.069   2
  -1  -4  -2 232.838 96.2899   2
   1  -4   2 379.566 112.465   2
   2  -4  -2 396.982 111.539   2
  -2  -4  -2 554.427 155.104   2
   2  -4   2 500.918 122.163   2
  -3  -4  -2 497.581 156.478   2
   3  -4   2 199.322 73.4574   2
   3  -4  -2 222.033 66.1383   2
  -4  -4  -2 12684.0 749.177   2
   4  -4   2 11442.1 546.092   2
   5   4   2 6951.20 540.429   3
  -5  -4  -2 6416.16 543.709   2
   5  -4   2 6860.21 381.477   2
  -6  -4  -2 1662.06 284.341   2
   6   4   2 1193.56 227.098   3
   6  -4   2 1759.59 174.582   2
  -7  -4  -2 319.176 125.417   2
   7   4   2 184.248 99.1421   3
   8   4   2 3136.91 366.642   3
   8  -4  -2 3053.19 300.546   1
  -8  -4  -2 3108.03 402.984   2
   9   4   2 6021.45 516.235   3
   9  -4  -2 5359.39 423.323   1
  -9  -4  -2 5741.16 562.411   2
  10   4   2 438.394 141.655   3
 -10  -4  -2 251.370 125.854   2
  10   4  -2 349.121 123.027   3
  10  -4  -2 413.165 128.405   1
 -11  -4  -2 2580.47 391.153   2
  11   4   2 2706.70 354.944   3
  11   4  -2 3109.43 346.932   3
  11  -4  -2 2596.27 328.396   1
 -11  -4   2 3461.22 472.918   2
  12   4   2 1126.51 238.948   3
 -12  -4  -2 1161.20 265.686   2
  12   4  -2 1749.40 261.215   3
  12  -4  -2 1676.96 280.103   1
 -12  -4   2 1445.36 321.231   2
  13  -4   2 7717.34 659.298   1
  13   4   2 9471.17 703.619   3
 -13  -4  -2 7918.49 721.152   2
  13  -4  -2 8467.98 654.623   1
 -13  -4   2 9832.87 825.574   2
  14  -4   2 2668.50 398.993   1
  14   4   2 2562.29 371.712   3
 -14  -4  -2 3373.53 472.054   2
  14  -4  -2 3573.38 441.735   1
 -14  -4   2 2293.34 395.665   2
  15  -4  -2 3095.72 431.038   1
  15  -4   2 2419.00 394.059   1
  15   4   2 3064.49 423.377   3
 -15  -4  -2 3579.49 503.111   2
 -15  -4   2 2426.51 426.785   2
  16  -4   2 1567.92 324.362   1
 -16  -4  -2 793.982 243.087   2
 -16  -4   2 1258.29 313.131   2
 -17  -4  -2 150.491 151.368   2
  17  -4   2 275.782 157.759   1
   0  -4  -3 69.6061 66.2591   2
   1  -4  -3 840.811 179.064   2
  -1  -4  -3 1039.52 202.805   2
  -2  -4  -3 6864.34 529.589   2
  -3  -4  -3 16659.4 867.372   2
   3   4   3 17299.1 867.396   3
  -4  -4  -3 4628.90 454.958   2
   4   4   3 4104.31 418.356   3
   4  -4   3 4307.03 334.986   2
   5   4   3 3497.73 388.013   3
  -5  -4  -3 4099.37 439.674   2
   5  -4   3 3355.34 274.284   2
   6   4   3 9815.95 661.146   3
  -6  -4  -3 9562.41 688.495   2
   6  -4   3 9120.82 424.671   2
   7   4   3 4064.52 425.134   3
  -7  -4  -3 4661.54 489.909   2
  -8  -4  -3 291.906 132.373   2
   8   4   3 160.329 94.7589   3
  -9  -4  -3 176.077 119.991   2
   9   4   3 196.881 96.6281   3
 -10  -4  -3 170.662 136.317   2
  10   4   3-33.3057 55.1673   3
  11   4   3 5588.24 540.722   3
  11   4  -3 7103.54 515.834   3
 -11  -4  -3 5965.88 606.343   2
  12   4   3 46.5119 73.7709   3
 -12  -4  -3 383.802 163.851   2
  12   4  -3 160.043 86.2395   3
  13   4   3 5677.46 565.926   3
 -13  -4  -3 6284.01 644.273   2
  14   4   3 5588.17 583.282   3
 -14  -4  -3 4680.92 563.519   2
 -14  -4   3 4598.13 596.132   2
 -15  -4   3 573.796 225.223   2
  15  -4   3 254.623 129.040   1
 -15  -4  -3 303.461 135.126   2
  16   4   3 985.608 254.224   3
 -16  -4  -3 856.183 255.864   2
 -16  -4   3 940.814 282.777   2
  16  -4   3 608.097 207.762   1
  17  -4   3 648.557 230.542   1
   0   4   4 6626.51 523.657   3
   1   4   4 315.599 125.194   3
  -1  -4  -4 531.654 152.154   2
  -2  -4  -4 1939.60 290.266   2
   2   4   4 2112.14 298.262   3
  -3  -4  -4 9927.92 672.289   2
   3   4   4 10590.8 679.970   3
  -4  -4  -4 1613.60 266.611   2
   4   4   4 1634.53 268.581   3
  -5  -4  -4 351.803 121.469   2
   5   4   4 306.879 111.340   3
  -6  -4  -4 607.107 183.420   2
   6   4   4 441.199 158.765   3
   7   4   4 6375.10 548.011   3
  -7  -4  -4 7326.31 626.424   2
  -8  -4  -4 1434.37 292.979   2
   8   4   4 1680.32 287.482   3
   9   4   4 12271.3 799.960   3
  -9  -4  -4 13090.0 884.586   2
 -10  -4  -4 153.070 129.112   2
  10   4   4 14.7375 56.9499   3
 -11  -4  -4 167.314 110.674   2
  11   4   4 134.704 94.2148   3
 -12  -4  -4 142.027 113.380   2
  12   4   4 101.431 88.5082   3
 -13  -4  -4 2684.61 431.819   2
  13   4   4 2665.85 403.176   3
  14   4   4 434.482 191.252   3
 -14  -4  -4 170.982 118.136   2
  15   4   4 7312.72 729.479   3
 -15  -4  -4 7149.70 729.611   2
  16   4   4-67.2291 73.9615   3
 -16  -4  -4 214.295 168.971   2
   0   4   5 50.1543 71.5226   3
   1   4   5 3159.20 371.816   3
  -1   4   5 3228.30 367.722   3
   2   4   5 11446.4 717.635   3
  -2   4   5 11378.6 695.443   3
  -3  -4  -5 13148.2 797.150   2
   3   4   5 13609.4 793.071   3
  -3   4   5 14122.3 772.477   3
  -4  -4  -5 6600.37 569.407   2
   4   4   5 6567.78 548.706   3
  -4   4   5 5912.15 491.266   3
  -5  -4  -5 183.053 99.2580   2
   5   4   5 233.662 117.829   3
  -5   4   5 476.266 131.842   3
  -6  -4  -5 3286.15 419.279   2
   6   4   5 3003.64 376.961   3
  -6   4   5 3301.64 360.203   3
  -7  -4  -5 127.618 75.4569   2
   7   4   5 31.1835 66.3558   3
  -8  -4  -5 2012.20 348.202   2
   8   4   5 1577.13 286.281   3
  -9  -4  -5 1301.54 274.983   2
   9   4   5 1068.48 244.805   3
 -10  -4  -5 2970.13 432.833   2
  10   4   5 1895.51 337.391   3
  11   4   5 13299.7 900.875   3
 -11  -4  -5 11641.0 881.960   2
 -12  -4  -5 970.318 257.868   2
  12   4   5 1236.16 290.666   3
 -13  -4  -5 69.6552 96.3132   2
  13   4   5 318.858 160.178   3
 -14  -4  -5 3074.43 468.850   2
  14   4   5 2554.69 432.989   3
 -15  -4  -5 343.211 178.752   2
  15   4   5 1064.68 315.995   3
  16   4   5 721.985 259.375   3
  17   4   5 244.945 175.714   3
   0   4   6 160.752 95.6654   3
   1   4   6 6814.98 559.284   3
  -1   4   6 7472.24 573.114   3
   2   4   6 4054.72 436.014   3
  -2   4   6 3443.77 384.615   3
   3   4   6 205.238 92.1697   3
  -3   4   6 399.335 147.019   3
   4   4   6 9824.00 700.516   3
  -4   4   6 10455.3 664.903   3
   5   4   6 483.458 148.563   3
  -5   4   6 597.735 158.194   3
   6   4   6 2343.54 356.131   3
  -6   4   6 2659.30 322.242   3
   7   4   6 50.0130 73.3453   3
  -7   4   6-2.34729 58.3992   3
  -7  -4  -6 59.4969 100.826   2
  -8  -4  -6 5778.59 593.242   2
   8   4   6 5317.16 555.329   3
  -8   4   6 6427.87 499.611   3
   9   4   6 1025.44 246.924   3
  -9   4   6 1045.26 195.755   3
  -9  -4  -6 673.445 195.009   2
 -10  -4  -6 2570.39 413.254   2
  10   4   6 2455.65 395.608   3
 -11  -4  -6 981.192 260.487   2
  11   4   6 731.471 230.551   3
 -12  -4  -6 1076.15 269.499   2
  12   4   6 973.481 251.103   3
 -13  -4  -6 322.126 169.277   2
  13   4   6 208.284 136.485   3
 -14  -4  -6 527.625 216.195   2
  14   4   6 352.852 214.454   3
  15   4   6 825.976 273.183   3
   0   4   7 116.117 104.944   3
   1   4   7 424.356 154.096   3
  -1   4   7 266.572 98.4088   3
  -2   4   7 2338.33 323.874   3
   2   4   7 2700.51 366.756   3
   3   4   7 865.370 208.490   3
  -3   4   7 997.468 210.247   3
   4   4   7 164.512 103.374   3
  -4   4   7 147.178 100.118   3
   5   4   7 472.993 166.095   3
  -5   4   7 508.059 160.066   3
   6   4   7 724.873 223.227   3
  -6   4   7 821.396 194.893   3
   7   4   7 6279.05 615.820   3
  -7   4   7 6185.67 495.556   3
   8   4   7 3229.10 445.321   3
  -8   4   7 3167.50 348.294   3
   9   4   7 6032.47 634.255   3
  10   4   7 1670.11 339.167   3
  11   4   7 2845.49 463.243   3
  12   4   7 1722.77 374.888   3
  13   4   7 463.049 193.640   3
  14   4   7 435.615 152.750   3
   0   4   8 29110.2 1267.39   3
   1   4   8 610.293 190.592   3
  -1   4   8 417.537 152.980   3
   2   4   8 976.003 227.833   3
  -2   4   8 684.838 187.182   3
   3   4   8 235.000 120.627   3
  -3   4   8 491.862 158.031   3
   4   4   8 847.497 231.384   3
  -4   4   8 530.323 159.919   3
   5   4   8 946.617 241.913   3
  -5   4   8 654.918 173.577   3
   6   4   8 388.255 157.051   3
  -6   4   8 711.148 173.478   3
   7   4   8 4746.56 565.265   3
  -7   4   8 4287.73 422.212   3
   8   4   8 1676.45 346.955   3
   9   4   8 2604.52 446.578   3
  10   4   8 9149.10 853.992   3
  11   4   8 1328.02 341.444   3
  12   4   8 2689.48 502.436   3
   0   4   9 63.1450 58.4794   3
   1   4   9 665.047 202.238   3
  -1   4   9 579.037 179.450   3
   2   4   9 6890.82 634.563   3
  -2   4   9 6392.96 578.322   3
   3   4   9 3469.22 466.887   3
  -3   4   9 3474.32 420.945   3
   4   4   9 173.629 137.066   3
  -4   4   9 310.917 133.509   3
   5   4   9 19463.5 1167.04   3
  -5   4   9 19065.2 978.812   3
   6   4   9 671.931 221.162   3
  -6   4   9 461.186 140.503   3
   7   4   9 603.932 227.301   3
   8   4   9 2031.57 409.366   3
   9   4   9 365.854 181.263   3
  10   4   9 46.4449 99.5865   3
   0   4  10-3.31205 93.7247   3
   1   4  10 20.7256 92.6799   3
  -1   4  10 190.324 112.467   3
   2   4  10 690.209 202.973   3
  -2   4  10 337.550 150.095   3
   3   4  10 1707.55 348.661   3
  -3   4  10 1461.09 285.783   3
   4   4  10 1295.36 306.483   3
  -4   4  10 1063.18 236.175   3
   5   4  10 2782.33 462.504   3
  -5   4  10 3688.49 437.406   3
   6   4  10 281.413 135.745   3
   7   4  10 61.5349 130.351   3
   8   4  10 22.2083 87.3420   3
   0   4  11-3.84772 59.3836   3
   1   4  11 3824.37 533.679   3
  -1   4  11 3105.66 466.716   3
   2   4  11-48.5763 85.3700   3
  -2   4  11 222.395 138.942   3
   3   4  11 1126.94 295.272   3
  -3   4  11 1581.39 321.268   3
   4   4  11 2581.44 478.082   3
  -4   4  11 1938.73 344.950   3
   5   4  11 1164.28 333.509   3
   6   4  11 1121.84 323.049   3
   0   4  12 5121.97 661.706   3
   1   4  12 486.715 202.592   3
  -1   4  12 433.578 195.778   3
   2   4  12 2160.59 448.333   3
  -2   4  12 3204.87 500.440   3
   3   4  12 1916.60 435.913   3
  -3   4  12 717.633 242.833   3
   0   4  13-144.589 160.483   3
  -1   4  13 1347.09 375.127   3
  -2   4  13 433.503 183.271   3
   0  -5   0 114.503 87.9831   2
   1  -5   0 27.2619 61.3488   2
  -1  -5   0 80.5443 76.5228   2
   2  -5   0 1448.44 240.506   2
  -2  -5   0 1083.60 234.856   2
   3  -5   0 17.7647 64.3080   2
  -3  -5   0 5.91188 81.5583   2
   4  -5   0 5866.10 437.757   2
  -4  -5   0 5955.12 556.165   2
  -5  -5   0 117.882 102.086   2
  -6  -5   0 1443.07 278.862   2
  -7  -5   0 163.735 102.794   2
   8   5   0 1186.78 260.456   3
  -8  -5   0 1660.00 321.605   2
   9   5   0 30.5216 78.2195   3
  -9  -5   0 5.21345 90.8563   2
  10   5   0 1222.83 269.126   3
 -10  -5   0 801.279 239.778   2
  11   5   0 49.7862 67.1867   3
 -11  -5   0-28.9947 112.462   2
  12   5   0 884.990 219.066   3
 -12  -5   0 827.025 248.570   2
  13   5   0-225.343 119.300   3
 -13  -5   0 212.081 184.847   2
   0  -5  -1 403.039 139.568   2
   0  -5   1 629.318 169.437   2
   1  -5  -1 8.86788 55.4955   2
  -1  -5  -1 73.2315 90.4238   2
   1  -5   1 39.0375 44.0994   2
  -1  -5   1 94.9650 103.232   2
   2  -5  -1 606.815 154.147   2
  -2  -5  -1 573.326 172.633   2
   2  -5   1 893.222 185.109   2
  -2  -5   1 1072.54 225.753   2
   3  -5  -1 708.078 161.749   2
   3  -5   1 989.761 199.062   2
  -3  -5  -1 387.680 154.456   2
  -3  -5   1 898.382 213.336   2
   4  -5  -1 20625.1 878.220   2
   4  -5   1 20104.6 836.310   2
  -4  -5  -1 19459.7 1045.59   2
  -4  -5   1 19741.0 1043.03   2
  -5  -5  -1 1025.81 243.363   2
  -5  -5   1 758.485 214.964   2
  -6  -5   1 3082.47 423.485   2
  -6  -5  -1 3374.33 438.730   2
  -7  -5  -1 408.106 152.443   2
   7   5   1 562.306 178.764   3
  -7  -5   1 950.427 244.957   2
   8   5   1 1049.71 247.277   3
  -8  -5  -1 521.249 175.443   2
  -8  -5   1 619.819 192.253   2
   9   5   1 10816.5 788.847   3
   9   5  -1 11367.8 790.769   3
  -9  -5  -1 10642.0 839.766   2
  -9  -5   1 10640.5 857.992   2
  10   5   1 1612.57 304.408   3
 -10  -5  -1 1280.95 304.327   2
  10   5  -1 2097.87 334.957   3
 -10  -5   1 1726.71 361.992   2
  11   5   1 149.399 109.104   3
  11   5  -1 112.472 102.051   3
 -11  -5  -1 92.3475 98.6054   2
 -11  -5   1-33.1945 60.9889   2
  12   5   1 8.88328 56.6335   3
  12   5  -1 188.273 116.066   3
 -12  -5  -1 94.1147 110.679   2
 -12  -5   1 23.5322 74.5227   2
 -13  -5  -1 3851.67 552.543   2
  13   5   1 3793.13 475.589   3
  13   5  -1 3338.50 416.199   3
 -13  -5   1 4390.03 599.590   2
  14   5   1 3111.73 430.301   3
   0  -5  -2-95.8378 109.807   2
   0  -5   2 96.5056 80.3608   2
   1  -5  -2 7915.60 588.038   2
  -1  -5  -2 8443.38 647.063   2
   1  -5   2 6913.82 542.148   2
  -1  -5   2 7375.00 588.382   2
   2  -5  -2 4899.38 451.295   2
  -2  -5  -2 4537.34 486.654   2
   2  -5   2 5247.52 454.287   2
  -2  -5   2 5820.28 534.394   2
   3  -5  -2 6072.46 493.617   2
  -3  -5  -2 6757.71 598.006   2
   3  -5   2 7844.54 527.387   2
  -3  -5   2 6929.53 596.393   2
  -4  -5  -2 347.635 153.440   2
   4  -5   2 126.495 72.4793   2
  -4  -5   2 354.902 150.615   2
  -5  -5  -2 2937.39 412.877   2
   5   5   2 2915.97 402.640   3
  -5  -5   2 2086.64 346.848   2
  -6  -5  -2 1887.42 343.322   2
   6   5   2 2365.42 368.603   3
  -6  -5   2 2370.93 371.937   2
  -7  -5  -2 218.381 119.119   2
   7   5   2 146.803 107.555   3
  -7  -5   2 204.802 109.425   2
   8   5   2 5446.85 561.006   3
  -8  -5  -2 5661.47 605.020   2
  -8  -5   2 6088.50 643.375   2
   9   5   2 7924.63 680.254   3
  -9  -5  -2 7844.40 721.859   2
  -9  -5   2 8483.85 784.361   2
 -10  -5  -2 395.053 164.020   2
  10   5   2 235.921 119.261   3
  10   5  -2 151.692 98.5513   3
 -10  -5   2 424.907 180.053   2
  11   5   2 7506.63 669.435   3
  11   5  -2 7075.57 610.191   3
 -11  -5  -2 6339.37 677.150   2
 -11  -5   2 6804.76 732.856   2
  12   5   2 697.709 206.287   3
 -12  -5  -2 995.876 280.321   2
  12   5  -2 613.760 180.566   3
 -12  -5   2 790.538 252.952   2
  13   5   2 109.733 90.6710   3
 -13  -5  -2 259.628 188.765   2
 -13  -5   2 449.446 203.410   2
  14   5   2 385.552 167.357   3
  15   5   2 413.513 177.067   3
   0  -5  -3 23781.5 1099.72   2
   0  -5   3 23361.7 1052.40   2
   1  -5  -3 5550.21 505.202   2
  -1  -5  -3 5591.52 526.098   2
   1  -5   3 6637.31 531.602   2
  -1  -5   3 6454.72 552.605   2
  -2  -5   3 174.899 118.077   2
  -2  -5  -3 341.188 151.224   2
   2  -5   3 71.7150 75.2203   2
  -3  -5   3 2078.37 321.136   2
  -3  -5  -3 1769.78 317.722   2
   3   5   3 2125.68 340.745   3
   3  -5   3 2444.26 304.224   2
  -4  -5  -3 3603.54 447.467   2
   4   5   3 3135.77 422.992   3
  -5  -5  -3 102.002 74.4195   2
   5   5   3 72.5622 96.6538   3
  -6  -5  -3 65.4492 98.9207   2
   6   5   3 190.525 99.3817   3
  -7  -5   3 428.496 160.280   2
  -7  -5  -3 375.375 180.660   2
   7   5   3 318.465 144.530   3
  -8  -5   3 217.578 168.711   2
  -8  -5  -3-30.7786 105.876   2
   8   5   3 330.381 159.729   3
  -9  -5   3 228.237 169.847   2
  -9  -5  -3 182.793 117.837   2
   9   5   3 291.081 144.956   3
 -10  -5  -3 1482.51 339.213   2
  10   5   3 1520.56 301.229   3
 -10  -5   3 1906.81 385.244   2
  11   5   3 5958.09 616.137   3
 -11  -5  -3 6397.96 689.822   2
  11   5  -3 5250.41 521.094   3
 -11  -5   3 6965.55 761.147   2
 -12  -5  -3 940.496 274.922   2
  12   5   3 800.403 219.294   3
 -12  -5   3 712.104 246.381   2
  13  -5   3 362.060 146.100   1
 -13  -5  -3 773.760 270.310   2
  13   5   3 604.914 210.545   3
  14   5   3 168.757 116.536   3
  14  -5   3-38.9665 129.770   1
  15   5   3 844.732 254.841   3
   0   5   4 60.8686 88.7869   3
   1   5   4 2655.60 378.163   3
  -1  -5  -4 1976.59 318.093   2
  -2  -5  -4 653.842 187.517   2
   2   5   4 335.787 129.174   3
  -3  -5  -4 550.315 174.857   2
   3   5   4 422.914 147.104   3
   3  -5   4 537.765 144.453   2
  -4  -5  -4 355.626 135.020   2
   4   5   4 384.746 153.913   3
  -5  -5  -4 7586.06 675.759   2
   5   5   4 7346.81 657.488   3
  -6  -5  -4 388.568 175.332   2
   6   5   4 273.805 136.651   3
   7   5   4 21507.3 1159.01   3
  -7  -5  -4 19954.7 1167.58   2
  -8  -5  -4 13.6546 106.231   2
   8   5   4 74.8478 104.876   3
  -9  -5  -4 240.838 129.358   2
   9   5   4 543.892 180.855   3
 -10  -5  -4 461.484 193.571   2
  10   5   4 107.487 71.1200   3
 -11  -5  -4 7.65027 81.3028   2
  11   5   4 432.889 172.152   3
 -12  -5  -4 217.848 157.233   2
  12   5   4 473.938 180.339   3
  13   5   4 289.921 158.479   3
  14   5   4 1586.84 352.420   3
  15  -5   4 4016.00 542.807   1
   0   5   5 8960.63 708.385   3
   1   5   5 1119.44 258.623   3
  -1   5   5 1472.22 286.357   3
   2   5   5 1686.51 312.656   3
  -2   5   5 1839.59 318.816   3
   3   5   5 306.532 142.108   3
  -3   5   5 486.275 164.189   3
  -3  -5  -5 911.548 242.821   2
   4   5   5 539.205 192.406   3
  -4   5   5 267.184 122.668   3
  -4  -5  -5 277.967 153.946   2
  -5  -5  -5 2668.92 409.533   2
  -5   5   5 2320.70 354.450   3
   5   5   5 3266.42 446.544   3
  -6  -5  -5 1649.83 335.645   2
   6   5   5 1090.37 260.583   3
  -7  -5  -5 874.988 239.200   2
   7   5   5 616.671 193.671   3
  -8  -5  -5 222.960 133.694   2
   8   5   5 328.753 173.797   3
  -9  -5  -5 1791.86 361.262   2
   9   5   5 1696.49 332.254   3
 -10  -5  -5 2355.41 425.938   2
  10   5   5 2797.87 443.209   3
  11   5   5 5867.56 648.587   3
 -11  -5  -5 6589.23 719.296   2
  12   5   5 6005.06 663.515   3
  13   5   5 1620.68 359.994   3
   0   5   6 100.725 96.8355   3
   1   5   6 960.123 238.809   3
  -1   5   6 1012.41 250.962   3
   2   5   6 10919.5 811.041   3
  -2   5   6 11304.5 805.523   3
   3   5   6 1894.53 334.292   3
  -3   5   6 2141.28 344.204   3
   4   5   6 134.290 89.1529   3
  -4   5   6 415.387 159.812   3
   5   5   6 2517.49 407.096   3
  -5   5   6 2452.07 369.996   3
   6   5   6 7721.90 709.158   3
  -6   5   6 8246.22 669.397   3
   7   5   6 1221.83 285.751   3
  -7   5   6 1581.99 295.105   3
  -7  -5  -6 1071.25 273.549   2
  -8   5   6 2884.88 387.520   3
  -8  -5  -6 3169.61 472.079   2
   8   5   6 3606.06 499.549   3
   9   5   6 249.268 159.602   3
  -9  -5  -6-27.2331 102.450   2
  10   5   6 181.588 123.874   3
 -10  -5  -6 180.645 136.861   2
  11   5   6 1378.25 327.308   3
   0   5   7 2687.62 398.325   3
   1   5   7 475.197 181.956   3
  -1   5   7 278.527 122.170   3
   2   5   7 2839.17 431.368   3
  -2   5   7 3170.35 428.841   3
   3   5   7 7310.26 681.766   3
  -3   5   7 6618.07 616.417   3
   4   5   7 3937.37 510.589   3
  -4   5   7 3941.29 473.583   3
   5   5   7-64.5122 98.2693   3
  -5   5   7 334.941 156.895   3
   6   5   7 4389.78 548.647   3
  -6   5   7 4071.44 472.390   3
   7   5   7 2027.36 377.466   3
  -7   5   7 2489.82 367.626   3
   8   5   7 1693.76 357.039   3
   9   5   7 2265.28 411.904   3
   0   5   8-79.3261 78.0996   3
   1   5   8 3177.84 454.637   3
  -1   5   8 3229.41 451.570   3
   2   5   8 943.565 262.206   3
  -2   5   8 1169.34 265.119   3
   3   5   8 841.810 238.422   3
  -3   5   8 615.344 203.656   3
   4   5   8 4690.12 569.328   3
  -4   5   8 4822.79 530.975   3
   5   5   8 1137.51 292.513   3
  -5   5   8 1314.50 275.129   3
   6   5   8 179.847 130.951   3
  -6   5   8 608.740 195.682   3
   7   5   8 3564.37 518.613   3
   0   5   9 584.693 213.805   3
   1   5   9 1228.93 304.402   3
  -1   5   9 1398.80 306.102   3
   2   5   9 130.972 107.708   3
  -2   5   9 321.301 161.505   3
   3   5   9 185.603 124.495   3
  -3   5   9 156.126 132.927   3
   4   5   9 8020.33 771.435   3
  -4   5   9 6999.13 663.152   3
   5   5   9 197.404 163.730   3
  -5   5   9 73.1759 121.894   3
   0   5  10 12.6544 106.228   3
   1   5  10 5869.69 662.799   3
  -1   5  10 6019.47 652.612   3
   2   5  10 343.478 153.849   3
  -2   5  10 320.681 162.329   3
  -3   5  10 2552.96 411.379   3
  -4   5  10 308.806 145.785   3
  -1   5  11 1603.70 352.934   3
  -2   5  11 700.338 251.036   3
  -3   5  11 452.134 186.667   3
   0  -6   0 45060.1 1681.28   2
   1  -6   0 182.946 107.946   2
  -1  -6   0 116.671 98.4290   2
   2  -6   0 254.178 128.324   2
  -2  -6   0 442.914 171.394   2
  -3  -6   0 229.009 135.802   2
  -4  -6   0 2575.62 415.035   2
  -5  -6   0-97.7537 126.406   2
  -6  -6   0 1189.03 301.831   2
  -7  -6   0 183.100 130.295   2
   7   6   0 79.2351 65.0608   3
  -8  -6   0 3923.79 548.152   2
   8   6   0 5771.87 639.409   3
  -9  -6   0-29.5579 125.036   2
   9   6   0 23.0208 90.6817   3
  10   6   0 8201.71 767.816   3
  11   6   0 52.4524 65.0531   3
  12   6   0 1408.80 321.551   3
   0  -6  -1-93.8319 84.7777   2
   0  -6   1-92.3696 83.7862   2
   1  -6  -1 527.536 153.998   2
  -1  -6  -1 531.340 195.106   2
   1  -6   1 363.759 127.249   2
  -1  -6   1 427.381 173.580   2
   2  -6  -1 416.620 153.108   2
  -2  -6  -1 505.296 191.926   2
  -2  -6   1 277.996 128.391   2
  -3  -6  -1 302.906 161.067   2
  -3  -6   1-23.8430 70.0586   2
  -4  -6  -1 258.097 136.465   2
  -4  -6   1 220.886 139.975   2
  -5  -6  -1 9398.70 801.395   2
  -5  -6   1 8788.91 764.479   2
  -6  -6  -1 135.000 132.132   2
   6   6   1 92.5117 99.2198   3
  -6  -6   1 182.334 97.1159   2
  -7  -6  -1 3079.95 466.646   2
   7   6   1 3840.52 520.212   3
  -7  -6   1 4182.80 547.540   2
  -8  -6  -1 1722.50 371.084   2
   8   6   1 2014.12 382.001   3
  -8  -6   1 1171.39 297.170   2
  -9  -6  -1 3070.88 498.452   2
   9   6   1 2824.10 452.779   3
   9   6  -1 3226.31 477.966   3
  -9  -6   1 2607.95 455.108   2
  10   6   1 834.360 234.678   3
  10   6  -1 406.916 147.663   3
  11   6   1 485.004 194.068   3
  11   6  -1 895.648 252.056   3
  12   6  -1 3149.69 459.265   3
   0  -6  -2 171.381 115.990   2
   0  -6   2 166.405 107.939   2
   1  -6  -2 92.1469 100.433   2
  -1  -6  -2 290.408 140.194   2
   1  -6   2 390.356 153.885   2
  -1  -6   2 533.694 186.945   2
  -2  -6  -2 272.871 130.747   2
  -2  -6   2 464.597 176.860   2
   2  -6  -2 306.977 124.888   2
  -3  -6  -2 114.031 99.7807   2
  -3  -6   2 166.382 109.099   2
  -4  -6  -2 4234.90 560.625   2
   4   6   2 4853.48 579.033   3
  -4  -6   2 4084.36 516.236   2
  -5  -6  -2 4579.74 570.497   2
   5   6   2 5182.99 599.649   3
  -5  -6   2 5764.14 628.053   2
  -6  -6  -2 469.460 200.618   2
   6   6   2 851.930 253.616   3
  -6  -6   2 300.248 166.213   2
  -7  -6  -2 127.104 109.963   2
   7   6   2 43.2470 84.8015   3
  -7  -6   2 285.296 169.059   2
  -8  -6  -2 965.774 282.761   2
   8   6   2 1370.51 312.178   3
  -8  -6   2 1619.40 361.234   2
   9   6   2 3382.13 503.190   3
  -9  -6   2 3054.48 501.241   2
  10   6   2 388.116 169.796   3
  10   6  -2 254.018 133.412   3
  11   6  -2 1321.35 296.839   3
   0  -6   3 62.9811 97.1776   2
   0  -6  -3-27.9464 63.6861   2
  -1  -6  -3 1671.09 331.883   2
   1  -6  -3 1669.13 302.353   2
   1  -6   3 1833.87 323.798   2
  -1  -6   3 2331.08 360.772   2
  -2  -6  -3 3971.39 511.085   2
   2   6   3 3793.23 501.041   3
  -2  -6   3 3953.80 484.501   2
  -3  -6  -3 5685.50 626.528   2
   3   6   3 6317.38 654.377   3
  -3  -6   3 6241.57 631.122   2
  -4  -6  -3 3084.45 456.229   2
   4   6   3 2983.69 454.945   3
  -4  -6   3 2670.76 419.456   2
  -5  -6  -3 835.754 229.492   2
   5   6   3 698.649 234.933   3
  -5  -6   3 475.903 177.073   2
  -6  -6  -3 2492.32 431.750   2
   6   6   3 2831.39 452.938   3
  -6  -6   3 3136.78 477.648   2
  -7  -6  -3 1674.20 363.182   2
   7   6   3 1591.00 356.327   3
  -7  -6   3 1930.82 393.467   2
  -8  -6  -3 382.029 176.642   2
   8   6   3 289.257 148.461   3
  -8  -6   3 66.6999 87.9508   2
   9   6   3 807.785 236.236   3
   0   6   4 2525.05 412.752   3
   0  -6   4 1465.80 291.932   2
   1   6   4 177.563 119.866   3
  -1   6   4 556.434 198.869   3
  -1  -6   4 552.676 178.826   2
   2   6   4 459.993 191.941   3
  -2  -6   4-11.0114 59.5299   2
  -2  -6  -4 422.358 176.964   2
  -3  -6  -4 4265.02 544.035   2
   3   6   4 4192.98 544.118   3
  -3  -6   4 3480.32 469.667   2
  -4  -6  -4 1205.19 313.308   2
   4   6   4 1041.16 276.230   3
  -4  -6   4 677.896 212.659   2
  -5  -6  -4-129.025 108.764   2
   5   6   4 150.724 100.133   3
  -5  -6   4 173.580 131.728   2
  -6  -6  -4 170.903 137.427   2
   6   6   4 179.417 121.173   3
  -6  -6   4 550.228 193.702   2
  -7  -6  -4 4351.99 585.580   2
   7   6   4 4985.02 607.292   3
  -7  -6   4 3735.44 550.804   2
  -8  -6   4 1252.19 324.938   2
   0   6   5-123.810 121.282   3
   0  -6   5-146.784 101.382   2
   1   6   5 419.113 182.502   3
  -1   6   5 679.385 218.676   3
  -1  -6   5 202.506 98.3280   2
   2   6   5 4183.53 546.096   3
  -2   6   5 4052.22 521.554   3
  -2  -6   5 3649.18 469.209   2
   3   6   5 6121.19 664.378   3
  -3   6   5 5641.18 622.318   3
  -3  -6   5 6397.52 649.105   2
   4   6   5 1649.35 353.208   3
  -4   6   5 1896.30 359.732   3
  -4  -6  -5 2055.85 395.895   2
   5   6   5 49.2985 92.1549   3
  -5   6   5 456.600 189.844   3
  -5  -6  -5 515.771 221.462   2
  -6  -6  -5 2103.55 412.042   2
  -6   6   5 2251.02 390.603   3
  -7  -6   5 66.6343 113.217   2
  -7   6   5 375.474 166.772   3
  -8   6   5 957.929 245.158   3
   0   6   6 550.609 201.730   3
   1   6   6 2909.65 456.954   3
  -1   6   6 2914.51 448.394   3
   2   6   6 1601.35 336.824   3
  -2   6   6 2052.02 378.109   3
   3   6   6 94.0056 107.059   3
  -3   6   6 46.0614 75.5522   3
  -4   6   6 6660.30 682.310   3
  -5   6   6 176.105 124.703   3
  -6   6   6 1782.91 351.330   3
  -7   6   6 1.81518 85.1710   3
   0   6   7 14.0106 99.1873   3
  -1   6   7 455.662 193.547   3
  -2   6   7 1581.04 341.807   3
  -3   6   7 1085.65 275.228   3
  -4   6   7 150.641 127.643   3
  -5   6   7 510.299 202.634   3
  -6   6   7 485.888 194.824   3
  -7   6   7 4228.22 539.737   3
  -4   6   8 496.603 193.363   3
  -5   6   8 220.973 113.305   3
  -6   6   8-5.79683 93.3219   3
  -2  -7   0 1198.89 313.381   2
  -3  -7   0-75.9194 93.0902   2
  -4  -7   0 2457.13 443.715   2
  -2  -7  -1 371.110 160.158   2
  -2  -7   1 427.796 180.933   2
  -3  -7  -1 380.672 184.777   2
  -3  -7   1 461.877 181.487   2
  -4  -7   1 7682.54 773.592   2
  -1  -7  -2 3125.90 473.107   2
  -2  -7  -2 1710.32 365.764   2
  -3  -7  -2 2647.23 458.399   2
  -3  -7   2 2936.07 471.459   2
  -4  -7   2-33.6462 70.1475   2
  -1  -7  -3 2520.50 444.930   2
  -2  -7  -3-206.622 138.185   2
  -3  -7   3 249.905 132.472   2
   0   0   0    0.00    0.00   0
;
_shelx_hkl_checksum              51915
loop_
_space_group_symop_operation_xyz
'x, y, z'
'-x+1/2, -y, z+1/2'
'x+1/2, -y+1/2, -z+1/2'
'-x, y+1/2, -z'
'-x, -y, -z'
'x-1/2, y, -z-1/2'
'-x-1/2, y-1/2, z-1/2'
'x, -y-1/2, z'
loop_
_atom_site_label
_atom_site_type_symbol
_atom_site_fract_x
_atom_site_fract_y
_atom_site_fract_z
_atom_site_U_iso_or_equiv
_atom_site_adp_type
_atom_site_occupancy
_atom_site_site_symmetry_order
_atom_site_calc_flag
_atom_site_refinement_flags_posn
_atom_site_refinement_flags_adp
_atom_site_refinement_flags_occupancy
_atom_site_disorder_assembly
_atom_site_disorder_group
Ba1 Ba 0.49033(6) 0.750000 0.82427(10) 0.0149(3) Uani 1 2 d S T P . .
Ba2 Ba 0.40587(6) 0.750000 0.43128(10) 0.0138(3) Uani 1 2 d S T P . .
Se1 Se 0.64735(10) 0.250000 0.91322(17) 0.0135(4) Uani 1 2 d S T P . .
Se2 Se 0.21781(11) 0.750000 0.79768(19) 0.0220(5) Uani 1 2 d S T P . .
Se3 Se 0.38182(10) 0.250000 0.66473(17) 0.0158(4) Uani 1 2 d S T P . .
V1 V 0.31688(17) 0.250000 0.9436(3) 0.0146(7) Uani 1 2 d S T P . .
O1 O 0.5847(9) 0.250000 0.8017(13) 0.038(4) Uani 1 2 d S T P . .
O2 O 0.6054(5) 0.008(2) 0.9894(11) 0.042(3) Uani 1 1 d . . . . .
O3 O 0.1229(9) 0.750000 0.842(2) 0.056(6) Uani 1 2 d S T P . .
O4A O 0.2563(12) 0.039(4) 0.8250(19) 0.031(5) Uiso 0.5 1 d . . P . .
O4B O 0.2558(19) 0.957(7) 0.897(3) 0.083(10) Uiso 0.5 1 d . . P . .
O5 O 0.3990(10) 0.250000 0.8090(14) 0.054(5) Uani 1 2 d S T P . .
O6 O 0.4437(5) 0.0099(15) 0.6263(8) 0.020(2) Uani 1 1 d . . . . .
O7 O 0.2490(9) 0.250000 0.0397(16) 0.071(8) Uani 1 2 d S T P . .
loop_
_atom_site_aniso_label
_atom_site_aniso_U_11
_atom_site_aniso_U_22
_atom_site_aniso_U_33
_atom_site_aniso_U_23
_atom_site_aniso_U_13
_atom_site_aniso_U_12
Ba1 0.0146(5) 0.0146(5) 0.0156(6) 0.000 0.0001(5) 0.000
Ba2 0.0151(5) 0.0110(5) 0.0152(6) 0.000 -0.0002(5) 0.000
Se1 0.0141(8) 0.0102(8) 0.0162(9) 0.000 0.0017(8) 0.000
Se2 0.0205(9) 0.0217(10) 0.0237(11) 0.000 -0.0004(9) 0.000
Se3 0.0164(8) 0.0155(8) 0.0154(10) 0.000 -0.0003(8) 0.000
V1 0.0129(13) 0.0117(14) 0.0192(17) 0.000 -0.0016(14) 0.000
O1 0.026(7) 0.071(12) 0.017(8) 0.000 -0.008(7) 0.000
O2 0.021(5) 0.042(7) 0.063(8) 0.030(6) 0.000(5) 0.001(5)
O3 0.037(8) 0.013(7) 0.119(18) 0.000 0.035(11) 0.000
O5 0.043(9) 0.102(17) 0.016(8) 0.000 -0.008(8) 0.000
O6 0.031(5) 0.006(4) 0.024(5) -0.005(4) -0.009(4) 0.004(4)
O7 0.015(7) 0.16(2) 0.034(10) 0.000 0.005(8) 0.000
loop_
_atom_type_symbol
_atom_type_description
_atom_type_scat_dispersion_real
_atom_type_scat_dispersion_imag
_atom_type_scat_source
O O 0.0110 0.0060 'International Tables Vol C Tables 4.2.6.8 and 6.1.1.4'
V V 0.3010 0.5290 'International Tables Vol C Tables 4.2.6.8 and 6.1.1.4'
Se Se -0.0930 2.2260 'International Tables Vol C Tables 4.2.6.8 and 6.1.1.4'
Ba Ba -0.3240 2.2820 'International Tables Vol C Tables 4.2.6.8 and 6.1.1.4'
loop_
_geom_angle_atom_site_label_1
_geom_angle_atom_site_label_2
_geom_angle_atom_site_label_3
_geom_angle
_geom_angle_site_symmetry_1
_geom_angle_site_symmetry_3
O1 Se1 O2 99.3(5) . 8_565
O1 Se1 O2 99.3(5) . .
O2 Se1 O2 98.4(8) 8_565 .
O3 Se2 O4A 106.9(7) . 1_565
O3 Se2 O4A 106.9(7) . 8_565
O4A Se2 O4A 131.0(14) 1_565 8_565
O3 Se2 O4B 97.3(13) . 8_575
O4A Se2 O4B 109.2(16) 1_565 8_575
O4A Se2 O4B 32.0(12) 8_565 8_575
O3 Se2 O4B 97.3(13) . .
O4A Se2 O4B 32.0(12) 1_565 .
O4A Se2 O4B 109.2(16) 8_565 .
O4B Se2 O4B 81(3) 8_575 .
O6 Se3 O6 98.7(6) . 8_565
O6 Se3 O5 99.4(5) . .
O6 Se3 O5 99.4(5) 8_565 .
O7 V1 O4B 80.8(11) 1_556 1_545
O7 V1 O4B 80.8(11) 1_556 8_575
O4B V1 O4B 108(2) 1_545 8_575
O7 V1 O2 99.4(6) 1_556 4_657
O4B V1 O2 168.6(11) 1_545 4_657
O4B V1 O2 83.1(11) 8_575 4_657
O7 V1 O2 99.4(6) 1_556 5_657
O4B V1 O2 83.1(11) 1_545 5_657
O4B V1 O2 168.6(11) 8_575 5_657
O2 V1 O2 85.6(7) 4_657 5_657
O7 V1 O4A 98.2(8) 1_556 .
O4B V1 O4A 27.3(11) 1_545 .
O4B V1 O4A 90.4(14) 8_575 .
O2 V1 O4A 160.0(8) 4_657 .
O2 V1 O4A 100.8(7) 5_657 .
O7 V1 O4A 98.2(8) 1_556 8_565
O4B V1 O4A 90.4(14) 1_545 8_565
O4B V1 O4A 27.3(11) 8_575 8_565
O2 V1 O4A 100.8(7) 4_657 8_565
O2 V1 O4A 160.0(7) 5_657 8_565
O4A V1 O4A 67.2(13) . 8_565
O7 V1 O5 175.8(8) 1_556 .
O4B V1 O5 96.8(11) 1_545 .
O4B V1 O5 96.8(11) 8_575 .
O2 V1 O5 83.6(5) 4_657 .
O2 V1 O5 83.6(5) 5_657 .
O4A V1 O5 78.3(7) . .
O4A V1 O5 78.3(7) 8_565 .
Se1 O2 V1 117.7(5) . 5_657
O4B O4A Se2 75(3) 1_545 1_545
O4B O4A V1 70(3) 1_545 .
Se2 O4A V1 144.1(14) 1_545 .
O4A O4B Se2 73(3) 1_565 .
O4A O4B V1 83(3) 1_565 1_565
Se2 O4B V1 154(2) . 1_565
Se3 O5 V1 130.1(9) . .
loop_
_geom_bond_atom_site_label_1
_geom_bond_atom_site_label_2
_geom_bond_distance
_geom_bond_site_symmetry_2
Se1 O1 1.652(14) .
Se1 O2 1.714(10) 8_565
Se1 O2 1.714(10) .
Se2 O3 1.630(15) .
Se2 O4A 1.70(2) 1_565
Se2 O4A 1.70(2) 8_565
Se2 O4B 1.71(4) 8_575
Se2 O4B 1.71(4) .
Se3 O6 1.693(8) .
Se3 O6 1.693(8) 8_565
Se3 O5 1.705(16) .
V1 O7 1.573(17) 1_556
V1 O4B 1.93(4) 1_545
V1 O4B 1.93(4) 8_575
V1 O2 2.027(10) 4_657
V1 O2 2.027(10) 5_657
V1 O4A 2.04(2) .
V1 O4A 2.04(2) 8_565
V1 O5 2.062(17) .
O4A O4B 0.94(4) 1_545
