#------------------------------------------------------------------------------
#$Date: 2021-03-03 12:37:04 +0200 (Wed, 03 Mar 2021) $
#$Revision: 262398 $
#$URL: file:///home/coder/svn-repositories/cod/cif/1/56/07/1560797.cif $
#------------------------------------------------------------------------------
#
# This file is available in the Crystallography Open Database (COD),
# http://www.crystallography.net/
#
# All data on this site have been placed in the public domain by the
# contributors.
#
data_1560797
loop_
_publ_author_name
'Zhuravlev, V.D.'
'Kellerman, D.G.'
'Tyutyunnik, A.P.'
'Chufarov, A.Yu.'
'Samigullina, R.F.'
_publ_section_title
;
 Synthesis, structure and magnetic properties of new \g-Ba(CoV1-xPxO4)2
 x&#x202F;=&#x202F;0.4--0.5
;
_journal_name_full               'Journal of Solid State Chemistry'
_journal_page_first              174
_journal_page_last               180
_journal_paper_doi               10.1016/j.jssc.2018.07.017
_journal_volume                  266
_journal_year                    2018
_chemical_formula_structural     'Ba Co2 V P O8'
_chemical_formula_sum            'Ba Co2 O8 P V'
_chemical_formula_weight         465.10
_space_group_IT_number           148
_space_group_name_Hall           '-R 3'
_space_group_name_H-M_alt        'R -3 :H'
_symmetry_cell_setting           trigonal
_symmetry_space_group_name_Hall  '-R 3'
_symmetry_space_group_name_H-M   'R -3 :H'
_cell_angle_alpha                90.0
_cell_angle_beta                 90.0
_cell_angle_gamma                120.0
_cell_formula_units_Z            3
_cell_length_a                   4.97000(8)
_cell_length_b                   4.97
_cell_length_c                   22.7015(5)
_cell_measurement_temperature    298(2)
_cell_volume                     485.622(13)
_computing_data_collection
'STOE Powder Software Package (STOE, Germany)'
_computing_data_reduction
'STOE Powder Software Package (STOE, Germany)'
_computing_structure_refinement  GSAS
_computing_structure_solution
'GSAS (A.C. Larson and R.B. Von Dreele, 2004), EXPGUI (Toby, B.H., 2001)'
_diffrn_ambient_temperature      298
_diffrn_detector                 'position sensitive detector'
_diffrn_detector_type            'linear mini-PSD (STOE)'
_diffrn_measurement_device_type  'transmission diffractometer Stadi-P (STOE)'
_diffrn_radiation_monochromator  'Primary, curved Ge 111'
_diffrn_radiation_polarisn_ratio 0.8
_diffrn_radiation_probe          x-ray
_diffrn_radiation_type           'Cu K\a~1~'
_diffrn_radiation_wavelength     1.54056
_diffrn_source                   'sealed X-ray tube'
_diffrn_source_target            Cu
_diffrn_source_type              'PHILIPS PW 2283/20'
_exptl_absorpt_correction_T_max  0.78187
_exptl_absorpt_correction_T_min  0.59916
_exptl_absorpt_process_details
;   GSAS Absorption/surface roughness correction: function number 4
 Flat plate transmission absorption correction
Terms =     0.15890         0.0000    
Correction is not refined.
;
_exptl_crystal_density_diffrn    4.771
_exptl_crystal_density_method    'not measured'
_pd_calc_method                  'Rietveld Refinement'
_pd_char_colour                  white
_pd_instr_dist_mono/spec         130
_pd_instr_dist_spec/detc         220
_pd_instr_dist_src/mono          260
_pd_instr_location               ' ?'
_pd_meas_2theta_range_inc        0.02
_pd_meas_2theta_range_max        119.98
_pd_meas_2theta_range_min        5.0
_pd_meas_number_of_points        5750
_pd_meas_scan_method             step
_pd_phase_name
'from C:/GSAS/MyWork/Zhuravlev/BaCo2V2-2xP2xO8/2017-12-26/BaCo2P2O8'
_pd_proc_2theta_range_inc        0.02
_pd_proc_2theta_range_max        119.93864
_pd_proc_2theta_range_min        4.95865
_pd_proc_info_datetime           2018-05-04T20:05:57
_pd_proc_info_excluded_regions   ' ?'
_pd_proc_ls_background_function
;   GSAS Background function number 1 with 36 terms.
 Shifted Chebyshev function of 1st kind
      1:    6281.63     2:   -3423.84     3:   -134.122     4:   -367.973    
      5:    76.5308     6:    24.5608     7:   -35.5394     8:    23.5191    
      9:   -11.8690    10:   -10.5694    11:    16.0637    12:   -26.7066    
     13:    6.00186    14:    6.71721    15:   -15.4924    16:    2.25068    
     17:    1.70787    18:   -3.55997    19:   -7.16953    20:    7.40981    
     21:    2.99400    22:   -5.94577    23:    9.01077    24:   -9.57789    
     25:   0.539595    26:    8.25399    27:   -17.4385    28:    6.45127    
     29:    11.5980    30:   -12.7723    31:    6.58807    32:   -2.22762    
     33:    2.95467    34:   -6.84106    35:    10.9065    36:   -3.76170    
;
_pd_proc_ls_peak_cutoff          0.00100
_pd_proc_ls_profile_function
;
 CW Profile function number 4 with  16 terms
 Pseudovoigt profile coefficients as parameterized in
 P. Thompson, D.E. Cox & J.B. Hastings (1987). J. Appl. Cryst.,20,79-83.
 Asymmetry correction of L.W. Finger, D.E. Cox & A. P. Jephcoat (1994).
 J. Appl. Cryst.,27,892-900.
 Microstrain broadening by P.W. Stephens,  (1999). J. Appl. Cryst.,32,281-289.
 #1(GU)   =   94.055 #2(GV)   =   -7.295 #3(GW)   =   16.299
 #4(GP)   =    0.000 #5(LX)   =    2.661 #6(ptec) =     2.51
 #7(trns) =     0.00 #8(shft) =   0.0000 #9(sfec) =     0.00
 #10(S/L) =   0.0230 #11(H/L) =   0.0230 #12(eta) =   0.0000
 #13(S400 ) =  6.2E-01 #14(S004 ) =  9.1E-04 #15(S202 ) = -2.1E-02
 #16(S310 ) =  2.8E-02 #17(S211 ) =  0.0E+00
 Peak tails are ignored  where the intensity is below 0.0010 times the peak
   Aniso. broadening axis   0.0   0.0   1.0
;
_pd_proc_ls_prof_R_factor        0.0113
_pd_proc_ls_prof_wR_expected     0.0124
_pd_proc_ls_prof_wR_factor       0.0152
_pd_proc_number_of_points        5750
_pd_spec_mounting                'powder on Mylar film'
_pd_spec_mount_mode              transmission
_pd_spec_shape                   flat_sheet
_pd_spec_size_axial              7
_pd_spec_size_equat              0.1
_refine_ls_goodness_of_fit_all   1.23
_refine_ls_matrix_type           full
_refine_ls_number_parameters     21
_refine_ls_number_restraints     0
_refine_ls_R_Fsqd_factor         0.10277
_refine_ls_shift/su_max          0.04
_refine_ls_shift/su_mean         0.00
_reflns_d_resolution_high        0.890
_reflns_d_resolution_low         7.567
_reflns_limit_h_max              5
_reflns_limit_h_min              0
_reflns_limit_k_max              2
_reflns_limit_k_min              -2
_reflns_limit_l_max              24
_reflns_limit_l_min              -23
_reflns_number_total             167
_cod_data_source_file            mmc7.cif
_cod_data_source_block           BACO2VPO8_00676_publ
_cod_depositor_comments
;
The following automatic conversions were performed:

data item '_geom_angle_publ_flag' value 'N' was changed to 'n' in
accordance with the built-in table derived from the CIF Core
dictionary named 'cif_core.dic' version 2.4.5 last updated on
2014-11-21 (27 times).

data item '_geom_bond_publ_flag' value 'N' was changed to 'n' in
accordance with the built-in table derived from the CIF Core
dictionary named 'cif_core.dic' version 2.4.5 last updated on
2014-11-21 (26 times).

Automatic conversion script
Id: cif_fix_values 8369 2020-08-20 11:38:08Z andrius 
;
_cod_original_cell_volume        485.620(19)
_cod_original_sg_symbol_H-M      'R -3'
_cod_original_formula_sum        'Ba Co2 O8 P1.00 V1.00'
_cod_database_code               1560797
_gsas_exptl_extinct_corr_t_min   1.00000
_gsas_exptl_extinct_corr_t_max   1.00000
loop_
_symmetry_equiv_pos_site_id
_symmetry_equiv_pos_as_xyz
1 +x,+y,+z
2 -y,x-y,+z
3 y-x,-x,+z
-1 -x,-y,-z
-2 +y,y-x,-z
-3 x-y,+x,-z
101 +x+1/3,+y+2/3,+z+2/3
102 -y+1/3,x-y+2/3,+z+2/3
103 y-x+1/3,-x+2/3,+z+2/3
-101 -x+2/3,-y+1/3,-z+1/3
-102 +y+2/3,y-x+1/3,-z+1/3
-103 x-y+2/3,+x+1/3,-z+1/3
201 +x+2/3,+y+1/3,+z+1/3
202 -y+2/3,x-y+1/3,+z+1/3
203 y-x+2/3,-x+1/3,+z+1/3
-201 -x+1/3,-y+2/3,-z+2/3
-202 +y+1/3,y-x+2/3,-z+2/3
-203 x-y+1/3,+x+2/3,-z+2/3
loop_
_atom_site_type_symbol
_atom_site_label
_atom_site_fract_x
_atom_site_fract_y
_atom_site_fract_z
_atom_site_occupancy
_atom_site_thermal_displace_type
_atom_site_U_iso_or_equiv
_atom_site_symmetry_multiplicity
Ba Ba 0.0 0.0 0.0 1.0 Uiso 0.0342(7) 3
Co Co 0.0 0.0 0.17082(15) 1.0 Uiso 0.0340(11) 6
P P 0.0 0.0 0.57697(21) 0.5 Uiso 0.0362(11) 6
V V 0.0 0.0 0.57697(21) 0.5 Uiso 0.0362(11) 6
O O1 0.0 0.0 0.6437(5) 1.0 Uiso 0.0174(30) 6
O O2 0.3448(11) 0.3538(11) 0.22125(26) 1.0 Uiso 0.0391(21) 18
loop_
_atom_type_symbol
_atom_type_number_in_cell
_atom_type_scat_dispersion_real
_atom_type_scat_dispersion_imag
_atom_type_scat_Cromer_Mann_a1
_atom_type_scat_Cromer_Mann_a2
_atom_type_scat_Cromer_Mann_a3
_atom_type_scat_Cromer_Mann_a4
_atom_type_scat_Cromer_Mann_b1
_atom_type_scat_Cromer_Mann_b2
_atom_type_scat_Cromer_Mann_b3
_atom_type_scat_Cromer_Mann_b4
_atom_type_scat_Cromer_Mann_c
_atom_type_scat_source
Ba 3.0 0.000 0.000 20.3361 3.21600 19.2970 0.27560 10.8880 20.2073 2.69590
167.202 2.77310 International_Tables_Vol_C
Co 6.0 0.000 0.000 12.2841 4.27910 7.34090 0.27840 4.00340 13.5359 2.34880
71.1692 1.01180 International_Tables_Vol_C
P 3.0 0.000 0.000 6.43450 1.90670 4.17910 27.1570 1.78000 0.52600 1.49080
68.1645 1.11490 International_Tables_Vol_C
V 3.0 0.000 0.000 10.2971 6.86570 7.35110 0.43850 2.07030 26.8938 2.05710
102.478 1.21990 International_Tables_Vol_C
O 24.0 0.000 0.000 3.04850 13.2771 2.28680 5.70110 1.54630 0.32390 0.86700
32.9089 0.25080 International_Tables_Vol_C
loop_
_geom_angle_atom_site_label_1
_geom_angle_atom_site_label_2
_geom_angle_atom_site_label_3
_geom_angle
_geom_angle_site_symmetry_1
_geom_angle_site_symmetry_2
_geom_angle_site_symmetry_3
_geom_angle_publ_flag
O2 Co O2 92.61(23) 1_555 . 2_555 n
O2 Co O2 92.61(23) 1_555 . 3_555 n
O2 Co O2 93.68(21) 1_555 . -101_555 n
O2 Co O2 88.79(27) 1_555 . -102_455 n
O2 Co O2 173.48(23) 1_555 . -103_445 n
O2 Co O2 92.61(23) 2_555 . 3_555 n
O2 Co O2 173.48(23) 2_555 . -101_555 n
O2 Co O2 93.68(21) 2_555 . -102_455 n
O2 Co O2 88.79(27) 2_555 . -103_445 n
O2 Co O2 88.79(27) 3_555 . -101_555 n
O2 Co O2 173.48(23) 3_555 . -102_455 n
O2 Co O2 93.68(21) 3_555 . -103_445 n
O2 Co O2 84.76(27) -101_555 . -102_455 n
O2 Co O2 84.76(27) -101_555 . -103_445 n
O2 Co O2 84.76(27) -102_455 . -103_445 n
O1 P O2 107.79(27) 1_555 . 201_445 n
O1 P O2 107.79(27) 1_555 . 202_555 n
O1 P O2 107.79(27) 1_555 . 203_455 n
O2 P O2 111.10(26) 201_445 . 202_555 n
O2 P O2 111.10(26) 201_445 . 203_455 n
O2 P O2 111.10(26) 202_555 . 203_455 n
O1 V O2 107.79(27) 1_555 . 201_445 n
O1 V O2 107.79(27) 1_555 . 202_555 n
O1 V O2 107.79(27) 1_555 . 203_455 n
O2 V O2 111.10(26) 201_445 . 202_555 n
O2 V O2 111.10(26) 201_445 . 203_455 n
O2 V O2 111.10(26) 202_555 . 203_455 n
loop_
_geom_bond_atom_site_label_1
_geom_bond_atom_site_label_2
_geom_bond_distance
_geom_bond_site_symmetry_1
_geom_bond_site_symmetry_2
_geom_bond_publ_flag
Ba O1 2.9163(18) . -201_555 n
Ba O1 2.9163(18) . -201_545 n
Ba O1 2.9163(18) . -201_445 n
Ba O1 2.9163(18) . 201_444 n
Ba O1 2.9163(18) . 201_454 n
Ba O1 2.9163(18) . 201_554 n
Ba O2 3.034(6) . 101_444 n
Ba O2 3.034(6) . 102_544 n
Ba O2 3.034(6) . 103_554 n
Ba O2 3.034(6) . -101_555 n
Ba O2 3.034(6) . -102_455 n
Ba O2 3.034(6) . -103_445 n
Co O2 2.080(5) . 1_555 n
Co O2 2.080(5) . 2_555 n
Co O2 2.080(5) . 3_555 n
Co O2 2.124(6) . -101_555 n
Co O2 2.124(6) . -102_455 n
Co O2 2.124(6) . -103_445 n
P O1 1.515(11) . 1_555 n
P O2 1.664(5) . 201_445 n
P O2 1.664(5) . 202_555 n
P O2 1.664(5) . 203_455 n
V O1 1.515(11) . 1_555 n
V O2 1.664(5) . 201_445 n
V O2 1.664(5) . 202_555 n
V O2 1.664(5) . 203_455 n
loop_
_pd_meas_counts_total
_pd_proc_ls_weight
_pd_proc_intensity_bkg_calc
_pd_calc_intensity_total
10047.0 0.0000995 9999.50781 9999.50781
9911.0 0.0001009 9983.18652 9983.18652
9768.0 0.0001024 9968.56445 9968.56445
9938.0 0.0001006 9955.51563 9955.51563
9951.0 0.0001005 9943.92188 9943.92188
10014.0 0.0000999 9933.66992 9933.66992
9949.0 0.0001005 9924.65527 9924.65527
9880.0 0.0001012 9916.77734 9916.77734
9959.0 0.0001004 9909.94043 9909.94043
9790.0 0.0001021 9904.05762 9904.05762
9953.0 0.0001005 9899.04297 9899.04297
10077.0 0.0000992 9894.81934 9894.81934
9947.0 0.0001005 9891.30957 9891.30957
9812.0 0.0001019 9888.44629 9888.44629
9975.0 0.0001003 9886.16309 9886.16309
9867.0 0.0001013 9884.39746 9884.39746
10056.0 0.0000994 9883.09180 9883.09180
9802.0 0.0001020 9882.19336 9882.19336
9869.0 0.0001013 9881.65137 9881.65137
9891.0 0.0001011 9881.41797 9881.41797
10106.0 0.0000990 9881.45020 9881.45020
9836.0 0.0001017 9881.70703 9881.70703
9785.0 0.0001022 9882.15137 9882.15137
10021.0 0.0000998 9882.74609 9882.74609
9878.0 0.0001012 9883.46094 9883.46094
9863.0 0.0001014 9884.26465 9884.26465
9831.0 0.0001017 9885.13086 9885.13086
9965.0 0.0001004 9886.03320 9886.03320
9768.0 0.0001024 9886.94922 9886.94922
9886.0 0.0001012 9887.85645 9887.85645
9828.0 0.0001018 9888.73730 9888.73730
9925.0 0.0001008 9889.57422 9889.57422
9919.0 0.0001008 9890.35059 9890.35059
9880.0 0.0001012 9891.05176 9891.05176
9647.0 0.0001037 9891.66699 9891.66699
9936.0 0.0001006 9892.18457 9892.18457
9820.0 0.0001018 9892.59375 9892.59375
9868.0 0.0001013 9892.88672 9892.88672
9965.0 0.0001004 9893.05566 9893.05566
9886.0 0.0001012 9893.09473 9893.09473
9751.0 0.0001026 9892.99902 9892.99902
9861.0 0.0001014 9892.76270 9892.76270
9879.0 0.0001012 9892.38477 9892.38477
10016.0 0.0000998 9891.86133 9891.86133
9857.0 0.0001015 9891.19141 9891.19141
10040.0 0.0000996 9890.37305 9890.37305
9767.0 0.0001024 9889.40723 9889.40723
10059.0 0.0000994 9888.29297 9888.29297
9976.0 0.0001002 9887.03223 9887.03223
10000.0 0.0001000 9885.62598 9885.62598
9966.0 0.0001003 9884.07715 9884.07715
9896.0 0.0001011 9882.38672 9882.38672
9847.0 0.0001016 9880.55859 9880.55859
9737.0 0.0001027 9878.59473 9878.59473
9908.0 0.0001009 9876.50000 9876.50000
9873.0 0.0001013 9874.27832 9874.27832
9762.0 0.0001024 9871.93164 9871.93164
9715.0 0.0001029 9869.46680 9869.46680
9786.0 0.0001022 9866.88672 9866.88672
9899.0 0.0001010 9864.19727 9864.19727
9728.0 0.0001028 9861.40234 9861.40234
9854.0 0.0001015 9858.50684 9858.50684
9918.0 0.0001008 9855.51660 9855.51660
9805.0 0.0001020 9852.43555 9852.43555
9892.0 0.0001011 9849.27051 9849.27051
9819.0 0.0001018 9846.02637 9846.02637
9862.0 0.0001014 9842.70703 9842.70703
9733.0 0.0001027 9839.32031 9839.32031
9869.0 0.0001013 9835.86914 9835.86914
9779.0 0.0001023 9832.35938 9832.35938
9781.0 0.0001022 9828.79688 9828.79688
9831.0 0.0001017 9825.18652 9825.18652
9774.0 0.0001023 9821.53418 9821.53418
9937.0 0.0001006 9817.84277 9817.84277
9784.0 0.0001022 9814.12012 9814.12012
9741.0 0.0001027 9810.36914 9810.36914
9688.0 0.0001032 9806.59570 9806.59570
9706.0 0.0001030 9802.80371 9802.80371
9779.0 0.0001023 9798.99805 9798.99805
9880.0 0.0001012 9795.18359 9795.18359
9874.0 0.0001013 9791.36426 9791.36426
9821.0 0.0001018 9787.54395 9787.54395
9841.0 0.0001016 9783.72852 9783.72852
9747.0 0.0001026 9779.91992 9779.91992
9916.0 0.0001008 9776.12207 9776.12207
9744.0 0.0001026 9772.33984 9772.33984
9778.0 0.0001023 9768.57715 9768.57715
9723.0 0.0001028 9764.83496 9764.83496
9904.0 0.0001010 9761.11914 9761.11914
9728.0 0.0001028 9757.43164 9757.43164
9857.0 0.0001015 9753.77441 9753.77441
9672.0 0.0001034 9750.15234 9750.15234
9854.0 0.0001015 9746.56738 9746.56738
9785.0 0.0001022 9743.02148 9743.02148
9972.0 0.0001003 9739.51660 9739.51660
9746.0 0.0001026 9736.05664 9736.05664
9654.0 0.0001036 9732.64258 9732.64258
9738.0 0.0001027 9729.27637 9729.27637
9687.0 0.0001032 9725.95898 9725.95898
9772.0 0.0001023 9722.69434 9722.69434
9774.0 0.0001023 9719.48145 9719.48145
9781.0 0.0001022 9716.32324 9716.32324
9673.0 0.0001034 9713.22070 9713.22070
9725.0 0.0001028 9710.17480 9710.17480
9823.0 0.0001018 9707.18555 9707.18555
9688.0 0.0001032 9704.25586 9704.25586
9776.0 0.0001023 9701.38477 9701.38477
9602.0 0.0001041 9698.57324 9698.57324
9604.0 0.0001041 9695.82227 9695.82227
9719.0 0.0001029 9693.13184 9693.13184
9646.0 0.0001037 9690.50195 9690.50195
9587.0 0.0001043 9687.93262 9687.93262
9727.0 0.0001028 9685.42480 9685.42480
9730.0 0.0001028 9682.97754 9682.97754
9692.0 0.0001032 9680.59180 9680.59180
9817.0 0.0001019 9678.26563 9678.26563
9680.0 0.0001033 9676.00000 9676.00000
9589.0 0.0001043 9673.79492 9673.79492
9692.0 0.0001032 9671.64844 9671.64844
9766.0 0.0001024 9669.55957 9669.55957
9597.0 0.0001042 9667.53027 9667.53027
9688.0 0.0001032 9665.55664 9665.55664
9766.0 0.0001024 9663.64063 9663.64063
9765.0 0.0001024 9661.77930 9661.77930
9671.0 0.0001034 9659.97168 9659.97168
9634.0 0.0001038 9658.21875 9658.21875
9678.0 0.0001033 9656.51758 9656.51758
9697.0 0.0001031 9654.86816 9654.86816
9599.0 0.0001042 9653.26855 9653.26855
9663.0 0.0001035 9651.71777 9651.71777
9554.0 0.0001047 9650.21387 9650.21387
9676.0 0.0001033 9648.75684 9648.75684
9795.0 0.0001021 9647.34473 9647.34473
9443.0 0.0001059 9645.97559 9645.97559
9744.0 0.0001026 9644.64844 9644.64844
9650.0 0.0001036 9643.36230 9643.36230
9551.0 0.0001047 9642.11523 9642.11523
9645.0 0.0001037 9640.90527 9640.90527
9579.0 0.0001044 9639.73145 9639.73145
9621.0 0.0001039 9638.59277 9638.59277
9731.0 0.0001028 9637.48730 9637.48730
9499.0 0.0001053 9636.41211 9636.41211
9614.0 0.0001040 9635.36719 9635.36719
9503.0 0.0001052 9634.35059 9634.35059
9525.0 0.0001050 9633.36035 9633.36035
9505.0 0.0001052 9632.39551 9632.39551
9620.0 0.0001040 9631.45410 9631.45410
9637.0 0.0001038 9630.53320 9630.53320
9661.0 0.0001035 9629.63379 9629.63379
9689.0 0.0001032 9628.75293 9628.75293
9615.0 0.0001040 9627.88867 9627.88867
9747.0 0.0001026 9627.04004 9627.04004
9523.0 0.0001050 9626.20508 9626.20508
9691.0 0.0001032 9625.38184 9625.38184
9635.0 0.0001038 9624.57031 9624.57031
9670.0 0.0001034 9623.76758 9623.76758
9608.0 0.0001041 9622.97266 9622.97266
9439.0 0.0001059 9622.18359 9622.18359
9723.0 0.0001028 9621.39941 9621.39941
9587.0 0.0001043 9620.61816 9620.61816
9719.0 0.0001029 9619.83984 9619.83984
9534.0 0.0001049 9619.06152 9619.06152
9572.0 0.0001045 9618.28125 9618.28125
9775.0 0.0001023 9617.50000 9617.50000
9633.0 0.0001038 9616.71387 9616.71387
9653.0 0.0001036 9615.92383 9615.92383
9708.0 0.0001030 9615.12695 9615.12695
9650.0 0.0001036 9614.32324 9614.32324
9446.0 0.0001059 9613.51074 9613.51074
9627.0 0.0001039 9612.68750 9612.68750
9636.0 0.0001038 9611.85449 9611.85449
9553.0 0.0001047 9611.00879 9611.00879
9672.0 0.0001034 9610.15039 9610.15039
9514.0 0.0001051 9609.27734 9609.27734
9704.0 0.0001031 9608.38867 9608.38867
9611.0 0.0001040 9607.48438 9607.48438
9532.0 0.0001049 9606.56250 9606.56250
9496.0 0.0001053 9605.62305 9605.62305
9434.0 0.0001060 9604.66406 9604.66406
9523.0 0.0001050 9603.68555 9603.68555
9580.0 0.0001044 9602.68652 9602.68652
9505.0 0.0001052 9601.66602 9601.66602
9371.0 0.0001067 9600.62305 9600.62305
9622.0 0.0001039 9599.55762 9599.55762
9765.0 0.0001024 9598.46875 9598.46875
9462.0 0.0001057 9597.35547 9597.35547
9497.0 0.0001053 9596.21777 9596.21777
9383.0 0.0001066 9595.05566 9595.05566
9557.0 0.0001046 9593.86719 9593.86719
9564.0 0.0001046 9592.65234 9592.65234
9571.0 0.0001045 9591.41113 9591.41113
9526.0 0.0001050 9590.14258 9590.14258
9504.0 0.0001052 9588.84668 9588.84668
9567.0 0.0001045 9587.52344 9587.52344
9699.0 0.0001031 9586.17188 9586.17188
9638.0 0.0001038 9584.79199 9584.79199
9659.0 0.0001035 9583.38379 9583.38379
9576.0 0.0001044 9581.94629 9581.94629
9536.0 0.0001049 9580.47949 9580.47949
9582.0 0.0001044 9578.98535 9578.98535
9602.0 0.0001041 9577.46094 9577.46094
9761.0 0.0001024 9575.90723 9575.90723
9506.0 0.0001052 9574.32422 9574.32422
9623.0 0.0001039 9572.71191 9572.71191
9552.0 0.0001047 9571.07031 9571.07031
9488.0 0.0001054 9569.40039 9569.40039
9630.0 0.0001038 9567.70020 9567.70020
9660.0 0.0001035 9565.97168 9565.97168
9558.0 0.0001046 9564.21387 9564.21387
9610.0 0.0001041 9562.42773 9562.42773
9646.0 0.0001037 9560.61328 9560.61328
9497.0 0.0001053 9558.77051 9558.77051
9319.0 0.0001073 9556.89844 9556.89844
9703.0 0.0001031 9555.00000 9555.00000
9708.0 0.0001030 9553.07324 9553.07324
9637.0 0.0001038 9551.11914 9551.11914
9538.0 0.0001048 9549.13867 9549.13867
9836.0 0.0001017 9547.13184 9547.13184
9628.0 0.0001039 9545.09863 9545.09863
9711.0 0.0001030 9543.04004 9543.04004
9898.0 0.0001010 9540.95605 9540.95605
9909.0 0.0001009 9538.84668 9538.84668
9782.0 0.0001022 9536.71289 9536.71289
9663.0 0.0001035 9534.55566 9534.55566
9793.0 0.0001021 9532.37500 9532.37500
9731.0 0.0001028 9530.17090 9530.17090
9648.0 0.0001036 9527.94531 9527.94531
9548.0 0.0001047 9525.69629 9525.69629
9578.0 0.0001044 9523.42773 9523.42773
9369.0 0.0001067 9521.13770 9521.13770
9376.0 0.0001067 9518.82715 9518.82715
9523.0 0.0001050 9516.49707 9516.49707
9615.0 0.0001040 9514.14844 9514.14844
9392.0 0.0001065 9511.78125 9511.78125
9369.0 0.0001067 9509.39648 9509.39648
9445.0 0.0001059 9506.99512 9506.99512
9462.0 0.0001057 9504.57617 9504.57617
9415.0 0.0001062 9502.14258 9502.14258
9380.0 0.0001066 9499.69336 9499.69336
9416.0 0.0001062 9497.22949 9497.22949
9384.0 0.0001066 9494.75195 9494.75195
9484.0 0.0001054 9492.26172 9492.26172
9445.0 0.0001059 9489.75879 9489.75879
9428.0 0.0001061 9487.24414 9487.24414
9569.0 0.0001045 9484.71777 9484.71777
9438.0 0.0001060 9482.18262 9482.18262
9527.0 0.0001050 9479.63672 9479.63672
9392.0 0.0001065 9477.08203 9477.08203
9327.0 0.0001072 9474.51953 9474.51953
9510.0 0.0001052 9471.94922 9471.94922
9384.0 0.0001066 9469.37207 9469.37207
9537.0 0.0001049 9466.78809 9466.78809
9530.0 0.0001049 9464.20020 9464.49805
9667.0 0.0001034 9461.60645 9461.91211
9415.0 0.0001062 9459.00879 9459.32227
9260.0 0.0001080 9456.40820 9456.72949
9439.0 0.0001059 9453.80566 9454.13574
9454.0 0.0001058 9451.20020 9451.53906
9426.0 0.0001061 9448.59375 9448.94141
9442.0 0.0001059 9445.98633 9446.34277
9380.0 0.0001066 9443.37988 9443.74609
9519.0 0.0001051 9440.77344 9441.15039
9463.0 0.0001057 9438.16895 9438.55664
9505.0 0.0001052 9435.56641 9435.96484
9378.0 0.0001066 9432.96680 9433.37695
9419.0 0.0001062 9430.37012 9430.79199
9455.0 0.0001058 9427.77832 9428.21289
9383.0 0.0001066 9425.19141 9425.63965
9481.0 0.0001055 9422.60938 9423.07129
9268.0 0.0001079 9420.03320 9420.50977
9208.0 0.0001086 9417.46387 9417.95508
9510.0 0.0001052 9414.90137 9415.40918
9334.0 0.0001071 9412.34668 9412.87109
9337.0 0.0001071 9409.80078 9410.34277
9223.0 0.0001084 9407.26367 9407.82324
9450.0 0.0001058 9404.73535 9405.31445
9462.0 0.0001057 9402.21777 9402.81738
9376.0 0.0001067 9399.71094 9400.33203
9293.0 0.0001076 9397.21582 9397.85938
9273.0 0.0001078 9394.73145 9395.39941
9392.0 0.0001065 9392.25879 9392.95215
9376.0 0.0001067 9389.79980 9390.51953
9317.0 0.0001073 9387.35352 9388.10156
9381.0 0.0001066 9384.92090 9385.69922
9270.0 0.0001079 9382.50195 9383.31250
9386.0 0.0001065 9380.09766 9380.94141
9267.0 0.0001079 9377.70898 9378.58887
9334.0 0.0001071 9375.33496 9376.25391
9455.0 0.0001058 9372.97754 9373.93750
9381.0 0.0001066 9370.63574 9371.63965
9312.0 0.0001074 9368.31055 9369.36133
9322.0 0.0001073 9366.00293 9367.10449
9394.0 0.0001065 9363.71191 9364.86719
9465.0 0.0001057 9361.43945 9362.65332
9412.0 0.0001062 9359.18359 9360.45996
9308.0 0.0001074 9356.94727 9358.29102
9468.0 0.0001056 9354.72949 9356.14746
9285.0 0.0001077 9352.53125 9354.02832
9376.0 0.0001067 9350.35059 9351.93457
9369.0 0.0001067 9348.19043 9349.86914
9519.0 0.0001051 9346.05078 9347.83301
9366.0 0.0001068 9343.92969 9345.82520
9307.0 0.0001074 9341.83008 9343.84961
9281.0 0.0001077 9339.75000 9341.90723
9324.0 0.0001073 9337.69141 9340.00098
9334.0 0.0001071 9335.65234 9338.13086
9261.0 0.0001080 9333.63574 9336.30273
9353.0 0.0001069 9331.63965 9334.51758
9301.0 0.0001075 9329.66504 9332.78125
9453.0 0.0001058 9327.71191 9331.09766
9269.0 0.0001079 9325.78027 9329.47363
9239.0 0.0001082 9323.87012 9327.91602
9158.0 0.0001092 9321.98242 9326.43652
9252.0 0.0001081 9320.11621 9325.04980
9484.0 0.0001054 9318.27246 9323.77930
9229.0 0.0001084 9316.45020 9322.66406
9385.0 0.0001066 9314.64941 9321.77344
9354.0 0.0001069 9312.87207 9321.22168
9359.0 0.0001068 9311.11621 9321.18359
9197.0 0.0001087 9309.38184 9321.90723
9192.0 0.0001088 9307.66992 9323.70898
9280.0 0.0001078 9305.98145 9326.93945
9322.0 0.0001073 9304.31348 9331.91211
9414.0 0.0001062 9302.66797 9338.87891
9343.0 0.0001070 9301.04492 9348.09277
9145.0 0.0001093 9299.44336 9359.79688
9375.0 0.0001067 9297.86328 9374.28320
9369.0 0.0001067 9296.30566 9392.22363
9388.0 0.0001065 9294.76953 9414.49707
9371.0 0.0001067 9293.25488 9442.29590
9368.0 0.0001067 9291.76172 9476.71484
9392.0 0.0001065 9290.29004 9517.75781
9596.0 0.0001042 9288.83887 9563.19531
9805.0 0.0001020 9287.41016 9607.18750
9752.0 0.0001025 9286.00098 9640.09375
9649.0 0.0001036 9284.61328 9649.91992
9792.0 0.0001021 9283.24512 9627.31055
9608.0 0.0001041 9281.89844 9574.24316
9641.0 0.0001037 9280.57129 9505.99023
9325.0 0.0001072 9279.26465 9439.68555
9609.0 0.0001041 9277.97656 9385.43555
9408.0 0.0001063 9276.70898 9346.22070
9421.0 0.0001061 9275.46094 9320.46094
9337.0 0.0001071 9274.23145 9304.57324
9301.0 0.0001075 9273.02051 9294.91602
9327.0 0.0001072 9271.82813 9288.76660
9214.0 0.0001085 9270.65430 9284.46387
9422.0 0.0001061 9269.49805 9281.13477
9223.0 0.0001084 9268.36035 9278.36230
9210.0 0.0001086 9267.23926 9275.94727
9299.0 0.0001075 9266.13574 9273.79004
9479.0 0.0001055 9265.04883 9271.83105
9340.0 0.0001071 9263.97852 9270.02930
9482.0 0.0001055 9262.92480 9268.35547
9187.0 0.0001088 9261.88672 9266.78906
9377.0 0.0001066 9260.86426 9265.31152
9237.0 0.0001083 9259.85645 9263.90820
9369.0 0.0001067 9258.86426 9262.57227
9332.0 0.0001072 9257.88672 9261.29199
9413.0 0.0001062 9256.92285 9260.06152
9326.0 0.0001072 9255.97363 9258.87598
9337.0 0.0001071 9255.03711 9257.72852
9211.0 0.0001086 9254.11426 9256.61719
9364.0 0.0001068 9253.20410 9255.53711
9447.0 0.0001059 9252.30664 9254.48730
9258.0 0.0001080 9251.42090 9253.46387
9402.0 0.0001064 9250.54688 9252.46387
9271.0 0.0001079 9249.68457 9251.48730
9374.0 0.0001067 9248.83301 9250.53125
9174.0 0.0001090 9247.99219 9249.59473
9180.0 0.0001089 9247.16211 9248.67773
9180.0 0.0001089 9246.34082 9247.77539
9232.0 0.0001083 9245.52930 9246.88965
9080.0 0.0001101 9244.72754 9246.01953
9389.0 0.0001065 9243.93359 9245.16113
9128.0 0.0001096 9243.14746 9244.31641
9398.0 0.0001064 9242.37012 9243.48438
9237.0 0.0001083 9241.59961 9242.66211
9153.0 0.0001093 9240.83691 9241.85254
9207.0 0.0001086 9240.08008 9241.05078
9328.0 0.0001072 9239.33008 9240.25879
9204.0 0.0001086 9238.58594 9239.47559
9224.0 0.0001084 9237.84668 9238.70020
9175.0 0.0001090 9237.11328 9237.93262
9233.0 0.0001083 9236.38379 9237.17090
9240.0 0.0001082 9235.65918 9236.41504
9089.0 0.0001100 9234.93848 9235.66602
9391.0 0.0001065 9234.22070 9234.92090
9295.0 0.0001076 9233.50684 9234.18164
9337.0 0.0001071 9232.79492 9233.44531
9160.0 0.0001092 9232.08496 9232.71191
9319.0 0.0001073 9231.37793 9231.98340
9199.0 0.0001087 9230.67188 9231.25684
9153.0 0.0001093 9229.96680 9230.53223
9188.0 0.0001088 9229.26270 9229.80957
9046.0 0.0001105 9228.55859 9229.08789
9281.0 0.0001077 9227.85449 9228.36621
9410.0 0.0001063 9227.15039 9227.64648
9182.0 0.0001089 9226.44531 9226.92578
9247.0 0.0001081 9225.73828 9226.20410
9102.0 0.0001099 9225.03027 9225.48242
9297.0 0.0001076 9224.32031 9224.75879
9110.0 0.0001098 9223.60840 9224.03418
9201.0 0.0001087 9222.89355 9223.30762
9157.0 0.0001092 9222.17480 9222.57715
9216.0 0.0001085 9221.45313 9221.84375
9177.0 0.0001090 9220.72852 9221.10840
9184.0 0.0001089 9219.99902 9220.36914
9321.0 0.0001073 9219.26465 9219.62402
9207.0 0.0001086 9218.52637 9218.90918
9306.0 0.0001075 9217.78223 9218.15723
9116.0 0.0001097 9217.03320 9217.40039
9199.0 0.0001087 9216.27734 9216.63770
9277.0 0.0001078 9215.51563 9215.86914
9073.0 0.0001102 9214.74805 9215.09473
9271.0 0.0001079 9213.97266 9214.31445
9228.0 0.0001084 9213.19043 9213.52539
9243.0 0.0001082 9212.40137 9212.73145
9146.0 0.0001093 9211.60352 9211.64941
9242.0 0.0001082 9210.79785 9210.84570
9142.0 0.0001094 9209.98438 9210.03418
9018.0 0.0001109 9209.16113 9209.21387
9145.0 0.0001093 9208.33008 9208.38477
9192.0 0.0001088 9207.48926 9207.54688
9285.0 0.0001077 9206.63867 9206.69922
9175.0 0.0001090 9205.77832 9205.84180
9194.0 0.0001088 9204.90723 9204.97363
9029.0 0.0001108 9204.02637 9204.09668
9104.0 0.0001098 9203.13477 9203.20801
9107.0 0.0001098 9202.23242 9202.31055
9272.0 0.0001079 9201.31836 9201.40039
9232.0 0.0001083 9200.39355 9200.48047
9111.0 0.0001098 9199.45703 9199.54883
9280.0 0.0001078 9198.50781 9198.60547
9183.0 0.0001089 9197.54688 9197.65137
9296.0 0.0001076 9196.57422 9196.68555
9293.0 0.0001076 9195.58789 9195.70605
9266.0 0.0001079 9194.58984 9194.71680
9068.0 0.0001103 9193.57813 9193.71387
9073.0 0.0001102 9192.55273 9192.69922
9152.0 0.0001093 9191.51465 9191.67285
9026.0 0.0001108 9190.46289 9190.63379
9249.0 0.0001081 9189.39648 9189.58203
9324.0 0.0001073 9188.31738 9188.51855
9246.0 0.0001082 9187.22363 9187.44434
9112.0 0.0001097 9186.11523 9186.35645
9143.0 0.0001094 9184.99219 9185.25879
9163.0 0.0001091 9183.85449 9184.14941
9015.0 0.0001109 9182.70215 9183.03027
9185.0 0.0001089 9181.53516 9181.90332
9278.0 0.0001078 9180.35254 9180.76660
9331.0 0.0001072 9179.15527 9179.62598
9271.0 0.0001079 9177.94238 9178.48145
9050.0 0.0001105 9176.71387 9177.33887
9045.0 0.0001106 9175.46973 9176.20605
9054.0 0.0001104 9174.20898 9175.10352
9272.0 0.0001079 9172.93359 9174.07910
8990.0 0.0001112 9171.64160 9173.23535
9095.0 0.0001100 9170.33398 9172.77832
9235.0 0.0001083 9169.00977 9173.04590
9199.0 0.0001087 9167.66992 9174.49121
9111.0 0.0001098 9166.31348 9177.53613
9059.0 0.0001104 9164.94043 9182.28809
9208.0 0.0001086 9163.55078 9188.20117
9136.0 0.0001095 9162.14453 9193.86914
9171.0 0.0001090 9160.72168 9197.22363
8983.0 0.0001113 9159.28223 9196.37012
9135.0 0.0001095 9157.82617 9190.95605
9200.0 0.0001087 9156.35352 9182.62891
9098.0 0.0001099 9154.86328 9173.64355
9012.0 0.0001110 9153.35742 9165.62988
9063.0 0.0001103 9151.83301 9159.31250
9418.0 0.0001062 9150.29297 9154.69043
9105.0 0.0001098 9148.73535 9151.36035
9201.0 0.0001087 9147.16113 9148.84375
9051.0 0.0001105 9145.57031 9146.76367
9134.0 0.0001095 9143.96191 9144.88574
9088.0 0.0001100 9142.33691 9143.09473
8905.0 0.0001123 9140.69434 9141.33594
9069.0 0.0001103 9139.03516 9139.58789
9251.0 0.0001081 9137.35938 9137.84180
9131.0 0.0001095 9135.66602 9136.08984
9177.0 0.0001090 9133.95605 9134.33203
9013.0 0.0001110 9132.22949 9132.56445
9053.0 0.0001105 9130.48633 9130.78711
9103.0 0.0001099 9128.72559 9128.99707
9099.0 0.0001099 9126.94824 9127.19434
9216.0 0.0001085 9125.15430 9125.37793
9120.0 0.0001096 9123.34375 9123.54883
9058.0 0.0001104 9121.51660 9121.70508
9119.0 0.0001097 9119.67285 9119.84570
9101.0 0.0001099 9117.81250 9117.97266
9108.0 0.0001098 9115.93555 9116.08398
9234.0 0.0001083 9114.04297 9114.18066
9341.0 0.0001071 9112.13379 9112.26172
9229.0 0.0001084 9110.20801 9110.32813
9378.0 0.0001066 9108.26563 9108.37793
9489.0 0.0001054 9106.30762 9106.41309
9540.0 0.0001048 9104.33398 9104.43262
9593.0 0.0001042 9102.34473 9102.43750
9513.0 0.0001051 9100.33887 9100.42676
9528.0 0.0001050 9098.31738 9098.40039
9497.0 0.0001053 9096.28027 9096.35840
9229.0 0.0001084 9094.22754 9094.30176
9151.0 0.0001093 9092.16016 9092.23047
9269.0 0.0001079 9090.07715 9090.14453
9109.0 0.0001098 9087.97949 9088.04297
9045.0 0.0001106 9085.86621 9085.92676
8950.0 0.0001117 9083.73730 9083.79492
8991.0 0.0001112 9081.59473 9081.65039
8992.0 0.0001112 9079.43750 9079.49023
8937.0 0.0001119 9077.26465 9077.31543
9004.0 0.0001111 9075.07813 9075.12695
8890.0 0.0001125 9072.87695 9072.92383
9063.0 0.0001103 9070.66211 9070.70703
8937.0 0.0001119 9068.43359 9068.47656
9118.0 0.0001097 9066.19043 9066.23145
9095.0 0.0001100 9063.93359 9063.97266
8965.0 0.0001115 9061.66406 9061.70215
9033.0 0.0001107 9059.37988 9059.41699
8944.0 0.0001118 9057.08301 9057.11816
8893.0 0.0001124 9054.77344 9054.80762
8899.0 0.0001124 9052.45020 9052.45020
9093.0 0.0001100 9050.11426 9050.11426
9037.0 0.0001107 9047.76563 9047.76563
9067.0 0.0001103 9045.40430 9045.40430
8964.0 0.0001116 9043.03125 9043.03125
9114.0 0.0001097 9040.64551 9040.64551
9095.0 0.0001100 9038.24805 9038.24805
9201.0 0.0001087 9035.83887 9035.83887
9148.0 0.0001093 9033.41797 9033.41797
8972.0 0.0001115 9030.98535 9030.98535
9009.0 0.0001110 9028.54102 9028.54102
9064.0 0.0001103 9026.08594 9026.08594
8935.0 0.0001119 9023.62012 9023.62012
9012.0 0.0001110 9021.14355 9021.14355
9160.0 0.0001092 9018.65527 9018.65527
8990.0 0.0001112 9016.15723 9016.15723
8914.0 0.0001122 9013.64941 9013.64941
9006.0 0.0001110 9011.13086 9011.13086
8774.0 0.0001140 9008.60254 9008.60254
9099.0 0.0001099 9006.06445 9006.06445
9017.0 0.0001109 9003.51660 9003.51660
8701.0 0.0001149 9000.95898 9000.95898
8961.0 0.0001116 8998.39258 8998.39258
8884.0 0.0001126 8995.81738 8995.81738
8994.0 0.0001112 8993.23340 8993.23340
9054.0 0.0001104 8990.64063 8990.64063
9059.0 0.0001104 8988.03906 8988.03906
9114.0 0.0001097 8985.42969 8985.42969
8822.0 0.0001134 8982.81152 8982.81152
8980.0 0.0001114 8980.18555 8980.18555
8961.0 0.0001116 8977.55176 8977.55176
8953.0 0.0001117 8974.91113 8974.91113
8893.0 0.0001124 8972.26270 8972.26270
8972.0 0.0001115 8969.60742 8969.60742
9014.0 0.0001109 8966.94434 8966.94434
8828.0 0.0001133 8964.27539 8964.27539
9013.0 0.0001110 8961.59961 8961.59961
9005.0 0.0001110 8958.91699 8958.91699
9010.0 0.0001110 8956.22852 8956.22852
8959.0 0.0001116 8953.53320 8953.53320
8962.0 0.0001116 8950.83301 8950.83301
8872.0 0.0001127 8948.12598 8948.12598
8882.0 0.0001126 8945.41406 8945.41406
9006.0 0.0001110 8942.69727 8942.69727
8898.0 0.0001124 8939.97461 8939.97461
8900.0 0.0001124 8937.24707 8937.24707
8832.0 0.0001132 8934.51465 8934.51465
8937.0 0.0001119 8931.77832 8931.77832
9083.0 0.0001101 8929.03711 8929.03711
8941.0 0.0001118 8926.29199 8926.29199
8856.0 0.0001129 8923.54199 8923.54199
8885.0 0.0001125 8920.78906 8920.78906
8949.0 0.0001117 8918.03125 8918.03125
8934.0 0.0001119 8915.27051 8915.27051
8884.0 0.0001126 8912.50684 8912.50684
9027.0 0.0001108 8909.73926 8909.73926
8751.0 0.0001143 8906.96875 8906.96875
8917.0 0.0001121 8904.19531 8904.19531
8969.0 0.0001115 8901.41992 8901.41992
8854.0 0.0001129 8898.64160 8898.64160
8881.0 0.0001126 8895.86133 8895.86133
8846.0 0.0001130 8893.07813 8893.07813
8820.0 0.0001134 8890.29297 8890.29297
8991.0 0.0001112 8887.50684 8887.50684
8948.0 0.0001118 8884.71875 8884.71875
8702.0 0.0001149 8881.92871 8881.92871
8793.0 0.0001137 8879.13770 8879.13770
8802.0 0.0001136 8876.34473 8876.34473
8843.0 0.0001131 8873.55176 8873.55176
8836.0 0.0001132 8870.75781 8870.75781
8936.0 0.0001119 8867.96289 8867.96289
8645.0 0.0001157 8865.16797 8865.16797
8769.0 0.0001140 8862.37207 8862.37207
9076.0 0.0001102 8859.57617 8859.57617
8806.0 0.0001136 8856.78027 8856.78027
8999.0 0.0001111 8853.98340 8853.98340
8929.0 0.0001120 8851.18848 8851.18848
8873.0 0.0001127 8848.39258 8848.39258
8892.0 0.0001125 8845.59863 8845.59863
8782.0 0.0001139 8842.80371 8842.80371
8806.0 0.0001136 8840.01074 8840.01074
8721.0 0.0001147 8837.21875 8837.21875
8751.0 0.0001143 8834.42676 8834.42676
8856.0 0.0001129 8831.63770 8831.63770
8735.0 0.0001145 8828.84863 8828.84863
8726.0 0.0001146 8826.06152 8826.06152
8841.0 0.0001131 8823.27637 8823.27637
8760.0 0.0001142 8820.49219 8820.49219
8760.0 0.0001142 8817.71094 8817.71094
8733.0 0.0001145 8814.93066 8814.93066
8769.0 0.0001140 8812.15332 8812.15332
8740.0 0.0001144 8809.37891 8809.37891
8608.0 0.0001162 8806.60547 8806.60547
8716.0 0.0001147 8803.83594 8803.83594
8898.0 0.0001124 8801.06836 8801.06836
8865.0 0.0001128 8798.30371 8798.30371
8675.0 0.0001153 8795.54199 8795.54199
8754.0 0.0001142 8792.78320 8792.78320
8732.0 0.0001145 8790.02734 8790.02734
8700.0 0.0001149 8787.27539 8787.27539
8775.0 0.0001140 8784.52637 8784.52637
8821.0 0.0001134 8781.78125 8781.78125
8924.0 0.0001121 8779.03906 8779.03906
8773.0 0.0001140 8776.30078 8776.30078
8825.0 0.0001133 8773.56641 8773.56641
8742.0 0.0001144 8770.83691 8770.83691
8797.0 0.0001137 8768.11035 8768.11035
8674.0 0.0001153 8765.38867 8765.38867
8594.0 0.0001164 8762.66992 8762.66992
8763.0 0.0001141 8759.95703 8759.95703
8728.0 0.0001146 8757.24805 8757.24805
8705.0 0.0001149 8754.54297 8754.54297
8796.0 0.0001137 8751.84277 8751.84277
8936.0 0.0001119 8749.14746 8749.14746
8808.0 0.0001135 8746.45703 8746.45703
8872.0 0.0001127 8743.77148 8743.77148
8754.0 0.0001142 8741.09082 8741.09082
8704.0 0.0001149 8738.41602 8738.41602
8819.0 0.0001134 8735.74512 8735.74512
8846.0 0.0001130 8733.08008 8733.08008
8779.0 0.0001139 8730.41992 8730.41992
8769.0 0.0001140 8727.76563 8727.76563
8706.0 0.0001149 8725.11621 8725.11621
8817.0 0.0001134 8722.47266 8722.47266
8717.0 0.0001147 8719.83496 8719.83496
8694.0 0.0001150 8717.20313 8717.20313
8616.0 0.0001161 8714.57715 8714.57715
8696.0 0.0001150 8711.95605 8711.95605
8976.0 0.0001114 8709.34082 8709.34082
8743.0 0.0001144 8706.73242 8706.73242
8742.0 0.0001144 8704.12988 8704.12988
8644.0 0.0001157 8701.53320 8701.53320
8615.0 0.0001161 8698.94238 8698.94238
8656.0 0.0001155 8696.35840 8696.35840
8882.0 0.0001126 8693.78027 8693.78027
8918.0 0.0001121 8691.20898 8691.20898
8635.0 0.0001158 8688.64355 8688.64355
8801.0 0.0001136 8686.08398 8686.08398
8717.0 0.0001147 8683.53223 8683.53223
8728.0 0.0001146 8680.98633 8680.98633
8711.0 0.0001148 8678.44727 8678.44727
8700.0 0.0001149 8675.91406 8675.91406
8780.0 0.0001139 8673.38867 8673.38867
8670.0 0.0001153 8670.86914 8670.86914
8634.0 0.0001158 8668.35645 8668.35645
8679.0 0.0001152 8665.85059 8665.85059
8622.0 0.0001160 8663.35254 8663.35254
8819.0 0.0001134 8660.86133 8660.86133
8488.0 0.0001178 8658.37598 8658.37598
8737.0 0.0001145 8655.89746 8655.89746
8652.0 0.0001156 8653.42676 8653.42676
8800.0 0.0001136 8650.96289 8650.96289
8712.0 0.0001148 8648.50684 8648.50684
8740.0 0.0001144 8646.05664 8646.05664
8674.0 0.0001153 8643.61426 8643.61426
8748.0 0.0001143 8641.17871 8641.17871
8751.0 0.0001143 8638.75098 8638.75098
8674.0 0.0001153 8636.33105 8636.33105
8674.0 0.0001153 8633.91699 8633.91699
8610.0 0.0001161 8631.51074 8631.51074
8761.0 0.0001141 8629.11230 8629.11230
8730.0 0.0001145 8626.72070 8626.72070
8719.0 0.0001147 8624.33594 8624.33594
8653.0 0.0001156 8621.95898 8621.95898
8644.0 0.0001157 8619.58984 8619.58984
8514.0 0.0001175 8617.22852 8617.22852
8722.0 0.0001147 8614.87305 8614.87305
8534.0 0.0001172 8612.52637 8612.52637
8780.0 0.0001139 8610.18652 8610.18652
8493.0 0.0001177 8607.85547 8607.85547
8540.0 0.0001171 8605.53027 8605.53027
8702.0 0.0001149 8603.21289 8603.21289
8761.0 0.0001141 8600.90332 8600.90332
8651.0 0.0001156 8598.60156 8598.60156
8791.0 0.0001138 8596.30762 8596.30762
8692.0 0.0001150 8594.02051 8594.02051
8606.0 0.0001162 8591.74121 8591.74121
8681.0 0.0001152 8589.46973 8589.46973
8689.0 0.0001151 8587.20508 8587.20508
8506.0 0.0001176 8584.94824 8584.94824
8612.0 0.0001161 8582.69922 8582.69922
8486.0 0.0001178 8580.45801 8580.45801
8446.0 0.0001184 8578.22461 8578.22461
8532.0 0.0001172 8575.99805 8575.99805
8608.0 0.0001162 8573.77930 8573.77930
8608.0 0.0001162 8571.56836 8571.56836
8452.0 0.0001183 8569.36523 8569.36523
8517.0 0.0001174 8567.16895 8567.16895
8631.0 0.0001159 8564.98145 8564.98145
8491.0 0.0001178 8562.80078 8562.80078
8559.0 0.0001168 8560.62695 8560.62695
8526.0 0.0001173 8558.46191 8558.46191
8403.0 0.0001190 8556.30371 8556.30371
8593.0 0.0001164 8554.15430 8554.15430
8540.0 0.0001171 8552.01074 8552.01074
8442.0 0.0001185 8549.87598 8549.87598
8480.0 0.0001179 8547.74805 8547.74805
8517.0 0.0001174 8545.62793 8545.62793
8510.0 0.0001175 8543.51563 8543.51563
8442.0 0.0001185 8541.41016 8541.41016
8508.0 0.0001175 8539.31250 8539.31250
8372.0 0.0001194 8537.22266 8537.22266
8596.0 0.0001163 8535.13965 8535.13965
8503.0 0.0001176 8533.06445 8533.06445
8672.0 0.0001153 8530.99707 8530.99707
8530.0 0.0001172 8528.93652 8528.93652
8574.0 0.0001166 8526.88379 8526.88379
8553.0 0.0001169 8524.83789 8524.83789
8548.0 0.0001170 8522.79980 8522.79980
8600.0 0.0001163 8520.76953 8520.76953
8473.0 0.0001180 8518.74609 8518.74609
8568.0 0.0001167 8516.73047 8516.73047
8717.0 0.0001147 8514.72168 8514.72168
8520.0 0.0001174 8512.71973 8512.71973
8767.0 0.0001141 8510.72559 8510.72559
8497.0 0.0001177 8508.73926 8508.73926
8437.0 0.0001185 8506.75977 8506.75977
8509.0 0.0001175 8504.78711 8504.78711
8513.0 0.0001175 8502.82227 8502.82227
8485.0 0.0001179 8500.86426 8500.86426
8481.0 0.0001179 8498.91309 8498.91309
8454.0 0.0001183 8496.96973 8496.99707
8480.0 0.0001179 8495.03320 8499.78711
8365.0 0.0001195 8493.10352 8498.03125
8332.0 0.0001200 8491.18066 8496.29199
8445.0 0.0001184 8489.26563 8494.57031
8545.0 0.0001170 8487.35742 8492.86816
8447.0 0.0001184 8485.45605 8491.18457
8432.0 0.0001186 8483.56152 8489.51953
8560.0 0.0001168 8481.67383 8487.87793
8603.0 0.0001162 8479.79297 8486.25684
8300.0 0.0001205 8477.91992 8484.66016
8365.0 0.0001195 8476.05273 8483.08887
8428.0 0.0001187 8474.19238 8481.54297
8447.0 0.0001184 8472.33984 8480.02637
8453.0 0.0001183 8470.49316 8478.54004
8391.0 0.0001192 8468.65332 8477.08691
8383.0 0.0001193 8466.82031 8475.66797
8433.0 0.0001186 8464.99414 8474.28711
8439.0 0.0001185 8463.17480 8472.94824
8425.0 0.0001187 8461.36133 8471.65332
8425.0 0.0001187 8459.55469 8470.40723
8596.0 0.0001163 8457.75488 8469.21484
8284.0 0.0001207 8455.96191 8468.08301
8377.0 0.0001194 8454.17480 8467.01563
8405.0 0.0001190 8452.39453 8466.02051
8399.0 0.0001191 8450.62109 8465.10547
8390.0 0.0001192 8448.85352 8464.28125
8472.0 0.0001180 8447.09180 8463.55762
8452.0 0.0001183 8445.33691 8462.94922
8477.0 0.0001180 8443.58887 8462.47168
8434.0 0.0001186 8441.84668 8462.14355
8223.0 0.0001216 8440.11035 8461.98438
8424.0 0.0001187 8438.38086 8462.02441
8448.0 0.0001184 8436.65723 8462.29297
8311.0 0.0001203 8434.93945 8462.83008
8398.0 0.0001191 8433.22852 8463.68555
8488.0 0.0001178 8431.52344 8464.91797
8501.0 0.0001176 8429.82324 8466.60059
8494.0 0.0001177 8428.13086 8468.83203
8388.0 0.0001192 8426.44336 8471.73340
8503.0 0.0001176 8424.76172 8475.47266
8450.0 0.0001183 8423.08594 8480.29688
8443.0 0.0001184 8421.41602 8492.44434
8558.0 0.0001168 8419.75293 8501.16504
8326.0 0.0001201 8418.09473 8513.60254
8371.0 0.0001195 8416.44238 8532.67285
8677.0 0.0001152 8414.79590 8563.84863
8560.0 0.0001168 8413.15430 8616.67188
8675.0 0.0001153 8411.51953 8706.46191
8929.0 0.0001120 8409.88965 8855.80078
9220.0 0.0001085 8408.26563 9094.86621
9458.0 0.0001057 8406.64648 9458.85449
9803.0 0.0001020 8405.03320 9980.08496
10586.0 0.0000945 8403.42480 10672.36816
11274.0 0.0000887 8401.82227 11507.70508
12198.0 0.0000820 8400.22559 12394.06445
12994.0 0.0000770 8398.63379 13169.47070
13622.0 0.0000734 8397.04785 13629.27832
13751.0 0.0000727 8395.46582 13597.05176
13586.0 0.0000736 8393.88965 13036.68359
12550.0 0.0000797 8392.31934 12115.26465
11679.0 0.0000856 8390.75293 11097.26758
10438.0 0.0000958 8389.19238 10194.07617
9692.0 0.0001032 8387.63672 9510.35742
9188.0 0.0001088 8386.08594 9056.89648
9101.0 0.0001099 8384.54004 8788.07813
8608.0 0.0001162 8382.99902 8641.65723
8567.0 0.0001167 8381.46289 8564.90430
8342.0 0.0001199 8379.93164 8523.37695
8495.0 0.0001177 8378.40527 8498.45313
8308.0 0.0001204 8376.88281 8481.41309
8501.0 0.0001176 8375.36621 8468.54004
8516.0 0.0001174 8373.85352 8458.25000
8432.0 0.0001186 8372.34570 8449.80176
8325.0 0.0001201 8370.84180 8442.76855
8445.0 0.0001184 8369.34277 8436.87500
8309.0 0.0001204 8367.84863 8431.91992
8421.0 0.0001188 8366.35840 8427.75195
8487.0 0.0001178 8364.87305 8424.26660
8354.0 0.0001197 8363.39160 8421.37793
8451.0 0.0001183 8361.91504 8419.03223
8527.0 0.0001173 8360.44238 8417.18555
8411.0 0.0001189 8358.97363 8415.81348
8521.0 0.0001174 8357.50879 8414.90625
8459.0 0.0001182 8356.04883 8414.46387
8440.0 0.0001185 8354.59277 8414.50098
8408.0 0.0001189 8353.14063 8415.04590
8361.0 0.0001196 8351.69141 8416.13574
8610.0 0.0001161 8350.24707 8417.83008
8411.0 0.0001189 8348.80664 8420.20313
8409.0 0.0001189 8347.37012 8423.35742
8450.0 0.0001183 8345.93750 8427.41992
8347.0 0.0001198 8344.50781 8432.55664
8366.0 0.0001195 8343.08203 8438.99121
8296.0 0.0001205 8341.66016 8447.01563
8372.0 0.0001194 8340.24219 8457.04395
8444.0 0.0001184 8338.82715 8469.70898
8360.0 0.0001196 8337.41602 8486.11133
8340.0 0.0001199 8336.00781 8508.34473
8407.0 0.0001189 8334.60254 8541.32422
8480.0 0.0001179 8333.20215 8593.93750
8596.0 0.0001163 8331.80371 8676.79590
8829.0 0.0001133 8330.40918 8816.63574
9118.0 0.0001097 8329.01758 9050.98633
9419.0 0.0001062 8327.62891 9432.01855
10038.0 0.0000996 8326.24316 10022.75293
10684.0 0.0000936 8324.86133 10883.07813
11788.0 0.0000848 8323.48242 12042.28809
12986.0 0.0000770 8322.10547 13456.53613
14628.0 0.0000684 8320.73145 14968.10352
16011.0 0.0000625 8319.36133 16293.45313
16969.0 0.0000589 8317.99316 17067.84375
17357.0 0.0000576 8316.62793 16974.41602
16434.0 0.0000608 8315.26563 15962.53320
15114.0 0.0000662 8313.90527 14355.07422
13189.0 0.0000758 8312.54785 12638.27344
11453.0 0.0000873 8311.19336 11157.78906
10346.0 0.0000967 8309.84082 10066.53320
9341.0 0.0001071 8308.49121 9360.20020
8888.0 0.0001125 8307.14355 8949.39453
8638.0 0.0001158 8305.79785 8727.26563
8626.0 0.0001159 8304.45508 8609.18945
8590.0 0.0001164 8303.11426 8542.69141
8462.0 0.0001182 8301.77539 8500.59277
8370.0 0.0001195 8300.43945 8470.54492
8364.0 0.0001196 8299.10449 8447.27734
8560.0 0.0001168 8297.77246 8428.45215
8439.0 0.0001185 8296.44141 8412.86230
8446.0 0.0001184 8295.11230 8399.76270
8271.0 0.0001209 8293.78613 8388.63574
8377.0 0.0001194 8292.46094 8379.09863
8296.0 0.0001205 8291.13770 8370.86133
8250.0 0.0001212 8289.81543 8363.70215
8411.0 0.0001189 8288.49512 8357.45215
8126.0 0.0001231 8287.17676 8351.97656
8293.0 0.0001206 8285.85938 8347.17676
8265.0 0.0001210 8284.54395 8342.97363
8278.0 0.0001208 8283.22949 8339.31055
8224.0 0.0001216 8281.91699 8336.14941
8376.0 0.0001194 8280.60547 8333.46973
8206.0 0.0001219 8279.29492 8331.26465
8215.0 0.0001217 8277.98535 8329.54980
8219.0 0.0001217 8276.67773 8328.36816
8319.0 0.0001202 8275.37012 8327.80859
8154.0 0.0001226 8274.06445 8328.08008
8248.0 0.0001212 8272.75879 8329.67188
8363.0 0.0001196 8271.45508 8333.76855
8236.0 0.0001214 8270.15137 8342.97852
8354.0 0.0001197 8268.84863 8362.38574
8577.0 0.0001166 8267.54688 8400.27637
8415.0 0.0001188 8266.24609 8467.32031
8568.0 0.0001167 8264.94531 8572.76563
8780.0 0.0001139 8263.64551 8717.60742
9080.0 0.0001101 8262.34570 8887.16992
9106.0 0.0001098 8261.04688 9047.05273
9356.0 0.0001069 8259.74805 9147.54590
9368.0 0.0001067 8258.44922 9146.30957
9426.0 0.0001061 8257.15137 9043.32227
9280.0 0.0001078 8255.85352 8881.66699
9022.0 0.0001108 8254.55566 8711.53027
8917.0 0.0001121 8253.25781 8567.04102
8639.0 0.0001158 8251.96094 8462.50781
8551.0 0.0001169 8250.66309 8396.67871
8489.0 0.0001178 8249.36523 8360.20605
8345.0 0.0001198 8248.06836 8342.48926
8167.0 0.0001224 8246.76953 8335.43555
8264.0 0.0001210 8245.47168 8334.27832
8260.0 0.0001211 8244.17285 8336.85352
8447.0 0.0001184 8242.87500 8334.10156
8520.0 0.0001174 8241.57520 8344.29102
8237.0 0.0001214 8240.27637 8360.52441
8298.0 0.0001205 8238.97559 8386.52637
8312.0 0.0001203 8237.67480 8428.46289
8520.0 0.0001174 8236.37402 8495.69727
8674.0 0.0001153 8235.07227 8601.17969
8716.0 0.0001147 8233.76953 8760.72363
9154.0 0.0001092 8232.46582 8990.17969
9351.0 0.0001069 8231.16113 9299.79297
9569.0 0.0001045 8229.85645 9686.64258
9942.0 0.0001006 8228.54980 10127.79688
10538.0 0.0000949 8227.24316 10575.41797
11033.0 0.0000906 8225.93555 10957.68457
11199.0 0.0000893 8224.62598 11191.22559
11147.0 0.0000897 8223.31543 11204.74902
11120.0 0.0000899 8222.00391 10978.28516
10760.0 0.0000929 8220.69043 10568.77930
10314.0 0.0000970 8219.37695 10078.59766
9587.0 0.0001043 8218.06055 9600.47559
9247.0 0.0001081 8216.74316 9192.31934
8748.0 0.0001143 8215.42480 8877.97363
8615.0 0.0001161 8214.10449 8655.96777
8289.0 0.0001206 8212.78320 8510.06055
8417.0 0.0001188 8211.45996 8419.04199
8208.0 0.0001218 8210.13477 8363.54102
8301.0 0.0001205 8208.80859 8329.12891
8168.0 0.0001224 8207.47949 8306.52930
8170.0 0.0001224 8206.14941 8290.43750
8153.0 0.0001227 8204.81738 8278.05176
8193.0 0.0001221 8203.48242 8267.95996
8145.0 0.0001228 8202.14648 8259.43359
8200.0 0.0001220 8200.80762 8252.06934
8173.0 0.0001224 8199.46777 8245.61035
8366.0 0.0001195 8198.12500 8239.87891
8179.0 0.0001223 8196.78027 8234.74316
8313.0 0.0001203 8195.43359 8230.09863
8131.0 0.0001230 8194.08398 8225.86230
8261.0 0.0001211 8192.73242 8221.97168
8385.0 0.0001193 8191.37842 8218.37109
8250.0 0.0001212 8190.02197 8215.01758
8167.0 0.0001224 8188.66309 8211.87695
8263.0 0.0001210 8187.30127 8208.91699
8213.0 0.0001218 8185.93750 8206.11523
8134.0 0.0001229 8184.57031 8202.68262
8181.0 0.0001222 8183.20117 8200.16309
8059.0 0.0001241 8181.82910 8197.74707
8203.0 0.0001219 8180.45410 8195.42090
8070.0 0.0001239 8179.07617 8193.17480
8259.0 0.0001211 8177.69580 8190.99854
8229.0 0.0001215 8176.31250 8188.88525
8161.0 0.0001225 8174.92578 8186.82666
8013.0 0.0001248 8173.53662 8184.81836
8334.0 0.0001200 8172.14404 8182.85352
8165.0 0.0001225 8170.74854 8180.92773
8129.0 0.0001230 8169.35010 8179.03760
8133.0 0.0001230 8167.94824 8177.17871
8193.0 0.0001221 8166.54346 8175.34863
8338.0 0.0001199 8165.13525 8173.54346
8142.0 0.0001228 8163.72363 8171.76123
8247.0 0.0001213 8162.30908 8170.00000
8150.0 0.0001227 8160.89063 8168.25684
8051.0 0.0001242 8159.46924 8166.53076
8176.0 0.0001223 8158.04443 8164.81982
8095.0 0.0001235 8156.61621 8163.12256
8005.0 0.0001249 8155.18408 8161.43701
8126.0 0.0001231 8153.74902 8159.76318
7953.0 0.0001257 8152.31006 8158.09863
7958.0 0.0001257 8150.86719 8156.44287
8165.0 0.0001225 8149.42139 8154.95068
8090.0 0.0001236 8147.97119 8153.31396
8231.0 0.0001215 8146.51758 8151.68457
8098.0 0.0001235 8145.06055 8150.06104
8151.0 0.0001227 8143.59912 8148.44189
8240.0 0.0001214 8142.13428 8146.82764
8100.0 0.0001235 8140.66553 8145.21777
8044.0 0.0001243 8139.19336 8143.61182
8028.0 0.0001246 8137.71680 8142.00781
8161.0 0.0001225 8136.23633 8140.40625
8173.0 0.0001224 8134.75195 8138.80811
7999.0 0.0001250 8133.26367 8137.21094
8182.0 0.0001222 8131.77148 8135.61572
8095.0 0.0001235 8130.27539 8134.02246
8103.0 0.0001234 8128.77490 8132.42920
8197.0 0.0001220 8127.27051 8130.83643
8016.0 0.0001248 8125.76221 8129.24512
8213.0 0.0001218 8124.24951 8127.65381
8130.0 0.0001230 8122.73291 8126.06250
8169.0 0.0001224 8121.21191 8124.47119
8126.0 0.0001231 8119.68701 8122.87939
8134.0 0.0001229 8118.15723 8121.28760
8129.0 0.0001230 8116.62402 8119.69531
7968.0 0.0001255 8115.08643 8118.10205
8129.0 0.0001230 8113.54443 8116.50879
8231.0 0.0001215 8111.99805 8114.91455
8277.0 0.0001208 8110.44727 8113.31934
8118.0 0.0001232 8108.89258 8111.72363
8069.0 0.0001239 8107.33350 8110.12793
8227.0 0.0001216 8105.77002 8106.23242
8202.0 0.0001219 8104.20215 8104.68896
8433.0 0.0001186 8102.62988 8103.14258
8233.0 0.0001215 8101.05322 8101.59424
8401.0 0.0001190 8099.47217 8100.04346
8504.0 0.0001176 8097.88721 8098.49170
8343.0 0.0001199 8096.29736 8096.93799
8338.0 0.0001199 8094.70313 8095.38330
8434.0 0.0001186 8093.10449 8093.82813
8291.0 0.0001206 8091.50146 8093.09082
8296.0 0.0001205 8089.89404 8091.56494
8124.0 0.0001231 8088.28223 8090.04248
8105.0 0.0001234 8086.66602 8088.52344
8078.0 0.0001238 8085.04492 8087.00879
8026.0 0.0001246 8083.41992 8085.50049
8042.0 0.0001243 8081.79004 8084.00000
8040.0 0.0001244 8080.15625 8082.50830
8069.0 0.0001239 8078.51758 8081.02832
8016.0 0.0001248 8076.87451 8079.56250
8099.0 0.0001235 8075.22705 8078.11426
8086.0 0.0001237 8073.57520 8076.68799
8122.0 0.0001231 8071.91895 8075.28857
8073.0 0.0001239 8070.25830 8073.92285
8039.0 0.0001244 8068.59326 8072.59912
8125.0 0.0001231 8066.92383 8071.32861
7927.0 0.0001262 8065.24951 8070.12646
8103.0 0.0001234 8063.57080 8069.01660
8105.0 0.0001234 8061.88818 8068.03906
8008.0 0.0001249 8060.20117 8067.26660
8182.0 0.0001222 8058.50977 8066.84863
7996.0 0.0001251 8056.81348 8067.07959
7968.0 0.0001255 8055.11328 8068.51074
8144.0 0.0001228 8053.40869 8072.08350
8003.0 0.0001250 8051.69971 8079.23486
8001.0 0.0001250 8049.98633 8091.84766
8233.0 0.0001215 8048.26904 8111.79053
8067.0 0.0001240 8046.54688 8139.90479
8119.0 0.0001232 8044.82080 8174.75195
8143.0 0.0001228 8043.09033 8211.27734
8111.0 0.0001233 8041.35596 8240.56055
8338.0 0.0001199 8039.61719 8252.04297
8120.0 0.0001232 8037.87402 8238.50195
8325.0 0.0001201 8036.12695 8203.45313
7992.0 0.0001251 8034.37549 8159.68750
8118.0 0.0001232 8032.62061 8119.07861
8014.0 0.0001248 8030.86084 8087.67920
8144.0 0.0001228 8029.09766 8066.49805
8055.0 0.0001241 8027.32959 8053.61035
8074.0 0.0001239 8025.55811 8046.22168
8039.0 0.0001244 8023.78271 8041.98926
8026.0 0.0001246 8022.00342 8039.44629
8027.0 0.0001246 8020.21973 8037.85840
8010.0 0.0001248 8018.43262 8036.94287
7805.0 0.0001281 8016.64111 8036.65479
8011.0 0.0001248 8014.84619 8037.12256
7952.0 0.0001258 8013.04736 8038.73730
8089.0 0.0001236 8011.24512 8042.51025
7953.0 0.0001257 8009.43896 8050.86377
8030.0 0.0001245 8007.62891 8068.92578
8163.0 0.0001225 8005.81494 8105.82471
8177.0 0.0001223 8003.99805 8174.42529
8307.0 0.0001204 8002.17725 8287.30957
8544.0 0.0001170 8000.35303 8448.20996
8608.0 0.0001162 7998.52490 8641.65918
8825.0 0.0001133 7996.69385 8826.33203
9009.0 0.0001110 7994.85889 8939.33789
8962.0 0.0001116 7993.02100 8927.20703
8824.0 0.0001133 7991.17969 8794.79785
8787.0 0.0001138 7989.33496 8600.71973
8543.0 0.0001171 7987.48730 8406.13477
8364.0 0.0001196 7985.63623 8248.28027
8115.0 0.0001232 7983.78174 8139.01416
8146.0 0.0001228 7981.92480 8072.47656
8018.0 0.0001247 7980.06445 8035.49316
7950.0 0.0001258 7978.20117 8015.57422
7872.0 0.0001270 7976.33496 8004.23682
7897.0 0.0001266 7974.46582 7996.86914
7878.0 0.0001269 7972.59424 7991.33936
7891.0 0.0001267 7970.71924 7986.75684
7978.0 0.0001253 7968.84180 7982.75098
7843.0 0.0001275 7966.96191 7979.14746
7940.0 0.0001259 7965.07910 7975.84326
7963.0 0.0001256 7963.19385 7972.77246
7901.0 0.0001266 7961.30615 7969.88477
7840.0 0.0001276 7959.41602 7967.14404
7855.0 0.0001273 7957.52344 7964.52246
7827.0 0.0001278 7955.62842 7961.99707
7958.0 0.0001257 7953.73145 7959.55176
7990.0 0.0001252 7951.83203 7957.17236
7979.0 0.0001253 7949.93066 7954.84863
7905.0 0.0001265 7948.02686 7952.57178
7865.0 0.0001271 7946.12109 7950.33350
7955.0 0.0001257 7944.21387 7948.12939
7910.0 0.0001264 7942.30420 7945.95313
8057.0 0.0001241 7940.39307 7943.80273
7877.0 0.0001270 7938.47998 7941.67334
7890.0 0.0001267 7936.56543 7939.56201
7913.0 0.0001264 7934.64893 7937.46680
7975.0 0.0001254 7932.73096 7935.38574
7710.0 0.0001297 7930.81152 7933.31738
7912.0 0.0001264 7928.89063 7950.81885
7971.0 0.0001255 7926.96875 7949.34521
7944.0 0.0001259 7925.04541 7947.90576
7696.0 0.0001299 7923.12061 7946.50049
7858.0 0.0001273 7921.19482 7945.13086
7883.0 0.0001269 7919.26807 7943.79834
7859.0 0.0001272 7917.34033 7942.50391
7990.0 0.0001252 7915.41162 7941.24854
7919.0 0.0001263 7913.48193 7940.03516
7900.0 0.0001266 7911.55176 7938.71191
8034.0 0.0001245 7909.62061 7937.59180
7843.0 0.0001275 7907.68896 7936.52002
8139.0 0.0001229 7905.75684 7935.49951
8145.0 0.0001228 7903.82422 7934.53271
8174.0 0.0001223 7901.89111 7933.62451
8208.0 0.0001218 7899.95801 7932.77783
8261.0 0.0001211 7898.02393 7931.99609
8398.0 0.0001191 7896.09033 7931.28662
8289.0 0.0001206 7894.15674 7930.65234
8350.0 0.0001198 7892.22314 7930.10059
8271.0 0.0001209 7890.28906 7929.63623
8160.0 0.0001225 7888.35547 7929.26807
8203.0 0.0001219 7886.42188 7928.18848
8098.0 0.0001235 7884.48926 7928.06348
7990.0 0.0001252 7882.55664 7928.05811
7688.0 0.0001301 7880.62451 7928.18359
7968.0 0.0001255 7878.69287 7928.72266
7933.0 0.0001261 7876.76270 7929.15918
7925.0 0.0001262 7874.83252 7929.76709
7944.0 0.0001259 7872.90283 7930.56445
7879.0 0.0001269 7870.97461 7931.57178
7892.0 0.0001267 7869.04736 7932.80957
7919.0 0.0001263 7867.12109 7934.30225
7795.0 0.0001283 7865.19580 7936.07861
7914.0 0.0001264 7863.27197 7938.17090
7961.0 0.0001256 7861.34961 7940.61475
7791.0 0.0001284 7859.42871 7943.45361
7793.0 0.0001283 7857.50879 7946.73486
7933.0 0.0001261 7855.59082 7950.51514
7712.0 0.0001297 7853.67480 7954.86035
7835.0 0.0001276 7851.75977 7959.84619
7927.0 0.0001262 7849.84717 7965.56396
7973.0 0.0001254 7847.93652 7972.11914
7914.0 0.0001264 7846.02783 7979.63867
7958.0 0.0001257 7844.12109 7988.27295
8063.0 0.0001240 7842.21680 7998.20508
7880.0 0.0001269 7840.31445 8009.65527
8016.0 0.0001248 7838.41455 8022.89258
7969.0 0.0001255 7836.51758 8038.24951
8024.0 0.0001246 7834.62305 8056.13818
8020.0 0.0001247 7832.73047 8077.07471
8030.0 0.0001245 7830.84131 8101.71631
7864.0 0.0001272 7828.95459 8130.90283
8182.0 0.0001222 7827.07129 8165.72949
8215.0 0.0001217 7825.19043 8207.65039
8140.0 0.0001229 7823.31299 8258.67090
8377.0 0.0001194 7821.43848 8321.75684
8461.0 0.0001182 7819.56738 8401.81250
8831.0 0.0001132 7817.69971 8508.00781
8995.0 0.0001112 7815.83545 8658.88867
9537.0 0.0001049 7813.97461 8892.17285
10289.0 0.0000972 7812.11768 9280.60547
11144.0 0.0000897 7810.26367 9952.21777
12395.0 0.0000807 7808.41406 11105.87305
14002.0 0.0000714 7806.56836 12999.86523
16600.0 0.0000602 7804.72656 15877.79199
19751.0 0.0000506 7802.88867 19811.13086
24249.0 0.0000412 7801.05518 24513.16992
28757.0 0.0000348 7799.22559 29199.52930
31962.0 0.0000313 7797.40088 32618.33398
33707.0 0.0000297 7795.58008 33430.78125
31297.0 0.0000320 7793.76416 31044.12500
27232.0 0.0000367 7791.95215 26379.50977
21186.0 0.0000472 7790.14551 21143.16797
15801.0 0.0000633 7788.34326 16599.52148
12361.0 0.0000809 7786.54590 13274.20020
10182.0 0.0000982 7784.75342 11150.27734
9189.0 0.0001088 7782.96631 9937.68359
8694.0 0.0001150 7781.18408 9300.72656
8426.0 0.0001187 7779.40674 8980.91602
8471.0 0.0001180 7777.63525 8819.04688
8298.0 0.0001205 7775.86865 8726.88574
8413.0 0.0001189 7774.10791 8653.99512
8352.0 0.0001197 7772.35205 8571.37109
8335.0 0.0001200 7770.60205 8471.10449
8082.0 0.0001237 7768.85840 8362.40234
8063.0 0.0001240 7767.11963 8258.72559
8048.0 0.0001243 7765.38721 8169.60840
8021.0 0.0001247 7763.66064 8098.88818
8053.0 0.0001242 7761.93994 8045.62305
7813.0 0.0001280 7760.22559 8006.19824
7886.0 0.0001268 7758.51709 7976.46338
7799.0 0.0001282 7756.81543 7953.03662
7769.0 0.0001287 7755.11963 7933.66162
7844.0 0.0001275 7753.43018 7917.01514
7962.0 0.0001256 7751.74756 7902.35742
7755.0 0.0001289 7750.07129 7889.26270
7709.0 0.0001297 7748.40186 7877.45654
7694.0 0.0001300 7746.73926 7866.74170
7859.0 0.0001272 7745.08350 7856.96436
7762.0 0.0001288 7743.43408 7847.99756
7722.0 0.0001295 7741.79199 7839.73877
7799.0 0.0001282 7740.15723 7832.10010
7715.0 0.0001296 7738.52930 7825.00635
7816.0 0.0001279 7736.90869 7818.39600
7808.0 0.0001281 7735.29492 7812.21387
7680.0 0.0001302 7733.68896 7806.41455
7712.0 0.0001297 7732.09033 7800.95703
7527.0 0.0001329 7730.49902 7795.80762
7688.0 0.0001301 7728.91553 7790.93506
7752.0 0.0001290 7727.33936 7786.31299
7567.0 0.0001322 7725.77100 7781.91846
7664.0 0.0001305 7724.21045 7777.73047
7686.0 0.0001301 7722.65771 7773.72998
7811.0 0.0001280 7721.11328 7769.90332
7762.0 0.0001288 7719.57617 7766.23340
7783.0 0.0001285 7718.04736 7762.70850
7701.0 0.0001299 7716.52686 7759.31738
7794.0 0.0001283 7715.01416 7756.04980
7599.0 0.0001316 7713.51025 7752.89648
7793.0 0.0001283 7712.01416 7749.84912
7836.0 0.0001276 7710.52637 7746.89941
7607.0 0.0001315 7709.04736 7744.04199
7597.0 0.0001316 7707.57666 7741.27002
7723.0 0.0001295 7706.11475 7738.57764
7661.0 0.0001305 7704.66113 7737.08838
7708.0 0.0001297 7703.21631 7734.94238
7617.0 0.0001313 7701.77979 7732.51563
7572.0 0.0001321 7700.35254 7730.15576
7619.0 0.0001313 7698.93408 7727.85742
7694.0 0.0001300 7697.52441 7725.61816
7658.0 0.0001306 7696.12354 7723.43506
7602.0 0.0001315 7694.73193 7721.30566
7678.0 0.0001302 7693.34912 7719.22803
7843.0 0.0001275 7691.97559 7717.20020
7708.0 0.0001297 7690.61133 7715.22070
7749.0 0.0001290 7689.25635 7713.28760
7622.0 0.0001312 7687.91016 7711.39941
7791.0 0.0001284 7686.57373 7709.55664
7662.0 0.0001305 7685.24658 7687.82861
7623.0 0.0001312 7683.92871 7686.63330
7741.0 0.0001292 7682.62012 7685.45703
7601.0 0.0001316 7681.32080 7684.29980
7720.0 0.0001295 7680.03174 7683.16309
7794.0 0.0001283 7678.75195 7682.44189
7639.0 0.0001309 7677.48145 7681.36377
7823.0 0.0001278 7676.22070 7680.31055
7759.0 0.0001289 7674.96973 7679.28467
7832.0 0.0001277 7673.72852 7678.28857
7884.0 0.0001268 7672.49707 7677.32275
7770.0 0.0001287 7671.27588 7676.39160
7645.0 0.0001308 7670.06396 7675.49756
7851.0 0.0001274 7668.86230 7674.64453
7761.0 0.0001288 7667.66992 7673.83545
7853.0 0.0001273 7666.48828 7673.07666
7862.0 0.0001272 7665.31592 7672.37305
7674.0 0.0001303 7664.15430 7671.73193
7831.0 0.0001277 7663.00195 7671.16064
7577.0 0.0001320 7661.86035 7670.67090
7541.0 0.0001326 7660.72803 7670.27148
7582.0 0.0001319 7659.60645 7669.97998
7467.0 0.0001339 7658.49512 7669.81201
7698.0 0.0001299 7657.39355 7669.78906
7694.0 0.0001300 7656.30225 7669.94043
7710.0 0.0001297 7655.22119 7670.29883
7448.0 0.0001343 7654.15039 7670.90918
7813.0 0.0001280 7653.08984 7671.82910
7659.0 0.0001306 7652.03955 7673.13379
7697.0 0.0001299 7650.99951 7674.93115
7516.0 0.0001330 7649.97021 7677.39258
7605.0 0.0001315 7648.95068 7680.83447
7857.0 0.0001273 7647.94141 7685.95117
7615.0 0.0001313 7646.94287 7694.32764
7701.0 0.0001299 7645.95508 7709.45020
7796.0 0.0001283 7644.97705 7738.22119
7997.0 0.0001250 7644.00928 7792.42920
8019.0 0.0001247 7643.05176 7888.64209
8258.0 0.0001211 7642.10547 8044.38916
8600.0 0.0001163 7641.16895 8269.45801
8835.0 0.0001132 7640.24316 8554.25000
9141.0 0.0001094 7639.32764 8860.10254
9151.0 0.0001093 7638.42236 9117.47363
9424.0 0.0001061 7637.52783 9242.93262
9339.0 0.0001071 7636.64355 9186.71973
9142.0 0.0001094 7635.76953 8972.86621
8841.0 0.0001131 7634.90625 8677.17969
8386.0 0.0001192 7634.05322 8377.42773
8223.0 0.0001216 7633.21045 8125.14502
7963.0 0.0001256 7632.37842 7940.97266
7740.0 0.0001292 7631.55615 7821.84082
7765.0 0.0001288 7630.74512 7752.57080
7710.0 0.0001297 7629.94385 7716.29297
7798.0 0.0001282 7629.15332 7700.52979
7686.0 0.0001301 7628.37305 7699.01904
7724.0 0.0001295 7627.60303 7710.94141
7670.0 0.0001304 7626.84375 7738.86426
7834.0 0.0001276 7626.09424 7785.76953
8013.0 0.0001248 7625.35498 7851.42529
8033.0 0.0001245 7624.62646 7929.00391
8089.0 0.0001236 7623.90820 8003.31348
8418.0 0.0001188 7623.20020 8052.27246
8276.0 0.0001208 7622.50244 8055.75195
8117.0 0.0001232 7621.81445 8011.09863
7849.0 0.0001274 7621.13721 7935.76855
7697.0 0.0001299 7620.46973 7852.51709
7677.0 0.0001303 7619.81299 7778.22705
7727.0 0.0001294 7619.16553 7721.27783
7605.0 0.0001315 7618.52881 7682.70361
7642.0 0.0001309 7617.90186 7659.05078
7522.0 0.0001329 7617.28516 7645.46973
7544.0 0.0001326 7616.67822 7637.77002
7615.0 0.0001313 7616.08154 7633.14648
7508.0 0.0001332 7615.49512 7630.03516
7653.0 0.0001307 7614.91797 7627.67285
7661.0 0.0001305 7614.35107 7625.72266
7619.0 0.0001313 7613.79395 7624.03467
7685.0 0.0001301 7613.24658 7622.53711
7481.0 0.0001337 7612.70898 7621.18701
7683.0 0.0001302 7612.18115 7619.95801
7558.0 0.0001323 7611.66309 7618.82910
7702.0 0.0001298 7611.15430 7617.78467
7676.0 0.0001303 7610.65527 7616.81250
7682.0 0.0001302 7610.16650 7615.90283
7841.0 0.0001275 7609.68652 7615.05469
7604.0 0.0001315 7609.21631 7614.24756
7645.0 0.0001308 7608.75537 7613.48193
7691.0 0.0001300 7608.30420 7612.75439
7714.0 0.0001296 7607.86182 7612.06152
7612.0 0.0001314 7607.42920 7611.40039
7727.0 0.0001294 7607.00586 7610.76709
7530.0 0.0001328 7606.59131 7610.16016
7635.0 0.0001310 7606.18604 7609.57813
7708.0 0.0001297 7605.79004 7609.01807
7570.0 0.0001321 7605.40283 7608.47949
7583.0 0.0001319 7605.02539 7607.96143
7626.0 0.0001311 7604.65576 7607.46191
7612.0 0.0001314 7604.29590 7606.98047
7560.0 0.0001323 7603.94434 7606.51563
7532.0 0.0001328 7603.60156 7606.06641
7633.0 0.0001310 7603.26758 7604.51074
7587.0 0.0001318 7602.94238 7603.76904
7695.0 0.0001300 7602.62549 7603.41309
7611.0 0.0001314 7602.31738 7603.06982
7527.0 0.0001329 7602.01758 7602.73682
7813.0 0.0001280 7601.72656 7602.41553
7729.0 0.0001294 7601.44336 7602.10400
7569.0 0.0001321 7601.16846 7601.80273
7681.0 0.0001302 7600.90186 7601.51172
7547.0 0.0001325 7600.64355 7601.23047
7601.0 0.0001316 7600.39307 7600.95850
7653.0 0.0001307 7600.15039 7600.69678
7704.0 0.0001298 7599.91602 7600.44385
7741.0 0.0001292 7599.68896 7600.20020
7480.0 0.0001337 7599.47021 7599.96582
7542.0 0.0001326 7599.25928 7599.74121
7579.0 0.0001319 7599.05566 7599.52441
7459.0 0.0001341 7598.85938 7599.31641
7613.0 0.0001314 7598.67090 7598.72119
7586.0 0.0001318 7598.48975 7598.54443
7687.0 0.0001301 7598.31592 7598.37549
7601.0 0.0001316 7598.14941 7598.21533
7559.0 0.0001323 7597.98975 7598.06250
7685.0 0.0001301 7597.83740 7597.91797
7537.0 0.0001327 7597.69189 7597.78174
7609.0 0.0001314 7597.55371 7597.65430
7625.0 0.0001311 7597.42236 7597.53613
7646.0 0.0001308 7597.29736 7597.42676
7770.0 0.0001287 7597.17920 7597.32813
7877.0 0.0001270 7597.06787 7597.24219
7694.0 0.0001300 7596.96289 7597.17188
7815.0 0.0001280 7596.86426 7597.12744
7837.0 0.0001276 7596.77246 7597.12988
7892.0 0.0001267 7596.68652 7597.21875
7788.0 0.0001284 7596.60645 7597.46191
7757.0 0.0001289 7596.53320 7597.95605
7823.0 0.0001278 7596.46533 7598.79639
7572.0 0.0001321 7596.40332 7600.03271
7507.0 0.0001332 7596.34766 7601.60254
7576.0 0.0001320 7596.29736 7603.27637
7699.0 0.0001299 7596.25293 7604.65820
7616.0 0.0001313 7596.21387 7605.27051
7642.0 0.0001309 7596.18018 7604.83887
7724.0 0.0001295 7596.15234 7603.53467
7580.0 0.0001319 7596.12939 7601.81738
7520.0 0.0001330 7596.11133 7600.12012
7667.0 0.0001304 7596.09912 7598.71582
7840.0 0.0001276 7596.09131 7597.70361
7674.0 0.0001303 7596.08838 7597.05713
7443.0 0.0001344 7596.09082 7596.68506
7626.0 0.0001311 7596.09766 7596.48828
7644.0 0.0001308 7596.10889 7596.39014
7569.0 0.0001321 7596.12500 7596.38281
7721.0 0.0001295 7596.14551 7596.36621
7824.0 0.0001278 7596.16992 7596.36523
7659.0 0.0001306 7596.19922 7596.37500
7638.0 0.0001309 7596.23242 7596.39307
7686.0 0.0001301 7596.26953 7596.41797
7679.0 0.0001302 7596.31055 7596.44971
7554.0 0.0001324 7596.35547 7596.48682
7635.0 0.0001310 7596.40430 7596.52930
7639.0 0.0001309 7596.45654 7596.57666
7597.0 0.0001316 7596.51221 7596.62842
7582.0 0.0001319 7596.57178 7596.68506
7404.0 0.0001351 7596.63428 7605.10352
7594.0 0.0001317 7596.70020 7605.41406
7729.0 0.0001294 7596.76953 7605.74023
7597.0 0.0001316 7596.84180 7606.08105
7543.0 0.0001326 7596.91650 7606.47900
7613.0 0.0001314 7596.99463 7606.85449
7619.0 0.0001313 7597.07520 7607.24707
7547.0 0.0001325 7597.15869 7607.65820
7703.0 0.0001298 7597.24414 7608.08740
7609.0 0.0001314 7597.33252 7608.53760
7559.0 0.0001323 7597.42334 7609.00830
7570.0 0.0001321 7597.51611 7609.50195
7718.0 0.0001296 7597.61133 7610.01953
7639.0 0.0001309 7597.70801 7610.56104
7561.0 0.0001323 7597.80713 7611.13037
7736.0 0.0001293 7597.90820 7611.72852
7697.0 0.0001299 7598.01025 7612.35547
7732.0 0.0001293 7598.11475 7613.01611
7617.0 0.0001313 7598.22021 7613.71045
7638.0 0.0001309 7598.32715 7614.44385
7562.0 0.0001322 7598.43555 7615.21680
7684.0 0.0001301 7598.54492 7616.03369
7540.0 0.0001326 7598.65576 7616.89893
7564.0 0.0001322 7598.76758 7617.81494
7589.0 0.0001318 7598.88037 7618.78711
7718.0 0.0001296 7598.99365 7619.82031
7658.0 0.0001306 7599.10791 7620.92090
7677.0 0.0001303 7599.22217 7622.09521
7546.0 0.0001325 7599.33740 7623.35254
7610.0 0.0001314 7599.45313 7624.69873
7706.0 0.0001298 7599.56934 7626.14697
7439.0 0.0001344 7599.68506 7627.70605
7635.0 0.0001310 7599.80127 7629.39551
7677.0 0.0001303 7599.91748 7631.23340
7540.0 0.0001326 7600.03320 7634.30518
7635.0 0.0001310 7600.14941 7636.59473
7560.0 0.0001323 7600.26465 7639.23975
7572.0 0.0001321 7600.37988 7642.44580
7439.0 0.0001344 7600.49414 7646.54004
7666.0 0.0001304 7600.60840 7651.96729
7544.0 0.0001326 7600.72168 7659.17773
7583.0 0.0001319 7600.83398 7668.41650
7691.0 0.0001300 7600.94531 7679.44141
7686.0 0.0001301 7601.05566 7691.31250
7716.0 0.0001296 7601.16504 7702.37012
7733.0 0.0001293 7601.27295 7710.63379
7743.0 0.0001291 7601.37988 7714.99072
7783.0 0.0001285 7601.48535 7716.27588
7813.0 0.0001280 7601.58936 7716.61963
7937.0 0.0001260 7601.69141 7718.10596
7739.0 0.0001292 7601.79199 7722.19580
7819.0 0.0001279 7601.89063 7729.69531
7663.0 0.0001305 7601.98730 7740.98486
7663.0 0.0001305 7602.08203 7756.37744
7672.0 0.0001303 7602.17480 7776.39063
7659.0 0.0001306 7602.26563 7802.08936
7549.0 0.0001325 7602.35352 7835.19482
7809.0 0.0001281 7602.43945 7878.46143
7855.0 0.0001273 7602.52295 7936.75879
7986.0 0.0001252 7602.60352 8019.69336
8083.0 0.0001237 7602.68213 8146.59033
8413.0 0.0001189 7602.75732 8353.80957
8714.0 0.0001148 7602.83008 8702.16211
9335.0 0.0001071 7602.89941 9277.09766
9984.0 0.0001002 7602.96631 10170.41406
11231.0 0.0000890 7603.02979 11437.16992
12584.0 0.0000795 7603.08984 13033.48242
14222.0 0.0000703 7603.14697 14762.58203
15723.0 0.0000636 7603.20068 16268.49023
16726.0 0.0000598 7603.25049 17097.19727
17056.0 0.0000586 7603.29736 16897.23633
15827.0 0.0000632 7603.33984 15711.43945
14235.0 0.0000702 7603.37939 13982.57324
12384.0 0.0000807 7603.41455 12207.85449
10656.0 0.0000938 7603.44580 10704.28223
9395.0 0.0001064 7603.47363 9594.30859
8696.0 0.0001150 7603.49658 8861.89648
8292.0 0.0001206 7603.51611 8419.86133
7950.0 0.0001258 7603.53076 8167.64063
7904.0 0.0001265 7603.54150 8024.69727
7833.0 0.0001277 7603.54785 7939.33691
7854.0 0.0001273 7603.54980 7883.32861
7702.0 0.0001298 7603.54688 7842.91455
7694.0 0.0001300 7603.53955 7811.73438
7589.0 0.0001318 7603.52734 7786.73828
7645.0 0.0001308 7603.51025 7766.27588
7511.0 0.0001331 7603.48828 7749.31348
7554.0 0.0001324 7603.46143 7735.12451
7777.0 0.0001286 7603.42969 7736.57959
7569.0 0.0001321 7603.39258 7726.94238
7719.0 0.0001296 7603.35010 7718.85254
7594.0 0.0001317 7603.30273 7712.06836
7663.0 0.0001305 7603.25000 7706.40430
7744.0 0.0001291 7603.19189 7701.71484
7555.0 0.0001324 7603.12842 7697.89111
7595.0 0.0001317 7603.05908 7694.85010
7427.0 0.0001346 7602.98438 7692.53613
7611.0 0.0001314 7602.90381 7690.91406
7643.0 0.0001308 7602.81738 7689.98047
7611.0 0.0001314 7602.72559 7689.77100
7664.0 0.0001305 7602.62744 7690.38672
7504.0 0.0001333 7602.52344 7692.05078
7533.0 0.0001327 7602.41357 7695.15332
7708.0 0.0001297 7602.29785 7700.52881
7490.0 0.0001335 7602.17578 7709.37451
7827.0 0.0001278 7602.04736 7723.55371
7731.0 0.0001293 7601.91260 7745.64941
7649.0 0.0001307 7601.77148 7778.95117
7764.0 0.0001288 7601.62451 7827.25342
7793.0 0.0001283 7601.47070 7894.36230
7931.0 0.0001261 7601.31055 7983.36279
7930.0 0.0001261 7601.14355 8095.76465
8009.0 0.0001249 7600.97021 8230.16992
8213.0 0.0001218 7600.79004 8380.33984
8633.0 0.0001158 7600.60303 8533.86914
8649.0 0.0001156 7600.40967 8672.53125
8861.0 0.0001129 7600.20898 8774.85938
8737.0 0.0001145 7600.00195 8821.10840
8897.0 0.0001124 7599.78760 8800.26367
8952.0 0.0001117 7599.56641 8716.35156
8559.0 0.0001168 7599.33789 8587.41504
8502.0 0.0001176 7599.10254 8436.92383
8354.0 0.0001197 7598.86035 8285.85645
8156.0 0.0001226 7598.61035 8149.37988
8061.0 0.0001241 7598.35352 8036.42188
7770.0 0.0001287 7598.08936 7950.37207
7780.0 0.0001285 7597.81836 7890.43213
7755.0 0.0001289 7597.53955 7853.29346
7859.0 0.0001272 7597.25342 7834.82227
7908.0 0.0001265 7596.95947 7831.53027
7792.0 0.0001283 7596.65869 7841.84961
7926.0 0.0001262 7596.35010 7867.56543
8102.0 0.0001234 7596.03369 7915.91260
8117.0 0.0001232 7595.71045 8002.78760
8429.0 0.0001186 7595.37891 8157.11230
8772.0 0.0001140 7595.04004 8425.34863
9159.0 0.0001092 7594.69385 8873.70215
10022.0 0.0000998 7594.33936 9584.05859
11076.0 0.0000903 7593.97754 10639.51563
12394.0 0.0000807 7593.60742 12089.40234
13933.0 0.0000718 7593.22998 13947.02539
15993.0 0.0000625 7592.84473 16105.32813
18081.0 0.0000553 7592.45117 18352.78711
20335.0 0.0000492 7592.05029 20377.96875
21873.0 0.0000457 7591.64111 21822.41016
22830.0 0.0000438 7591.22412 22375.34961
22163.0 0.0000451 7590.79932 21894.59180
20670.0 0.0000484 7590.36621 20485.68555
18503.0 0.0000540 7589.92529 18456.23633
16237.0 0.0000616 7589.47656 16180.49707
13772.0 0.0000726 7589.01953 13984.69824
12102.0 0.0000826 7588.55469 12091.08301
10742.0 0.0000931 7588.08154 10605.36035
9747.0 0.0001026 7587.60059 9533.68750
9181.0 0.0001089 7587.11133 8817.02441
8625.0 0.0001159 7586.61377 8368.48730
8207.0 0.0001218 7586.10840 8102.21143
7967.0 0.0001255 7585.59473 7949.08496
7914.0 0.0001264 7585.07324 7861.00049
7761.0 0.0001288 7584.54346 7808.14502
7640.0 0.0001309 7584.00537 7773.75146
7564.0 0.0001322 7583.45898 7749.11230
7696.0 0.0001299 7582.90479 7729.95020
7624.0 0.0001312 7582.34229 7714.20215
7661.0 0.0001305 7581.77148 7700.83691
7606.0 0.0001315 7581.19238 7689.28369
7448.0 0.0001343 7580.60547 7679.18262
7440.0 0.0001344 7580.00977 7670.29785
7701.0 0.0001299 7579.40674 7662.39209
7646.0 0.0001308 7578.79492 7655.32813
7633.0 0.0001310 7578.17480 7648.97998
7609.0 0.0001314 7577.54688 7643.24463
7576.0 0.0001320 7576.91016 7638.03516
7695.0 0.0001300 7576.26611 7633.27979
7779.0 0.0001286 7575.61328 7630.81152
7759.0 0.0001289 7574.95264 7626.85010
7667.0 0.0001304 7574.28369 7623.21191
7583.0 0.0001319 7573.60645 7619.82031
7625.0 0.0001311 7572.92090 7616.66309
7517.0 0.0001330 7572.22754 7613.71484
7468.0 0.0001339 7571.52588 7610.95166
7504.0 0.0001333 7570.81641 7608.35498
7619.0 0.0001313 7570.09863 7605.90576
7603.0 0.0001315 7569.37256 7603.58887
7624.0 0.0001312 7568.63867 7601.39258
7435.0 0.0001345 7567.89697 7599.30371
7529.0 0.0001328 7567.14697 7597.31250
7506.0 0.0001332 7566.38867 7595.41113
7549.0 0.0001325 7565.62256 7593.59033
7611.0 0.0001314 7564.84863 7591.84473
7530.0 0.0001328 7564.06689 7590.16650
7456.0 0.0001341 7563.27686 7588.55029
7445.0 0.0001343 7562.47900 7586.99316
7513.0 0.0001331 7561.67334 7585.49023
7619.0 0.0001313 7560.85938 7584.03711
7601.0 0.0001316 7560.03809 7582.63135
7685.0 0.0001301 7559.20898 7581.27100
7744.0 0.0001291 7558.37158 7579.95215
7845.0 0.0001275 7557.52686 7578.67480
7962.0 0.0001256 7556.67432 7577.43506
7927.0 0.0001262 7555.81396 7575.16162
7992.0 0.0001251 7554.94629 7574.02393
7881.0 0.0001269 7554.07080 7559.51660
7764.0 0.0001288 7553.18750 7558.90576
7759.0 0.0001289 7552.29688 7558.30811
7736.0 0.0001293 7551.39844 7557.72607
7649.0 0.0001307 7550.49268 7557.16357
7454.0 0.0001342 7549.57959 7556.62109
7534.0 0.0001327 7548.65869 7556.10254
7727.0 0.0001294 7547.73047 7555.61328
7434.0 0.0001345 7546.79541 7555.15576
7415.0 0.0001349 7545.85254 7554.73535
7523.0 0.0001329 7544.90234 7554.35840
7442.0 0.0001344 7543.94482 7554.03125
7523.0 0.0001329 7542.98047 7553.76318
7499.0 0.0001334 7542.00879 7553.56152
7597.0 0.0001316 7541.02979 7553.43945
7308.0 0.0001368 7540.04395 7553.40820
7483.0 0.0001336 7539.05127 7553.48584
7560.0 0.0001323 7538.05176 7553.69189
7503.0 0.0001333 7537.04492 7554.05078
7419.0 0.0001348 7536.03125 7554.59814
7530.0 0.0001328 7535.01074 7555.38623
7281.0 0.0001373 7533.98340 7556.49609
7502.0 0.0001333 7532.94922 7558.06348
7562.0 0.0001322 7531.90820 7560.29541
7407.0 0.0001350 7530.86133 7563.49707
7463.0 0.0001340 7529.80713 7568.04932
7651.0 0.0001307 7528.74658 7574.38574
7383.0 0.0001354 7527.67969 7582.94971
7583.0 0.0001319 7526.60596 7594.26172
7578.0 0.0001320 7525.52637 7609.21436
7592.0 0.0001317 7524.43994 7629.72363
7634.0 0.0001310 7523.34766 7659.99219
7731.0 0.0001293 7522.24902 7708.15771
7852.0 0.0001274 7521.14453 7787.09229
7951.0 0.0001258 7520.03320 7913.36133
8111.0 0.0001233 7518.91650 8104.08008
8431.0 0.0001186 7517.79346 8371.27148
8716.0 0.0001147 7516.66455 8713.84863
9058.0 0.0001104 7515.52979 9109.14063
9475.0 0.0001055 7514.38916 9508.52441
9806.0 0.0001020 7513.24268 9841.57422
10099.0 0.0000990 7512.09082 10031.32422
10127.0 0.0000987 7510.93311 10022.51855
10066.0 0.0000993 7509.77002 9813.53516
9560.0 0.0001046 7508.60156 9460.68750
9206.0 0.0001086 7507.42725 9045.54102
8734.0 0.0001145 7506.24756 8640.41699
8210.0 0.0001218 7505.06250 8293.17773
8003.0 0.0001250 7503.87256 8025.30176
7709.0 0.0001297 7502.67725 7836.70020
7669.0 0.0001304 7501.47705 7714.01416
7571.0 0.0001321 7500.27148 7639.09961
7503.0 0.0001333 7499.06104 7595.10596
7575.0 0.0001320 7497.84570 7569.33008
7555.0 0.0001324 7496.62549 7553.52979
7578.0 0.0001320 7495.39990 7542.96631
7496.0 0.0001334 7494.17041 7535.16309
7418.0 0.0001348 7492.93604 7528.90576
7418.0 0.0001348 7491.69727 7523.61279
7392.0 0.0001353 7490.45361 7518.99268
7392.0 0.0001353 7489.20557 7514.88086
7449.0 0.0001342 7487.95313 7511.17383
7517.0 0.0001330 7486.69629 7507.79492
7464.0 0.0001340 7485.43555 7504.68799
7310.0 0.0001368 7484.17041 7501.80664
7253.0 0.0001379 7482.90137 7499.11523
7480.0 0.0001337 7481.62842 7496.58350
7348.0 0.0001361 7480.35156 7494.18848
7482.0 0.0001337 7479.07031 7491.90869
7632.0 0.0001310 7477.78564 7489.72949
7513.0 0.0001331 7476.49707 7487.63623
7417.0 0.0001348 7475.20459 7485.61768
7494.0 0.0001334 7473.90869 7483.66309
7562.0 0.0001322 7472.60938 7481.76611
7516.0 0.0001330 7471.30713 7479.91895
7477.0 0.0001337 7470.00098 7478.11523
7218.0 0.0001385 7468.69141 7476.34961
7394.0 0.0001352 7467.37891 7474.61865
7367.0 0.0001357 7466.06299 7472.91699
7461.0 0.0001340 7464.74414 7471.24316
7369.0 0.0001357 7463.42236 7469.59229
7514.0 0.0001331 7462.09766 7467.96338
7438.0 0.0001344 7460.77051 7466.35352
7547.0 0.0001325 7459.43994 7464.76025
7494.0 0.0001334 7458.10693 7463.18359
7503.0 0.0001333 7456.77100 7461.61914
7311.0 0.0001368 7455.43311 7460.06787
7495.0 0.0001334 7454.09229 7458.52832
7384.0 0.0001354 7452.74902 7456.99756
7435.0 0.0001345 7451.40381 7455.47754
7480.0 0.0001337 7450.05615 7453.96484
7483.0 0.0001336 7448.70654 7452.46045
7347.0 0.0001361 7447.35449 7450.96289
7302.0 0.0001369 7446.00049 7449.47119
7557.0 0.0001323 7444.64453 7447.98584
7449.0 0.0001342 7443.28711 7446.50537
7320.0 0.0001366 7441.92773 7445.03027
7518.0 0.0001330 7440.56641 7443.55859
7307.0 0.0001369 7439.20361 7442.09180
7320.0 0.0001366 7437.83936 7440.62793
7449.0 0.0001342 7436.47363 7439.16895
7467.0 0.0001339 7435.10645 7437.71240
7379.0 0.0001355 7433.73779 7436.25928
7281.0 0.0001373 7432.36768 7434.80859
7359.0 0.0001359 7430.99658 7433.33789
7515.0 0.0001331 7429.62451 7431.89307
7341.0 0.0001362 7428.25146 7430.45068
7405.0 0.0001350 7426.87744 7429.01025
7440.0 0.0001344 7425.50244 7427.57227
7463.0 0.0001340 7424.12695 7426.13574
7417.0 0.0001348 7422.75049 7424.70166
7616.0 0.0001313 7421.37305 7421.37305
7463.0 0.0001340 7419.99561 7419.99561
7436.0 0.0001345 7418.61719 7418.61719
7589.0 0.0001318 7417.23828 7417.23828
7459.0 0.0001341 7415.85938 7415.85938
7419.0 0.0001348 7414.48047 7414.48047
7280.0 0.0001374 7413.10107 7413.10107
7442.0 0.0001344 7411.72168 7411.72168
7389.0 0.0001353 7410.34180 7410.34180
7499.0 0.0001334 7408.96191 7408.96191
7501.0 0.0001333 7407.58252 7407.58252
7315.0 0.0001367 7406.20313 7406.20313
7696.0 0.0001299 7404.82422 7404.82422
7433.0 0.0001345 7403.44531 7403.44531
7452.0 0.0001342 7402.06689 7402.07080
7349.0 0.0001361 7400.68896 7400.69287
7399.0 0.0001352 7399.31152 7399.31543
7376.0 0.0001356 7397.93457 7397.93896
7432.0 0.0001346 7396.55859 7396.56299
7524.0 0.0001329 7395.18311 7395.18750
7543.0 0.0001326 7393.80859 7393.81299
7520.0 0.0001330 7392.43506 7392.43994
7560.0 0.0001323 7391.06201 7391.06689
7523.0 0.0001329 7389.69043 7389.69531
7395.0 0.0001352 7388.31982 7388.32520
7325.0 0.0001365 7386.95020 7386.95557
7368.0 0.0001357 7385.58203 7385.58740
7315.0 0.0001367 7384.21484 7384.22070
7444.0 0.0001343 7382.84912 7382.85498
7414.0 0.0001349 7381.48486 7381.49121
7515.0 0.0001331 7380.12256 7380.12891
7350.0 0.0001361 7378.76123 7378.76807
7370.0 0.0001357 7377.40186 7377.40869
7522.0 0.0001329 7376.04395 7376.05127
7312.0 0.0001368 7374.68799 7374.69580
7326.0 0.0001365 7373.33350 7373.34131
7406.0 0.0001350 7371.98145 7371.98975
7386.0 0.0001354 7370.63086 7370.63965
7460.0 0.0001340 7369.28271 7369.29150
7326.0 0.0001365 7367.93652 7367.94580
7350.0 0.0001361 7366.59229 7366.60205
7451.0 0.0001342 7365.25049 7365.26074
7518.0 0.0001330 7363.91064 7363.92139
7443.0 0.0001344 7362.57324 7362.58447
7434.0 0.0001345 7361.23828 7361.25000
7355.0 0.0001360 7359.90576 7359.91846
7519.0 0.0001330 7358.57617 7358.58936
7402.0 0.0001351 7357.24854 7357.26270
7442.0 0.0001344 7355.92383 7355.93848
7418.0 0.0001348 7354.60156 7354.61719
7392.0 0.0001353 7353.28223 7353.29883
7322.0 0.0001366 7351.96533 7351.98291
7383.0 0.0001354 7350.65186 7350.67041
7326.0 0.0001365 7349.34082 7349.36084
7173.0 0.0001394 7348.03320 7348.05469
7367.0 0.0001357 7346.72852 7346.75146
7343.0 0.0001362 7345.42676 7345.45117
7320.0 0.0001366 7344.12793 7344.15430
7440.0 0.0001344 7342.83252 7342.86133
7390.0 0.0001353 7341.54004 7341.57080
7369.0 0.0001357 7340.25146 7340.28516
7491.0 0.0001335 7338.96582 7339.00244
7449.0 0.0001342 7337.68359 7337.72363
7350.0 0.0001361 7336.40479 7336.44873
7449.0 0.0001342 7335.12988 7335.81836
7534.0 0.0001327 7333.85791 7334.57080
7544.0 0.0001326 7332.58984 7333.32813
7503.0 0.0001333 7331.32520 7332.09131
7521.0 0.0001330 7330.06445 7330.86035
7447.0 0.0001343 7328.80713 7329.63623
7597.0 0.0001316 7327.55371 7328.41992
7441.0 0.0001344 7326.30469 7327.21338
7685.0 0.0001301 7325.05908 7326.02100
7508.0 0.0001332 7323.81738 7324.85107
7465.0 0.0001340 7322.57910 7323.72021
7508.0 0.0001332 7321.34570 7322.66016
7328.0 0.0001365 7320.11572 7321.71387
7449.0 0.0001342 7318.89014 7320.93506
7171.0 0.0001395 7317.66846 7320.36670
7355.0 0.0001360 7316.45068 7320.01660
7431.0 0.0001346 7315.23779 7319.82422
7368.0 0.0001357 7314.02881 7319.64502
7375.0 0.0001356 7312.82422 7319.25635
7383.0 0.0001354 7311.62354 7318.41602
7305.0 0.0001369 7310.42725 7317.00195
7463.0 0.0001340 7309.23584 7315.11914
7309.0 0.0001368 7308.04834 7313.03467
7440.0 0.0001344 7306.86523 7310.92188
7256.0 0.0001378 7305.68750 7308.96143
7101.0 0.0001408 7304.51318 7307.21729
7332.0 0.0001364 7303.34424 7305.72314
7488.0 0.0001335 7302.17920 7304.52832
7249.0 0.0001380 7301.01904 7303.30664
7335.0 0.0001363 7299.86377 7302.16309
7403.0 0.0001351 7298.71289 7301.69043
7287.0 0.0001372 7297.56689 7300.64453
7392.0 0.0001353 7296.42529 7299.62158
7352.0 0.0001360 7295.28857 7298.61816
7425.0 0.0001347 7294.15674 7297.63477
7246.0 0.0001380 7293.02979 7296.67090
7390.0 0.0001353 7291.90771 7295.72656
7446.0 0.0001343 7290.79004 7294.80420
7321.0 0.0001366 7289.67773 7293.90479
7192.0 0.0001390 7288.56982 7293.03027
7413.0 0.0001349 7287.46729 7292.34766
7219.0 0.0001385 7286.36963 7291.53613
7236.0 0.0001382 7285.27686 7290.75830
7331.0 0.0001364 7284.18896 7290.01855
7208.0 0.0001387 7283.10645 7289.32080
7246.0 0.0001380 7282.02881 7288.67188
7312.0 0.0001368 7280.95605 7288.07666
7341.0 0.0001362 7279.88818 7287.54443
7232.0 0.0001383 7278.82568 7287.08594
7383.0 0.0001354 7277.76807 7286.71484
7343.0 0.0001362 7276.71582 7286.45068
7278.0 0.0001374 7275.66846 7286.32520
7390.0 0.0001353 7274.62646 7286.39502
7342.0 0.0001362 7273.58936 7286.76758
7315.0 0.0001367 7272.55762 7287.64453
7370.0 0.0001357 7271.53076 7289.40771
7538.0 0.0001327 7270.50928 7292.74170
7531.0 0.0001328 7269.49316 7298.79785
7306.0 0.0001369 7268.48193 7309.38330
7166.0 0.0001395 7267.47607 7327.08447
7418.0 0.0001348 7266.47510 7355.24707
7548.0 0.0001325 7265.47998 7397.64258
7378.0 0.0001355 7264.48975 7457.74365
7561.0 0.0001323 7263.50439 7537.60547
7691.0 0.0001300 7262.52490 7636.53857
7979.0 0.0001253 7261.55029 7749.93262
7814.0 0.0001280 7260.58105 7868.66455
8117.0 0.0001232 7259.61670 7979.48242
8193.0 0.0001221 7258.65820 8066.65869
8251.0 0.0001212 7257.70459 8115.18359
8268.0 0.0001209 7256.75635 8122.80420
8181.0 0.0001222 7255.81299 8074.69336
8224.0 0.0001216 7254.87500 7987.80566
7949.0 0.0001258 7253.94238 7877.74805
7785.0 0.0001285 7253.01514 7760.84033
7766.0 0.0001288 7252.09326 7650.57422
7641.0 0.0001309 7251.17627 7555.84082
7725.0 0.0001294 7250.26465 7480.47119
7374.0 0.0001356 7249.35840 7423.85938
7446.0 0.0001343 7248.45703 7382.53418
7497.0 0.0001334 7247.56104 7352.43701
7490.0 0.0001335 7246.67041 7330.58887
7347.0 0.0001361 7245.78467 7315.13428
7298.0 0.0001370 7244.90430 7304.93311
7202.0 0.0001389 7244.02930 7299.12598
7265.0 0.0001376 7243.15918 7297.52148
7288.0 0.0001372 7242.29395 7300.53564
7259.0 0.0001378 7241.43457 7309.60938
7442.0 0.0001344 7240.57959 7327.57764
7306.0 0.0001369 7239.73047 7358.84473
7416.0 0.0001348 7238.88574 7408.97021
7260.0 0.0001377 7238.04688 7483.43896
7483.0 0.0001336 7237.21240 7585.51514
7536.0 0.0001327 7236.38330 7713.67627
7816.0 0.0001279 7235.55908 7859.44385
7696.0 0.0001299 7234.74023 8006.56787
7883.0 0.0001269 7233.92578 8132.99121
7924.0 0.0001262 7233.11670 8217.28418
8037.0 0.0001244 7232.31299 8246.74707
8088.0 0.0001236 7231.51367 8219.90918
7968.0 0.0001255 7230.71973 8144.67236
7980.0 0.0001253 7229.93018 8036.37549
7732.0 0.0001293 7229.14600 7914.12256
7684.0 0.0001301 7228.36621 7796.05859
7585.0 0.0001318 7227.59180 7696.26563
7508.0 0.0001332 7226.82178 7623.33301
7347.0 0.0001361 7226.05664 7579.65674
7378.0 0.0001355 7225.29688 7561.25293
7397.0 0.0001352 7224.54102 7558.43750
7358.0 0.0001359 7223.79053 7557.73242
7372.0 0.0001356 7223.04443 7546.25977
7412.0 0.0001349 7222.30273 7518.48633
7295.0 0.0001371 7221.56641 7478.44531
7317.0 0.0001367 7220.83398 7434.75537
7258.0 0.0001378 7220.10645 7394.47510
7183.0 0.0001392 7219.38379 7362.54053
7287.0 0.0001372 7218.66553 7340.62549
7277.0 0.0001374 7217.95166 7328.06738
7344.0 0.0001362 7217.24219 7322.99121
7272.0 0.0001375 7216.53711 7323.44482
7339.0 0.0001363 7215.83643 7327.64844
7303.0 0.0001369 7215.14014 7334.75732
7340.0 0.0001362 7214.44873 7344.40625
7535.0 0.0001327 7213.76074 7356.69092
7370.0 0.0001357 7213.07813 7372.10352
7403.0 0.0001351 7212.39893 7391.66699
7461.0 0.0001340 7211.72412 7417.40625
7484.0 0.0001336 7211.05371 7453.45557
7687.0 0.0001301 7210.38721 7508.22656
7623.0 0.0001312 7209.72510 7597.98975
7828.0 0.0001277 7209.06641 7751.68066
8026.0 0.0001246 7208.41260 8015.21143
8555.0 0.0001169 7207.76221 8451.42383
9175.0 0.0001090 7207.11621 9130.23730
9959.0 0.0001004 7206.47363 10104.80957
11415.0 0.0000876 7205.83545 11375.70020
12828.0 0.0000780 7205.20068 12850.57031
14411.0 0.0000694 7204.57031 14321.36621
15518.0 0.0000644 7203.94336 15477.39746
16089.0 0.0000622 7203.31982 15988.76074
15562.0 0.0000643 7202.70020 15667.93262
14574.0 0.0000686 7202.08447 14615.82031
13103.0 0.0000763 7201.47217 13161.81445
11433.0 0.0000875 7200.86328 11649.11523
10192.0 0.0000981 7200.25830 10315.07813
9127.0 0.0001096 7199.65625 9274.75586
8413.0 0.0001189 7199.05811 8543.68262
8077.0 0.0001238 7198.46338 8074.87646
7769.0 0.0001287 7197.87158 7797.35010
7587.0 0.0001318 7197.28369 7643.53760
7507.0 0.0001332 7196.69873 7561.76709
7509.0 0.0001332 7196.11670 7517.38574
7474.0 0.0001338 7195.53809 7488.71826
7375.0 0.0001356 7194.96289 7463.00732
7304.0 0.0001369 7194.39063 7434.62793
7278.0 0.0001374 7193.82080 7403.60205
7271.0 0.0001375 7193.25488 7372.54736
7246.0 0.0001380 7192.69141 7344.11182
7263.0 0.0001377 7192.13086 7319.97168
7278.0 0.0001374 7191.57324 7300.66748
7236.0 0.0001382 7191.01855 7285.82861
7237.0 0.0001382 7190.46631 7274.58057
7336.0 0.0001363 7189.91699 7265.95313
7351.0 0.0001360 7189.37012 7259.13379
7335.0 0.0001363 7188.82617 7253.55176
7167.0 0.0001395 7188.28467 7248.81543
7296.0 0.0001371 7187.74561 7244.63330
7258.0 0.0001378 7187.20898 7241.17773
7141.0 0.0001400 7186.67480 7237.62354
7207.0 0.0001388 7186.14307 7235.22900
7197.0 0.0001389 7185.61377 7233.44727
7310.0 0.0001368 7185.08643 7232.52832
7245.0 0.0001380 7184.56152 7233.02295
7197.0 0.0001389 7184.03857 7236.00195
7230.0 0.0001383 7183.51807 7243.25879
7164.0 0.0001396 7182.99951 7257.34424
7261.0 0.0001377 7182.48291 7281.18457
6995.0 0.0001430 7181.96826 7317.09131
7298.0 0.0001370 7181.45557 7365.30225
7228.0 0.0001384 7180.94482 7422.40527
7104.0 0.0001408 7180.43555 7481.27979
7001.0 0.0001428 7179.92822 7530.56641
6942.0 0.0001441 7179.42285 7558.31982
7251.0 0.0001379 7178.91895 7558.75244
7146.0 0.0001399 7178.41650 7537.19775
7273.0 0.0001375 7177.91602 7505.06543
7230.0 0.0001383 7177.41699 7471.50000
7210.0 0.0001387 7176.91895 7439.66797
7290.0 0.0001372 7176.42285 7407.53955
7227.0 0.0001384 7175.92773 7372.39258
7158.0 0.0001397 7175.43408 7335.09570
7250.0 0.0001379 7174.94141 7299.13574
7301.0 0.0001370 7174.45020 7267.77490
7096.0 0.0001409 7173.95996 7242.89209
7146.0 0.0001399 7173.47119 7224.85889
7072.0 0.0001414 7172.98291 7212.83301
7314.0 0.0001367 7172.49609 7205.34326
7175.0 0.0001394 7172.01025 7200.88281
7138.0 0.0001401 7171.52490 7198.27539
7230.0 0.0001383 7171.04053 7196.77930
7099.0 0.0001409 7170.55713 7196.02783
7358.0 0.0001359 7170.07422 7195.92578
7046.0 0.0001419 7169.59180 7196.58740
7215.0 0.0001386 7169.11035 7198.30615
7075.0 0.0001413 7168.62939 7201.56055
7124.0 0.0001404 7168.14893 7207.02783
7030.0 0.0001422 7167.66895 7215.57861
7165.0 0.0001396 7167.18945 7228.24805
7220.0 0.0001385 7166.71045 7238.72754
7380.0 0.0001355 7166.23145 7263.35010
7144.0 0.0001400 7165.75244 7295.49219
7351.0 0.0001360 7165.27441 7335.80615
7495.0 0.0001334 7164.79590 7384.12158
7420.0 0.0001348 7164.31787 7439.05957
7450.0 0.0001342 7163.83984 7497.79004
7550.0 0.0001325 7163.36133 7555.70801
7572.0 0.0001321 7162.88330 7605.83105
7618.0 0.0001313 7162.40527 7638.82373
7570.0 0.0001321 7161.92676 7645.31299
7538.0 0.0001327 7161.44824 7620.70215
7472.0 0.0001338 7160.96924 7569.06348
7439.0 0.0001344 7160.49023 7501.25439
7355.0 0.0001360 7160.01074 7429.08984
7381.0 0.0001355 7159.53076 7361.82422
7198.0 0.0001389 7159.05029 7304.86377
7048.0 0.0001419 7158.56982 7260.37695
7306.0 0.0001369 7158.08838 7227.99658
7354.0 0.0001360 7157.60645 7210.14404
7110.0 0.0001406 7157.12354 7195.70947
7170.0 0.0001395 7156.64014 7186.51563
7282.0 0.0001373 7156.15625 7180.64111
7225.0 0.0001384 7155.67139 7176.75098
7333.0 0.0001364 7155.18604 7174.00684
7300.0 0.0001370 7154.69922 7171.92432
7226.0 0.0001384 7154.21191 7170.24365
7329.0 0.0001364 7153.72314 7168.82275
7239.0 0.0001381 7153.23340 7167.58984
7196.0 0.0001390 7152.74316 7166.50684
7418.0 0.0001348 7152.25146 7165.53662
7287.0 0.0001372 7151.75830 7164.66504
7307.0 0.0001369 7151.26416 7163.87744
7209.0 0.0001387 7150.76904 7163.16553
7255.0 0.0001378 7150.27246 7162.51660
7394.0 0.0001352 7149.77441 7161.92822
7151.0 0.0001398 7149.27490 7161.39551
7145.0 0.0001400 7148.77393 7160.91553
7174.0 0.0001394 7148.27197 7160.49121
7151.0 0.0001398 7147.76807 7160.12598
7286.0 0.0001372 7147.26270 7159.82422
7099.0 0.0001409 7146.75537 7159.58936
7106.0 0.0001407 7146.24707 7159.42432
7198.0 0.0001389 7145.73633 7159.08252
6984.0 0.0001432 7145.22412 7159.02832
7072.0 0.0001414 7144.71045 7158.99268
7090.0 0.0001410 7144.19434 7158.94434
7177.0 0.0001393 7143.67676 7158.87061
7190.0 0.0001391 7143.15723 7158.77783
7342.0 0.0001362 7142.63623 7158.60400
7245.0 0.0001380 7142.11230 7158.57568
7289.0 0.0001372 7141.58691 7158.62451
7245.0 0.0001380 7141.05957 7158.76611
7217.0 0.0001386 7140.52979 7159.01172
7171.0 0.0001395 7139.99805 7159.36523
7295.0 0.0001371 7139.46387 7159.82910
7317.0 0.0001367 7138.92773 7160.40869
7270.0 0.0001376 7138.38916 7161.11084
7197.0 0.0001389 7137.84863 7161.94824
7146.0 0.0001399 7137.30518 7163.73047
7054.0 0.0001418 7136.75977 7164.90430
7101.0 0.0001408 7136.21191 7166.27246
7078.0 0.0001413 7135.66162 7167.86279
7107.0 0.0001407 7135.10889 7169.71191
7296.0 0.0001371 7134.55322 7171.85938
7150.0 0.0001399 7133.99561 7174.35791
7157.0 0.0001397 7133.43506 7177.26709
7169.0 0.0001395 7132.87207 7180.66455
7158.0 0.0001397 7132.30615 7184.64404
7283.0 0.0001373 7131.73779 7189.32910
7114.0 0.0001406 7131.16650 7194.88672
7171.0 0.0001395 7130.59277 7201.56348
7153.0 0.0001398 7130.01611 7209.76904
7155.0 0.0001398 7129.43652 7220.26221
7354.0 0.0001360 7128.85449 7234.52783
7163.0 0.0001396 7128.26953 7255.47559
7249.0 0.0001380 7127.68115 7288.59570
7418.0 0.0001348 7127.09033 7343.54688
7428.0 0.0001346 7126.49658 7435.83594
7563.0 0.0001322 7125.89941 7587.72998
7905.0 0.0001265 7125.29980 7826.98145
8128.0 0.0001230 7124.69678 8181.88037
8702.0 0.0001149 7124.09082 8672.03125
9086.0 0.0001101 7123.48193 9296.13965
10066.0 0.0000993 7122.86963 10020.16309
10719.0 0.0000933 7122.25391 10770.19727
11261.0 0.0000888 7121.63574 11434.55371
11930.0 0.0000838 7121.01367 11881.57129
11697.0 0.0000855 7120.38916 12000.20508
11608.0 0.0000861 7119.76074 11754.71094
10936.0 0.0000914 7119.12939 11210.06641
10251.0 0.0000976 7118.49512 10494.16016
9628.0 0.0001039 7117.85693 9737.84473
8918.0 0.0001121 7117.21582 9040.48242
8369.0 0.0001195 7116.57080 8461.95996
8146.0 0.0001228 7115.92285 8022.59717
7825.0 0.0001278 7115.27148 7714.07471
7846.0 0.0001275 7114.61670 7511.57080
7631.0 0.0001310 7113.95850 7385.42871
7684.0 0.0001301 7113.29688 7309.12549
7543.0 0.0001326 7112.63184 7262.84668
7645.0 0.0001308 7111.96338 7233.63818
7501.0 0.0001333 7111.29102 7213.88184
7585.0 0.0001318 7110.61572 7199.44678
7344.0 0.0001362 7109.93652 7188.20410
7276.0 0.0001374 7109.25391 7179.06104
7218.0 0.0001385 7108.56738 7171.41357
7297.0 0.0001370 7107.87793 7164.89600
7251.0 0.0001379 7107.18457 7159.25635
7075.0 0.0001413 7106.48779 7154.32080
7203.0 0.0001388 7105.78711 7149.95654
7135.0 0.0001402 7105.08301 7146.06689
7189.0 0.0001391 7104.37549 7142.57617
6989.0 0.0001431 7103.66406 7139.42383
7053.0 0.0001418 7102.94873 7136.56396
7181.0 0.0001393 7102.22998 7133.95801
7062.0 0.0001416 7101.50781 7133.40576
6959.0 0.0001437 7100.78174 7131.26318
7093.0 0.0001410 7100.05225 7129.29541
7023.0 0.0001424 7099.31836 7127.48584
7184.0 0.0001392 7098.58154 7125.82031
7140.0 0.0001401 7097.84033 7124.28564
7205.0 0.0001388 7097.09619 7122.87305
7061.0 0.0001416 7096.34766 7121.57324
7163.0 0.0001396 7095.59570 7120.38330
7170.0 0.0001395 7094.84033 7119.29688
7005.0 0.0001428 7094.08057 7118.31250
7268.0 0.0001376 7093.31738 7117.42871
7169.0 0.0001395 7092.55029 7116.64697
7187.0 0.0001391 7091.77979 7115.96973
7212.0 0.0001387 7091.00537 7115.40186
7162.0 0.0001396 7090.22705 7114.94727
7244.0 0.0001380 7089.44531 7114.62012
7217.0 0.0001386 7088.65967 7114.43311
7323.0 0.0001366 7087.87061 7114.40820
7314.0 0.0001367 7087.07715 7114.58105
7478.0 0.0001337 7086.28027 7115.00732
7256.0 0.0001378 7085.47998 7115.78369
7532.0 0.0001328 7084.67529 7117.06592
7572.0 0.0001321 7083.86719 7119.11475
7406.0 0.0001350 7083.05518 7122.34375
7415.0 0.0001349 7082.24023 7127.39014
7567.0 0.0001322 7081.42090 7135.18213
7498.0 0.0001334 7080.59766 7147.01025
7486.0 0.0001336 7079.77100 7164.55371
7546.0 0.0001325 7078.94043 7189.83447
7537.0 0.0001327 7078.10645 7225.07520
7651.0 0.0001307 7077.26855 7272.41748
7644.0 0.0001308 7076.42676 7333.51172
7652.0 0.0001307 7075.58203 7409.02051
7461.0 0.0001340 7074.73291 7498.10107
7526.0 0.0001329 7073.88037 7597.98340
7618.0 0.0001313 7073.02441 7703.72461
7830.0 0.0001277 7072.16455 7808.09961
7867.0 0.0001271 7071.30078 7901.96582
8052.0 0.0001242 7070.43359 7974.93945
8060.0 0.0001241 7069.56299 8017.09668
8016.0 0.0001248 7068.68848 8017.42285
8086.0 0.0001237 7067.81104 7983.77979
7958.0 0.0001257 7066.92920 7917.04932
7857.0 0.0001273 7066.04443 7826.58545
7665.0 0.0001305 7065.15576 7722.86865
7590.0 0.0001318 7064.26318 7615.50244
7445.0 0.0001343 7063.36768 7512.25391
7420.0 0.0001348 7062.46826 7418.70068
7172.0 0.0001394 7061.56592 7338.19971
7416.0 0.0001348 7060.65967 7272.08496
7413.0 0.0001349 7059.75000 7220.05762
7310.0 0.0001368 7058.83691 7180.69971
7169.0 0.0001395 7057.92041 7151.96289
7222.0 0.0001385 7057.00049 7131.62305
7131.0 0.0001402 7056.07715 7117.59326
7139.0 0.0001401 7055.15039 7108.10889
7012.0 0.0001426 7054.22070 7101.79053
7022.0 0.0001424 7053.28711 7097.63330
6977.0 0.0001433 7052.35059 7094.95117
7029.0 0.0001423 7051.41064 7093.30469
7042.0 0.0001420 7050.46729 7092.43115
6978.0 0.0001433 7049.52100 7092.18994
7082.0 0.0001412 7048.57129 7092.52441
7104.0 0.0001408 7047.61816 7093.43896
6993.0 0.0001430 7046.66211 7094.99561
7023.0 0.0001424 7045.70264 7097.32959
7118.0 0.0001405 7044.74023 7100.70166
6980.0 0.0001433 7043.77490 7105.60205
7056.0 0.0001417 7042.80615 7112.94043
7095.0 0.0001409 7041.83447 7124.34229
7181.0 0.0001393 7040.85986 7142.56055
7031.0 0.0001422 7039.88184 7171.92578
7195.0 0.0001390 7038.90088 7218.68164
7318.0 0.0001366 7037.91699 7290.90527
7332.0 0.0001364 7036.93066 7397.68506
7453.0 0.0001342 7035.94092 7547.29785
7547.0 0.0001325 7034.94873 7744.44482
7876.0 0.0001270 7033.95313 7987.02246
8130.0 0.0001230 7032.95508 8263.23926
8452.0 0.0001183 7031.95410 8549.77441
8688.0 0.0001151 7030.95020 8811.48828
8833.0 0.0001132 7029.94336 9004.27441
8908.0 0.0001123 7028.93457 9085.61133
9123.0 0.0001096 7027.92236 9034.10645
8988.0 0.0001113 7026.90771 8863.12500
8684.0 0.0001152 7025.89063 8611.81445
8232.0 0.0001215 7024.87061 8325.34570
8169.0 0.0001224 7023.84814 8041.54590
7784.0 0.0001285 7022.82324 7786.71191
7380.0 0.0001355 7021.79590 7575.37402
7334.0 0.0001364 7020.76563 7411.79736
7317.0 0.0001367 7019.73340 7292.66748
7009.0 0.0001427 7018.69873 7210.31299
7003.0 0.0001428 7017.66162 7155.65283
7293.0 0.0001371 7016.62207 7120.28174
7278.0 0.0001374 7015.58008 7097.54395
7093.0 0.0001410 7014.53613 7082.77490
6974.0 0.0001434 7013.48975 7073.04443
7118.0 0.0001405 7012.44092 7066.69727
7127.0 0.0001403 7011.39014 7062.87549
7068.0 0.0001415 7010.33740 7061.02100
7216.0 0.0001386 7009.28223 7060.66650
7200.0 0.0001389 7008.22510 7061.15039
7149.0 0.0001399 7007.16602 7061.57031
7155.0 0.0001398 7006.10449 7060.85059
7073.0 0.0001414 7005.04150 7058.08887
7103.0 0.0001408 7003.97656 7053.09277
7044.0 0.0001420 7002.90967 7046.55908
7051.0 0.0001418 7001.84082 7039.33789
7028.0 0.0001423 7000.77002 7032.34424
6909.0 0.0001447 6999.69775 7026.13965
6957.0 0.0001437 6998.62305 7020.96680
7041.0 0.0001420 6997.54736 7018.73926
7082.0 0.0001412 6996.46973 7015.48340
6961.0 0.0001437 6995.39063 7012.84766
6925.0 0.0001444 6994.30957 7010.62598
7044.0 0.0001420 6993.22705 7008.66797
6965.0 0.0001436 6992.14307 7006.88281
6993.0 0.0001430 6991.05762 7005.19775
7017.0 0.0001425 6989.97070 7003.58984
6980.0 0.0001433 6988.88232 7002.04297
6893.0 0.0001451 6987.79248 7000.54688
7001.0 0.0001428 6986.70166 6999.09766
6934.0 0.0001442 6985.60938 6997.68750
6873.0 0.0001455 6984.51563 6996.31445
6923.0 0.0001444 6983.42090 6994.97754
6925.0 0.0001444 6982.32520 6993.67334
6964.0 0.0001436 6981.22754 6992.40039
7154.0 0.0001398 6980.12939 6991.15869
6949.0 0.0001439 6979.03027 6989.94531
6790.0 0.0001473 6977.92969 6988.76270
6951.0 0.0001439 6976.82861 6987.60840
7012.0 0.0001426 6975.72656 6986.48535
6926.0 0.0001444 6974.62305 6985.39160
6958.0 0.0001437 6973.51904 6984.33105
7081.0 0.0001412 6972.41406 6983.30469
6903.0 0.0001449 6971.30859 6982.31592
6863.0 0.0001457 6970.20215 6981.36865
6996.0 0.0001429 6969.09521 6979.68848
6959.0 0.0001437 6967.98730 6978.86816
6914.0 0.0001446 6966.87891 6978.13672
6971.0 0.0001435 6965.77002 6977.54492
6762.0 0.0001479 6964.66064 6977.19922
7094.0 0.0001410 6963.55029 6977.29443
7091.0 0.0001410 6962.43994 6978.16064
6958.0 0.0001437 6961.32910 6980.27930
6881.0 0.0001453 6960.21777 6984.24463
6938.0 0.0001441 6959.10596 6990.67334
7056.0 0.0001417 6957.99414 6999.77100
7116.0 0.0001405 6956.88232 7011.30029
7113.0 0.0001406 6955.77002 7024.15967
6995.0 0.0001430 6954.65723 7036.35449
6991.0 0.0001430 6953.54443 7045.19043
7019.0 0.0001425 6952.43164 7048.04980
6973.0 0.0001434 6951.31885 7043.86523
7026.0 0.0001423 6950.20605 7033.96143
6964.0 0.0001436 6949.09326 7021.06348
6932.0 0.0001443 6947.98096 7007.86914
6915.0 0.0001446 6946.86816 6996.36133
6956.0 0.0001438 6945.75586 6987.67188
6937.0 0.0001442 6944.64355 6982.19238
6952.0 0.0001438 6943.53125 6979.82666
6996.0 0.0001429 6942.41943 6980.26904
6948.0 0.0001439 6941.30811 6983.16309
6907.0 0.0001448 6940.19678 6988.14404
7028.0 0.0001423 6939.08594 6992.95313
6962.0 0.0001436 6937.97607 7000.82373
6868.0 0.0001456 6936.86621 7009.38672
6869.0 0.0001456 6935.75684 7018.51367
6896.0 0.0001450 6934.64795 7029.19092
6915.0 0.0001446 6933.54004 7044.31201
7114.0 0.0001406 6932.43262 7068.95947
7080.0 0.0001412 6931.32568 7110.61572
7099.0 0.0001409 6930.21973 7179.54248
7427.0 0.0001346 6929.11426 7288.53320
7416.0 0.0001348 6928.00977 7451.03125
7681.0 0.0001302 6926.90576 7676.64551
7921.0 0.0001262 6925.80322 7965.21191
8284.0 0.0001207 6924.70117 8300.35840
8629.0 0.0001159 6923.60010 8643.78027
8933.0 0.0001119 6922.50000 8933.87988
9134.0 0.0001095 6921.40088 9096.85254
9100.0 0.0001099 6920.30322 9077.92090
8866.0 0.0001128 6919.20654 8878.92578
8641.0 0.0001157 6918.11084 8559.38086
8019.0 0.0001247 6917.01611 8196.57129
7736.0 0.0001293 6915.92285 7852.63672
7445.0 0.0001343 6914.83057 7564.87305
7186.0 0.0001392 6913.74023 7347.23730
7158.0 0.0001397 6912.65039 7196.24268
7083.0 0.0001412 6911.56250 7098.68652
7160.0 0.0001397 6910.47607 7038.76416
6972.0 0.0001434 6909.39063 7002.70508
7026.0 0.0001423 6908.30713 6980.60156
6890.0 0.0001451 6907.22461 6966.24121
6945.0 0.0001440 6906.14404 6956.12305
7050.0 0.0001418 6905.06494 6948.40967
6815.0 0.0001467 6903.98730 6942.16797
6929.0 0.0001443 6902.91162 6936.91016
6933.0 0.0001442 6901.83789 6932.37207
6885.0 0.0001452 6900.76514 6928.38672
6969.0 0.0001435 6899.69482 6924.85010
6903.0 0.0001449 6898.62598 6921.68115
6731.0 0.0001486 6897.55859 6918.82861
6832.0 0.0001464 6896.49365 6916.25537
6912.0 0.0001447 6895.43018 6913.94678
6809.0 0.0001469 6894.36914 6911.91650
6845.0 0.0001461 6893.31006 6910.23389
7137.0 0.0001401 6892.25244 6909.05322
6845.0 0.0001461 6891.19727 6908.66016
6850.0 0.0001460 6890.14404 6909.48291
6731.0 0.0001486 6889.09277 6912.02051
6921.0 0.0001445 6888.04395 6916.64404
7060.0 0.0001416 6886.99707 6923.28613
7064.0 0.0001416 6885.95215 6931.10889
6864.0 0.0001457 6884.90967 6938.26660
6892.0 0.0001451 6883.87012 6942.00195
6846.0 0.0001461 6882.83203 6939.96582
6891.0 0.0001451 6881.79639 6932.43311
6928.0 0.0001443 6880.76318 6921.99316
7047.0 0.0001419 6879.73242 6911.27881
6849.0 0.0001460 6878.70361 6901.93408
7008.0 0.0001427 6877.67773 6894.56494
6883.0 0.0001453 6876.65430 6889.24951
6860.0 0.0001458 6875.63330 6885.49512
6951.0 0.0001439 6874.61475 6882.79297
6846.0 0.0001461 6873.59912 6880.72168
6896.0 0.0001450 6872.58545 6879.00244
6944.0 0.0001440 6871.57471 6877.47656
6717.0 0.0001489 6870.56689 6876.06006
6848.0 0.0001460 6869.56104 6874.71191
7007.0 0.0001427 6868.55859 6873.41162
6945.0 0.0001440 6867.55859 6872.14844
6895.0 0.0001450 6866.56104 6870.91602
6896.0 0.0001450 6865.56641 6869.70752
7005.0 0.0001428 6864.57471 6868.52246
6926.0 0.0001444 6863.58594 6867.35596
6826.0 0.0001465 6862.59961 6866.21289
6694.0 0.0001494 6861.61670 6865.07910
6874.0 0.0001455 6860.63623 6863.95947
6809.0 0.0001469 6859.65869 6862.85352
6830.0 0.0001464 6858.68457 6861.75830
6825.0 0.0001465 6857.71289 6860.67480
6884.0 0.0001453 6856.74463 6859.60059
6791.0 0.0001473 6855.77881 6858.53564
7013.0 0.0001426 6854.81641 6857.47852
6892.0 0.0001451 6853.85693 6856.36816
6849.0 0.0001460 6852.90039 6855.33057
6791.0 0.0001473 6851.94727 6854.30078
6962.0 0.0001436 6850.99707 6853.27686
6935.0 0.0001442 6850.05029 6852.26123
6735.0 0.0001485 6849.10645 6849.33008
6916.0 0.0001446 6848.16553 6848.38086
6841.0 0.0001462 6847.22803 6847.43506
6780.0 0.0001475 6846.29346 6846.49414
7026.0 0.0001423 6845.36279 6845.55762
6789.0 0.0001473 6844.43457 6844.61621
7020.0 0.0001425 6843.51025 6843.80420
6871.0 0.0001455 6842.58887 6842.88184
6848.0 0.0001460 6841.67090 6841.96484
6843.0 0.0001461 6840.75635 6841.05078
6907.0 0.0001448 6839.84521 6840.14111
6734.0 0.0001485 6838.93701 6839.23535
6920.0 0.0001445 6838.03223 6838.33301
6740.0 0.0001484 6837.13086 6837.43555
6875.0 0.0001455 6836.23340 6836.54199
6903.0 0.0001449 6835.33887 6835.65234
6947.0 0.0001439 6834.44775 6834.76709
6756.0 0.0001480 6833.56055 6833.88574
6949.0 0.0001439 6832.67627 6833.00879
6782.0 0.0001474 6831.79541 6832.13574
6720.0 0.0001488 6830.91846 6831.26855
6756.0 0.0001480 6830.04443 6830.40381
6781.0 0.0001475 6829.17432 6829.54492
6824.0 0.0001465 6828.30762 6828.69043
6752.0 0.0001481 6827.44482 6827.84033
6862.0 0.0001457 6826.58496 6826.99463
6757.0 0.0001480 6825.72900 6826.15576
6876.0 0.0001454 6824.87598 6825.31934
6713.0 0.0001490 6824.02734 6824.49023
6925.0 0.0001444 6823.18164 6823.66504
6877.0 0.0001454 6822.33984 6822.84717
6843.0 0.0001461 6821.50195 6822.03516
6749.0 0.0001482 6820.66699 6821.22852
6903.0 0.0001449 6819.83594 6820.42920
7001.0 0.0001428 6819.00830 6819.63721
6949.0 0.0001439 6818.18457 6818.81055
6871.0 0.0001455 6817.36426 6818.03613
6860.0 0.0001458 6816.54785 6817.27148
6669.0 0.0001499 6815.73486 6816.51758
6860.0 0.0001458 6814.92529 6815.77588
6884.0 0.0001453 6814.12012 6815.04883
6751.0 0.0001481 6813.31787 6814.37598
6860.0 0.0001458 6812.51953 6813.68994
6893.0 0.0001451 6811.72461 6813.08057
6842.0 0.0001462 6810.93359 6812.47998
6856.0 0.0001459 6810.14600 6811.97314
6718.0 0.0001489 6809.36230 6811.63574
6784.0 0.0001474 6808.58203 6811.59668
6850.0 0.0001460 6807.80615 6812.04590
6965.0 0.0001436 6807.03320 6813.21094
6803.0 0.0001470 6806.26416 6815.29932
6707.0 0.0001491 6805.49854 6818.38818
6906.0 0.0001448 6804.73682 6822.30566
6756.0 0.0001480 6803.97900 6826.53174
6774.0 0.0001476 6803.22412 6830.21826
6952.0 0.0001438 6802.47363 6832.10742
6756.0 0.0001480 6801.72656 6831.49365
6872.0 0.0001455 6800.98340 6828.14795
6817.0 0.0001467 6800.24365 6823.18799
6888.0 0.0001452 6799.50732 6817.77246
6832.0 0.0001464 6798.77490 6812.77344
6754.0 0.0001481 6798.04590 6808.68945
6839.0 0.0001462 6797.32080 6805.70166
6669.0 0.0001499 6796.59961 6803.79541
6790.0 0.0001473 6795.88184 6802.91504
6831.0 0.0001464 6795.16748 6803.12891
6863.0 0.0001457 6794.45703 6804.74854
6937.0 0.0001442 6793.75000 6808.38477
6796.0 0.0001471 6793.04688 6814.91016
6741.0 0.0001483 6792.34717 6825.25488
6751.0 0.0001481 6791.65088 6840.06250
6780.0 0.0001475 6790.95850 6859.22266
6829.0 0.0001464 6790.26953 6881.44141
6911.0 0.0001447 6789.58398 6904.02393
6726.0 0.0001487 6788.90234 6922.97754
6926.0 0.0001444 6788.22412 6933.71436
6717.0 0.0001489 6787.54980 6932.88379
6751.0 0.0001481 6786.87842 6920.53467
6732.0 0.0001485 6786.21094 6900.23340
6844.0 0.0001461 6785.54688 6876.27197
6935.0 0.0001442 6784.88672 6852.75977
6976.0 0.0001433 6784.22998 6832.35254
6826.0 0.0001465 6783.57617 6816.30029
6901.0 0.0001449 6782.92627 6804.68311
6906.0 0.0001448 6782.27979 6796.82666
6733.0 0.0001485 6781.63672 6791.75635
6801.0 0.0001470 6780.99756 6788.53662
6763.0 0.0001479 6780.36133 6786.43896
6813.0 0.0001468 6779.72852 6784.97852
6942.0 0.0001441 6779.09912 6783.86670
6690.0 0.0001495 6778.47363 6782.95117
6828.0 0.0001465 6777.85107 6782.15381
6795.0 0.0001472 6777.23193 6781.43799
6794.0 0.0001472 6776.61621 6780.78906
6817.0 0.0001467 6776.00391 6780.20117
6782.0 0.0001474 6775.39502 6779.67383
6807.0 0.0001469 6774.78906 6779.21143
6794.0 0.0001472 6774.18701 6778.83154
6773.0 0.0001476 6773.58789 6778.56787
6765.0 0.0001478 6772.99219 6778.49219
6803.0 0.0001470 6772.39941 6778.74951
6843.0 0.0001461 6771.81006 6779.59668
6781.0 0.0001475 6771.22412 6781.44238
6761.0 0.0001479 6770.64111 6784.86182
6779.0 0.0001475 6770.06104 6790.53320
6856.0 0.0001459 6769.48486 6799.07031
6806.0 0.0001469 6768.91113 6810.74902
6742.0 0.0001483 6768.34082 6825.19873
6882.0 0.0001453 6767.77393 6841.15283
6912.0 0.0001447 6767.20996 6856.38086
6780.0 0.0001475 6766.64893 6867.98975
6652.0 0.0001503 6766.09082 6873.35010
6806.0 0.0001469 6765.53613 6871.33936
6681.0 0.0001497 6764.98389 6862.98145
6853.0 0.0001459 6764.43506 6851.14648
6851.0 0.0001460 6763.88916 6839.54102
6734.0 0.0001485 6763.34619 6831.74414
6692.0 0.0001494 6762.80615 6830.67871
6694.0 0.0001494 6762.26904 6838.34521
6715.0 0.0001489 6761.73486 6855.54590
6797.0 0.0001471 6761.20361 6881.54102
6952.0 0.0001438 6760.67529 6913.75342
6862.0 0.0001457 6760.14941 6947.63574
6766.0 0.0001478 6759.62646 6977.08740
6687.0 0.0001495 6759.10645 6995.67822
6860.0 0.0001458 6758.58887 6998.43018
6748.0 0.0001482 6758.07471 6983.97754
6846.0 0.0001461 6757.56250 6955.54443
6731.0 0.0001486 6757.05322 6919.42188
6755.0 0.0001480 6756.54688 6882.00977
6889.0 0.0001452 6756.04297 6848.08057
6793.0 0.0001472 6755.54150 6820.39111
6954.0 0.0001438 6755.04297 6799.64209
6777.0 0.0001476 6754.54688 6785.33740
6876.0 0.0001454 6754.05322 6776.22803
6691.0 0.0001495 6753.56201 6770.96973
6786.0 0.0001474 6753.07324 6768.53467
6717.0 0.0001489 6752.58740 6768.56836
6882.0 0.0001453 6752.10352 6770.91211
6729.0 0.0001486 6751.62207 6776.33887
6742.0 0.0001483 6751.14355 6785.83838
6815.0 0.0001467 6750.66699 6800.40381
6758.0 0.0001480 6750.19238 6820.52832
6832.0 0.0001464 6749.72070 6845.64600
6746.0 0.0001482 6749.25098 6873.68408
6933.0 0.0001442 6748.78369 6900.79785
6923.0 0.0001444 6748.31836 6922.11133
6959.0 0.0001437 6747.85547 6932.14648
6940.0 0.0001441 6747.39502 6927.73584
6915.0 0.0001446 6746.93604 6910.17969
7039.0 0.0001421 6746.47949 6883.86084
6957.0 0.0001437 6746.02539 6854.64160
6825.0 0.0001465 6745.57275 6826.42334
6899.0 0.0001449 6745.12256 6802.35254
6936.0 0.0001442 6744.67432 6783.66748
6896.0 0.0001450 6744.22803 6770.28906
6799.0 0.0001471 6743.78369 6761.32959
6762.0 0.0001479 6743.34082 6755.61084
6781.0 0.0001475 6742.90039 6752.03223
6823.0 0.0001466 6742.46191 6749.74902
6644.0 0.0001505 6742.02490 6748.19434
6691.0 0.0001495 6741.58984 6747.45166
6698.0 0.0001493 6741.15625 6746.52246
6628.0 0.0001509 6740.72461 6745.72070
6622.0 0.0001510 6740.29492 6745.00000
6725.0 0.0001487 6739.86670 6744.33643
6721.0 0.0001488 6739.44043 6743.71777
6621.0 0.0001510 6739.01563 6743.13721
6810.0 0.0001468 6738.59229 6742.58594
6763.0 0.0001479 6738.17041 6742.06055
6845.0 0.0001461 6737.75049 6741.56250
6879.0 0.0001454 6737.33154 6741.08496
6713.0 0.0001490 6736.91455 6740.62646
6768.0 0.0001478 6736.49854 6740.18750
6600.0 0.0001515 6736.08447 6739.76563
6718.0 0.0001489 6735.67139 6739.36279
6656.0 0.0001502 6735.25977 6738.98096
6788.0 0.0001473 6734.84961 6738.62549
6734.0 0.0001485 6734.44092 6738.30322
6622.0 0.0001510 6734.03320 6738.02930
6867.0 0.0001456 6733.62646 6737.78467
6714.0 0.0001489 6733.22119 6737.62012
6721.0 0.0001488 6732.81738 6737.60693
6616.0 0.0001511 6732.41455 6737.70459
6791.0 0.0001473 6732.01270 6737.89355
6637.0 0.0001507 6731.61182 6738.13135
6842.0 0.0001462 6731.21191 6738.34814
6841.0 0.0001462 6730.81348 6738.44971
6741.0 0.0001483 6730.41602 6738.35303
6682.0 0.0001497 6730.01904 6738.02148
6782.0 0.0001474 6729.62354 6737.49707
6655.0 0.0001503 6729.22852 6736.87109
6819.0 0.0001466 6728.83447 6736.18750
6766.0 0.0001478 6728.44141 6735.62305
6852.0 0.0001459 6728.04883 6735.17480
6808.0 0.0001469 6727.65723 6734.71484
6818.0 0.0001467 6727.26660 6734.54785
6846.0 0.0001461 6726.87646 6734.51221
6905.0 0.0001448 6726.48682 6734.60791
6722.0 0.0001488 6726.09814 6734.84570
6738.0 0.0001484 6725.70996 6735.25879
6739.0 0.0001484 6725.32227 6735.91846
6840.0 0.0001462 6724.93555 6736.94531
6957.0 0.0001437 6724.54883 6738.54395
6936.0 0.0001442 6724.16309 6741.02832
6720.0 0.0001488 6723.77734 6744.87158
6818.0 0.0001467 6723.39258 6750.75635
6746.0 0.0001482 6723.00781 6759.63672
6735.0 0.0001485 6722.62354 6772.77539
6752.0 0.0001481 6722.23975 6791.75684
6825.0 0.0001465 6721.85596 6818.41797
6990.0 0.0001431 6721.47266 6854.62988
6948.0 0.0001439 6721.08936 6901.91309
6995.0 0.0001430 6720.70654 6960.87305
7073.0 0.0001414 6720.32422 7030.56152
7391.0 0.0001353 6719.94189 7107.94775
7485.0 0.0001336 6719.55908 7187.68457
7328.0 0.0001365 6719.17725 7262.16309
7337.0 0.0001363 6718.79492 7322.97559
7272.0 0.0001375 6718.41260 7362.05273
7397.0 0.0001352 6718.03076 7375.11328
7223.0 0.0001384 6717.64844 7362.81885
7411.0 0.0001349 6717.26660 7329.53613
7405.0 0.0001350 6716.88428 7281.40283
7233.0 0.0001383 6716.50195 7224.82959
7218.0 0.0001385 6716.11963 7165.42773
7189.0 0.0001391 6715.73682 7107.40869
7141.0 0.0001400 6715.35400 7053.51318
7096.0 0.0001409 6714.97119 7005.29492
6894.0 0.0001451 6714.58789 6963.64893
7122.0 0.0001404 6714.20410 6929.34082
7005.0 0.0001428 6713.82031 6903.34375
7026.0 0.0001423 6713.43652 6886.80322
6802.0 0.0001470 6713.05176 6880.83984
7031.0 0.0001422 6712.66699 6886.36768
6919.0 0.0001445 6712.28174 6903.89795
7122.0 0.0001404 6711.89600 6933.34277
7056.0 0.0001417 6711.50977 6973.78955
7082.0 0.0001412 6711.12305 7023.29541
7197.0 0.0001389 6710.73535 7078.79590
7148.0 0.0001399 6710.34766 7136.14014
7080.0 0.0001412 6709.95947 7190.29639
7334.0 0.0001364 6709.57031 7235.77246
7310.0 0.0001368 6709.18066 7267.24854
7285.0 0.0001373 6708.79053 7280.52490
7326.0 0.0001365 6708.39941 7273.52930
7166.0 0.0001395 6708.00781 7246.91309
7165.0 0.0001396 6707.61523 7203.81641
7106.0 0.0001407 6707.22217 7148.93359
7152.0 0.0001398 6706.82813 7087.47412
7007.0 0.0001427 6706.43311 7024.36230
7001.0 0.0001428 6706.03760 6963.73193
6889.0 0.0001452 6705.64111 6908.64844
6810.0 0.0001468 6705.24365 6861.01172
6831.0 0.0001464 6704.84521 6821.66699
6765.0 0.0001478 6704.44580 6790.40430
6759.0 0.0001480 6704.04590 6766.51318
6707.0 0.0001491 6703.64453 6748.85889
6813.0 0.0001468 6703.24219 6736.18994
6646.0 0.0001505 6702.83887 6727.29980
6790.0 0.0001473 6702.43457 6721.13916
6885.0 0.0001452 6702.02881 6716.87305
6861.0 0.0001458 6701.62207 6713.87207
6623.0 0.0001510 6701.21436 6711.69141
6809.0 0.0001469 6700.80518 6710.02979
6734.0 0.0001485 6700.39551 6708.69336
6848.0 0.0001460 6699.98389 6707.56104
6672.0 0.0001499 6699.57129 6706.56055
6873.0 0.0001455 6699.15771 6705.65039
6660.0 0.0001502 6698.74219 6704.80273
6897.0 0.0001450 6698.32617 6704.00439
6873.0 0.0001455 6697.90820 6703.24365
6767.0 0.0001478 6697.48926 6702.77588
6624.0 0.0001510 6697.06885 6702.08301
6739.0 0.0001484 6696.64697 6701.41309
6733.0 0.0001485 6696.22363 6700.76563
6661.0 0.0001501 6695.79883 6700.13672
6614.0 0.0001512 6695.37256 6699.52393
6704.0 0.0001492 6694.94482 6698.92676
6649.0 0.0001504 6694.51563 6698.34229
6719.0 0.0001488 6694.08496 6697.77148
6856.0 0.0001459 6693.65283 6697.20996
6787.0 0.0001473 6693.21924 6696.66162
6652.0 0.0001503 6692.78369 6696.12109
6755.0 0.0001480 6692.34668 6695.59033
6753.0 0.0001481 6691.90820 6695.07227
6663.0 0.0001501 6691.46777 6694.56738
6642.0 0.0001506 6691.02588 6694.08447
6620.0 0.0001511 6690.58252 6693.63135
6725.0 0.0001487 6690.13721 6693.22363
6701.0 0.0001492 6689.69043 6692.88135
6704.0 0.0001492 6689.24170 6692.62549
6715.0 0.0001489 6688.79150 6692.47266
6742.0 0.0001483 6688.33887 6692.44336
6623.0 0.0001510 6687.88525 6692.47998
6636.0 0.0001507 6687.42920 6692.55273
6647.0 0.0001504 6686.97168 6692.58594
6618.0 0.0001511 6686.51221 6692.48145
6809.0 0.0001469 6686.05127 6692.15039
6734.0 0.0001485 6685.58789 6691.54980
6648.0 0.0001504 6685.12305 6690.73535
6787.0 0.0001473 6684.65576 6689.76270
6670.0 0.0001499 6684.18701 6688.74658
6635.0 0.0001507 6683.71631 6687.76416
6760.0 0.0001479 6683.24365 6686.86572
6772.0 0.0001477 6682.76904 6686.10156
6789.0 0.0001473 6682.29248 6685.41406
6643.0 0.0001505 6681.81348 6684.81494
6707.0 0.0001491 6681.33301 6684.28418
6680.0 0.0001497 6680.85010 6683.80225
6647.0 0.0001504 6680.36572 6683.35693
6637.0 0.0001507 6679.87891 6682.93604
6673.0 0.0001499 6679.39014 6682.53418
6498.0 0.0001539 6678.89893 6682.14941
6492.0 0.0001540 6678.40625 6681.78271
6488.0 0.0001541 6677.91113 6681.43750
6562.0 0.0001524 6677.41406 6681.11621
6505.0 0.0001537 6676.91455 6680.82715
6741.0 0.0001483 6676.41309 6680.58057
6586.0 0.0001518 6675.90967 6680.39404
6672.0 0.0001499 6675.40381 6680.29346
6508.0 0.0001537 6674.89600 6680.31934
6670.0 0.0001499 6674.38574 6680.53271
6510.0 0.0001536 6673.87354 6683.31152
6728.0 0.0001486 6673.35938 6684.22656
6643.0 0.0001505 6672.84229 6685.65576
6736.0 0.0001485 6672.32373 6687.76123
6712.0 0.0001490 6671.80225 6689.97754
6626.0 0.0001509 6671.27881 6693.96240
6721.0 0.0001488 6670.75342 6699.13770
6853.0 0.0001459 6670.22559 6705.68848
6706.0 0.0001491 6669.69531 6713.90527
6754.0 0.0001481 6669.16309 6724.23633
6609.0 0.0001513 6668.62793 6737.52588
6725.0 0.0001487 6668.09131 6755.00684
6923.0 0.0001444 6667.55176 6778.15381
6778.0 0.0001475 6667.01025 6808.14648
6748.0 0.0001482 6666.46631 6845.02783
6905.0 0.0001448 6665.91992 6886.77490
7055.0 0.0001417 6665.37109 6928.87402
7052.0 0.0001418 6664.82031 6962.55713
7145.0 0.0001400 6664.26709 6977.93066
6929.0 0.0001443 6663.71143 6967.59277
6991.0 0.0001430 6663.15332 6933.40186
6896.0 0.0001450 6662.59277 6885.22119
6801.0 0.0001470 6662.03027 6833.89648
6813.0 0.0001468 6661.46484 6787.23633
6794.0 0.0001472 6660.89746 6749.43018
6877.0 0.0001454 6660.32764 6721.56689
6790.0 0.0001473 6659.75537 6702.61035
6703.0 0.0001492 6659.18066 6690.50781
6590.0 0.0001517 6658.60352 6683.12109
6717.0 0.0001489 6658.02393 6678.74512
6636.0 0.0001507 6657.44238 6676.26074
6635.0 0.0001507 6656.85791 6675.05664
6712.0 0.0001490 6656.27100 6674.86426
6708.0 0.0001491 6655.68213 6675.59619
6575.0 0.0001521 6655.09033 6677.20557
6542.0 0.0001529 6654.49658 6679.59912
6487.0 0.0001542 6653.89990 6682.56885
6655.0 0.0001503 6653.30127 6685.77246
6730.0 0.0001486 6652.69971 6688.76172
6594.0 0.0001517 6652.09619 6691.06592
6560.0 0.0001524 6651.48975 6692.40576
6667.0 0.0001500 6650.88135 6692.89941
6597.0 0.0001516 6650.27051 6693.01904
6658.0 0.0001502 6649.65674 6693.30811
6504.0 0.0001538 6649.04102 6694.15771
6573.0 0.0001521 6648.42285 6695.69922
6724.0 0.0001487 6647.80176 6697.80225
6736.0 0.0001485 6647.17871 6700.21143
6557.0 0.0001525 6646.55273 6702.64404
6669.0 0.0001499 6645.92480 6704.73047
6701.0 0.0001492 6645.29443 6705.89648
6613.0 0.0001512 6644.66113 6705.43506
6729.0 0.0001486 6644.02588 6702.88379
6824.0 0.0001465 6643.38770 6698.43750
6584.0 0.0001519 6642.74756 6692.87158
6685.0 0.0001496 6642.10498 6687.11768
6658.0 0.0001502 6641.45947 6681.94092
6818.0 0.0001467 6640.81201 6677.83545
6518.0 0.0001534 6640.16211 6679.17041
6607.0 0.0001514 6639.50928 6677.76758
6590.0 0.0001517 6638.85449 6677.54541
6679.0 0.0001497 6638.19727 6678.34277
6704.0 0.0001492 6637.53711 6680.04541
6571.0 0.0001522 6636.87500 6682.65820
6699.0 0.0001493 6636.21045 6686.36914
6791.0 0.0001473 6635.54346 6691.63086
6772.0 0.0001477 6634.87402 6699.29053
6722.0 0.0001488 6634.20215 6710.77197
6709.0 0.0001491 6633.52783 6728.32227
6840.0 0.0001462 6632.85107 6755.28027
6846.0 0.0001461 6632.17236 6796.31006
7006.0 0.0001427 6631.49072 6857.48926
6886.0 0.0001452 6630.80664 6946.10303
7248.0 0.0001380 6630.12061 7069.97461
7267.0 0.0001376 6629.43213 7236.29248
7450.0 0.0001342 6628.74121 7449.89307
7639.0 0.0001309 6628.04785 7711.27930
7909.0 0.0001264 6627.35205 8014.70361
8117.0 0.0001232 6626.65381 8346.82324
8608.0 0.0001162 6625.95361 8686.30273
9032.0 0.0001107 6625.25098 9004.61914
9316.0 0.0001073 6624.54541 9268.34473
9598.0 0.0001042 6623.83838 9443.73535
9698.0 0.0001031 6623.12842 9504.43555
9579.0 0.0001044 6622.41650 9440.43164
9516.0 0.0001051 6621.70215 9262.20215
9316.0 0.0001073 6620.98535 8996.37793
8812.0 0.0001135 6620.26611 8676.78320
8399.0 0.0001191 6619.54492 8336.78223
8009.0 0.0001249 6618.82129 8004.75684
7623.0 0.0001312 6618.09521 7701.87402
7305.0 0.0001369 6617.36719 7441.30664
7211.0 0.0001387 6616.63672 7228.66211
7099.0 0.0001409 6615.90430 7063.34766
7074.0 0.0001414 6615.16943 6941.10547
6909.0 0.0001447 6614.43213 6853.59570
6856.0 0.0001459 6613.69287 6793.71045
7044.0 0.0001420 6612.95117 6754.13135
6780.0 0.0001475 6612.20703 6729.59668
6751.0 0.0001481 6611.46094 6715.60938
6747.0 0.0001482 6610.71289 6709.38037
6713.0 0.0001490 6609.96240 6709.34131
6812.0 0.0001468 6609.20996 6714.84131
6760.0 0.0001479 6608.45508 6725.83301
6748.0 0.0001482 6607.69775 6742.58008
6723.0 0.0001487 6606.93896 6765.36426
6769.0 0.0001477 6606.17725 6794.23438
6835.0 0.0001463 6605.41406 6828.76563
6780.0 0.0001475 6604.64844 6867.89893
6893.0 0.0001451 6603.88086 6909.80713
6913.0 0.0001447 6603.11084 6951.95898
7067.0 0.0001415 6602.33936 6991.06396
7148.0 0.0001399 6601.56494 7023.38135
7078.0 0.0001413 6600.78906 7045.20117
7070.0 0.0001414 6600.01074 7053.70264
7272.0 0.0001375 6599.23047 7047.90283
6936.0 0.0001442 6598.44824 7029.09766
7019.0 0.0001425 6597.66406 7000.26904
6886.0 0.0001452 6596.87793 6965.17383
6898.0 0.0001450 6596.08936 6927.50781
6856.0 0.0001459 6595.29932 6890.45605
6932.0 0.0001443 6594.50684 6856.47168
6749.0 0.0001482 6593.71240 6827.35693
6772.0 0.0001477 6592.91602 6804.13770
6728.0 0.0001486 6592.11768 6787.31689
6646.0 0.0001505 6591.31787 6777.06055
6660.0 0.0001502 6590.51563 6773.47900
6774.0 0.0001476 6589.71143 6777.03564
6810.0 0.0001468 6588.90527 6789.15137
6804.0 0.0001470 6588.09766 6813.13574
6705.0 0.0001491 6587.28760 6855.53516
7063.0 0.0001416 6586.47607 6927.79834
7146.0 0.0001399 6585.66211 7047.78613
7392.0 0.0001353 6584.84717 7240.04834
7608.0 0.0001314 6584.02979 7533.37207
7772.0 0.0001287 6583.21045 7954.29297
8161.0 0.0001225 6582.38965 8516.53320
8936.0 0.0001119 6581.56689 9208.39258
9518.0 0.0001051 6580.74219 9981.49023
10447.0 0.0000957 6579.91553 10743.70313
10972.0 0.0000911 6579.08740 11359.90723
11476.0 0.0000871 6578.25732 11676.93457
11693.0 0.0000855 6577.42578 11595.16895
11335.0 0.0000882 6576.59229 11141.33398
10666.0 0.0000938 6575.75732 10446.95703
9724.0 0.0001028 6574.92041 9663.87500
8907.0 0.0001123 6574.08154 8911.32813
8296.0 0.0001205 6573.24121 8263.75293
7694.0 0.0001300 6572.39941 7753.95068
7413.0 0.0001349 6571.55566 7382.10059
6985.0 0.0001432 6570.71045 7127.90771
7039.0 0.0001421 6569.86377 6962.77148
6815.0 0.0001467 6569.01514 6858.85400
6852.0 0.0001459 6568.16455 6793.87158
6907.0 0.0001448 6567.31299 6752.25586
6694.0 0.0001494 6566.45947 6724.21094
6671.0 0.0001499 6565.60449 6704.06396
6727.0 0.0001487 6564.74805 6688.70752
6618.0 0.0001511 6563.88965 6676.48633
6778.0 0.0001475 6563.03027 6666.51514
6671.0 0.0001499 6562.16895 6658.29199
6592.0 0.0001517 6561.30615 6651.52686
6746.0 0.0001482 6560.44189 6646.05078
6546.0 0.0001528 6559.57617 6641.80273
6454.0 0.0001549 6558.70898 6638.86279
6655.0 0.0001503 6557.84033 6637.54443
6604.0 0.0001514 6556.97021 6636.28809
6672.0 0.0001499 6556.09863 6641.21338
6755.0 0.0001480 6555.22559 6652.52539
6711.0 0.0001490 6554.35107 6674.22461
6768.0 0.0001478 6553.47510 6711.61426
6932.0 0.0001443 6552.59766 6770.42432
6900.0 0.0001449 6551.71924 6854.91113
7026.0 0.0001423 6550.83936 6965.18408
7023.0 0.0001424 6549.95801 7094.51074
7119.0 0.0001405 6549.07520 7227.35254
7187.0 0.0001391 6548.19141 7338.82568
7280.0 0.0001374 6547.30566 7398.64258
7303.0 0.0001369 6546.41895 7385.41016
7215.0 0.0001386 6545.53125 7304.57861
7140.0 0.0001401 6544.64209 7179.61475
7089.0 0.0001411 6543.75146 7041.39209
6927.0 0.0001444 6542.85986 6912.11328
6783.0 0.0001474 6541.96680 6804.57129
6725.0 0.0001487 6541.07275 6723.21875
6696.0 0.0001493 6540.17725 6666.41064
6596.0 0.0001516 6539.28027 6629.18213
6560.0 0.0001524 6538.38281 6605.74316
6685.0 0.0001496 6537.48340 6591.08154
6658.0 0.0001502 6536.58350 6581.58594
6593.0 0.0001517 6535.68213 6574.98535
6475.0 0.0001544 6534.77930 6569.99268
6543.0 0.0001528 6533.87598 6565.93408
6639.0 0.0001506 6532.97119 6562.46338
6630.0 0.0001508 6532.06543 6559.40430
6543.0 0.0001528 6531.15820 6556.65723
6589.0 0.0001518 6530.25049 6554.16016
6507.0 0.0001537 6529.34131 6551.86621
6475.0 0.0001544 6528.43115 6549.74268
6410.0 0.0001560 6527.52002 6547.76318
6437.0 0.0001554 6526.60791 6545.90967
6400.0 0.0001562 6525.69434 6544.23389
6494.0 0.0001540 6524.78027 6542.58691
6395.0 0.0001564 6523.86523 6541.06201
6521.0 0.0001534 6522.94873 6539.59912
6620.0 0.0001511 6522.03125 6538.23682
6460.0 0.0001548 6521.11328 6536.99316
6558.0 0.0001525 6520.19434 6535.89453
6570.0 0.0001522 6519.27441 6534.98340
6483.0 0.0001542 6518.35303 6534.29004
6486.0 0.0001542 6517.43115 6533.84521
6412.0 0.0001560 6516.50830 6533.64453
6396.0 0.0001563 6515.58496 6533.64355
6479.0 0.0001543 6514.66016 6533.74219
6539.0 0.0001529 6513.73486 6533.79297
6598.0 0.0001516 6512.80811 6533.60498
6472.0 0.0001545 6511.88086 6532.99268
6566.0 0.0001523 6510.95313 6531.85010
6617.0 0.0001511 6510.02441 6530.21143
6445.0 0.0001552 6509.09473 6528.23486
6628.0 0.0001509 6508.16406 6526.11230
6651.0 0.0001504 6507.23291 6524.01709
6589.0 0.0001518 6506.30078 6522.08203
6602.0 0.0001515 6505.36816 6520.38232
6483.0 0.0001542 6504.43457 6518.94727
6584.0 0.0001519 6503.50049 6517.78613
6603.0 0.0001514 6502.56543 6516.88428
6552.0 0.0001526 6501.62939 6516.24463
6412.0 0.0001560 6500.69287 6517.64551
6438.0 0.0001553 6499.75586 6517.61621
6399.0 0.0001563 6498.81787 6517.90381
6378.0 0.0001568 6497.87939 6518.51172
6433.0 0.0001554 6496.93994 6519.39746
6415.0 0.0001559 6496.00049 6520.46436
6552.0 0.0001526 6495.05957 6521.55859
6491.0 0.0001541 6494.11865 6522.47754
6562.0 0.0001524 6493.17676 6523.00781
6433.0 0.0001554 6492.23389 6519.63281
6558.0 0.0001525 6491.29102 6519.19629
6561.0 0.0001524 6490.34717 6518.42529
6553.0 0.0001526 6489.40283 6517.56982
6519.0 0.0001534 6488.45801 6516.88037
6477.0 0.0001544 6487.51270 6516.57715
6450.0 0.0001550 6486.56641 6516.89111
6421.0 0.0001557 6485.62012 6517.94873
6518.0 0.0001534 6484.67285 6520.06152
6437.0 0.0001554 6483.72510 6523.68164
6436.0 0.0001554 6482.77686 6529.58887
6427.0 0.0001556 6481.82813 6539.06934
6430.0 0.0001555 6480.87891 6554.13477
6620.0 0.0001511 6479.92920 6577.71094
6544.0 0.0001528 6478.97900 6613.73047
6521.0 0.0001534 6478.02832 6667.00732
6781.0 0.0001475 6477.07715 6742.76953
6891.0 0.0001451 6476.12500 6845.74170
7144.0 0.0001400 6475.17285 6978.82324
7060.0 0.0001416 6474.22021 7141.54004
7296.0 0.0001371 6473.26758 7328.62549
7600.0 0.0001316 6472.31396 7529.10645
7741.0 0.0001292 6471.35986 7726.20850
7837.0 0.0001276 6470.40576 7897.65967
8060.0 0.0001241 6469.45068 8020.80566
8100.0 0.0001235 6468.49561 8074.40039
7963.0 0.0001256 6467.54053 8049.02588
7953.0 0.0001257 6466.58398 7951.23291
7889.0 0.0001268 6465.62793 7800.22314
7531.0 0.0001328 6464.67090 7619.79395
7393.0 0.0001353 6463.71436 7431.86768
7219.0 0.0001385 6462.75635 7253.24609
6888.0 0.0001452 6461.79883 7094.50928
6999.0 0.0001429 6460.84082 6960.30615
6760.0 0.0001479 6459.88232 6850.79053
6778.0 0.0001475 6458.92383 6763.54590
6640.0 0.0001506 6457.96436 6695.04541
6653.0 0.0001503 6457.00488 6641.67090
6627.0 0.0001509 6456.04492 6600.30273
6659.0 0.0001502 6455.08545 6568.46680
6551.0 0.0001526 6454.12451 6544.22510
6637.0 0.0001507 6453.16406 6526.02246
6704.0 0.0001492 6452.20361 6512.57715
6567.0 0.0001523 6451.24219 6502.80078
6483.0 0.0001542 6450.28076 6495.78320
6448.0 0.0001551 6449.31885 6490.78174
6326.0 0.0001581 6448.35693 6487.22949
6604.0 0.0001514 6447.39453 6484.72852
6481.0 0.0001543 6446.43213 6483.03223
6571.0 0.0001522 6445.46924 6482.02490
6473.0 0.0001545 6444.50635 6481.74219
6513.0 0.0001535 6443.54346 6482.34814
6558.0 0.0001525 6442.58008 6484.11230
6459.0 0.0001548 6441.61621 6487.56055
6619.0 0.0001511 6440.65234 6493.45947
6540.0 0.0001529 6439.68848 6502.90576
6594.0 0.0001517 6438.72412 6517.40674
6519.0 0.0001534 6437.75977 6538.92676
6616.0 0.0001511 6436.79492 6569.92969
6717.0 0.0001489 6435.83057 6613.32617
6849.0 0.0001460 6434.86572 6672.34570
6906.0 0.0001448 6433.90039 6750.30420
7096.0 0.0001409 6432.93506 6850.23291
6997.0 0.0001429 6431.96924 6974.42285
7023.0 0.0001424 6431.00391 7123.87793
7295.0 0.0001371 6430.03760 7297.78857
7330.0 0.0001364 6429.07227 7493.07520
7744.0 0.0001291 6428.10596 7704.10400
7967.0 0.0001255 6427.13965 7922.63330
8065.0 0.0001240 6426.17334 8138.03613
8256.0 0.0001211 6425.20654 8337.85645
8809.0 0.0001135 6424.24023 8508.60938
8852.0 0.0001130 6423.27344 8637.08398
8939.0 0.0001119 6422.30664 8712.03809
9039.0 0.0001106 6421.33936 8726.12988
8827.0 0.0001133 6420.37256 8677.47168
8735.0 0.0001145 6419.40527 8570.16309
8552.0 0.0001169 6418.43799 8413.53613
8162.0 0.0001225 6417.47070 8220.39746
7991.0 0.0001251 6416.50293 8004.92285
7805.0 0.0001281 6415.53564 7780.88232
7658.0 0.0001306 6414.56787 7560.39990
7346.0 0.0001361 6413.60010 7353.19971
7161.0 0.0001396 6412.63184 7166.20996
6953.0 0.0001438 6411.66406 7003.53711
6877.0 0.0001454 6410.69629 6866.71631
6675.0 0.0001498 6409.72803 6755.19971
6816.0 0.0001467 6408.76025 6666.93311
6530.0 0.0001531 6407.79150 6598.94629
6573.0 0.0001521 6406.82373 6547.87109
6470.0 0.0001546 6405.85498 6510.34668
6621.0 0.0001510 6404.88672 6483.28662
6449.0 0.0001551 6403.91846 6464.05811
6495.0 0.0001540 6402.94971 6450.52588
6417.0 0.0001558 6401.98145 6441.04346
6522.0 0.0001533 6401.01270 6434.38916
6407.0 0.0001561 6400.04443 6429.68555
6440.0 0.0001553 6399.07520 6426.30762
6531.0 0.0001531 6398.10693 6423.80713
6458.0 0.0001548 6397.13770 6421.84033
6351.0 0.0001575 6396.16943 6420.13135
6432.0 0.0001555 6395.20068 6418.44580
6292.0 0.0001589 6394.23145 6416.60107
6440.0 0.0001553 6393.26270 6414.50244
6537.0 0.0001530 6392.29395 6412.15869
6371.0 0.0001570 6391.32520 6409.66113
6276.0 0.0001593 6390.35596 6407.12354
6413.0 0.0001559 6389.38721 6404.65137
6263.0 0.0001597 6388.41797 6400.92139
6379.0 0.0001568 6387.44922 6398.80127
6465.0 0.0001547 6386.48047 6396.87109
6417.0 0.0001558 6385.51123 6395.11328
6381.0 0.0001567 6384.54248 6393.50586
6423.0 0.0001557 6383.57324 6392.01611
6566.0 0.0001523 6382.60449 6390.61719
6390.0 0.0001565 6381.63525 6389.28516
6435.0 0.0001554 6380.66650 6388.00928
6392.0 0.0001564 6379.69775 6386.77832
6333.0 0.0001579 6378.72852 6385.59619
6393.0 0.0001564 6377.75977 6384.46973
6316.0 0.0001583 6376.79053 6383.41553
6361.0 0.0001572 6375.82178 6382.46533
6280.0 0.0001592 6374.85254 6381.66406
6302.0 0.0001587 6373.88379 6381.07568
6387.0 0.0001566 6372.91455 6380.77881
6391.0 0.0001565 6371.94580 6380.86572
6498.0 0.0001539 6370.97705 6381.42090
6335.0 0.0001579 6370.00781 6382.50781
6277.0 0.0001593 6369.03906 6384.13818
6348.0 0.0001575 6368.07031 6386.24805
6315.0 0.0001584 6367.10156 6388.67383
6267.0 0.0001596 6366.13232 6391.14844
6407.0 0.0001561 6365.16406 6393.30664
6358.0 0.0001573 6364.19482 6394.72803
6195.0 0.0001614 6363.22656 6395.01611
6387.0 0.0001566 6362.25781 6393.93408
6319.0 0.0001583 6361.28906 6391.51709
6250.0 0.0001600 6360.32031 6388.04639
6339.0 0.0001578 6359.35156 6383.91553
6284.0 0.0001591 6358.38330 6379.51318
6382.0 0.0001567 6357.41455 6375.16113
6389.0 0.0001565 6356.44580 6371.08936
6289.0 0.0001590 6355.47754 6367.43506
6309.0 0.0001585 6354.50879 6364.24805
6432.0 0.0001555 6353.54053 6361.51611
6540.0 0.0001529 6352.57178 6359.18311
6364.0 0.0001571 6351.60352 6357.17676
6367.0 0.0001571 6350.63525 6355.42334
6417.0 0.0001558 6349.66699 6353.86133
6477.0 0.0001544 6348.69873 6352.43896
6380.0 0.0001567 6347.73047 6351.11963
6389.0 0.0001565 6346.76221 6349.87695
6338.0 0.0001578 6345.79395 6348.69043
6438.0 0.0001553 6344.82617 6347.54834
6471.0 0.0001545 6343.85791 6346.44141
6395.0 0.0001564 6342.89014 6345.36279
6479.0 0.0001543 6341.92188 6344.30371
6284.0 0.0001591 6340.95410 6341.49609
6427.0 0.0001556 6339.98584 6340.51611
6428.0 0.0001556 6339.01807 6339.55420
6411.0 0.0001560 6338.05029 6338.61719
6313.0 0.0001584 6337.08252 6337.71582
6125.0 0.0001633 6336.11475 6336.87158
6321.0 0.0001582 6335.14697 6336.11523
6425.0 0.0001556 6334.17920 6335.48584
6443.0 0.0001552 6333.21143 6335.02832
6302.0 0.0001587 6332.24414 6334.78662
6272.0 0.0001594 6331.27686 6334.78662
6416.0 0.0001559 6330.30908 6335.01904
6225.0 0.0001606 6329.34180 6335.43115
6300.0 0.0001587 6328.37402 6335.91064
6310.0 0.0001585 6327.40674 6336.29053
6241.0 0.0001602 6326.43945 6336.37988
6334.0 0.0001579 6325.47217 6335.97070
6405.0 0.0001561 6324.50488 6334.93652
6341.0 0.0001577 6323.53809 6333.29248
6330.0 0.0001580 6322.57129 6331.19629
6290.0 0.0001590 6321.60400 6328.83008
6343.0 0.0001577 6320.63721 6326.40479
6416.0 0.0001559 6319.66992 6324.07275
6467.0 0.0001546 6318.70313 6321.93457
6388.0 0.0001565 6317.73584 6320.03271
6236.0 0.0001604 6316.76953 6318.37061
6238.0 0.0001603 6315.80273 6316.91309
6346.0 0.0001576 6314.83594 6315.61865
6272.0 0.0001594 6313.86963 6314.45361
6309.0 0.0001585 6312.90283 6313.35645
6261.0 0.0001597 6311.93652 6312.30615
6263.0 0.0001597 6310.96973 6311.28711
6299.0 0.0001588 6310.00342 6310.28516
6250.0 0.0001600 6309.03711 6309.29199
6429.0 0.0001555 6308.07080 6308.30518
6361.0 0.0001572 6307.10498 6307.32373
6199.0 0.0001613 6306.13867 6306.34375
6373.0 0.0001569 6305.17236 6305.36572
6248.0 0.0001601 6304.20605 6304.38867
6309.0 0.0001585 6303.24023 6303.41455
6476.0 0.0001544 6302.27441 6302.44043
6268.0 0.0001595 6301.30859 6301.46777
6277.0 0.0001593 6300.34277 6300.62109
6235.0 0.0001604 6299.37695 6299.65234
6303.0 0.0001587 6298.41162 6298.68457
6339.0 0.0001578 6297.44580 6297.71729
6305.0 0.0001586 6296.48047 6296.75049
6308.0 0.0001585 6295.51465 6295.78320
6433.0 0.0001554 6294.54932 6294.86865
6308.0 0.0001585 6293.58398 6293.90430
6182.0 0.0001618 6292.61865 6292.94189
6250.0 0.0001600 6291.65332 6291.97900
6405.0 0.0001561 6290.68848 6291.01758
6448.0 0.0001551 6289.72363 6290.05566
6272.0 0.0001594 6288.75830 6289.09375
6181.0 0.0001618 6287.79346 6288.13428
6272.0 0.0001594 6286.82861 6287.17383
6274.0 0.0001594 6285.86377 6286.21387
6183.0 0.0001617 6284.89893 6285.25537
6391.0 0.0001565 6283.93457 6284.29785
6256.0 0.0001598 6282.97021 6283.31934
6334.0 0.0001579 6282.00537 6282.36230
6280.0 0.0001592 6281.04102 6281.42383
6260.0 0.0001597 6280.07666 6280.46875
6149.0 0.0001626 6279.11230 6279.51367
6272.0 0.0001594 6278.14795 6278.55518
6278.0 0.0001593 6277.18408 6277.60205
6191.0 0.0001615 6276.22021 6276.65039
6021.0 0.0001661 6275.25635 6275.69922
6254.0 0.0001599 6274.29248 6274.74902
6107.0 0.0001637 6273.32861 6273.79932
6279.0 0.0001593 6272.36523 6272.85059
6272.0 0.0001594 6271.40137 6271.90381
6382.0 0.0001567 6270.43799 6270.95801
6257.0 0.0001598 6269.47461 6270.01318
6317.0 0.0001583 6268.51123 6269.06982
6237.0 0.0001603 6267.54785 6268.12793
6282.0 0.0001592 6266.58496 6267.18848
6278.0 0.0001593 6265.62256 6266.25195
6278.0 0.0001593 6264.65918 6265.31592
6260.0 0.0001597 6263.69678 6264.38330
6310.0 0.0001585 6262.73389 6263.45361
6128.0 0.0001632 6261.77148 6262.52637
6167.0 0.0001622 6260.80859 6261.60400
6301.0 0.0001587 6259.84619 6260.68750
6170.0 0.0001621 6258.88428 6259.77881
6258.0 0.0001598 6257.92188 6258.87988
6251.0 0.0001600 6256.95996 6257.99805
6289.0 0.0001590 6255.99756 6257.14355
6166.0 0.0001622 6255.03613 6256.33643
6278.0 0.0001593 6254.07422 6255.60791
6367.0 0.0001571 6253.11279 6255.46045
6342.0 0.0001577 6252.15088 6255.03223
6234.0 0.0001604 6251.18994 6254.84668
6295.0 0.0001589 6250.22852 6254.96582
6310.0 0.0001585 6249.26709 6255.43652
6332.0 0.0001579 6248.30664 6256.26807
6258.0 0.0001598 6247.34521 6257.40918
6310.0 0.0001585 6246.38477 6258.74170
6342.0 0.0001577 6245.42383 6260.07080
6253.0 0.0001599 6244.46338 6261.15527
6315.0 0.0001584 6243.50293 6261.75439
6327.0 0.0001581 6242.54297 6261.69189
6331.0 0.0001580 6241.58301 6260.96973
6205.0 0.0001612 6240.62256 6259.79492
6310.0 0.0001585 6239.66309 6258.47510
6402.0 0.0001562 6238.70313 6257.29297
6202.0 0.0001612 6237.74365 6256.41797
6337.0 0.0001578 6236.78418 6255.86963
6343.0 0.0001577 6235.82520 6255.51611
6252.0 0.0001599 6234.86621 6255.09521
6249.0 0.0001600 6233.90674 6254.29541
6285.0 0.0001591 6232.94824 6252.87305
6095.0 0.0001641 6231.98926 6250.77100
6218.0 0.0001608 6231.03125 6248.13330
6170.0 0.0001621 6230.07275 6245.21582
6184.0 0.0001617 6229.11475 6242.29004
6326.0 0.0001581 6228.15625 6239.59521
6203.0 0.0001612 6227.19873 6237.31836
6276.0 0.0001593 6226.24121 6235.60498
6212.0 0.0001610 6225.28320 6234.56934
6116.0 0.0001635 6224.32617 6234.33643
6263.0 0.0001597 6223.36865 6235.04736
6232.0 0.0001605 6222.41162 6236.87646
6179.0 0.0001618 6221.45508 6239.97656
6337.0 0.0001578 6220.49854 6244.43555
6269.0 0.0001595 6219.54150 6250.16943
6093.0 0.0001641 6218.58545 6256.85303
6177.0 0.0001619 6217.62939 6263.83350
6304.0 0.0001586 6216.67334 6270.11914
6407.0 0.0001561 6215.71777 6274.45361
6298.0 0.0001588 6214.76221 6275.64990
6334.0 0.0001579 6213.80713 6273.21582
6273.0 0.0001594 6212.85156 6267.71973
6358.0 0.0001573 6211.89697 6260.45703
6283.0 0.0001592 6210.94238 6252.83105
6231.0 0.0001605 6209.98730 6246.00537
6270.0 0.0001595 6209.03320 6240.80469
6274.0 0.0001594 6208.07910 6237.71191
6215.0 0.0001609 6207.12500 6236.89209
6189.0 0.0001616 6206.17139 6238.25830
6360.0 0.0001572 6205.21777 6241.54102
6238.0 0.0001603 6204.26416 6246.36475
6147.0 0.0001627 6203.31152 6252.30566
6193.0 0.0001615 6202.35889 6258.94873
6387.0 0.0001566 6201.40576 6265.99121
6261.0 0.0001597 6200.45361 6273.34668
6273.0 0.0001594 6199.50146 6281.15430
6465.0 0.0001547 6198.54932 6289.62793
6375.0 0.0001569 6197.59766 6299.07178
6205.0 0.0001612 6196.64648 6309.04443
6254.0 0.0001599 6195.69482 6319.40625
6370.0 0.0001570 6194.74414 6329.61475
6384.0 0.0001566 6193.79346 6338.93555
6352.0 0.0001574 6192.84277 6346.57227
6367.0 0.0001571 6191.89258 6351.79492
6392.0 0.0001564 6190.94238 6354.14844
6478.0 0.0001544 6189.99268 6353.63672
6310.0 0.0001585 6189.04297 6350.82080
6485.0 0.0001542 6188.09375 6346.76758
6499.0 0.0001539 6187.14502 6342.92871
6328.0 0.0001580 6186.19580 6340.95508
6398.0 0.0001563 6185.24756 6342.53760
6447.0 0.0001551 6184.29932 6349.25000
6331.0 0.0001580 6183.35107 6362.36865
6430.0 0.0001555 6182.40332 6382.70508
6443.0 0.0001552 6181.45605 6410.41064
6421.0 0.0001557 6180.50879 6444.84668
6406.0 0.0001561 6179.56201 6484.49414
6384.0 0.0001566 6178.61523 6526.95313
6531.0 0.0001531 6177.66895 6569.04541
6675.0 0.0001498 6176.72314 6607.01563
6665.0 0.0001500 6175.77686 6636.86523
6755.0 0.0001480 6174.83154 6654.91211
6572.0 0.0001522 6173.88623 6658.51660
6692.0 0.0001494 6172.94141 6646.78320
6745.0 0.0001483 6171.99658 6620.79639
6585.0 0.0001519 6171.05225 6583.23730
6658.0 0.0001502 6170.10840 6537.66650
6558.0 0.0001525 6169.16455 6487.78027
6232.0 0.0001605 6168.22119 6437.02051
6297.0 0.0001588 6167.27783 6388.24219
6359.0 0.0001573 6166.33496 6343.57910
6193.0 0.0001615 6165.39209 6304.39160
6283.0 0.0001592 6164.44971 6271.31152
6217.0 0.0001608 6163.50830 6244.34619
6289.0 0.0001590 6162.56641 6223.06689
6149.0 0.0001626 6161.62500 6206.73291
6166.0 0.0001622 6160.68359 6194.47803
6239.0 0.0001603 6159.74316 6185.43018
6105.0 0.0001638 6158.80273 6178.79980
6182.0 0.0001618 6157.86279 6173.92285
6162.0 0.0001623 6156.92236 6170.27637
6215.0 0.0001609 6155.98340 6167.46924
6089.0 0.0001642 6155.04443 6165.22949
6165.0 0.0001622 6154.10498 6163.35693
6225.0 0.0001606 6153.16699 6161.76123
6021.0 0.0001661 6152.22852 6160.35840
6086.0 0.0001643 6151.29053 6159.11182
6129.0 0.0001632 6150.35303 6157.99902
6300.0 0.0001587 6149.41602 6157.00732
6345.0 0.0001576 6148.47852 6156.12109
6278.0 0.0001593 6147.54248 6155.31836
6064.0 0.0001649 6146.60645 6154.56543
6015.0 0.0001663 6145.66992 6153.82324
6223.0 0.0001607 6144.73486 6153.04443
6127.0 0.0001632 6143.79932 6152.18701
6191.0 0.0001615 6142.86426 6151.21387
6181.0 0.0001618 6141.92969 6150.13818
6161.0 0.0001623 6140.99561 6148.99805
6062.0 0.0001650 6140.06201 6147.85205
6202.0 0.0001612 6139.12793 6146.75732
6162.0 0.0001623 6138.19482 6145.76367
6212.0 0.0001610 6137.26172 6144.90332
6209.0 0.0001611 6136.32959 6144.19971
6102.0 0.0001639 6135.39697 6143.65186
6205.0 0.0001612 6134.46533 6143.28223
6270.0 0.0001595 6133.53369 6143.06055
6008.0 0.0001664 6132.60254 6143.04248
6012.0 0.0001663 6131.67188 6143.33691
6226.0 0.0001606 6130.74121 6144.16650
6119.0 0.0001634 6129.81104 6146.12207
6034.0 0.0001657 6128.88086 6149.42383
6171.0 0.0001620 6127.95166 6155.07861
6193.0 0.0001615 6127.02246 6164.06836
6223.0 0.0001607 6126.09375 6177.38867
6145.0 0.0001627 6125.16504 6195.79102
6342.0 0.0001577 6124.23730 6219.42334
6360.0 0.0001572 6123.30957 6247.45850
6317.0 0.0001583 6122.38184 6277.84961
6320.0 0.0001582 6121.45508 6307.02539
6312.0 0.0001584 6120.52783 6330.33350
6341.0 0.0001577 6119.60156 6342.70654
6311.0 0.0001585 6118.67529 6340.74512
6275.0 0.0001594 6117.75000 6324.79443
6316.0 0.0001583 6116.82471 6298.66064
6174.0 0.0001620 6115.89941 6267.36133
6123.0 0.0001633 6114.97461 6235.35889
6182.0 0.0001618 6114.05029 6205.89160
6178.0 0.0001619 6113.12646 6180.86230
6207.0 0.0001611 6112.20215 6160.98242
6011.0 0.0001664 6111.27930 6145.99365
6216.0 0.0001609 6110.35596 6135.16260
6029.0 0.0001659 6109.43359 6127.53955
6103.0 0.0001639 6108.51123 6122.21582
6112.0 0.0001636 6107.58887 6118.44824
6097.0 0.0001640 6106.66748 6115.69678
6183.0 0.0001617 6105.74561 6113.59717
6141.0 0.0001628 6104.82471 6111.93408
6179.0 0.0001618 6103.90381 6110.63672
6217.0 0.0001608 6102.98340 6109.57813
6123.0 0.0001633 6102.06348 6108.81152
6038.0 0.0001656 6101.14355 6108.36963
5988.0 0.0001670 6100.22461 6108.30127
6060.0 0.0001650 6099.30518 6108.63770
6072.0 0.0001647 6098.38623 6109.37158
6134.0 0.0001630 6097.46777 6110.43848
6145.0 0.0001627 6096.54980 6111.70508
6122.0 0.0001633 6095.63135 6112.95654
6067.0 0.0001648 6094.71387 6113.91748
6181.0 0.0001618 6093.79688 6114.28760
6163.0 0.0001623 6092.87988 6113.80811
6094.0 0.0001641 6091.96338 6112.36621
5951.0 0.0001680 6091.04639 6110.05566
6009.0 0.0001664 6090.13086 6107.12207
6000.0 0.0001667 6089.21484 6103.86426
6151.0 0.0001626 6088.29932 6100.56055
6153.0 0.0001625 6087.38379 6097.42334
5953.0 0.0001680 6086.46924 6094.61865
6024.0 0.0001660 6085.55469 6092.15771
6134.0 0.0001630 6084.63965 6089.57373
6009.0 0.0001664 6083.72607 6088.29053
6072.0 0.0001647 6082.81201 6086.82861
6244.0 0.0001602 6081.89844 6085.57520
6343.0 0.0001577 6080.98486 6084.47314
6095.0 0.0001641 6080.07178 6083.47949
6110.0 0.0001637 6079.15918 6082.56787
5858.0 0.0001707 6078.24658 6081.72705
6180.0 0.0001618 6077.33447 6080.95703
6064.0 0.0001649 6076.42236 6080.27197
6112.0 0.0001636 6075.51025 6079.68799
6066.0 0.0001649 6074.59863 6079.22803
6142.0 0.0001628 6073.68750 6078.90430
6036.0 0.0001657 6072.77637 6078.72607
6190.0 0.0001616 6071.86523 6078.68604
6087.0 0.0001643 6070.95508 6078.76318
6133.0 0.0001631 6070.04443 6078.91992
6053.0 0.0001652 6069.13428 6079.12158
6044.0 0.0001655 6068.22412 6079.33350
6013.0 0.0001663 6067.31445 6079.55225
5991.0 0.0001669 6066.40430 6079.82568
6062.0 0.0001650 6065.49512 6080.26563
6103.0 0.0001639 6064.58545 6080.99707
6110.0 0.0001637 6063.67676 6082.11475
6123.0 0.0001633 6062.76807 6084.30127
5956.0 0.0001679 6061.85889 6086.10254
6155.0 0.0001625 6060.95068 6087.95557
6196.0 0.0001614 6060.04199 6089.52539
6071.0 0.0001647 6059.13428 6090.42920
6061.0 0.0001650 6058.22559 6090.33643
6073.0 0.0001647 6057.31787 6089.11328
6128.0 0.0001632 6056.41016 6086.89014
6016.0 0.0001662 6055.50244 6084.06982
6031.0 0.0001658 6054.59521 6080.95508
6054.0 0.0001652 6053.68750 6078.04834
6020.0 0.0001661 6052.78076 6075.78027
5994.0 0.0001668 6051.87305 6074.58447
6096.0 0.0001640 6050.96631 6074.95117
6075.0 0.0001646 6050.05908 6077.47998
6088.0 0.0001643 6049.15234 6082.91406
6129.0 0.0001632 6048.24609 6092.18848
6130.0 0.0001631 6047.33936 6106.17627
6033.0 0.0001658 6046.43262 6125.74707
6195.0 0.0001614 6045.52588 6151.33936
6161.0 0.0001623 6044.61963 6182.70605
6201.0 0.0001613 6043.71289 6218.44580
6272.0 0.0001594 6042.80713 6256.57373
6352.0 0.0001574 6041.90039 6293.33594
6250.0 0.0001600 6040.99414 6324.17041
6386.0 0.0001566 6040.08838 6344.38770
6243.0 0.0001602 6039.18164 6350.89453
6372.0 0.0001569 6038.27588 6343.80225
6252.0 0.0001599 6037.36963 6326.17578
6208.0 0.0001611 6036.46338 6302.32813
6268.0 0.0001595 6035.55713 6276.30859
6178.0 0.0001619 6034.65088 6251.22363
6115.0 0.0001635 6033.74463 6228.97949
6051.0 0.0001653 6032.83838 6210.25439
6160.0 0.0001623 6031.93262 6194.75000
6102.0 0.0001639 6031.02588 6181.62939
6135.0 0.0001630 6030.11963 6169.70703
5938.0 0.0001684 6029.21338 6157.91455
6206.0 0.0001611 6028.30664 6145.39258
6163.0 0.0001623 6027.39990 6131.81641
6101.0 0.0001639 6026.49365 6117.46045
6231.0 0.0001605 6025.58691 6103.01270
6063.0 0.0001649 6024.68018 6089.23926
6028.0 0.0001659 6023.77344 6076.79834
6061.0 0.0001650 6022.86621 6066.15234
6072.0 0.0001647 6021.95898 6057.55029
6006.0 0.0001665 6021.05176 6051.05566
6077.0 0.0001646 6020.14453 6046.59766
5985.0 0.0001671 6019.23682 6044.02637
6126.0 0.0001632 6018.32910 6043.15430
6067.0 0.0001648 6017.42139 6043.76367
6010.0 0.0001664 6016.51318 6045.64697
6007.0 0.0001665 6015.60498 6048.50732
6136.0 0.0001630 6014.69629 6051.97949
6187.0 0.0001616 6013.78809 6055.60596
5958.0 0.0001678 6012.87891 6058.84229
5986.0 0.0001671 6011.97021 6061.11084
6012.0 0.0001663 6011.06055 6061.90625
5968.0 0.0001676 6010.15137 6060.97949
6103.0 0.0001639 6009.24170 6058.44775
6037.0 0.0001656 6008.33154 6054.73877
6121.0 0.0001634 6007.42139 6050.41650
6049.0 0.0001653 6006.51074 6046.03223
6054.0 0.0001652 6005.60010 6042.04541
6122.0 0.0001633 6004.68848 6038.79541
6075.0 0.0001646 6003.77734 6036.51123
6045.0 0.0001654 6002.86572 6035.33838
6122.0 0.0001633 6001.95361 6035.37793
6049.0 0.0001653 6001.04150 6036.79150
6142.0 0.0001628 6000.12842 6039.87402
6082.0 0.0001644 5999.21582 6045.17139
5981.0 0.0001672 5998.30225 6053.62354
6108.0 0.0001637 5997.38867 6066.72363
6144.0 0.0001628 5996.47461 6086.66455
6159.0 0.0001624 5995.56006 6116.42920
6208.0 0.0001611 5994.64551 6159.67920
6233.0 0.0001604 5993.72998 6220.31885
6329.0 0.0001580 5992.81445 6301.65479
6415.0 0.0001559 5991.89795 6405.12793
6473.0 0.0001545 5990.98145 6528.90625
6504.0 0.0001538 5990.06445 6666.64258
6729.0 0.0001486 5989.14697 6806.77100
6753.0 0.0001481 5988.22900 6932.65625
6887.0 0.0001452 5987.31055 7024.95947
6876.0 0.0001454 5986.39209 7068.48389
6932.0 0.0001443 5985.47217 7060.89600
6892.0 0.0001451 5984.55273 7013.48779
6945.0 0.0001440 5983.63232 6942.98145
6808.0 0.0001469 5982.71143 6864.14941
6767.0 0.0001478 5981.78955 6787.19141
6689.0 0.0001495 5980.86768 6717.48340
6666.0 0.0001500 5979.94531 6656.49512
6660.0 0.0001502 5979.02197 6603.36719
6533.0 0.0001531 5978.09863 6555.46777
6404.0 0.0001562 5977.17432 6510.77881
6522.0 0.0001533 5976.24951 6467.59961
6442.0 0.0001552 5975.32373 6424.88184
6349.0 0.0001575 5974.39795 6382.13281
6295.0 0.0001589 5973.47119 6339.22656
6232.0 0.0001605 5972.54395 6296.31934
6293.0 0.0001589 5971.61621 6253.87207
6297.0 0.0001588 5970.68701 6212.68750
5949.0 0.0001681 5969.75830 6173.79541
6151.0 0.0001626 5968.82764 6138.19727
6059.0 0.0001650 5967.89746 6106.67188
6011.0 0.0001664 5966.96582 6079.69678
6010.0 0.0001664 5966.03369 6057.45703
5992.0 0.0001669 5965.10107 6039.88623
5948.0 0.0001681 5964.16748 6026.74316
6015.0 0.0001663 5963.23340 6018.05713
6072.0 0.0001647 5962.29834 6012.62158
5999.0 0.0001667 5961.36230 6010.35693
5957.0 0.0001679 5960.42578 6010.75391
5930.0 0.0001686 5959.48877 6013.23535
5914.0 0.0001691 5958.55029 6017.12891
6023.0 0.0001660 5957.61133 6021.65430
5987.0 0.0001670 5956.67188 6025.93066
5978.0 0.0001673 5955.73096 6029.04443
6116.0 0.0001635 5954.79004 6030.21777
5989.0 0.0001670 5953.84766 6029.04102
6010.0 0.0001664 5952.90479 6025.61865
5928.0 0.0001687 5951.96045 6020.46777
6126.0 0.0001632 5951.01563 6014.30322
5903.0 0.0001694 5950.06982 6007.67676
6129.0 0.0001632 5949.12354 6001.66943
6004.0 0.0001666 5948.17578 5996.63184
5987.0 0.0001670 5947.22754 5992.93994
5973.0 0.0001674 5946.27832 5990.77539
5948.0 0.0001681 5945.32764 5990.15967
6012.0 0.0001663 5944.37646 5990.97754
5865.0 0.0001705 5943.42432 5993.03174
6043.0 0.0001655 5942.47119 5996.07324
5856.0 0.0001708 5941.51709 5999.73145
5911.0 0.0001692 5940.56201 6003.91699
6019.0 0.0001661 5939.60596 6008.25098
5999.0 0.0001667 5938.64844 6012.45117
5988.0 0.0001670 5937.69043 6016.25537
6110.0 0.0001637 5936.73145 6019.38281
6033.0 0.0001658 5935.77148 6021.60986
6058.0 0.0001651 5934.81006 6022.74268
6037.0 0.0001656 5933.84766 6022.62500
6038.0 0.0001656 5932.88428 6021.25879
5967.0 0.0001676 5931.91992 6018.65234
6000.0 0.0001667 5930.95459 6014.91211
5951.0 0.0001680 5929.98779 6010.20166
6012.0 0.0001663 5929.02002 6004.70752
6080.0 0.0001645 5928.05127 5998.62109
5935.0 0.0001685 5927.08154 5992.12402
5954.0 0.0001680 5926.11035 5985.37500
5990.0 0.0001669 5925.13818 5978.52393
5970.0 0.0001675 5924.16504 5971.70654
5945.0 0.0001682 5923.19043 5965.06885
6056.0 0.0001651 5922.21484 5958.74756
5904.0 0.0001694 5921.23779 5952.85449
5980.0 0.0001672 5920.25977 5947.47607
6062.0 0.0001650 5919.28027 5942.65283
5920.0 0.0001689 5918.30029 5938.40430
5857.0 0.0001707 5917.31836 5934.72754
5868.0 0.0001704 5916.33545 5931.55029
5988.0 0.0001670 5915.35156 5928.83398
6031.0 0.0001658 5914.36621 5926.51904
5855.0 0.0001708 5913.37988 5924.54199
6064.0 0.0001649 5912.39160 5922.84570
6021.0 0.0001661 5911.40283 5921.40137
6052.0 0.0001652 5910.41211 5920.11914
5938.0 0.0001684 5909.42090 5918.99072
5965.0 0.0001676 5908.42822 5917.98682
6114.0 0.0001636 5907.43359 5917.09375
5910.0 0.0001692 5906.43848 5916.30078
5909.0 0.0001692 5905.44141 5915.60986
5922.0 0.0001689 5904.44336 5915.09424
6011.0 0.0001664 5903.44385 5914.66211
5993.0 0.0001669 5902.44336 5914.42969
5986.0 0.0001671 5901.44092 5914.50049
5991.0 0.0001669 5900.43750 5915.02490
6025.0 0.0001660 5899.43311 5916.24854
5967.0 0.0001676 5898.42676 5918.51074
5955.0 0.0001679 5897.41895 5922.28564
6018.0 0.0001662 5896.41016 5928.17188
5971.0 0.0001675 5895.39990 5936.87207
6229.0 0.0001605 5894.38818 5949.14160
6253.0 0.0001599 5893.37500 5965.67480
6170.0 0.0001621 5892.36035 5986.97363
6029.0 0.0001659 5891.34473 6013.19092
6108.0 0.0001637 5890.32764 6043.97510
6118.0 0.0001635 5889.30859 6078.36768
6325.0 0.0001581 5888.28857 6114.76318
6288.0 0.0001590 5887.26660 6150.95166
6271.0 0.0001595 5886.24365 6184.26367
6401.0 0.0001562 5885.21924 6211.90479
6297.0 0.0001588 5884.19336 6231.55762
6150.0 0.0001626 5883.16602 6242.20166
6190.0 0.0001616 5882.13721 6244.66455
6311.0 0.0001585 5881.10693 6241.41211
6140.0 0.0001629 5880.07471 6235.75000
6144.0 0.0001628 5879.04199 6230.98535
6084.0 0.0001644 5878.00684 6229.87012
6345.0 0.0001576 5876.97070 6234.32813
6128.0 0.0001632 5875.93262 6245.28711
6100.0 0.0001639 5874.89355 6262.70361
6364.0 0.0001571 5873.85303 6285.62598
6395.0 0.0001564 5872.81055 6312.36572
6336.0 0.0001578 5871.76709 6340.71631
6398.0 0.0001563 5870.72168 6368.20508
6661.0 0.0001501 5869.67480 6392.32861
6458.0 0.0001548 5868.62646 6410.00195
6697.0 0.0001493 5867.57666 6420.91113
6527.0 0.0001532 5866.52490 6422.96436
6382.0 0.0001567 5865.47217 6415.58984
6528.0 0.0001532 5864.41797 6398.96143
6465.0 0.0001547 5863.36182 6373.91943
6268.0 0.0001595 5862.30420 6341.80762
6291.0 0.0001590 5861.24512 6304.27930
6190.0 0.0001616 5860.18457 6263.10889
6179.0 0.0001618 5859.12207 6220.04199
6207.0 0.0001611 5858.05859 6176.67529
6176.0 0.0001619 5856.99316 6134.36328
6166.0 0.0001622 5855.92627 6094.17383
5889.0 0.0001698 5854.85791 6056.86670
6067.0 0.0001648 5853.78760 6022.90527
6119.0 0.0001634 5852.71582 5992.52686
6068.0 0.0001648 5851.64258 5965.80469
5884.0 0.0001700 5850.56787 5942.69873
5920.0 0.0001689 5849.49121 5923.07080
5923.0 0.0001688 5848.41357 5906.69727
5925.0 0.0001688 5847.33398 5893.28174
6000.0 0.0001667 5846.25293 5882.48828
5942.0 0.0001683 5845.17041 5873.97461
5871.0 0.0001703 5844.08594 5867.41357
5852.0 0.0001709 5843.00000 5862.51367
6008.0 0.0001664 5841.91211 5859.03516
5900.0 0.0001695 5840.82324 5856.79150
5837.0 0.0001713 5839.73242 5855.64111
5912.0 0.0001691 5838.64063 5855.48193
5870.0 0.0001704 5837.54688 5856.22412
5841.0 0.0001712 5836.45117 5857.76611
5867.0 0.0001704 5835.35449 5859.98096
5944.0 0.0001682 5834.25537 5862.68311
5837.0 0.0001713 5833.15576 5865.63379
5849.0 0.0001710 5832.05371 5868.52588
5883.0 0.0001700 5830.95020 5871.02832
5810.0 0.0001721 5829.84570 5872.84961
5928.0 0.0001687 5828.73877 5873.79980
5882.0 0.0001700 5827.63086 5873.79443
5761.0 0.0001736 5826.52100 5872.77930
5822.0 0.0001718 5825.40967 5870.70752
5813.0 0.0001720 5824.29688 5867.58252
5794.0 0.0001726 5823.18262 5863.53271
5906.0 0.0001693 5822.06641 5858.86572
5822.0 0.0001718 5820.94873 5854.01074
5754.0 0.0001738 5819.82959 5849.39697
5917.0 0.0001690 5818.70898 5845.39258
5733.0 0.0001744 5817.58643 5842.27051
5744.0 0.0001741 5816.46240 5840.20752
5864.0 0.0001705 5815.33740 5839.28955
5810.0 0.0001721 5814.20996 5839.51758
5829.0 0.0001716 5813.08154 5840.82617
5808.0 0.0001722 5811.95117 5843.10010
5846.0 0.0001711 5810.81934 5846.18701
5852.0 0.0001709 5809.68652 5849.90967
5815.0 0.0001720 5808.55127 5854.06445
5845.0 0.0001711 5807.41504 5858.43506
5852.0 0.0001709 5806.27686 5862.78418
5889.0 0.0001698 5805.13770 5866.86230
5858.0 0.0001707 5803.99658 5870.42188
5866.0 0.0001705 5802.85400 5873.21875
5827.0 0.0001716 5801.71045 5875.03125
5915.0 0.0001691 5800.56445 5875.68652
5782.0 0.0001730 5799.41748 5875.08398
5793.0 0.0001726 5798.26855 5873.20703
5710.0 0.0001751 5797.11865 5870.13379
5873.0 0.0001703 5795.96729 5866.01855
5915.0 0.0001691 5794.81396 5860.98535
5767.0 0.0001734 5793.65918 5855.45557
5929.0 0.0001687 5792.50342 5849.57715
5949.0 0.0001681 5791.34619 5843.56201
5765.0 0.0001735 5790.18701 5837.57764
5849.0 0.0001710 5789.02637 5831.74170
5903.0 0.0001694 5787.86426 5826.11523
5772.0 0.0001733 5786.70117 5820.70752
5711.0 0.0001751 5785.53564 5815.49316
5794.0 0.0001726 5784.36963 5810.45068
5923.0 0.0001688 5783.20166 5805.58691
5782.0 0.0001730 5782.03271 5800.94189
5742.0 0.0001742 5780.86230 5796.58105
5846.0 0.0001711 5779.68994 5792.55762
5708.0 0.0001752 5778.51660 5788.91162
5680.0 0.0001761 5777.34131 5785.65283
5777.0 0.0001731 5776.16553 5782.55713
5907.0 0.0001693 5774.98730 5780.03809
5812.0 0.0001721 5773.80859 5777.83008
5727.0 0.0001746 5772.62842 5775.88184
5838.0 0.0001713 5771.44629 5774.14063
5753.0 0.0001738 5770.26318 5772.55957
5748.0 0.0001740 5769.07861 5771.10059
5730.0 0.0001745 5767.89307 5769.73096
5956.0 0.0001679 5766.70557 5768.42725
5822.0 0.0001718 5765.51709 5767.18164
5884.0 0.0001700 5764.32715 5765.98486
5978.0 0.0001673 5763.13623 5764.83887
5860.0 0.0001706 5761.94385 5763.74023
5595.0 0.0001787 5760.74951 5762.69092
5759.0 0.0001736 5759.55469 5761.68701
5833.0 0.0001714 5758.35840 5760.78369
5692.0 0.0001757 5757.16113 5759.83740
5683.0 0.0001760 5755.96191 5758.48389
5739.0 0.0001742 5754.76221 5757.50977
5703.0 0.0001753 5753.56055 5756.47363
5753.0 0.0001738 5752.35791 5755.34570
5701.0 0.0001754 5751.15430 5754.11035
5777.0 0.0001731 5749.94922 5752.82227
5648.0 0.0001771 5748.74316 5751.39697
5828.0 0.0001716 5747.53564 5749.91602
5563.0 0.0001798 5746.32715 5748.40869
5788.0 0.0001728 5745.11719 5746.90479
5732.0 0.0001745 5743.90674 5745.42139
5812.0 0.0001721 5742.69482 5743.97607
5755.0 0.0001738 5741.48145 5742.57324
5757.0 0.0001737 5740.26758 5741.21533
5833.0 0.0001714 5739.05176 5739.90137
5759.0 0.0001736 5737.83545 5738.62646
5653.0 0.0001769 5736.61768 5737.38770
5721.0 0.0001748 5735.39893 5736.18604
5831.0 0.0001715 5734.17920 5735.14307
5757.0 0.0001737 5732.95850 5734.00830
5671.0 0.0001763 5731.73682 5732.96289
5716.0 0.0001749 5730.51367 5731.95654
5680.0 0.0001761 5729.29004 5731.01025
5702.0 0.0001754 5728.06494 5730.11865
5706.0 0.0001753 5726.83887 5729.25146
5712.0 0.0001751 5725.61182 5728.43115
5657.0 0.0001768 5724.38428 5727.60498
5774.0 0.0001732 5723.15527 5726.73193
5730.0 0.0001745 5721.92529 5725.77148
5748.0 0.0001740 5720.69482 5724.76172
5843.0 0.0001711 5719.46289 5723.52344
5748.0 0.0001740 5718.23047 5722.13721
5726.0 0.0001746 5716.99707 5720.63037
5662.0 0.0001766 5715.76270 5719.07129
5615.0 0.0001781 5714.52734 5717.44092
5766.0 0.0001734 5713.29102 5715.82178
5722.0 0.0001748 5712.05420 5714.22021
5679.0 0.0001761 5710.81641 5712.66650
5675.0 0.0001762 5709.57813 5711.16992
5750.0 0.0001739 5708.33789 5709.72949
5795.0 0.0001726 5707.09814 5708.34570
5828.0 0.0001716 5705.85645 5707.00537
5735.0 0.0001744 5704.61523 5705.70313
5658.0 0.0001767 5703.37207 5704.42725
5651.0 0.0001770 5702.12891 5703.17139
5692.0 0.0001757 5700.88525 5701.92725
5814.0 0.0001720 5699.64014 5701.03613
5617.0 0.0001780 5698.39453 5699.81299
5775.0 0.0001732 5697.14844 5698.59619
5662.0 0.0001766 5695.90137 5697.38281
5660.0 0.0001767 5694.65381 5696.16992
5654.0 0.0001769 5693.40576 5694.96143
5718.0 0.0001749 5692.15674 5693.75488
5720.0 0.0001748 5690.90723 5692.55176
5582.0 0.0001791 5689.65723 5691.35059
5802.0 0.0001724 5688.40625 5690.15283
5722.0 0.0001748 5687.15527 5688.95752
5622.0 0.0001779 5685.90332 5687.76611
5577.0 0.0001793 5684.65088 5686.57861
5654.0 0.0001769 5683.39795 5685.39697
5593.0 0.0001788 5682.14453 5684.21777
5683.0 0.0001760 5680.89063 5682.97754
5637.0 0.0001774 5679.63574 5681.81494
5639.0 0.0001773 5678.38086 5680.65820
5669.0 0.0001764 5677.12549 5679.51465
5621.0 0.0001779 5675.86963 5678.38281
5643.0 0.0001772 5674.61279 5677.26855
5625.0 0.0001778 5673.35645 5676.17969
5725.0 0.0001747 5672.09863 5675.12012
5572.0 0.0001795 5670.84131 5674.10449
5644.0 0.0001772 5669.58350 5673.15088
5485.0 0.0001823 5668.32471 5672.27832
5603.0 0.0001785 5667.06592 5671.54150
5677.0 0.0001761 5665.80664 5670.95654
5638.0 0.0001774 5664.54736 5670.60010
5820.0 0.0001718 5663.28760 5670.55566
5695.0 0.0001756 5662.02734 5670.92676
5722.0 0.0001748 5660.76660 5671.83447
5723.0 0.0001747 5659.50635 5673.41260
5645.0 0.0001771 5658.24561 5675.78857
5616.0 0.0001781 5656.98438 5679.07324
5764.0 0.0001735 5655.72314 5683.33154
5646.0 0.0001771 5654.46094 5688.56006
5669.0 0.0001764 5653.19922 5694.66992
5667.0 0.0001765 5651.93701 5701.47168
5523.0 0.0001811 5650.67529 5708.68066
5689.0 0.0001758 5649.41309 5715.92432
5724.0 0.0001747 5648.14990 5722.79395
5656.0 0.0001768 5646.88770 5728.90723
5805.0 0.0001723 5645.62451 5734.01172
5850.0 0.0001709 5644.36182 5738.05859
5653.0 0.0001769 5643.09863 5741.18311
5678.0 0.0001761 5641.83545 5743.63379
5830.0 0.0001715 5640.57227 5745.70898
5803.0 0.0001723 5639.30908 5747.71631
5792.0 0.0001727 5638.04590 5749.95947
5706.0 0.0001753 5636.78271 5752.70898
5797.0 0.0001725 5635.51953 5756.17041
5738.0 0.0001743 5634.25586 5760.45605
5725.0 0.0001747 5632.99268 5765.46924
5718.0 0.0001749 5631.72949 5770.92480
5824.0 0.0001717 5630.46631 5776.26514
5768.0 0.0001734 5629.20264 5780.69482
5803.0 0.0001723 5627.93994 5783.37256
5758.0 0.0001737 5626.67725 5783.85352
5888.0 0.0001698 5625.41406 5782.53076
5850.0 0.0001709 5624.15137 5780.48047
5690.0 0.0001757 5622.88818 5778.93115
5685.0 0.0001759 5621.62598 5778.83887
5840.0 0.0001712 5620.36328 5780.73682
5698.0 0.0001755 5619.10107 5784.70898
5792.0 0.0001727 5617.83936 5790.43799
5796.0 0.0001725 5616.57715 5797.26758
5774.0 0.0001732 5615.31592 5804.33398
5756.0 0.0001737 5614.05371 5810.68994
5987.0 0.0001670 5612.79297 5815.45898
5735.0 0.0001744 5611.53125 5818.00684
5823.0 0.0001717 5610.27100 5818.07617
5797.0 0.0001725 5609.01025 5815.80664
5869.0 0.0001704 5607.75000 5811.66016
5654.0 0.0001769 5606.49023 5806.25781
5731.0 0.0001745 5605.22998 5800.22510
5711.0 0.0001751 5603.97119 5794.07617
5756.0 0.0001737 5602.71191 5788.13086
5854.0 0.0001708 5601.45313 5782.47461
5731.0 0.0001745 5600.19482 5777.00635
5800.0 0.0001724 5598.93652 5771.52148
5761.0 0.0001736 5597.67871 5765.90576
5794.0 0.0001726 5596.42188 5760.36572
5667.0 0.0001765 5595.16504 5755.52686
5840.0 0.0001712 5593.90820 5752.34180
5721.0 0.0001748 5592.65234 5751.86279
5697.0 0.0001755 5591.39648 5755.02979
5614.0 0.0001781 5590.14111 5762.52979
5804.0 0.0001723 5588.88623 5774.71094
5805.0 0.0001723 5587.63184 5791.52490
5900.0 0.0001695 5586.37842 5812.50488
5800.0 0.0001724 5585.12451 5836.76904
6005.0 0.0001665 5583.87207 5863.05811
5955.0 0.0001679 5582.61914 5889.94629
5911.0 0.0001692 5581.36768 5915.37500
5974.0 0.0001674 5580.11572 5937.60596
6018.0 0.0001662 5578.86523 5954.82520
6075.0 0.0001646 5577.61426 5965.46436
5993.0 0.0001669 5576.36475 5968.43262
6000.0 0.0001667 5575.11572 5963.28760
5882.0 0.0001700 5573.86670 5950.31396
5909.0 0.0001692 5572.61914 5930.43311
5807.0 0.0001722 5571.37109 5905.00146
5854.0 0.0001708 5570.12451 5875.59473
5778.0 0.0001731 5568.87793 5843.79053
5799.0 0.0001724 5567.63232 5811.05127
5760.0 0.0001736 5566.38672 5778.61914
5633.0 0.0001775 5565.14258 5747.47754
5702.0 0.0001754 5563.89893 5718.33252
5633.0 0.0001775 5562.65527 5691.64648
5728.0 0.0001746 5561.41260 5667.70264
5598.0 0.0001786 5560.17041 5646.62744
5706.0 0.0001753 5558.92969 5628.91602
5640.0 0.0001773 5557.68848 5613.49561
5569.0 0.0001796 5556.44873 5600.63770
5694.0 0.0001756 5555.20996 5590.07275
5541.0 0.0001805 5553.97119 5581.53223
5564.0 0.0001797 5552.73340 5574.63379
5608.0 0.0001783 5551.49609 5569.10938
5541.0 0.0001805 5550.25977 5564.67432
5582.0 0.0001791 5549.02344 5561.08301
5555.0 0.0001800 5547.78906 5558.12842
5349.0 0.0001870 5546.55420 5555.64111
5534.0 0.0001807 5545.32080 5553.49170
5568.0 0.0001796 5544.08838 5551.58057
5579.0 0.0001792 5542.85596 5549.83984
5553.0 0.0001801 5541.62500 5548.22607
5606.0 0.0001784 5540.39404 5546.70361
5386.0 0.0001857 5539.16455 5545.25781
5489.0 0.0001822 5537.93506 5543.87891
5531.0 0.0001808 5536.70752 5542.56689
5654.0 0.0001769 5535.47949 5541.32129
5556.0 0.0001800 5534.25293 5540.14795
5532.0 0.0001808 5533.02734 5539.05469
5442.0 0.0001838 5531.80225 5538.04590
5656.0 0.0001768 5530.57813 5537.13281
5550.0 0.0001802 5529.35400 5536.32227
5553.0 0.0001801 5528.13184 5535.61670
5593.0 0.0001788 5526.90967 5535.01758
5423.0 0.0001844 5525.68848 5534.62207
5489.0 0.0001822 5524.46826 5534.21924
5448.0 0.0001836 5523.24902 5533.89600
5471.0 0.0001828 5522.03027 5533.63086
5572.0 0.0001795 5520.81250 5533.39307
5579.0 0.0001792 5519.59570 5533.15137
5590.0 0.0001789 5518.37891 5532.87061
5629.0 0.0001777 5517.16406 5532.50684
5628.0 0.0001777 5515.94922 5532.01611
5419.0 0.0001845 5514.73535 5531.28320
5471.0 0.0001828 5513.52295 5530.43799
5447.0 0.0001836 5512.31055 5529.37549
5499.0 0.0001819 5511.09961 5528.08350
5534.0 0.0001807 5509.88867 5526.57275
5599.0 0.0001786 5508.67969 5524.85742
5724.0 0.0001747 5507.47070 5523.14404
5483.0 0.0001824 5506.26318 5521.09619
5511.0 0.0001815 5505.05566 5518.98291
5587.0 0.0001790 5503.84961 5516.81299
5608.0 0.0001783 5502.64453 5514.63184
5539.0 0.0001805 5501.43945 5512.46631
5568.0 0.0001796 5500.23633 5510.35205
5546.0 0.0001803 5499.03320 5508.30713
5616.0 0.0001781 5497.83105 5506.35205
5534.0 0.0001807 5496.62988 5505.08203
5610.0 0.0001783 5495.42969 5503.34229
5488.0 0.0001822 5494.23047 5501.70557
5486.0 0.0001823 5493.03125 5500.17236
5456.0 0.0001833 5491.83350 5498.73096
5502.0 0.0001818 5490.63623 5497.24561
5389.0 0.0001856 5489.44043 5495.96973
5449.0 0.0001835 5488.24463 5494.76270
5522.0 0.0001811 5487.05029 5493.61670
5536.0 0.0001806 5485.85645 5492.52197
5500.0 0.0001818 5484.66357 5491.47363
5586.0 0.0001790 5483.47168 5490.47021
5429.0 0.0001842 5482.27979 5489.50391
5577.0 0.0001793 5481.08936 5488.58301
5475.0 0.0001826 5479.89941 5487.70459
5478.0 0.0001825 5478.71094 5486.87646
5483.0 0.0001824 5477.52246 5486.00879
5471.0 0.0001828 5476.33496 5485.32813
5427.0 0.0001843 5475.14844 5484.75635
5429.0 0.0001842 5473.96289 5484.33740
5503.0 0.0001817 5472.77783 5484.13574
5505.0 0.0001817 5471.59326 5484.24219
5431.0 0.0001841 5470.41016 5484.78418
5518.0 0.0001812 5469.22705 5486.20605
5465.0 0.0001830 5468.04492 5488.18506
5470.0 0.0001828 5466.86328 5491.26318
5609.0 0.0001783 5465.68311 5495.77588
5587.0 0.0001790 5464.50342 5502.06104
5505.0 0.0001817 5463.32422 5510.50488
5377.0 0.0001860 5462.14600 5521.48145
5573.0 0.0001794 5460.96826 5535.29834
5585.0 0.0001791 5459.79150 5552.20264
5626.0 0.0001777 5458.61475 5572.33350
5564.0 0.0001797 5457.43945 5595.29541
5541.0 0.0001805 5456.26465 5621.64551
5805.0 0.0001723 5455.09033 5650.70459
5558.0 0.0001799 5453.91748 5682.01855
5706.0 0.0001753 5452.74414 5715.11328
5787.0 0.0001728 5451.57227 5749.52490
5830.0 0.0001715 5450.40039 5784.75928
5814.0 0.0001720 5449.22998 5820.22168
5790.0 0.0001727 5448.05908 5855.11621
6006.0 0.0001665 5446.89014 5888.45508
5947.0 0.0001682 5445.72070 5919.06836
5905.0 0.0001693 5444.55225 5945.68506
5982.0 0.0001672 5443.38477 5967.04541
6071.0 0.0001647 5442.21729 5982.04736
6086.0 0.0001643 5441.05078 5989.91455
6017.0 0.0001662 5439.88477 5990.34082
6125.0 0.0001633 5438.71924 5983.53369
5987.0 0.0001670 5437.55420 5970.19238
5946.0 0.0001682 5436.38965 5951.36963
5833.0 0.0001714 5435.22607 5928.31152
5976.0 0.0001673 5434.06250 5902.35107
5845.0 0.0001711 5432.89990 5874.75098
5852.0 0.0001709 5431.73730 5846.63037
5889.0 0.0001698 5430.57568 5818.91846
5704.0 0.0001753 5429.41406 5792.30762
5749.0 0.0001739 5428.25293 5767.26904
5743.0 0.0001741 5427.09229 5744.07861
5807.0 0.0001722 5425.93262 5722.88525
5837.0 0.0001713 5424.77344 5703.81201
5767.0 0.0001734 5423.61377 5687.07178
5585.0 0.0001791 5422.45508 5673.06934
5719.0 0.0001749 5421.29639 5662.46582
5573.0 0.0001794 5420.13867 5656.17773
5644.0 0.0001772 5418.98096 5655.24658
5627.0 0.0001777 5417.82373 5660.63086
5659.0 0.0001767 5416.66699 5672.83984
5813.0 0.0001720 5415.51025 5691.53760
5695.0 0.0001756 5414.35449 5715.27148
5631.0 0.0001776 5413.19824 5740.82422
5792.0 0.0001727 5412.04297 5763.71436
5753.0 0.0001738 5410.88721 5778.12793
5854.0 0.0001708 5409.73242 5778.42773
5726.0 0.0001746 5408.57715 5761.81592
5816.0 0.0001719 5407.42285 5730.18164
5633.0 0.0001775 5406.26855 5688.82324
5564.0 0.0001797 5405.11426 5643.72412
5600.0 0.0001786 5403.96094 5599.84570
5512.0 0.0001814 5402.80664 5560.65283
5527.0 0.0001809 5401.65332 5528.18164
5467.0 0.0001829 5400.50000 5503.28516
5547.0 0.0001803 5399.34668 5486.04785
5648.0 0.0001771 5398.19336 5476.23145
5355.0 0.0001867 5397.04102 5473.71045
5490.0 0.0001821 5395.88818 5478.80176
5510.0 0.0001815 5394.73535 5492.34521
5554.0 0.0001801 5393.58252 5515.67773
5649.0 0.0001770 5392.42969 5550.35840
5605.0 0.0001784 5391.27734 5597.73340
5583.0 0.0001791 5390.12451 5658.37988
5661.0 0.0001766 5388.97217 5731.77539
5992.0 0.0001669 5387.81982 5814.76172
5776.0 0.0001731 5386.66748 5902.77930
6087.0 0.0001643 5385.51514 5988.77002
6010.0 0.0001664 5384.36230 6063.69922
5988.0 0.0001670 5383.20996 6117.48633
6065.0 0.0001649 5382.05713 6141.17285
6176.0 0.0001619 5380.90430 6130.12793
6203.0 0.0001612 5379.75146 6086.23682
5965.0 0.0001676 5378.59863 6016.98584
5886.0 0.0001699 5377.44531 5932.34521
5774.0 0.0001732 5376.29199 5842.02148
5838.0 0.0001713 5375.13867 5754.01953
5770.0 0.0001733 5373.98486 5674.15234
5549.0 0.0001802 5372.83154 5605.93750
5671.0 0.0001763 5371.67725 5550.81738
5575.0 0.0001794 5370.52295 5508.53857
5417.0 0.0001846 5369.36865 5477.67529
5337.0 0.0001874 5368.21387 5456.17090
5431.0 0.0001841 5367.05908 5441.80566
5486.0 0.0001823 5365.90381 5432.52197
5238.0 0.0001909 5364.74805 5426.60938
5250.0 0.0001905 5363.59229 5422.76904
5367.0 0.0001863 5362.43604 5420.09424
5391.0 0.0001855 5361.27930 5418.02832
5448.0 0.0001836 5360.12256 5416.29541
5318.0 0.0001880 5358.96484 5414.83496
5300.0 0.0001887 5357.80713 5413.74854
5443.0 0.0001837 5356.64941 5413.22607
5389.0 0.0001856 5355.49023 5413.55420
5254.0 0.0001903 5354.33154 5415.06787
5376.0 0.0001860 5353.17188 5418.15430
5526.0 0.0001810 5352.01221 5423.24707
5398.0 0.0001853 5350.85156 5430.83252
5492.0 0.0001821 5349.69043 5441.42236
5352.0 0.0001868 5348.52930 5455.48193
5438.0 0.0001839 5347.36670 5473.32764
5444.0 0.0001837 5346.20459 5495.00293
5432.0 0.0001841 5345.04102 5520.19092
5494.0 0.0001820 5343.87744 5548.15332
5443.0 0.0001837 5342.71289 5577.68262
5494.0 0.0001820 5341.54785 5607.13184
5614.0 0.0001781 5340.38184 5634.43994
5773.0 0.0001732 5339.21582 5657.27686
5774.0 0.0001732 5338.04883 5673.26563
5634.0 0.0001775 5336.88086 5680.44531
5556.0 0.0001800 5335.71289 5677.75635
5630.0 0.0001776 5334.54346 5665.38818
5513.0 0.0001814 5333.37402 5644.69678
5547.0 0.0001803 5332.20313 5617.79004
5585.0 0.0001791 5331.03174 5587.00781
5489.0 0.0001822 5329.85938 5554.55811
5412.0 0.0001848 5328.68652 5522.31055
5468.0 0.0001829 5327.51270 5491.70361
5415.0 0.0001847 5326.33789 5463.72607
5328.0 0.0001877 5325.16260 5438.93311
5302.0 0.0001886 5323.98584 5417.50342
5328.0 0.0001877 5322.80908 5399.35059
5439.0 0.0001839 5321.63086 5384.20117
5341.0 0.0001872 5320.45166 5371.69971
5268.0 0.0001898 5319.27197 5361.46338
5365.0 0.0001864 5318.09082 5353.11182
5320.0 0.0001880 5316.90918 5346.29590
5311.0 0.0001883 5315.72607 5340.71680
5456.0 0.0001833 5314.54248 5336.12256
5277.0 0.0001895 5313.35742 5332.31055
5285.0 0.0001892 5312.17188 5329.12402
5304.0 0.0001885 5310.98486 5326.43311
5411.0 0.0001848 5309.79688 5324.14160
5448.0 0.0001836 5308.60840 5322.18164
5348.0 0.0001870 5307.41797 5320.50049
5392.0 0.0001855 5306.22705 5319.07031
5235.0 0.0001910 5305.03467 5317.88525
5368.0 0.0001863 5303.84131 5316.95801
5386.0 0.0001857 5302.64648 5316.32471
5406.0 0.0001850 5301.45117 5316.04053
5331.0 0.0001876 5300.25391 5316.17578
5322.0 0.0001879 5299.05615 5316.81982
5360.0 0.0001866 5297.85742 5318.06787
5370.0 0.0001862 5296.65674 5320.01855
5346.0 0.0001871 5295.45557 5322.76270
5296.0 0.0001888 5294.25244 5326.36914
5352.0 0.0001868 5293.04834 5330.87549
5406.0 0.0001850 5291.84277 5336.27588
5421.0 0.0001845 5290.63672 5342.50488
5362.0 0.0001865 5289.42920 5349.43066
5345.0 0.0001871 5288.21973 5356.85303
5433.0 0.0001841 5287.00928 5364.50879
5312.0 0.0001883 5285.79736 5372.07568
5466.0 0.0001829 5284.58447 5379.18311
5506.0 0.0001816 5283.36963 5385.44141
5344.0 0.0001871 5282.15430 5390.49707
5410.0 0.0001848 5280.93652 5394.06885
5493.0 0.0001820 5279.71826 5396.05225
5567.0 0.0001796 5278.49854 5396.56641
5369.0 0.0001863 5277.27686 5395.97363
5476.0 0.0001826 5276.05469 5394.85596
5467.0 0.0001829 5274.83008 5393.92139
5428.0 0.0001842 5273.60449 5393.92969
5427.0 0.0001843 5272.37744 5395.61768
5423.0 0.0001844 5271.14893 5399.62744
5408.0 0.0001849 5269.91895 5405.96045
5465.0 0.0001830 5268.68750 5416.00391
5463.0 0.0001830 5267.45459 5429.35205
5434.0 0.0001840 5266.22021 5445.29395
5552.0 0.0001801 5264.98438 5464.66064
5483.0 0.0001824 5263.74658 5486.23193
5479.0 0.0001825 5262.50781 5509.16846
5538.0 0.0001806 5261.26709 5532.43213
5601.0 0.0001785 5260.02490 5554.81201
5631.0 0.0001776 5258.78174 5574.99365
5596.0 0.0001787 5257.53613 5591.64551
5675.0 0.0001762 5256.28955 5603.53564
5699.0 0.0001755 5255.04102 5609.67627
5757.0 0.0001737 5253.79102 5609.43555
5775.0 0.0001732 5252.53906 5602.64893
5709.0 0.0001752 5251.28613 5589.64014
5728.0 0.0001746 5250.03125 5571.13965
5657.0 0.0001768 5248.77490 5548.17773
5584.0 0.0001791 5247.51709 5521.94238
5557.0 0.0001800 5246.25732 5493.65381
5363.0 0.0001865 5244.99609 5464.47412
5531.0 0.0001808 5243.73291 5435.44873
5505.0 0.0001817 5242.46826 5407.47070
5399.0 0.0001852 5241.20166 5381.23633
5299.0 0.0001887 5239.93408 5357.26660
5333.0 0.0001875 5238.66406 5335.88037
5454.0 0.0001834 5237.39307 5317.23828
5305.0 0.0001885 5236.12012 5301.33984
5225.0 0.0001914 5234.84521 5288.07813
5293.0 0.0001889 5233.56885 5277.25342
5313.0 0.0001882 5232.29053 5268.61328
5292.0 0.0001890 5231.01074 5261.86963
5261.0 0.0001901 5229.72900 5256.72754
5326.0 0.0001878 5228.44580 5252.90674
5229.0 0.0001912 5227.16113 5250.11572
5220.0 0.0001916 5225.87402 5248.12305
5410.0 0.0001848 5224.58545 5246.65918
5245.0 0.0001907 5223.29541 5245.53369
5255.0 0.0001903 5222.00342 5244.54883
5134.0 0.0001948 5220.70947 5243.53662
5224.0 0.0001914 5219.41406 5242.35791
5291.0 0.0001890 5218.11670 5240.91357
5205.0 0.0001921 5216.81787 5239.14648
5199.0 0.0001923 5215.51758 5237.04980
5250.0 0.0001905 5214.21484 5234.64111
5323.0 0.0001879 5212.91064 5231.98242
5179.0 0.0001931 5211.60449 5229.14502
5298.0 0.0001888 5210.29688 5226.20313
5274.0 0.0001896 5208.98682 5223.22900
5117.0 0.0001954 5207.67578 5220.28516
5282.0 0.0001893 5206.36279 5217.41895
5178.0 0.0001931 5205.04785 5214.66699
5172.0 0.0001933 5203.73145 5212.05664
5207.0 0.0001920 5202.41309 5209.59521
5263.0 0.0001900 5201.09326 5207.29150
5100.0 0.0001961 5199.77100 5205.13574
5094.0 0.0001963 5198.44727 5203.11963
5103.0 0.0001960 5197.12158 5201.22559
5092.0 0.0001964 5195.79492 5199.43896
5188.0 0.0001928 5194.46582 5197.44287
5256.0 0.0001903 5193.13525 5195.83252
5261.0 0.0001901 5191.80273 5194.26807
5057.0 0.0001977 5190.46826 5192.74902
5308.0 0.0001884 5189.13232 5191.26660
5227.0 0.0001913 5187.79443 5189.80762
5173.0 0.0001933 5186.45508 5188.36523
5178.0 0.0001931 5185.11377 5186.93945
5215.0 0.0001918 5183.77100 5185.52246
5336.0 0.0001874 5182.42627 5184.11133
5167.0 0.0001935 5181.07959 5182.70459
5091.0 0.0001964 5179.73145 5181.30371
5195.0 0.0001925 5178.38135 5179.90479
5223.0 0.0001915 5177.02979 5178.50781
5169.0 0.0001935 5175.67627 5177.11230
5250.0 0.0001905 5174.32129 5175.71729
5311.0 0.0001883 5172.96387 5174.32422
5099.0 0.0001961 5171.60547 5172.93066
5078.0 0.0001969 5170.24561 5171.54053
5164.0 0.0001936 5168.88330 5170.14990
5162.0 0.0001937 5167.52002 5168.75977
5153.0 0.0001941 5166.15430 5167.36816
5011.0 0.0001996 5164.78760 5165.97949
5030.0 0.0001988 5163.41846 5164.59131
5089.0 0.0001965 5162.04834 5163.20264
5168.0 0.0001935 5160.67627 5161.81543
5204.0 0.0001922 5159.30225 5160.42920
5107.0 0.0001958 5157.92725 5159.04443
5150.0 0.0001942 5156.54980 5157.66113
5194.0 0.0001925 5155.17139 5156.28174
5151.0 0.0001941 5153.79102 5154.92480
5130.0 0.0001949 5152.40918 5153.57422
5270.0 0.0001898 5151.02539 5152.21240
5152.0 0.0001941 5149.64063 5150.86328
5153.0 0.0001941 5148.25391 5149.53223
5163.0 0.0001937 5146.86523 5148.22168
5047.0 0.0001981 5145.47559 5146.94092
5085.0 0.0001967 5144.08398 5145.69775
5150.0 0.0001942 5142.69092 5144.50000
5242.0 0.0001908 5141.29639 5143.36084
5293.0 0.0001889 5139.90039 5142.28760
5118.0 0.0001954 5138.50244 5141.28906
5124.0 0.0001952 5137.10352 5140.36914
5072.0 0.0001972 5135.70313 5139.52783
5190.0 0.0001927 5134.30078 5138.75879
5101.0 0.0001960 5132.89746 5138.04932
5140.0 0.0001946 5131.49170 5137.37402
5010.0 0.0001996 5130.08545 5136.60791
5066.0 0.0001974 5128.67725 5135.91162
5184.0 0.0001929 5127.26758 5135.14111
5177.0 0.0001932 5125.85693 5134.25830
5125.0 0.0001951 5124.44434 5133.22168
5199.0 0.0001923 5123.03076 5132.01221
5157.0 0.0001939 5121.61523 5130.62109
5124.0 0.0001952 5120.19922 5129.06885
5258.0 0.0001902 5118.78076 5127.39404
5249.0 0.0001905 5117.36182 5125.65283
5009.0 0.0001996 5115.94092 5123.90820
5053.0 0.0001979 5114.51904 5122.23828
5168.0 0.0001935 5113.09619 5120.71826
5211.0 0.0001919 5111.67139 5119.43359
5107.0 0.0001958 5110.24561 5118.45947
4962.0 0.0002015 5108.81836 5117.86719
5226.0 0.0001914 5107.39014 5117.71338
5079.0 0.0001969 5105.95996 5118.02734
5136.0 0.0001947 5104.52930 5118.80420
5005.0 0.0001998 5103.09717 5119.99805
5169.0 0.0001935 5101.66406 5121.51074
5082.0 0.0001968 5100.22949 5122.93213
5095.0 0.0001963 5098.79346 5124.60156
5041.0 0.0001984 5097.35693 5126.01855
5106.0 0.0001958 5095.91846 5126.95166
5209.0 0.0001920 5094.47998 5127.13135
4997.0 0.0002001 5093.03906 5126.38867
5172.0 0.0001933 5091.59814 5124.64160
5086.0 0.0001966 5090.15576 5121.88086
5070.0 0.0001972 5088.71191 5118.25635
5209.0 0.0001920 5087.26758 5113.99170
5118.0 0.0001954 5085.82178 5109.33691
5194.0 0.0001925 5084.37549 5104.53857
5068.0 0.0001973 5082.92725 5099.81250
5119.0 0.0001954 5081.47900 5095.32666
5036.0 0.0001986 5080.02930 5091.19727
5046.0 0.0001982 5078.57910 5087.49902
5077.0 0.0001970 5077.12744 5084.26025
4994.0 0.0002002 5075.67480 5081.48047
5134.0 0.0001948 5074.22168 5079.13916
5126.0 0.0001951 5072.76758 5077.20410
5108.0 0.0001958 5071.31250 5075.64307
5143.0 0.0001944 5069.85645 5074.42139
5093.0 0.0001963 5068.39990 5073.50781
5120.0 0.0001953 5066.94189 5072.86572
4969.0 0.0002012 5065.48389 5072.45557
4971.0 0.0002012 5064.02490 5072.25195
5135.0 0.0001947 5062.56494 5072.12598
5143.0 0.0001944 5061.10449 5072.02246
5135.0 0.0001947 5059.64258 5071.82617
5030.0 0.0001988 5058.18066 5071.45313
5150.0 0.0001942 5056.71777 5070.78027
5172.0 0.0001933 5055.25439 5069.71484
4985.0 0.0002006 5053.79053 5068.20752
4935.0 0.0002026 5052.32568 5066.26074
5011.0 0.0001996 5050.86035 5063.93896
5130.0 0.0001949 5049.39453 5061.33887
5019.0 0.0001992 5047.92822 5058.60938
5021.0 0.0001992 5046.46045 5055.77441
4909.0 0.0002037 5044.99316 5052.97363
4975.0 0.0002010 5043.52490 5050.27930
5078.0 0.0001969 5042.05615 5047.74902
5173.0 0.0001933 5040.58740 5045.42188
4978.0 0.0002009 5039.11768 5043.32520
5012.0 0.0001995 5037.64795 5041.47754
5037.0 0.0001985 5036.17676 5039.89941
5087.0 0.0001966 5034.70605 5038.61816
4986.0 0.0002006 5033.23486 5037.67285
4955.0 0.0002018 5031.76318 5037.11768
4979.0 0.0002008 5030.29102 5037.01660
5112.0 0.0001956 5028.81885 5037.43701
5025.0 0.0001990 5027.34619 5038.44189
5065.0 0.0001974 5025.87305 5040.07227
4969.0 0.0002012 5024.39990 5042.38428
5084.0 0.0001967 5022.92627 5045.20947
5033.0 0.0001987 5021.45264 5048.47803
5106.0 0.0001958 5019.97852 5051.99170
5103.0 0.0001960 5018.50439 5055.47656
5149.0 0.0001942 5017.03027 5058.59814
4973.0 0.0002011 5015.55566 5060.98389
5067.0 0.0001974 5014.08105 5062.26025
5119.0 0.0001954 5012.60645 5062.12598
5033.0 0.0001987 5011.13135 5060.41309
5005.0 0.0001998 5009.65625 5057.15332
4982.0 0.0002007 5008.18164 5052.56152
5027.0 0.0001989 5006.70605 5046.96924
4988.0 0.0002005 5005.23145 5040.76514
4996.0 0.0002002 5003.75635 5034.31104
4929.0 0.0002029 5002.28076 5027.92578
4952.0 0.0002019 5000.80615 5021.86133
4938.0 0.0002025 4999.33057 5016.29053
4968.0 0.0002013 4997.85596 5011.31152
5009.0 0.0001996 4996.38086 5006.95850
4948.0 0.0002021 4994.90625 5003.20605
5026.0 0.0001990 4993.43115 4999.99805
5004.0 0.0001998 4991.95703 4997.25049
5014.0 0.0001994 4990.48291 4994.87793
5010.0 0.0001996 4989.00830 4992.79395
4940.0 0.0002024 4987.53467 4990.92969
4908.0 0.0002037 4986.06055 4989.22217
4914.0 0.0002035 4984.58740 4987.62646
4873.0 0.0002052 4983.11377 4986.10986
4943.0 0.0002023 4981.64063 4984.65430
4957.0 0.0002017 4980.16846 4983.24658
4938.0 0.0002025 4978.69580 4981.88428
5031.0 0.0001988 4977.22363 4980.57324
4985.0 0.0002006 4975.75146 4979.32568
5028.0 0.0001989 4974.28027 4978.15820
4969.0 0.0002012 4972.80908 4977.09717
4894.0 0.0002043 4971.33838 4976.17090
4975.0 0.0002010 4969.86816 4975.41455
5070.0 0.0001972 4968.39844 4974.85840
4961.0 0.0002016 4966.92920 4974.52979
4993.0 0.0002003 4965.45996 4974.44629
5036.0 0.0001986 4963.99170 4974.61035
4931.0 0.0002028 4962.52344 4974.99951
5063.0 0.0001975 4961.05615 4975.56982
4961.0 0.0002016 4959.58887 4976.24561
4881.0 0.0002049 4958.12305 4976.93213
5013.0 0.0001995 4956.65674 4977.50488
5005.0 0.0001998 4955.19189 4977.82666
5014.0 0.0001994 4953.72705 4977.76025
4965.0 0.0002014 4952.26270 4977.19385
4979.0 0.0002008 4950.79980 4976.07813
4916.0 0.0002034 4949.33643 4974.43066
4908.0 0.0002037 4947.87451 4972.34668
4965.0 0.0002014 4946.41260 4969.97021
4883.0 0.0002048 4944.95215 4967.44580
4924.0 0.0002031 4943.49219 4964.92578
5079.0 0.0001969 4942.03223 4962.55176
4862.0 0.0002057 4940.57373 4960.35449
4901.0 0.0002040 4939.11572 4958.42334
4783.0 0.0002091 4937.65869 4956.79785
4918.0 0.0002033 4936.20166 4955.44434
4859.0 0.0002058 4934.74658 4954.35791
5019.0 0.0001992 4933.29102 4953.48340
4926.0 0.0002030 4931.83740 4952.77637
5022.0 0.0001991 4930.38428 4952.18604
4967.0 0.0002013 4928.93164 4951.66650
4929.0 0.0002029 4927.48047 4951.17578
4939.0 0.0002025 4926.02930 4950.68604
5019.0 0.0001992 4924.57959 4950.18652
5032.0 0.0001987 4923.12988 4949.66846
5013.0 0.0001995 4921.68213 4949.14209
4899.0 0.0002041 4920.23486 4948.62305
4970.0 0.0002012 4918.78857 4948.13135
4897.0 0.0002042 4917.34375 4947.69043
5095.0 0.0001963 4915.89893 4947.32031
4885.0 0.0002047 4914.45557 4947.03857
5020.0 0.0001992 4913.01270 4946.85693
4964.0 0.0002015 4911.57178 4946.77783
4970.0 0.0002012 4910.13086 4946.80127
4908.0 0.0002037 4908.69141 4946.91748
4986.0 0.0002006 4907.25293 4947.11670
5018.0 0.0001993 4905.81494 4947.38916
5053.0 0.0001979 4904.37891 4947.74023
4891.0 0.0002045 4902.94287 4948.18750
5043.0 0.0001983 4901.50879 4948.78320
4964.0 0.0002015 4900.07471 4949.62256
4997.0 0.0002001 4898.64258 4950.84473
5091.0 0.0001964 4897.21143 4952.64502
5049.0 0.0001981 4895.78125 4955.26318
4936.0 0.0002026 4894.35205 4958.95264
4961.0 0.0002016 4892.92383 4963.93213
5015.0 0.0001994 4891.49707 4970.34277
4989.0 0.0002004 4890.07080 4978.16309
5048.0 0.0001981 4888.64648 4987.14014
5096.0 0.0001962 4887.22217 4996.75098
5074.0 0.0001971 4885.79980 5006.16895
5024.0 0.0001990 4884.37793 5014.27197
4985.0 0.0002006 4882.95801 5019.71973
5186.0 0.0001928 4881.53906 5021.15283
5041.0 0.0001984 4880.12061 5017.72559
4959.0 0.0002017 4878.70410 5009.37988
5066.0 0.0001974 4877.28809 4996.97314
5050.0 0.0001980 4875.87354 4981.87744
5055.0 0.0001978 4874.45947 4965.52490
4964.0 0.0002015 4873.04785 4949.15723
4988.0 0.0002005 4871.63672 4933.70313
4996.0 0.0002002 4870.22656 4919.78613
4902.0 0.0002040 4868.81787 4907.73682
4832.0 0.0002070 4867.41016 4897.62744
4891.0 0.0002045 4866.00342 4889.45166
4800.0 0.0002083 4864.59814 4882.78223
4874.0 0.0002052 4863.19434 4877.43701
4875.0 0.0002051 4861.79102 4873.24512
4773.0 0.0002095 4860.38916 4869.71729
4837.0 0.0002067 4858.98926 4866.76172
4839.0 0.0002067 4857.58936 4864.20605
5009.0 0.0001996 4856.19141 4861.93945
4908.0 0.0002037 4854.79443 4859.87598
4851.0 0.0002061 4853.39844 4857.95557
4854.0 0.0002060 4852.00342 4856.14551
4789.0 0.0002088 4850.61035 4854.41699
4868.0 0.0002054 4849.21777 4852.75391
4867.0 0.0002055 4847.82666 4851.14648
4899.0 0.0002041 4846.43701 4849.58740
4885.0 0.0002047 4845.04834 4848.06738
4834.0 0.0002069 4843.66064 4846.58545
4798.0 0.0002084 4842.27393 4845.13086
4788.0 0.0002089 4840.88916 4843.70752
4788.0 0.0002089 4839.50439 4842.30762
4905.0 0.0002039 4838.12158 4840.92334
4710.0 0.0002123 4836.74023 4839.55713
4835.0 0.0002068 4835.35938 4838.19775
4884.0 0.0002048 4833.97998 4836.84766
4795.0 0.0002086 4832.60156 4835.50146
4907.0 0.0002038 4831.22461 4834.16211
4822.0 0.0002074 4829.84814 4832.83203
4810.0 0.0002079 4828.47363 4831.52051
5013.0 0.0001995 4827.09912 4830.24219
4771.0 0.0002096 4825.72705 4829.01758
4859.0 0.0002058 4824.35547 4827.87109
4811.0 0.0002079 4822.98486 4826.83496
4802.0 0.0002082 4821.61572 4825.94824
4776.0 0.0002094 4820.24707 4825.24854
4778.0 0.0002093 4818.88037 4824.77881
4803.0 0.0002082 4817.51416 4824.58545
4740.0 0.0002110 4816.14893 4824.70020
4787.0 0.0002089 4814.78467 4825.14893
4806.0 0.0002081 4813.42188 4825.94189
4901.0 0.0002040 4812.06055 4827.06396
4870.0 0.0002053 4810.69922 4828.47363
4775.0 0.0002094 4809.33984 4830.10352
4694.0 0.0002130 4807.98096 4831.85742
4842.0 0.0002065 4806.62305 4833.61768
4876.0 0.0002051 4805.26611 4835.25439
4860.0 0.0002058 4803.91064 4836.64404
4830.0 0.0002070 4802.55615 4837.68896
4855.0 0.0002060 4801.20166 4838.31934
4748.0 0.0002106 4799.84912 4838.51563
4872.0 0.0002053 4798.49707 4838.32080
4711.0 0.0002123 4797.14600 4837.82520
4904.0 0.0002039 4795.79590 4837.16064
4825.0 0.0002073 4794.44678 4836.46777
4745.0 0.0002107 4793.09814 4835.86670
4876.0 0.0002051 4791.75098 4835.44775
4909.0 0.0002037 4790.40479 4835.48779
4790.0 0.0002088 4789.05908 4835.43408
4756.0 0.0002103 4787.71436 4835.45898
4798.0 0.0002084 4786.36963 4835.42236
4907.0 0.0002038 4785.02686 4835.15332
4841.0 0.0002066 4783.68408 4834.46143
4697.0 0.0002129 4782.34277 4833.18359
4883.0 0.0002048 4781.00146 4831.19873
4911.0 0.0002036 4779.66211 4828.46436
4741.0 0.0002109 4778.32275 4825.01270
4798.0 0.0002084 4776.98389 4820.95605
4946.0 0.0002022 4775.64648 4816.44336
4725.0 0.0002116 4774.30859 4811.64355
4752.0 0.0002104 4772.97266 4806.73291
4769.0 0.0002097 4771.63672 4801.86865
4767.0 0.0002098 4770.30127 4797.18213
4715.0 0.0002121 4768.96680 4792.98828
4760.0 0.0002101 4767.63281 4788.95020
4760.0 0.0002101 4766.29980 4785.30713
4682.0 0.0002136 4764.96631 4782.06396
4772.0 0.0002096 4763.63477 4779.20654
4636.0 0.0002157 4762.30273 4776.65479
4740.0 0.0002110 4760.97168 4774.42773
4687.0 0.0002134 4759.64063 4772.43262
4750.0 0.0002105 4758.31055 4770.61963
4837.0 0.0002067 4756.98096 4768.94238
4724.0 0.0002117 4755.65137 4767.36963
4749.0 0.0002106 4754.32324 4765.86572
4696.0 0.0002129 4752.99414 4764.40576
4684.0 0.0002135 4751.66650 4762.96436
4759.0 0.0002101 4750.33838 4761.51904
4619.0 0.0002165 4749.01123 4760.22217
4716.0 0.0002120 4747.68408 4758.74170
4788.0 0.0002089 4746.35742 4757.26025
4687.0 0.0002134 4745.03174 4755.80859
4870.0 0.0002053 4743.70508 4754.43018
4768.0 0.0002097 4742.37939 4753.18213
4712.0 0.0002122 4741.05322 4752.12305
4768.0 0.0002097 4739.72852 4751.27930
4848.0 0.0002063 4738.40283 4751.13330
4786.0 0.0002089 4737.07764 4751.00928
4723.0 0.0002117 4735.75293 4751.31396
4774.0 0.0002095 4734.42773 4752.10400
4789.0 0.0002088 4733.10352 4753.43945
4762.0 0.0002100 4731.77881 4755.36523
4837.0 0.0002067 4730.45410 4757.92334
4710.0 0.0002123 4729.12939 4761.14648
4814.0 0.0002077 4727.80469 4765.05664
4734.0 0.0002112 4726.47998 4769.65137
4851.0 0.0002061 4725.15576 4774.84082
4775.0 0.0002094 4723.83105 4780.75098
4734.0 0.0002112 4722.50635 4787.23584
4746.0 0.0002107 4721.18115 4794.21289
4815.0 0.0002077 4719.85596 4801.56689
4867.0 0.0002055 4718.53125 4809.16455
4789.0 0.0002088 4717.20557 4816.85107
4867.0 0.0002055 4715.88037 4824.45752
4794.0 0.0002086 4714.55420 4831.81104
4960.0 0.0002016 4713.22852 4838.73779
4904.0 0.0002039 4711.90234 4845.07666
4808.0 0.0002080 4710.57520 4850.69385
4858.0 0.0002058 4709.24854 4855.49072
4815.0 0.0002077 4707.92139 4859.41992
4927.0 0.0002030 4706.59375 4862.49316
4972.0 0.0002011 4705.26514 4864.77832
4793.0 0.0002086 4703.93750 4866.39063
4890.0 0.0002045 4702.60840 4867.46729
4992.0 0.0002003 4701.27881 4868.14893
4846.0 0.0002064 4699.94922 4868.54639
4894.0 0.0002043 4698.61865 4868.72607
4868.0 0.0002054 4697.28809 4868.69775
4868.0 0.0002054 4695.95605 4868.39502
4841.0 0.0002066 4694.62451 4867.68359
4782.0 0.0002091 4693.29150 4866.35840
4886.0 0.0002047 4691.95850 4864.16455
4995.0 0.0002002 4690.62451 4860.82129
4973.0 0.0002011 4689.28955 4856.07227
4843.0 0.0002065 4687.95459 4849.73389
4809.0 0.0002079 4686.61816 4841.75879
4824.0 0.0002073 4685.28174 4832.25439
4783.0 0.0002091 4683.94336 4821.45850
4684.0 0.0002135 4682.60547 4809.71973
4775.0 0.0002094 4681.26563 4797.41699
4813.0 0.0002078 4679.92578 4784.94092
4714.0 0.0002121 4678.58496 4772.64697
4790.0 0.0002088 4677.24268 4760.85254
4703.0 0.0002126 4675.89990 4749.81836
4769.0 0.0002097 4674.55566 4739.75781
4676.0 0.0002139 4673.21094 4730.82324
4810.0 0.0002079 4671.86475 4723.12451
4740.0 0.0002110 4670.51807 4716.78857
4763.0 0.0002100 4669.17041 4711.70703
4745.0 0.0002107 4667.82080 4707.94971
4717.0 0.0002120 4666.47070 4705.51465
4616.0 0.0002166 4665.11914 4704.40918
4847.0 0.0002063 4663.76709 4704.67627
4803.0 0.0002082 4662.41309 4706.41357
4682.0 0.0002136 4661.05811 4709.81152
4684.0 0.0002135 4659.70166 4715.18604
4779.0 0.0002092 4658.34473 4723.00244
4799.0 0.0002084 4656.98633 4733.86865
4822.0 0.0002074 4655.62598 4748.47559
4843.0 0.0002065 4654.26465 4767.50781
4745.0 0.0002107 4652.90186 4791.54736
5034.0 0.0001986 4651.53809 4820.97949
4789.0 0.0002088 4650.17236 4855.83984
4873.0 0.0002052 4648.80566 4895.73535
4921.0 0.0002032 4647.43701 4939.71729
5146.0 0.0001943 4646.06738 4986.23682
5195.0 0.0001925 4644.69629 5033.13232
5228.0 0.0001913 4643.32275 5077.66406
5115.0 0.0001955 4641.94873 5116.64941
5196.0 0.0001925 4640.57275 5146.70605
5232.0 0.0001911 4639.19531 5164.71289
5320.0 0.0001880 4637.81543 5168.48145
5433.0 0.0001841 4636.43506 5157.39844
5266.0 0.0001899 4635.05273 5132.63574
5214.0 0.0001918 4633.66846 5096.74414
5069.0 0.0001973 4632.28271 5053.00293
4987.0 0.0002005 4630.89502 5004.74805
5017.0 0.0001993 4629.50537 4955.02832
4896.0 0.0002042 4628.11426 4906.35205
4794.0 0.0002086 4626.72168 4860.79492
4940.0 0.0002024 4625.32666 4819.68604
4924.0 0.0002031 4623.93018 4783.83789
4745.0 0.0002107 4622.53223 4753.58301
4791.0 0.0002087 4621.13135 4728.88037
4601.0 0.0002173 4619.72949 4709.43701
4715.0 0.0002121 4618.32471 4694.82764
4706.0 0.0002125 4616.91895 4684.58203
4672.0 0.0002140 4615.51074 4678.27344
4698.0 0.0002129 4614.10107 4675.54102
4669.0 0.0002142 4612.68896 4676.12158
4645.0 0.0002153 4611.27490 4679.85156
4720.0 0.0002119 4609.85889 4686.65723
4679.0 0.0002137 4608.44043 4696.49658
4639.0 0.0002156 4607.02051 4709.39355
4630.0 0.0002160 4605.59814 4725.38086
4663.0 0.0002145 4604.17383 4744.48730
4713.0 0.0002122 4602.74707 4766.73047
4794.0 0.0002086 4601.31885 4792.09424
4780.0 0.0002092 4599.88770 4820.49902
4862.0 0.0002057 4598.45459 4851.77148
4934.0 0.0002027 4597.01953 4885.58691
4894.0 0.0002043 4595.58203 4921.42578
5024.0 0.0001990 4594.14258 4958.54053
4892.0 0.0002044 4592.70020 4995.96924
4992.0 0.0002003 4591.25635 5032.53467
4939.0 0.0002025 4589.80908 5066.79883
4983.0 0.0002007 4588.36084 5096.97217
5148.0 0.0001943 4586.90967 5120.80664
5137.0 0.0001947 4585.45605 5135.63916
5244.0 0.0001907 4584.00049 5138.72510
5104.0 0.0001959 4582.54199 5127.98340
5048.0 0.0001981 4581.08154 5102.91992
5037.0 0.0001985 4579.61816 5065.07031
4965.0 0.0002014 4578.15332 5017.59521
4916.0 0.0002034 4576.68506 4964.35010
4834.0 0.0002069 4575.21533 4909.06055
4774.0 0.0002095 4573.74268 4854.86768
4753.0 0.0002104 4572.26758 4804.15674
4789.0 0.0002088 4570.79004 4758.55469
4753.0 0.0002104 4569.30957 4718.95850
4690.0 0.0002132 4567.82715 4685.63721
4647.0 0.0002152 4566.34180 4658.36035
4680.0 0.0002137 4564.85449 4636.55420
4703.0 0.0002126 4563.36475 4619.44531
4592.0 0.0002178 4561.87158 4606.19238
4650.0 0.0002151 4560.37646 4595.98242
4571.0 0.0002188 4558.87842 4588.09180
4710.0 0.0002123 4557.37842 4581.93750
4560.0 0.0002193 4555.87500 4577.00098
4443.0 0.0002251 4554.36963 4572.94189
4697.0 0.0002129 4552.86133 4569.49170
4541.0 0.0002202 4551.35107 4566.46924
4532.0 0.0002207 4549.83789 4563.73926
4555.0 0.0002195 4548.32178 4561.22021
4536.0 0.0002205 4546.80322 4558.85303
4532.0 0.0002207 4545.28174 4556.59961
4601.0 0.0002173 4543.75830 4554.43408
4580.0 0.0002183 4542.23096 4552.34180
4550.0 0.0002198 4540.70215 4550.31055
4539.0 0.0002203 4539.16992 4548.33398
4552.0 0.0002197 4537.63574 4546.40625
4546.0 0.0002200 4536.09863 4544.52490
4646.0 0.0002152 4534.55859 4542.68555
4548.0 0.0002199 4533.01611 4540.88916
4707.0 0.0002124 4531.47070 4539.14014
4581.0 0.0002183 4529.92285 4537.43848
4530.0 0.0002208 4528.37158 4535.78467
4525.0 0.0002210 4526.81885 4534.18701
4497.0 0.0002224 4525.26318 4532.64453
4509.0 0.0002218 4523.70361 4531.16406
4582.0 0.0002182 4522.14258 4529.75488
4572.0 0.0002187 4520.57813 4528.42334
4529.0 0.0002208 4519.01123 4527.17871
4540.0 0.0002203 4517.44141 4526.03564
4480.0 0.0002232 4515.86963 4525.01270
4576.0 0.0002185 4514.29395 4524.12793
4463.0 0.0002241 4512.71631 4523.41064
4460.0 0.0002242 4511.13623 4522.89209
4513.0 0.0002216 4509.55273 4522.61328
4525.0 0.0002210 4507.96729 4522.61523
4358.0 0.0002295 4506.37842 4522.94873
4577.0 0.0002185 4504.78711 4523.65771
4522.0 0.0002211 4503.19287 4524.78418
4528.0 0.0002208 4501.59668 4526.35986
4557.0 0.0002194 4499.99658 4528.40039
4448.0 0.0002248 4498.39453 4530.91504
4555.0 0.0002195 4496.79004 4533.70605
4453.0 0.0002246 4495.18213 4537.09766
4423.0 0.0002261 4493.57227 4540.85156
4556.0 0.0002195 4491.95898 4544.88232
4591.0 0.0002178 4490.34375 4549.09180
4530.0 0.0002208 4488.72510 4553.35303
4558.0 0.0002194 4487.10449 4557.53223
4561.0 0.0002193 4485.48145 4561.47363
4637.0 0.0002157 4483.85449 4565.01953
4677.0 0.0002138 4482.22559 4568.00977
4553.0 0.0002196 4480.59375 4570.29248
4579.0 0.0002184 4478.95996 4571.73535
4483.0 0.0002231 4477.32275 4572.22656
4540.0 0.0002203 4475.68359 4571.69775
4602.0 0.0002173 4474.04102 4570.12012
4518.0 0.0002213 4472.39697 4567.50977
4507.0 0.0002219 4470.75000 4563.92480
4496.0 0.0002224 4469.09961 4559.45605
4571.0 0.0002188 4467.44727 4554.20898
4406.0 0.0002270 4465.79199 4547.88672
4458.0 0.0002243 4464.13477 4541.45166
4578.0 0.0002184 4462.47461 4534.59277
4561.0 0.0002193 4460.81201 4527.42139
4510.0 0.0002217 4459.14648 4520.04102
4574.0 0.0002186 4457.47900 4512.56494
4533.0 0.0002206 4455.80908 4505.10254
4495.0 0.0002225 4454.13574 4497.76953
4584.0 0.0002182 4452.46094 4490.67480
4415.0 0.0002265 4450.78320 4483.91357
4469.0 0.0002238 4449.10303 4477.55664
4517.0 0.0002214 4447.42041 4471.66016
4412.0 0.0002267 4445.73584 4466.25195
4539.0 0.0002203 4444.04834 4461.34033
4470.0 0.0002237 4442.35840 4456.91455
4341.0 0.0002304 4440.66650 4452.95020
4437.0 0.0002254 4438.97168 4449.40723
4367.0 0.0002290 4437.27490 4446.23682
4377.0 0.0002285 4435.57520 4443.38721
4512.0 0.0002216 4433.87402 4440.80273
4474.0 0.0002235 4432.16992 4438.42822
4426.0 0.0002259 4430.46387 4436.21826
4440.0 0.0002252 4428.75586 4434.12646
4398.0 0.0002274 4427.04492 4432.11572
4356.0 0.0002296 4425.33203 4430.15820
4385.0 0.0002281 4423.61621 4428.22949
4478.0 0.0002233 4421.89941 4426.31592
4502.0 0.0002221 4420.17920 4424.39893
4417.0 0.0002264 4418.45801 4422.47559
4293.0 0.0002329 4416.73389 4420.53809
4271.0 0.0002341 4415.00781 4418.58496
4474.0 0.0002235 4413.27979 4416.62061
4305.0 0.0002323 4411.54932 4414.48389
4367.0 0.0002290 4409.81738 4412.51807
4394.0 0.0002276 4408.08252 4410.55566
4282.0 0.0002335 4406.34668 4408.60596
4451.0 0.0002247 4404.60791 4406.67041
4454.0 0.0002245 4402.86768 4404.75391
4372.0 0.0002287 4401.12549 4402.85693
4376.0 0.0002285 4399.38086 4400.62354
4338.0 0.0002305 4397.63477 4398.77686
4407.0 0.0002269 4395.88623 4396.95068
4417.0 0.0002264 4394.13672 4395.14893
4294.0 0.0002329 4392.38428 4393.36572
4321.0 0.0002314 4390.63086 4391.60498
4435.0 0.0002255 4388.87451 4389.86523
4532.0 0.0002207 4387.11768 4388.14941
4404.0 0.0002271 4385.35840 4386.48389
4216.0 0.0002372 4383.59717 4384.81104
4367.0 0.0002290 4381.83496 4383.15771
4365.0 0.0002291 4380.07031 4381.52148
4374.0 0.0002286 4378.30420 4379.90137
4441.0 0.0002252 4376.53613 4378.28955
4236.0 0.0002361 4374.76709 4376.68115
4336.0 0.0002306 4372.99561 4375.06592
4397.0 0.0002274 4371.22314 4373.43555
4396.0 0.0002275 4369.44971 4371.78027
4366.0 0.0002290 4367.67334 4370.08838
4445.0 0.0002250 4365.89648 4368.35400
4366.0 0.0002290 4364.11719 4366.57324
4360.0 0.0002294 4362.33740 4364.74463
4388.0 0.0002279 4360.55518 4362.87402
4335.0 0.0002307 4358.77246 4360.96680
4416.0 0.0002264 4356.98828 4359.04736
4279.0 0.0002337 4355.20215 4357.10107
4318.0 0.0002316 4353.41504 4355.14941
4333.0 0.0002308 4351.62646 4353.19971
4397.0 0.0002274 4349.83691 4351.26074
4344.0 0.0002302 4348.04541 4349.33643
4438.0 0.0002253 4346.25342 4347.43262
4372.0 0.0002287 4344.45947 4345.55176
4376.0 0.0002285 4342.66504 4343.69141
4256.0 0.0002350 4340.86963 4341.85205
4350.0 0.0002299 4339.07227 4340.03369
4364.0 0.0002291 4337.27441 4338.23926
4340.0 0.0002304 4335.47461 4336.46436
4308.0 0.0002321 4333.67480 4334.71191
4379.0 0.0002284 4331.87305 4332.98096
4283.0 0.0002335 4330.07129 4331.27588
4298.0 0.0002327 4328.26758 4329.59668
4349.0 0.0002299 4326.46387 4327.94824
4409.0 0.0002268 4324.65869 4326.33105
4421.0 0.0002262 4322.85254 4324.75146
4308.0 0.0002321 4321.04590 4323.21240
4279.0 0.0002337 4319.23779 4321.72021
4351.0 0.0002298 4317.42920 4320.27588
4277.0 0.0002338 4315.61963 4318.88428
4441.0 0.0002252 4313.81006 4317.54785
4365.0 0.0002291 4311.99902 4316.26563
4314.0 0.0002318 4310.18701 4315.04004
4150.0 0.0002410 4308.37549 4313.87012
4374.0 0.0002286 4306.56201 4312.75146
4438.0 0.0002253 4304.74902 4311.68408
4341.0 0.0002304 4302.93457 4310.66211
4348.0 0.0002300 4301.12012 4309.68066
4250.0 0.0002353 4299.30420 4308.73633
4295.0 0.0002328 4297.48877 4307.82715
4271.0 0.0002341 4295.67285 4306.95361
4395.0 0.0002275 4293.85596 4306.11475
4425.0 0.0002260 4292.03906 4305.30273
4446.0 0.0002249 4290.22119 4304.54102
4278.0 0.0002338 4288.40332 4303.77783
4369.0 0.0002289 4286.58447 4303.02930
4319.0 0.0002315 4284.76660 4302.27686
4262.0 0.0002346 4282.94727 4301.50537
4283.0 0.0002335 4281.12793 4300.70117
4280.0 0.0002336 4279.30908 4299.83789
4332.0 0.0002308 4277.48877 4298.89844
4356.0 0.0002296 4275.66895 4297.85010
4279.0 0.0002337 4273.84863 4296.67285
4220.0 0.0002370 4272.02881 4295.34473
4274.0 0.0002340 4270.20801 4293.84570
4190.0 0.0002387 4268.38770 4292.16260
4217.0 0.0002371 4266.56787 4290.29004
4282.0 0.0002335 4264.74658 4288.22119
4265.0 0.0002345 4262.92627 4285.96680
4242.0 0.0002357 4261.10547 4283.53760
4300.0 0.0002326 4259.28516 4280.94971
4213.0 0.0002374 4257.46436 4278.22217
4350.0 0.0002299 4255.64404 4275.38135
4288.0 0.0002332 4253.82324 4272.47021
4223.0 0.0002368 4252.00342 4269.47168
4295.0 0.0002328 4250.18359 4266.43115
4320.0 0.0002315 4248.36328 4263.37061
4222.0 0.0002369 4246.54443 4260.31055
4237.0 0.0002360 4244.72412 4257.27832
4282.0 0.0002335 4242.90527 4254.19873
4198.0 0.0002382 4241.08643 4251.24414
4068.0 0.0002458 4239.26807 4248.35303
4250.0 0.0002353 4237.44922 4245.52881
4262.0 0.0002346 4235.63184 4242.78418
4238.0 0.0002360 4233.81445 4240.11719
4120.0 0.0002427 4231.99658 4237.53027
4265.0 0.0002345 4230.18018 4235.02588
4229.0 0.0002365 4228.36377 4232.59766
4234.0 0.0002362 4226.54834 4230.24512
4294.0 0.0002329 4224.73242 4227.96240
4214.0 0.0002373 4222.91797 4225.74707
4143.0 0.0002414 4221.10400 4223.59277
4265.0 0.0002345 4219.28955 4221.49268
4243.0 0.0002357 4217.47656 4219.43848
4204.0 0.0002379 4215.66357 4217.42529
4145.0 0.0002413 4213.85205 4215.45068
4179.0 0.0002393 4212.04004 4213.50635
4153.0 0.0002408 4210.22949 4211.59277
4135.0 0.0002418 4208.41943 4209.70020
4239.0 0.0002359 4206.60986 4207.82861
4172.0 0.0002397 4204.80176 4205.97461
4141.0 0.0002415 4202.99316 4204.13525
4209.0 0.0002376 4201.18652 4202.31006
4267.0 0.0002344 4199.37939 4200.49512
4089.0 0.0002446 4197.57422 4198.69287
4210.0 0.0002375 4195.76904 4196.90039
4282.0 0.0002335 4193.96533 4195.12061
4214.0 0.0002373 4192.16162 4193.35254
4282.0 0.0002335 4190.35986 4191.60303
4374.0 0.0002286 4188.55859 4189.87354
4188.0 0.0002388 4186.75732 4188.16992
4196.0 0.0002383 4184.95801 4186.50439
4203.0 0.0002379 4183.15918 4184.88428
4163.0 0.0002402 4181.36133 4183.32617
4199.0 0.0002382 4179.56445 4181.84473
4141.0 0.0002415 4177.76855 4180.45605
4158.0 0.0002405 4175.97412 4179.18652
4087.0 0.0002447 4174.17969 4178.04785
4189.0 0.0002387 4172.38721 4177.06104
4186.0 0.0002389 4170.59473 4176.24072
4283.0 0.0002335 4168.80469 4175.59521
4289.0 0.0002332 4167.01416 4175.11963
4227.0 0.0002366 4165.22607 4174.80762
4171.0 0.0002398 4163.43799 4174.63574
4255.0 0.0002350 4161.65186 4174.57471
4195.0 0.0002384 4159.86670 4174.57910
4007.0 0.0002496 4158.08203 4174.59375
4119.0 0.0002428 4156.29932 4174.56396
4185.0 0.0002389 4154.51660 4174.42334
4143.0 0.0002414 4152.73633 4174.12109
4146.0 0.0002412 4150.95605 4173.61621
4290.0 0.0002331 4149.17822 4172.89648
4224.0 0.0002367 4147.40039 4171.97217
4150.0 0.0002410 4145.62451 4170.87988
4192.0 0.0002385 4143.85010 4169.66699
4059.0 0.0002464 4142.07568 4168.37891
4136.0 0.0002418 4140.30371 4167.06299
4266.0 0.0002344 4138.53174 4165.75781
4099.0 0.0002440 4136.76221 4164.49658
4083.0 0.0002449 4134.99316 4163.30908
4097.0 0.0002441 4133.22607 4162.21045
4073.0 0.0002455 4131.45996 4161.21533
4260.0 0.0002347 4129.69482 4160.31543
4067.0 0.0002459 4127.93115 4159.49268
4192.0 0.0002385 4126.16895 4158.71777
4115.0 0.0002430 4124.40771 4157.94531
4206.0 0.0002378 4122.64746 4157.12451
4288.0 0.0002332 4120.88965 4156.20557
4228.0 0.0002365 4119.13184 4155.12891
4219.0 0.0002370 4117.37646 4153.85205
4265.0 0.0002345 4115.62207 4152.33740
4187.0 0.0002388 4113.86865 4150.56641
4288.0 0.0002332 4112.11670 4148.54053
4211.0 0.0002375 4110.36572 4146.27686
4186.0 0.0002389 4108.61719 4143.81396
4170.0 0.0002398 4106.86865 4141.20361
4263.0 0.0002346 4105.12256 4138.48682
4243.0 0.0002357 4103.37695 4135.72070
4119.0 0.0002428 4101.63330 4132.95752
4122.0 0.0002426 4099.89111 4130.24805
4043.0 0.0002473 4098.14941 4127.60693
4094.0 0.0002443 4096.40967 4125.06299
4097.0 0.0002441 4094.67090 4122.63232
4103.0 0.0002437 4092.93384 4120.31738
4132.0 0.0002420 4091.19751 4118.10840
4178.0 0.0002393 4089.46362 4116.00342
4190.0 0.0002387 4087.73047 4113.99072
4059.0 0.0002464 4085.99829 4112.06592
4167.0 0.0002400 4084.26831 4110.23047
4086.0 0.0002447 4082.53857 4108.48730
4086.0 0.0002447 4080.81104 4106.84668
4110.0 0.0002433 4079.08423 4105.32080
4146.0 0.0002412 4077.35938 4103.92334
4108.0 0.0002434 4075.63501 4102.66748
4047.0 0.0002471 4073.91284 4101.56836
4135.0 0.0002418 4072.19189 4100.63232
4171.0 0.0002398 4070.47168 4099.86475
4047.0 0.0002471 4068.75342 4099.27246
4165.0 0.0002401 4067.03589 4098.85156
4064.0 0.0002461 4065.32007 4098.59766
4107.0 0.0002435 4063.60498 4098.50293
4097.0 0.0002441 4061.89209 4098.55762
4098.0 0.0002440 4060.17944 4098.74023
4237.0 0.0002360 4058.46875 4099.03174
4105.0 0.0002436 4056.75977 4099.39844
4109.0 0.0002434 4055.05103 4099.80176
4114.0 0.0002431 4053.34399 4100.19629
4126.0 0.0002424 4051.63794 4100.52441
4183.0 0.0002391 4049.93384 4100.72266
4120.0 0.0002427 4048.22998 4100.71924
4170.0 0.0002398 4046.52808 4100.44287
4090.0 0.0002445 4044.82764 4099.82422
4100.0 0.0002439 4043.12744 4098.81250
4024.0 0.0002485 4041.42920 4097.39258
4063.0 0.0002461 4039.73145 4095.58252
4001.0 0.0002499 4038.03589 4093.43970
4056.0 0.0002465 4036.34033 4091.03882
4012.0 0.0002493 4034.64673 4088.45996
4104.0 0.0002437 4032.95386 4085.77100
4071.0 0.0002456 4031.26270 4083.02710
4039.0 0.0002476 4029.57251 4080.30688
4151.0 0.0002409 4027.88281 4077.52734
4108.0 0.0002434 4026.19507 4074.73145
4184.0 0.0002390 4024.50757 4071.89502
4082.0 0.0002450 4022.82178 4068.98584
4122.0 0.0002426 4021.13672 4065.97534
4068.0 0.0002458 4019.45313 4062.81958
3971.0 0.0002518 4017.77002 4059.50342
4100.0 0.0002439 4016.08862 4056.02222
4020.0 0.0002488 4014.40796 4052.38623
4024.0 0.0002485 4012.72778 4048.61523
4078.0 0.0002452 4011.04932 4044.74219
4046.0 0.0002472 4009.37134 4040.79980
3952.0 0.0002530 4007.69482 4036.82642
3973.0 0.0002517 4006.01855 4032.85522
4065.0 0.0002460 4004.34399 4028.92114
4058.0 0.0002464 4002.67017 4025.05298
3953.0 0.0002530 4000.99683 4021.41968
4023.0 0.0002486 3999.32495 4017.75439
3995.0 0.0002503 3997.65332 4014.21606
4004.0 0.0002498 3995.98315 4010.81128
4003.0 0.0002498 3994.31299 4007.54492
4015.0 0.0002491 3992.64478 4004.42090
3968.0 0.0002520 3990.97656 4001.43701
4012.0 0.0002493 3989.30957 3998.58862
4087.0 0.0002447 3987.64355 3995.86963
4011.0 0.0002493 3985.97778 3993.27271
3843.0 0.0002602 3984.31299 3990.78857
3884.0 0.0002575 3982.64868 3988.40674
4047.0 0.0002471 3980.98584 3986.11768
3983.0 0.0002511 3979.32275 3983.90967
3932.0 0.0002543 3977.66089 3981.91040
4043.0 0.0002473 3975.99951 3979.83887
3989.0 0.0002507 3974.33911 3977.81714
3970.0 0.0002519 3972.67944 3975.84082
4130.0 0.0002421 3971.02002 3973.90234
3934.0 0.0002542 3969.36133 3971.97583
4013.0 0.0002492 3967.70288 3970.09912
3938.0 0.0002539 3966.04541 3968.25708
4095.0 0.0002442 3964.38843 3966.42993
3945.0 0.0002535 3962.73218 3964.62622
3951.0 0.0002531 3961.07642 3962.84229
3887.0 0.0002573 3959.42090 3961.07642
3926.0 0.0002547 3957.76611 3959.32983
3917.0 0.0002553 3956.11108 3957.59961
3912.0 0.0002556 3954.45752 3955.91846
3959.0 0.0002526 3952.80371 3954.21753
3871.0 0.0002583 3951.15063 3952.52759
4035.0 0.0002478 3949.49756 3950.84814
3945.0 0.0002535 3947.84546 3949.17920
3884.0 0.0002575 3946.19360 3947.52026
3902.0 0.0002563 3944.54175 3945.87061
3946.0 0.0002534 3942.89063 3944.22778
3842.0 0.0002603 3941.23926 3942.59644
3990.0 0.0002506 3939.58862 3940.97070
3898.0 0.0002565 3937.93774 3939.35449
3906.0 0.0002560 3936.28809 3937.74951
3922.0 0.0002550 3934.63770 3936.15430
3870.0 0.0002584 3932.98804 3934.57178
3892.0 0.0002569 3931.33887 3933.00415
3834.0 0.0002608 3929.68921 3931.45288
3927.0 0.0002546 3928.04028 3929.92139
3987.0 0.0002508 3926.39063 3928.44800
3828.0 0.0002612 3924.74219 3926.96338
3955.0 0.0002528 3923.09302 3925.50635
3871.0 0.0002583 3921.44458 3924.08325
3816.0 0.0002621 3919.79614 3922.69604
3966.0 0.0002521 3918.14722 3921.34888
3946.0 0.0002534 3916.49878 3920.04590
3897.0 0.0002566 3914.85034 3918.79419
3942.0 0.0002537 3913.20190 3917.60034
3913.0 0.0002556 3911.55298 3916.45898
3940.0 0.0002538 3909.90479 3915.38037
4099.0 0.0002440 3908.25586 3914.36475
3802.0 0.0002630 3906.60742 3913.41455
3872.0 0.0002583 3904.95874 3912.53638
3930.0 0.0002545 3903.30981 3911.71924
3827.0 0.0002613 3901.66089 3910.95068
3811.0 0.0002624 3900.01147 3910.22827
3931.0 0.0002544 3898.36255 3909.54443
3939.0 0.0002539 3896.71289 3908.88159
3898.0 0.0002565 3895.06348 3908.22461
3955.0 0.0002528 3893.41309 3907.55444
3867.0 0.0002586 3891.76367 3906.84839
3996.0 0.0002503 3890.11353 3906.08276
3857.0 0.0002593 3888.46265 3905.23145
3912.0 0.0002556 3886.81226 3904.27002
3908.0 0.0002559 3885.16089 3903.17627
3930.0 0.0002545 3883.50977 3901.92896
3868.0 0.0002585 3881.85767 3900.50928
3869.0 0.0002585 3880.20605 3898.91064
3929.0 0.0002545 3878.55396 3897.12500
3844.0 0.0002601 3876.90088 3895.16113
4004.0 0.0002498 3875.24805 3893.03149
3926.0 0.0002547 3873.59424 3890.75610
3867.0 0.0002586 3871.94067 3888.37012
3994.0 0.0002504 3870.28613 3885.87964
3952.0 0.0002530 3868.63159 3883.32861
3915.0 0.0002554 3866.97607 3880.74609
3889.0 0.0002571 3865.32056 3878.16821
3850.0 0.0002597 3863.66479 3875.60986
3827.0 0.0002613 3862.00781 3873.06104
3998.0 0.0002501 3860.35083 3870.63110
3829.0 0.0002612 3858.69312 3868.34644
3839.0 0.0002605 3857.03516 3866.13428
3856.0 0.0002593 3855.37598 3864.04907
3811.0 0.0002624 3853.71729 3862.10791
3930.0 0.0002545 3852.05688 3860.31787
3838.0 0.0002606 3850.39673 3858.68628
3820.0 0.0002618 3848.73608 3857.21509
3782.0 0.0002644 3847.07397 3855.90161
3719.0 0.0002689 3845.41187 3854.74292
4022.0 0.0002486 3843.74854 3853.74048
3898.0 0.0002565 3842.08545 3852.86670
3948.0 0.0002533 3840.42090 3852.11963
3923.0 0.0002549 3838.75610 3851.48926
3801.0 0.0002631 3837.09106 3850.96606
3850.0 0.0002597 3835.42432 3850.51758
3775.0 0.0002649 3833.75757 3850.19580
3868.0 0.0002585 3832.08936 3849.97900
3888.0 0.0002572 3830.42139 3849.89038
3853.0 0.0002595 3828.75195 3849.95728
3773.0 0.0002650 3827.08203 3850.22607
3827.0 0.0002613 3825.41113 3850.74487
3885.0 0.0002574 3823.73999 3851.56689
3952.0 0.0002530 3822.06812 3852.75366
3865.0 0.0002587 3820.39453 3854.35083
3869.0 0.0002585 3818.72119 3856.40576
3916.0 0.0002554 3817.04614 3858.95044
4013.0 0.0002492 3815.37109 3862.01270
3944.0 0.0002535 3813.69458 3865.60522
3791.0 0.0002638 3812.01782 3869.73242
3877.0 0.0002579 3810.33936 3874.38062
3856.0 0.0002593 3808.66113 3879.53101
3856.0 0.0002593 3806.98169 3885.14307
3876.0 0.0002580 3805.30078 3891.17114
3906.0 0.0002560 3803.61987 3897.55884
4002.0 0.0002499 3801.93726 3904.20239
3972.0 0.0002518 3800.25439 3911.09521
3998.0 0.0002501 3798.56982 3918.11914
3923.0 0.0002549 3796.88550 3925.19043
4061.0 0.0002462 3795.19971 3932.22021
3932.0 0.0002543 3793.51270 3939.12598
3763.0 0.0002657 3791.82544 3945.83252
3873.0 0.0002582 3790.13647 3952.28027
3992.0 0.0002505 3788.44727 3958.43066
4004.0 0.0002498 3786.75635 3964.27026
4075.0 0.0002454 3785.06543 3969.81470
3993.0 0.0002504 3783.37280 3975.10986
4121.0 0.0002427 3781.67969 3980.23145
4007.0 0.0002496 3779.98584 3985.27710
3958.0 0.0002527 3778.29028 3990.35474
4030.0 0.0002481 3776.59448 3995.56445
3955.0 0.0002528 3774.89697 4000.99072
4028.0 0.0002483 3773.19922 4006.67871
3957.0 0.0002527 3771.49976 4012.60791
4044.0 0.0002473 3769.80005 4018.69336
4003.0 0.0002498 3768.09888 4024.73120
4004.0 0.0002498 3766.39697 4030.45337
4085.0 0.0002448 3764.69409 4035.49487
4067.0 0.0002459 3762.98999 4039.51953
4135.0 0.0002418 3761.28540 4041.85303
4050.0 0.0002469 3759.57886 4042.14844
3973.0 0.0002517 3757.87207 4040.08301
3962.0 0.0002524 3756.16406 4035.60425
4174.0 0.0002396 3754.45532 4028.74414
4089.0 0.0002446 3752.74536 4019.96338
4020.0 0.0002488 3751.03442 4009.81250
3981.0 0.0002512 3749.32251 3998.87915
4000.0 0.0002500 3747.60913 3987.69434
3990.0 0.0002506 3745.89551 3976.66479
3939.0 0.0002539 3744.18018 3966.04761
3980.0 0.0002513 3742.46436 3955.94141
3942.0 0.0002537 3740.74683 3946.28418
3973.0 0.0002517 3739.02930 3936.88916
3917.0 0.0002553 3737.31030 3927.47485
3893.0 0.0002569 3735.58984 3917.74731
3864.0 0.0002588 3733.86914 3907.48926
3909.0 0.0002558 3732.14673 3896.62354
3848.0 0.0002599 3730.42358 3885.22681
3812.0 0.0002623 3728.69897 3873.48438
3864.0 0.0002588 3726.97437 3861.62646
3904.0 0.0002561 3725.24780 3849.86719
3733.0 0.0002679 3723.52075 3838.38354
3803.0 0.0002630 3721.79297 3827.29810
3788.0 0.0002640 3720.06323 3816.69604
3821.0 0.0002617 3718.33325 3806.63232
3749.0 0.0002667 3716.60156 3797.13428
3786.0 0.0002641 3714.86963 3788.21387
3823.0 0.0002616 3713.13599 3779.85376
3635.0 0.0002751 3711.40186 3772.02344
3652.0 0.0002738 3709.66699 3764.69067
3733.0 0.0002679 3707.93018 3757.83057
3727.0 0.0002683 3706.19312 3751.43091
3726.0 0.0002684 3704.45459 3745.49048
3739.0 0.0002675 3702.71558 3740.01147
3766.0 0.0002655 3700.97461 3735.00146
3689.0 0.0002711 3699.23389 3730.47095
3708.0 0.0002697 3697.49097 3726.41626
3666.0 0.0002728 3695.74780 3722.84082
3741.0 0.0002673 3694.00366 3719.73096
3703.0 0.0002701 3692.25830 3717.06494
3738.0 0.0002675 3690.51196 3714.80664
3652.0 0.0002738 3688.76440 3712.91284
3650.0 0.0002740 3687.01636 3711.32324
3728.0 0.0002682 3685.26685 3709.96997
3698.0 0.0002704 3683.51660 3708.77979
3687.0 0.0002712 3681.76489 3707.67285
3569.0 0.0002802 3680.01318 3706.58179
3631.0 0.0002754 3678.26001 3705.43994
3619.0 0.0002763 3676.50537 3704.20264
3660.0 0.0002732 3674.75049 3702.84326
3643.0 0.0002745 3672.99390 3701.35547
3554.0 0.0002814 3671.23706 3699.75391
3713.0 0.0002693 3669.47852 3698.06689
3599.0 0.0002779 3667.71973 3696.33936
3681.0 0.0002717 3665.95996 3694.62891
3696.0 0.0002706 3664.19849 3692.99951
3730.0 0.0002681 3662.43677 3691.51782
3708.0 0.0002697 3660.67358 3690.24414
3682.0 0.0002716 3658.90967 3689.24463
3685.0 0.0002714 3657.14453 3688.56152
3716.0 0.0002691 3655.37891 3688.21753
3679.0 0.0002718 3653.61182 3688.23511
3682.0 0.0002716 3651.84424 3688.60010
3574.0 0.0002798 3650.07568 3689.27612
3608.0 0.0002772 3648.30566 3690.20679
3754.0 0.0002664 3646.53516 3691.31396
3703.0 0.0002701 3644.76343 3692.49927
3562.0 0.0002807 3642.99097 3693.80347
3748.0 0.0002668 3641.21704 3694.79370
3799.0 0.0002632 3639.44312 3695.49023
3685.0 0.0002714 3637.66724 3695.76074
3734.0 0.0002678 3635.89111 3695.48706
3651.0 0.0002739 3634.11426 3694.56641
3682.0 0.0002716 3632.33545 3692.93188
3669.0 0.0002726 3630.55640 3690.55347
3698.0 0.0002704 3628.77588 3687.44556
3664.0 0.0002729 3626.99512 3683.66333
3654.0 0.0002737 3625.21265 3679.28833
3659.0 0.0002733 3623.42993 3674.43262
3639.0 0.0002748 3621.64648 3669.21191
3564.0 0.0002806 3619.86108 3663.74707
3675.0 0.0002721 3618.07544 3658.16089
3638.0 0.0002749 3616.28809 3652.55518
3607.0 0.0002772 3614.50073 3647.03296
3660.0 0.0002732 3612.71167 3641.67627
3605.0 0.0002774 3610.92212 3636.55347
3670.0 0.0002725 3609.13135 3631.71973
3629.0 0.0002756 3607.34009 3627.21289
3665.0 0.0002729 3605.54785 3623.05591
3607.0 0.0002772 3603.75391 3619.25977
3541.0 0.0002824 3601.95996 3615.82813
3631.0 0.0002754 3600.16406 3612.74927
3716.0 0.0002691 3598.36792 3610.01050
3591.0 0.0002785 3596.57031 3607.59277
3606.0 0.0002773 3594.77222 3605.47095
3601.0 0.0002777 3592.97266 3603.61694
3635.0 0.0002751 3591.17285 3602.00513
3609.0 0.0002771 3589.37183 3600.60303
3547.0 0.0002819 3587.56934 3599.37476
3568.0 0.0002803 3585.76660 3598.28760
3609.0 0.0002771 3583.96191 3597.30054
3608.0 0.0002772 3582.15698 3596.37769
3626.0 0.0002758 3580.35059 3595.47827
3679.0 0.0002718 3578.54395 3594.56519
3623.0 0.0002760 3576.73608 3593.60205
3718.0 0.0002690 3574.92651 3592.55957
3584.0 0.0002790 3573.11694 3591.41846
3683.0 0.0002715 3571.30542 3590.18213
3601.0 0.0002777 3569.49341 3588.82739
3636.0 0.0002750 3567.67993 3587.38940
3617.0 0.0002765 3565.86621 3585.92310
3583.0 0.0002791 3564.05054 3584.50342
3599.0 0.0002779 3562.23462 3583.25732
3555.0 0.0002813 3560.41772 3582.27515
3599.0 0.0002779 3558.59912 3581.72778
3595.0 0.0002782 3556.78003 3581.78345
3641.0 0.0002746 3554.95923 3582.61523
3617.0 0.0002765 3553.13818 3584.40137
3647.0 0.0002742 3551.31519 3587.29443
3680.0 0.0002717 3549.49194 3591.42725
3667.0 0.0002727 3547.66699 3596.86743
3575.0 0.0002797 3545.84155 3603.62012
3665.0 0.0002729 3544.01489 3611.59521
3570.0 0.0002801 3542.18701 3620.60669
3617.0 0.0002765 3540.35815 3630.35547
3655.0 0.0002736 3538.52759 3640.42969
3703.0 0.0002701 3536.69653 3650.31372
3737.0 0.0002676 3534.86401 3659.39941
3774.0 0.0002650 3533.03076 3667.02441
3784.0 0.0002643 3531.19653 3672.54346
3699.0 0.0002703 3529.36060 3675.43848
3667.0 0.0002727 3527.52393 3675.44263
3658.0 0.0002734 3525.68555 3672.61182
3700.0 0.0002703 3523.84668 3667.31714
3669.0 0.0002726 3522.00586 3660.12769
3629.0 0.0002756 3520.16455 3651.70142
3637.0 0.0002750 3518.32129 3642.67896
3590.0 0.0002786 3516.47803 3633.62427
3605.0 0.0002774 3514.63306 3624.99829
3600.0 0.0002778 3512.78613 3617.14087
3594.0 0.0002782 3510.93896 3610.28223
3675.0 0.0002721 3509.08984 3604.53247
3603.0 0.0002775 3507.23999 3599.90649
3528.0 0.0002834 3505.38818 3596.33105
3550.0 0.0002817 3503.53613 3593.67041
3559.0 0.0002810 3501.68188 3591.73755
3646.0 0.0002743 3499.82715 3590.33105
3547.0 0.0002819 3497.97119 3589.23999
3645.0 0.0002743 3496.11304 3588.25928
3625.0 0.0002759 3494.25439 3587.20557
3581.0 0.0002793 3492.39380 3585.92163
3673.0 0.0002723 3490.53271 3584.27979
3620.0 0.0002762 3488.66919 3582.18896
3634.0 0.0002752 3486.80518 3579.59155
3601.0 0.0002777 3484.94019 3576.46167
3645.0 0.0002743 3483.07275 3572.80396
3606.0 0.0002773 3481.20483 3568.64941
3634.0 0.0002752 3479.33496 3564.05176
3601.0 0.0002777 3477.46411 3559.08057
3534.0 0.0002830 3475.59131 3553.81445
3444.0 0.0002904 3473.71777 3548.34546
3535.0 0.0002829 3471.84229 3542.76196
3591.0 0.0002785 3469.96582 3537.15723
3533.0 0.0002830 3468.08813 3531.62354
3582.0 0.0002792 3466.20825 3526.24463
3449.0 0.0002899 3464.32764 3521.10474
3528.0 0.0002834 3462.44482 3516.27515
3565.0 0.0002805 3460.56152 3511.81909
3527.0 0.0002835 3458.67578 3507.79541
3565.0 0.0002805 3456.78906 3504.25220
3449.0 0.0002899 3454.90039 3501.22559
3526.0 0.0002836 3453.01123 3498.74902
3516.0 0.0002844 3451.12012 3496.84009
3547.0 0.0002819 3449.22705 3495.51465
3468.0 0.0002884 3447.33325 3494.78174
3487.0 0.0002868 3445.43701 3494.64233
3481.0 0.0002873 3443.54004 3495.09644
3557.0 0.0002811 3441.64063 3496.13745
3500.0 0.0002857 3439.74072 3497.75513
3481.0 0.0002873 3437.83911 3499.66479
3552.0 0.0002815 3435.93530 3502.37744
3481.0 0.0002873 3434.03052 3505.58960
3518.0 0.0002843 3432.12354 3509.26025
3573.0 0.0002799 3430.21558 3513.33521
3528.0 0.0002834 3428.30566 3517.75317
3428.0 0.0002917 3426.39453 3522.44360
3378.0 0.0002960 3424.48120 3527.32593
3497.0 0.0002860 3422.56714 3532.31372
3468.0 0.0002884 3420.65137 3537.31055
3603.0 0.0002775 3418.73315 3542.21729
3561.0 0.0002808 3416.81421 3546.92993
3520.0 0.0002841 3414.89307 3551.34106
3590.0 0.0002786 3412.97070 3555.34814
3530.0 0.0002833 3411.04614 3558.84595
3562.0 0.0002807 3409.12085 3561.74097
3533.0 0.0002830 3407.19312 3563.93945
3625.0 0.0002759 3405.26440 3565.36499
3577.0 0.0002796 3403.33423 3565.95532
3669.0 0.0002726 3401.40161 3565.65649
3515.0 0.0002845 3399.46777 3564.43994
3591.0 0.0002785 3397.53198 3562.29175
3690.0 0.0002710 3395.59521 3559.21924
3546.0 0.0002820 3393.65601 3555.24536
3620.0 0.0002762 3391.71582 3550.41138
3555.0 0.0002813 3389.77441 3544.77417
3552.0 0.0002815 3387.83032 3538.34692
3496.0 0.0002860 3385.88525 3531.30957
3480.0 0.0002874 3383.93799 3523.69141
3458.0 0.0002892 3381.98975 3515.57715
3461.0 0.0002889 3380.03931 3507.05347
3476.0 0.0002877 3378.08789 3498.20679
3433.0 0.0002913 3376.13428 3489.12134
3479.0 0.0002874 3374.17944 3479.88135
3545.0 0.0002821 3372.22314 3470.56592
3405.0 0.0002937 3370.26465 3461.25537
3452.0 0.0002897 3368.30542 3452.02612
3301.0 0.0003029 3366.34351 3442.95068
3385.0 0.0002954 3364.38110 3434.09546
3293.0 0.0003037 3362.41626 3425.51611
3465.0 0.0002886 3360.45044 3417.26587
3454.0 0.0002895 3358.48242 3409.38208
3325.0 0.0003008 3356.51392 3401.89819
3434.0 0.0002912 3354.54346 3394.83398
3419.0 0.0002925 3352.57080 3388.20166
3377.0 0.0002961 3350.59766 3382.00415
3371.0 0.0002966 3348.62207 3376.23877
3399.0 0.0002942 3346.64551 3370.89526
3382.0 0.0002957 3344.66699 3365.96021
3373.0 0.0002965 3342.68799 3361.41333
3392.0 0.0002948 3340.70703 3357.23291
3400.0 0.0002941 3338.72412 3353.39746
3300.0 0.0003030 3336.74072 3349.88208
3385.0 0.0002954 3334.75488 3346.66382
3312.0 0.0003019 3332.76855 3343.71826
3364.0 0.0002973 3330.77979 3341.02588
3385.0 0.0002954 3328.79102 3338.56689
3231.0 0.0003095 3326.79980 3336.32080
3411.0 0.0002932 3324.80786 3334.27271
3300.0 0.0003030 3322.81494 3332.40845
3268.0 0.0003060 3320.81982 3330.71338
3269.0 0.0003059 3318.82397 3329.17676
3393.0 0.0002947 3316.82642 3327.78564
3296.0 0.0003034 3314.82837 3326.53003
3432.0 0.0002914 3312.82837 3325.40039
3302.0 0.0003028 3310.82788 3324.38452
3331.0 0.0003002 3308.82568 3323.47339
3352.0 0.0002983 3306.82275 3322.65454
3246.0 0.0003081 3304.81885 3321.91699
3340.0 0.0002994 3302.81348 3321.24780
3317.0 0.0003015 3300.80737 3320.63281
3244.0 0.0003083 3298.79956 3320.05859
3241.0 0.0003085 3296.79175 3319.51123
3338.0 0.0002996 3294.78198 3318.97241
3303.0 0.0003028 3292.77173 3318.42798
3410.0 0.0002933 3290.76099 3317.86523
3244.0 0.0003083 3288.74854 3317.26343
3213.0 0.0003112 3286.73608 3316.61060
3403.0 0.0002939 3284.72168 3315.89063
3315.0 0.0003017 3282.70776 3315.09155
3277.0 0.0003052 3280.69189 3314.20093
3325.0 0.0003008 3278.67627 3313.21143
3301.0 0.0003029 3276.65894 3312.11108
3284.0 0.0003045 3274.64209 3310.90112
3319.0 0.0003013 3272.62427 3309.56958
3316.0 0.0003016 3270.60522 3308.11572
3356.0 0.0002980 3268.58667 3306.54077
3297.0 0.0003033 3266.56641 3304.84277
3368.0 0.0002969 3264.54663 3303.02319
3285.0 0.0003044 3262.52539 3301.08008
3228.0 0.0003098 3260.50488 3299.01611
3333.0 0.0003000 3258.48315 3296.82788
3236.0 0.0003090 3256.46167 3294.51587
3353.0 0.0002982 3254.44019 3292.07959
3250.0 0.0003077 3252.41748 3289.51343
3327.0 0.0003006 3250.39526 3286.82031
3288.0 0.0003041 3248.37231 3283.99561
3252.0 0.0003075 3246.34985 3281.04517
3241.0 0.0003085 3244.32666 3277.97168
3241.0 0.0003085 3242.30396 3274.78467
3096.0 0.0003230 3240.28149 3271.50000
3251.0 0.0003076 3238.25830 3268.13721
3171.0 0.0003154 3236.23560 3264.71265
3339.0 0.0002995 3234.21289 3261.25122
3219.0 0.0003107 3232.19067 3257.77710
3278.0 0.0003051 3230.16797 3254.31226
3313.0 0.0003018 3228.14648 3250.87964
3194.0 0.0003131 3226.12451 3247.49243
3208.0 0.0003117 3224.10327 3244.16797
3273.0 0.0003055 3222.08301 3240.93091
3291.0 0.0003039 3220.06201 3237.75098
3259.0 0.0003068 3218.04248 3234.64941
3157.0 0.0003168 3216.02271 3231.61914
3138.0 0.0003187 3214.00439 3228.65698
3189.0 0.0003136 3211.98584 3225.75317
3227.0 0.0003099 3209.96851 3222.89941
3172.0 0.0003153 3207.95142 3220.08276
3259.0 0.0003068 3205.93604 3217.29419
3232.0 0.0003094 3203.92114 3214.52344
3162.0 0.0003163 3201.90649 3211.76880
3189.0 0.0003136 3199.89380 3209.02197
3110.0 0.0003215 3197.88110 3206.28271
3232.0 0.0003094 3195.87012 3203.55859
3207.0 0.0003118 3193.85962 3200.85352
3136.0 0.0003189 3191.85107 3198.17383
3237.0 0.0003089 3189.84351 3195.52490
3216.0 0.0003109 3187.83643 3192.91821
3182.0 0.0003143 3185.83154 3190.47852
3174.0 0.0003151 3183.82715 3187.95972
3195.0 0.0003130 3181.82495 3185.49268
3170.0 0.0003155 3179.82349 3183.07544
3243.0 0.0003084 3177.82422 3180.70972
3232.0 0.0003094 3175.82568 3178.39575
3186.0 0.0003139 3173.82959 3176.13037
3211.0 0.0003114 3171.83496 3173.91309
3177.0 0.0003148 3169.84131 3171.73657
3122.0 0.0003203 3167.85010 3169.60156
3186.0 0.0003139 3165.86011 3167.50293
3318.0 0.0003014 3163.87256 3165.43750
3161.0 0.0003164 3161.88599 3163.40186
3159.0 0.0003166 3159.90259 3161.39551
3127.0 0.0003198 3157.91992 3159.41406
3236.0 0.0003090 3155.94019 3157.45459
3238.0 0.0003088 3153.96265 3155.51538
3158.0 0.0003167 3151.98633 3153.59497
3163.0 0.0003162 3150.01270 3151.69092
3105.0 0.0003221 3148.04077 3149.80151
3241.0 0.0003085 3146.07202 3147.92651
3094.0 0.0003232 3144.10449 3146.05933
3113.0 0.0003212 3142.14014 3144.20166
3161.0 0.0003164 3140.17847 3142.35034
3089.0 0.0003237 3138.21802 3140.50146
3101.0 0.0003225 3136.26099 3138.65381
3123.0 0.0003202 3134.30566 3136.80713
3125.0 0.0003200 3132.35376 3134.95581
3120.0 0.0003205 3130.40356 3132.85229
3131.0 0.0003194 3128.45679 3130.99805
3167.0 0.0003158 3126.51221 3129.13843
3129.0 0.0003196 3124.57056 3127.27588
3193.0 0.0003132 3122.63184 3125.41187
3049.0 0.0003280 3120.69507 3123.54590
3091.0 0.0003235 3118.76221 3121.67944
3092.0 0.0003234 3116.83130 3119.80884
3090.0 0.0003236 3114.90381 3117.93433
3151.0 0.0003174 3112.97876 3116.05420
3209.0 0.0003116 3111.05737 3114.16528
3097.0 0.0003229 3109.13794 3112.25757
3094.0 0.0003232 3107.22266 3110.33936
3157.0 0.0003168 3105.31006 3108.40234
3254.0 0.0003073 3103.39990 3106.45264
3084.0 0.0003243 3101.49365 3104.47510
3145.0 0.0003180 3099.58984 3102.48096
3094.0 0.0003232 3097.68945 3100.47168
3121.0 0.0003204 3095.79175 3098.45215
3003.0 0.0003330 3093.89819 3096.42725
3199.0 0.0003126 3092.00757 3094.40259
3138.0 0.0003187 3090.11963 3092.37988
3035.0 0.0003295 3088.23560 3090.36621
3027.0 0.0003304 3086.35400 3088.36377
3097.0 0.0003229 3084.47632 3086.37500
3126.0 0.0003199 3082.60132 3084.39990
3067.0 0.0003261 3080.73047 3082.44849
3133.0 0.0003192 3078.86206 3080.50635
3062.0 0.0003266 3076.99756 3078.58057
3034.0 0.0003296 3075.13672 3076.66772
3167.0 0.0003158 3073.27832 3074.76709
3082.0 0.0003245 3071.42383 3072.87598
3080.0 0.0003247 3069.57202 3070.99268
2987.0 0.0003348 3067.72437 3069.11499
3032.0 0.0003298 3065.87939 3067.24976
3037.0 0.0003293 3064.03809 3065.38159
3133.0 0.0003192 3062.19995 3063.51489
3060.0 0.0003268 3060.36548 3061.65234
3032.0 0.0003298 3058.53442 3059.79297
3126.0 0.0003199 3056.70605 3057.93579
3011.0 0.0003321 3054.88159 3056.08447
2986.0 0.0003349 3053.05981 3054.23755
3080.0 0.0003247 3051.24219 3052.39746
3002.0 0.0003331 3049.42676 3050.56323
3047.0 0.0003282 3047.61548 3048.73682
3151.0 0.0003174 3045.80713 3046.91846
3120.0 0.0003205 3044.00171 3045.10815
3115.0 0.0003210 3042.19995 3043.30884
3033.0 0.0003297 3040.40088 3041.51733
2924.0 0.0003420 3038.60571 3039.73975
3029.0 0.0003301 3036.81274 3037.97192
3143.0 0.0003182 3035.02344 3036.21802
3052.0 0.0003277 3033.23657 3034.47778
3127.0 0.0003198 3031.45361 3032.75464
3064.0 0.0003264 3029.67358 3031.05078
3028.0 0.0003303 3027.89575 3029.36670
3130.0 0.0003195 3026.12158 3027.70728
3031.0 0.0003299 3024.34961 3026.07568
3125.0 0.0003200 3022.58105 3024.47583
3052.0 0.0003277 3020.81470 3022.91064
3019.0 0.0003312 3019.05176 3021.38525
3016.0 0.0003316 3017.29102 3019.90308
2960.0 0.0003378 3015.53320 3018.46533
3021.0 0.0003310 3013.77832 3017.07764
2983.0 0.0003352 3012.02539 3015.73877
3016.0 0.0003316 3010.27539 3014.44873
3032.0 0.0003298 3008.52734 3013.20630
2999.0 0.0003334 3006.78223 3012.00732
2956.0 0.0003383 3005.03882 3010.84619
3041.0 0.0003288 3003.29810 3009.71509
2929.0 0.0003414 3001.56006 3008.60400
2931.0 0.0003412 2999.82324 3007.50171
3015.0 0.0003317 2998.08911 3006.39819
3074.0 0.0003253 2996.35669 3005.27783
2987.0 0.0003348 2994.62646 3004.13086
2933.0 0.0003409 2992.89746 3002.94531
3024.0 0.0003307 2991.17139 3001.71362
3025.0 0.0003306 2989.44580 3000.43140
2895.0 0.0003454 2987.72266 2999.09985
2942.0 0.0003399 2986.00146 2997.72827
2935.0 0.0003407 2984.28076 2996.36523
3016.0 0.0003316 2982.56201 2994.97046
2951.0 0.0003389 2980.84424 2993.61035
3109.0 0.0003216 2979.12842 2992.32349
3002.0 0.0003331 2977.41284 2991.15234
3017.0 0.0003315 2975.69897 2990.14844
2968.0 0.0003369 2973.98560 2989.36401
3037.0 0.0003293 2972.27393 2988.85400
2998.0 0.0003336 2970.56299 2988.67822
3052.0 0.0003277 2968.85205 2988.89014
2985.0 0.0003350 2967.14258 2989.54907
2960.0 0.0003378 2965.43286 2990.70264
2894.0 0.0003455 2963.72412 2992.39307
2956.0 0.0003383 2962.01514 2994.64648
2961.0 0.0003377 2960.30737 2997.46997
3028.0 0.0003303 2958.59937 3000.84570
2996.0 0.0003338 2956.89087 3004.73071
3026.0 0.0003305 2955.18335 3009.05005
3012.0 0.0003320 2953.47485 3013.69116
3041.0 0.0003288 2951.76660 3018.51343
3073.0 0.0003254 2950.05786 3023.33813
3058.0 0.0003270 2948.34888 3027.96387
3055.0 0.0003273 2946.63892 3032.16992
2969.0 0.0003368 2944.92920 3035.74341
3047.0 0.0003282 2943.21826 3038.51392
3091.0 0.0003235 2941.50610 3040.39209
2987.0 0.0003348 2939.79395 3041.38477
3117.0 0.0003208 2938.07983 3041.59546
2990.0 0.0003344 2936.36523 3041.18726
3129.0 0.0003196 2934.64868 3040.34473
3054.0 0.0003274 2932.93164 3039.24658
3021.0 0.0003310 2931.21265 3038.04150
3063.0 0.0003265 2929.49243 3036.84351
3059.0 0.0003269 2927.77075 3035.72998
2873.0 0.0003481 2926.04663 3034.70288
3008.0 0.0003324 2924.32129 3033.83569
3072.0 0.0003255 2922.59351 3033.05908
2939.0 0.0003403 2920.86426 3032.32056
3038.0 0.0003292 2919.13232 3031.54126
2938.0 0.0003404 2917.39868 3030.63818
3067.0 0.0003261 2915.66284 3029.52222
3037.0 0.0003293 2913.92383 3028.10645
2911.0 0.0003435 2912.18286 3026.31641
3042.0 0.0003287 2910.43872 3024.09033
2998.0 0.0003336 2908.69263 3021.38623
3094.0 0.0003232 2906.94287 3018.17407
3077.0 0.0003250 2905.19092 3014.44995
2937.0 0.0003405 2903.43555 3010.24023
3047.0 0.0003282 2901.67773 3005.53101
3003.0 0.0003330 2899.91650 3000.37646
2961.0 0.0003377 2898.15161 2994.82397
2900.0 0.0003448 2896.38379 2988.92896
2956.0 0.0003383 2894.61206 2982.74805
2923.0 0.0003421 2892.83740 2976.34644
2903.0 0.0003445 2891.05908 2969.78564
3016.0 0.0003316 2889.27710 2963.12964
3013.0 0.0003319 2887.49097 2956.43848
2981.0 0.0003355 2885.70190 2949.77197
2953.0 0.0003386 2883.90869 2943.18213
3045.0 0.0003284 2882.11108 2936.71729
2963.0 0.0003375 2880.31006 2930.42261
2943.0 0.0003398 2878.50439 2924.33472
2911.0 0.0003435 2876.69507 2918.48462
2976.0 0.0003360 2874.88110 2912.89722
2946.0 0.0003394 2873.06372 2907.58911
3006.0 0.0003327 2871.24194 2902.57153
2931.0 0.0003412 2869.41504 2897.84912
2804.0 0.000357 2867.58472 2893.42212
2879.0 0.0003473 2865.74927 2889.28076
2957.0 0.0003382 2863.90967 2885.41504
2898.0 0.0003451 2862.06519 2881.80664
2871.0 0.0003483 2860.21704 2878.43701
2848.0 0.000351 2858.36353 2875.28564
2936.0 0.0003406 2856.50586 2872.32031
2890.0 0.0003460 2854.64404 2869.51953
2876.0 0.0003477 2852.77661 2866.85669
2895.0 0.0003454 2850.90527 2864.30811
2825.0 0.000354 2849.02881 2861.85156
2884.0 0.0003467 2847.14844 2859.47144
2844.0 0.000352 2845.26245 2857.15210
2855.0 0.0003503 2843.37256 2854.88843
2790.0 0.000358 2841.47754 2852.67505
2770.0 0.000361 2839.57813 2850.52246
2809.0 0.000356 2837.67432 2848.42285
2763.0 0.000362 2835.76538 2846.38525
2888.0 0.0003463 2833.85229 2844.41797
2809.0 0.000356 2831.93384 2842.52539
2918.0 0.0003427 2830.01196 2840.71240
2821.0 0.000354 2828.08447 2838.98096
2917.0 0.0003428 2826.15332 2837.33081
2744.0 0.000364 2824.21753 2835.75854
2804.0 0.000357 2822.27710 2834.27954
2854.0 0.0003504 2820.33252 2832.84521
2814.0 0.000355 2818.38306 2831.46289
2847.0 0.000351 2816.43018 2830.12158
2896.0 0.0003453 2814.47217 2828.80762
2801.0 0.000357 2812.51074 2827.49536
2778.0 0.000360 2810.54468 2826.16846
2784.0 0.000359 2808.57544 2824.80884
2804.0 0.000357 2806.60205 2823.39600
2801.0 0.000357 2804.62402 2821.90894
2778.0 0.000360 2802.64331 2820.33105
2901.0 0.0003447 2800.65771 2818.64575
2754.0 0.000363 2798.66943 2816.83911
2832.0 0.000353 2796.67700 2814.90283
2802.0 0.000357 2794.68188 2812.83179
2823.0 0.000354 2792.68262 2810.62476
2800.0 0.000357 2790.68091 2808.28760
2766.0 0.000362 2788.67651 2805.82715
2787.0 0.000359 2786.66797 2803.25562
2802.0 0.000357 2784.65723 2800.58569
2801.0 0.000357 2782.64331 2797.85913
2713.0 0.000369 2780.62720 2795.04321
2767.0 0.000361 2778.60815 2792.17700
2752.0 0.000363 2776.58716 2789.27783
2851.0 0.000351 2774.56421 2786.36279
2774.0 0.000360 2772.53809 2783.44409
2753.0 0.000363 2770.51074 2780.53613
2856.0 0.0003501 2768.48120 2777.64893
2869.0 0.0003486 2766.45044 2774.85083
2779.0 0.000360 2764.41724 2772.03564
2800.0 0.000357 2762.38354 2769.26685
2901.0 0.0003447 2760.34766 2766.55103
2858.0 0.0003499 2758.31152 2763.94434
2673.0 0.000374 2756.27441 2761.33691
2801.0 0.000357 2754.23560 2758.78540
2794.0 0.000358 2752.19653 2756.28784
2743.0 0.000365 2750.15649 2753.84473
2783.0 0.000359 2748.11694 2751.45313
2696.0 0.000371 2746.07617 2749.10815
2722.0 0.000367 2744.03589 2746.80884
2816.0 0.000355 2741.99512 2744.55151
2784.0 0.000359 2739.95557 2742.33154
2706.0 0.000370 2737.91577 2740.14551
2741.0 0.000365 2735.87598 2737.99072
2684.0 0.000373 2733.83765 2735.86279
2705.0 0.000370 2731.79932 2733.75928
2699.0 0.000371 2729.76245 2731.67798
2651.0 0.000377 2727.72607 2729.69653
2742.0 0.000365 2725.69165 2727.65186
2713.0 0.000369 2723.65820 2725.61890
2703.0 0.000370 2721.62573 2723.59985
2760.0 0.000362 2719.59570 2721.59009
2759.0 0.000362 2717.56641 2719.58765
2759.0 0.000362 2715.53955 2717.59204
2726.0 0.000367 2713.51416 2715.60107
2729.0 0.000366 2711.49146 2713.61597
2669.0 0.000375 2709.46997 2711.63330
2703.0 0.000370 2707.45166 2709.65527
2663.0 0.000376 2705.43555 2707.67578
2669.0 0.000375 2703.42114 2705.70703
2693.0 0.000371 2701.40991 2703.74561
2663.0 0.000376 2699.40063 2701.79370
2689.0 0.000372 2697.39429 2699.85571
2763.0 0.000362 2695.39014 2697.93262
2735.0 0.000366 2693.38965 2696.03174
2684.0 0.000373 2691.39087 2694.15527
2760.0 0.000362 2689.39575 2692.31079
2725.0 0.000367 2687.40356 2690.50269
2643.0 0.000378 2685.41333 2688.73462
2660.0 0.000376 2683.42627 2687.01660
2666.0 0.000375 2681.44165 2685.35303
2667.0 0.000375 2679.46069 2683.75244
2693.0 0.000371 2677.48120 2682.22095
2622.0 0.000381 2675.50537 2680.76733
2678.0 0.000373 2673.53247 2679.39771
2628.0 0.000381 2671.56104 2678.12109
2681.0 0.000373 2669.59277 2676.94434
2778.0 0.000360 2667.62622 2675.87500
2609.0 0.000383 2665.66284 2674.92188
2612.0 0.000383 2663.70068 2674.08765
2748.0 0.000364 2661.74097 2673.38135
2656.0 0.000377 2659.78296 2672.80737
2667.0 0.000375 2657.82690 2672.37012
2707.0 0.000369 2655.87231 2672.08813
2744.0 0.000364 2653.91846 2671.90894
2672.0 0.000374 2651.96606 2671.89282
2656.0 0.000377 2650.01392 2672.01611
2713.0 0.000369 2648.06299 2672.27222
2657.0 0.000376 2646.11182 2672.65674
2598.0 0.000385 2644.16089 2673.15796
2697.0 0.000371 2642.20923 2673.76074
2651.0 0.000377 2640.25781 2674.45093
2658.0 0.000376 2638.30518 2675.19971
2665.0 0.000375 2636.35034 2675.98022
2657.0 0.000376 2634.39478 2676.76099
2692.0 0.000371 2632.43628 2677.49976
2763.0 0.000362 2630.47559 2678.15479
2668.0 0.000375 2628.51147 2678.67603
2720.0 0.000368 2626.54492 2679.01709
2691.0 0.000372 2624.57422 2679.12231
2659.0 0.000376 2622.59839 2678.94165
2745.0 0.000364 2620.61865 2678.43066
2769.0 0.000361 2618.63232 2677.43701
2613.0 0.000383 2616.64087 2676.13599
2678.0 0.000373 2614.64233 2674.39014
2736.0 0.000365 2612.63745 2672.18066
2744.0 0.000364 2610.62402 2669.49976
2707.0 0.000369 2608.60278 2666.36108
2669.0 0.000375 2606.57324 2662.78784
2661.0 0.000376 2604.53296 2658.82495
2659.0 0.000376 2602.48291 2654.52856
2677.0 0.000374 2600.42163 2649.96289
2541.0 0.000394 2598.34961 2645.19775
2595.0 0.000385 2596.26416 2640.29956
2642.0 0.000379 2594.16650 2635.33276
2706.0 0.000370 2592.05493 2630.35327
2611.0 0.000383 2589.92920 2625.40918
2562.0 0.000390 2587.78833 2620.54297
2656.0 0.000377 2585.63086 2615.78296
2609.0 0.000383 2583.45752 2611.15381
2624.0 0.000381 2581.26563 2606.67407
2668.0 0.000375 2579.05688 2602.33789
2680.0 0.000373 2576.82813 2598.15015
2570.0 0.000389 2574.58032 2594.10840
2577.0 0.000388 2572.31226 2590.20654
2608.0 0.000383 2570.02197 2586.43579
2538.0 0.000394 2567.71069 2582.79004
2543.0 0.000393 2565.37573 2579.26099
2460.0 0.000407 2563.01855 2575.84424
2583.0 0.000387 2560.63623 2572.53271
2499.0 0.000400 2558.22974 2569.32520
2580.0 0.000388 2555.79688 2566.21655
2511.0 0.000398 2553.33911 2563.20947
2536.0 0.000394 2550.85449 2560.30127
2519.0 0.000397 2548.34131 2557.49121
2588.0 0.000386 2545.80151 2554.78540
2440.0 0.000410 2543.23193 2552.18164
2521.0 0.000397 2540.63428 2549.68604
2645.0 0.000378 2538.00659 2547.29810
2470.0 0.000405 2535.35010 2545.02075
2530.0 0.000395 2532.66235 2542.85498
2611.0 0.000383 2529.94507 2540.80127
2512.0 0.000398 2527.19727 2538.85938
2544.0 0.000393 2524.41772 2537.02710
2485.0 0.000402 2521.60815 2535.30493
2510.0 0.000398 2518.76685 2533.68701
2465.0 0.000406 2515.89575 2532.17456
2543.0 0.000393 2512.99292 2530.76074
2560.0 0.000391 2510.06104 2529.44531
2497.0 0.000400 2507.09888 2528.22314
2499.0 0.000400 2504.10620 2527.09497
2536.0 0.000394 2501.08594 2526.06372
2601.0 0.000384 2498.03662 2525.13232
2571.0 0.000389 2494.96094 2524.31445
2494.0 0.000401 2491.85791 2523.62158
2590.0 0.000386 2488.73145 2523.08130
2543.0 0.000393 2485.57983 2522.72119
2529.0 0.000395 2482.40698 2522.58643
2595.0 0.000385 2479.21411 2522.72266
2583.0 0.000387 2476.00122 2523.18970
2521.0 0.000397 2472.77271 2524.05762
2539.0 0.000394 2469.52905 2525.39648
2567.0 0.000390 2466.27515 2527.29321
2543.0 0.000393 2463.01099 2529.82544
2552.0 0.000392 2459.74194 2533.07593
2523.0 0.000396 2456.46924 2537.10913
2527.0 0.000396 2453.19873 2541.97266
2558.0 0.000391 2449.93286 2547.67749
2540.0 0.000394 2446.67456 2554.19067
2539.0 0.000394 2443.43140 2561.43164
2567.0 0.000390 2440.20483 2569.24487
2519.0 0.000397 2437.00293 2577.41309
2559.0 0.000391 2433.82886 2585.63794
2588.0 0.000386 2430.69067 2593.55176
2626.0 0.000381 2427.59351 2600.70703
2641.0 0.000379 2424.54321 2606.59790
2712.0 0.000369 2421.54956 2610.68140
2540.0 0.000394 2418.61694 2612.41626
2615.0 0.000382 2415.75635 2611.35718
2596.0 0.000385 2412.97461 2607.22363
2557.0 0.000391 2410.28247 2599.99805
2740.0 . . .
loop_
_refln_index_h
_refln_index_k
_refln_index_l
_refln_observed_status
_refln_F_squared_meas
_refln_F_squared_calc
_refln_phase_calc
_refln_d_spacing
_gsas_i100_meas
0 0 3 o 1350.913 1311.065 180.00 7.56716 1.96
1 0 1 o 9438.156 9551.962 0.00 4.22881 21.32
1 0 -2 o 13767.191 13895.231 0.00 4.02452 35.73
0 0 6 o 23832.908 24954.811 0.00 3.78358 13.76
1 0 4 o 735.217 255.479 0.00 3.42945 1.63
1 0 -5 o 75309.84 75781.38 0.00 3.12364 100.00
1 0 7 o 40120.73 42659.43 0.00 2.59013 36.99
0 0 9 o 16795.805 17985.074 0.00 2.52239 5.97
1 1 0 o 87883.01 86264.68 0.00 2.48500 71.67
1 0 -8 o 6.682 27.308 0.00 2.36913 0.09
1 1 3 o 204.474 207.001 180.00 2.36095 0.02
1 1 -3 o 10923.000 12136.788 0.00 2.36095 10.55
2 0 -1 o 11400.853 7934.813 0.00 2.14247 6.72
2 0 2 o 4036.083 5459.070 0.00 2.11440 3.09
1 1 -6 o 15143.367 15375.217 0.00 2.07707 7.63
1 1 6 o 55062.12 56010.23 0.00 2.07707 29.97
1 0 10 o 3580.816 3592.829 0.00 2.00797 2.21
2 0 -4 o 434.772 548.872 0.00 2.01226 0.37
2 0 5 o 49548.16 46839.13 0.00 1.94468 24.88
0 0 12 o 52186.09 40587.89 0.00 1.89179 8.13
1 0 -11 o 23731.537 25291.682 0.00 1.86091 10.24
2 0 -7 o 20993.820 22447.160 0.00 1.79317 9.08
1 1 9 o 59.390 6.578 0.00 1.77023 0.09
1 1 -9 o 163.719 68.781 0.00 1.77023 0.18
2 0 8 o 474.428 151.327 0.00 1.71473 0.26
1 0 13 o 1826.198 1380.319 0.00 1.61816 0.63
2 1 1 o 4945.229 4067.125 0.00 1.62265 1.61
3 -1 1 o 7310.435 6013.965 0.00 1.62265 2.40
2 1 -2 o 5061.742 4281.328 0.00 1.61036 2.08
3 -1 -2 o 5421.287 4573.277 0.00 1.61036 2.21
3 -1 4 o 81.557 115.772 0.00 1.56383 0.07
2 1 4 o 562.986 688.545 0.00 1.56383 0.26
2 0 -10 o 2956.256 3210.707 0.00 1.56182 1.09
3 -1 -5 o 27197.189 26345.100 0.00 1.53147 8.35
2 1 -5 o 32243.258 31303.293 0.00 1.53147 9.93
0 0 15 o 1766.318 1914.718 180.00 1.51343 0.13
1 0 -14 o 7150.570 7067.713 0.00 1.51742 2.71
1 1 12 o 28499.836 29327.682 0.00 1.50524 8.19
1 1 -12 o 55000.50 56667.27 0.00 1.50524 16.15
2 0 11 o 13291.921 14068.524 0.00 1.48954 3.60
3 -1 7 o 15982.245 16536.297 0.00 1.45412 4.55
2 1 7 o 15259.273 15864.729 0.00 1.45412 4.34
3 0 0 o 67625.38 63394.49 0.00 1.43471 18.25
2 1 -8 o -66.005 18.794 0.00 1.41134 0.00
3 -1 -8 o -164.523 244.139 0.00 1.41134 0.00
3 0 3 o 52.020 3.323 180.00 1.40960 0.02
3 0 -3 o 50.143 3.967 180.00 1.40960 0.02
1 0 16 o 5194.054 4611.629 0.00 1.34752 1.35
2 0 -13 o 1293.356 1226.199 0.00 1.35601 0.31
3 0 -6 o 8076.852 8017.040 0.00 1.34151 1.69
3 0 6 o 8048.333 7988.740 0.00 1.34151 1.68
3 -1 10 o 2539.209 2562.243 0.00 1.32234 0.68
2 1 10 o 1667.935 1721.981 0.00 1.32234 0.46
2 0 14 o 4618.450 5403.734 0.00 1.29506 1.34
1 1 -15 o 1117.800 1380.861 180.00 1.29258 0.17
1 1 15 o 162.995 317.765 0.00 1.29258 0.10
1 0 -17 o 19457.301 20366.098 0.00 1.27541 4.08
3 -1 -11 o 9925.299 10398.512 0.00 1.27760 2.01
2 1 -11 o 9626.661 10233.178 0.00 1.27760 1.95
0 0 18 o 12779.681 12487.340 0.00 1.26119 0.84
3 0 9 o 5262.297 3401.242 0.00 1.24709 1.38
3 0 -9 o 5260.826 3400.253 0.00 1.24709 1.38
2 2 0 o 27836.541 24609.459 0.00 1.24250 5.66
2 2 -3 o -10.988 7.563 0.00 1.22608 0.02
2 2 3 o 1666.359 2249.969 0.00 1.22608 0.53
4 -1 -1 o 2255.628 2558.346 0.00 1.19211 0.39
3 1 -1 o 1526.953 1730.432 0.00 1.19211 0.27
2 1 13 o 1002.188 1099.840 0.00 1.19032 0.19
4 -1 2 o 2430.634 2782.692 0.00 1.18721 0.59
3 1 2 o 2487.149 2844.652 0.00 1.18721 0.60
3 -1 13 o 517.632 569.895 0.00 1.19032 0.10
2 0 -16 o 2352.874 2653.629 0.00 1.18457 0.50
2 2 6 o 5323.005 5460.866 0.00 1.18048 0.88
2 2 -6 o 13206.428 13522.832 0.00 1.18048 2.30
3 1 -4 o 900.910 334.634 0.00 1.16819 0.20
4 -1 -4 o 341.048 100.085 0.00 1.16819 0.09
1 0 19 o 8524.303 8255.626 0.00 1.15128 1.67
4 -1 5 o 12616.332 12025.194 0.00 1.15452 2.30
3 1 5 o 14469.889 13793.678 0.00 1.15452 2.65
3 -1 -14 o 3140.521 3160.990 0.00 1.14846 0.74
2 1 -14 o 4087.865 4125.221 0.00 1.14846 0.95
3 0 -12 o 13181.021 13350.835 0.00 1.14315 2.29
3 0 12 o 13204.970 13375.100 0.00 1.14315 2.30
2 0 17 o 11861.599 14703.659 0.00 1.13469 2.01
1 1 -18 o 4201.040 3052.597 0.00 1.12464 0.69
1 1 18 o 3498.809 2535.963 0.00 1.12464 0.57
3 1 -7 o 10432.938 8634.265 0.00 1.12027 1.89
4 -1 -7 o 10438.479 8629.208 0.00 1.12027 1.89
2 2 9 o 119.453 163.410 0.00 1.11461 0.06
2 2 -9 o 112.335 109.691 0.00 1.11461 0.05
1 0 -20 o 11.727 12.118 180.00 1.09755 0.00
3 1 8 o 46.940 9.285 0.00 1.10035 0.02
4 -1 8 o 283.553 114.712 0.00 1.10035 0.07
0 0 21 o -172.158 107.446 0.00 1.08102 0.00
4 0 1 o 1408.344 1403.075 0.00 1.07483 0.22
4 0 -2 o 3708.553 2205.416 0.00 1.07123 0.71
2 1 16 o 2692.315 2070.344 0.00 1.06929 0.48
3 -1 16 o 2961.186 2235.141 0.00 1.06929 0.53
4 0 4 o 6.000 164.130 0.00 1.05720 0.02
3 1 -10 o 250.007 755.721 0.00 1.05658 0.06
4 -1 -10 o 323.098 1158.485 0.00 1.05658 0.08
2 0 -19 o 6507.896 6313.079 0.00 1.04462 1.12
4 0 -5 o 10106.481 9076.551 0.00 1.04703 1.62
3 0 -15 o 395.627 313.366 180.00 1.04121 0.04
3 0 15 o 400.081 316.626 180.00 1.04121 0.04
2 2 12 o 19930.629 16758.680 0.00 1.03853 3.14
2 2 -12 o 11906.858 10053.870 0.00 1.03853 1.85
3 1 11 o 5368.759 5789.315 0.00 1.03334 0.79
4 -1 11 o 5260.636 5666.079 0.00 1.03334 0.77
2 1 -17 o 9390.430 9665.144 0.00 1.03217 1.43
3 -1 -17 o 10614.706 10854.298 0.00 1.03217 1.62
4 0 7 o 4494.948 6336.957 0.00 1.02129 0.72
1 0 22 o 1458.516 1985.011 0.00 1.00345 0.23
2 0 20 o 30.225 30.030 180.00 1.00398 0.00
4 0 -8 o 268.008 31.004 0.00 1.00613 0.05
1 1 21 o 499.826 203.076 0.00 0.99129 0.11
1 1 -21 o 3221.021 1604.816 0.00 0.99129 0.59
5 -2 1 o 1524.971 1267.952 0.00 0.98651 0.22
3 2 1 o 1868.523 1554.892 0.00 0.98651 0.27
4 -1 -13 o 317.584 306.393 0.00 0.98549 0.05
3 2 -2 o 853.934 1051.537 0.00 0.98372 0.17
5 -2 -2 o 758.398 932.832 0.00 0.98372 0.16
3 1 -13 o 532.697 534.808 0.00 0.98549 0.08
5 -2 4 o 204.125 291.295 0.00 0.97282 0.05
3 2 4 o 67.776 130.828 0.00 0.97282 0.02
4 0 10 o 874.652 624.888 0.00 0.97234 0.15
1 0 -23 o 4855.391 5330.400 0.00 0.96205 0.67
5 -2 -5 o 8222.719 7496.963 0.00 0.96488 1.23
3 2 -5 o 7194.487 6583.127 0.00 0.96488 1.07
2 1 19 o 4166.814 4148.261 0.00 0.96299 0.67
3 -1 19 o 4730.167 4693.882 0.00 0.96299 0.76
3 1 14 o 1719.320 2063.458 0.00 0.96134 0.35
2 2 15 o 219.142 269.259 180.00 0.96032 0.02
4 -1 14 o 1427.850 1656.462 0.00 0.96134 0.29
2 2 -15 o 26.531 93.496 0.00 0.96032 0.02
4 0 -11 o 3497.097 4323.893 0.00 0.95413 0.47
0 0 24 o 5013.978 4215.591 0.00 0.94590 0.24
3 0 18 o 4768.275 3940.658 0.00 0.94724 0.66
3 0 -18 o 4766.950 3939.572 0.00 0.94724 0.66
3 2 7 o 4320.555 3662.357 0.00 0.94462 0.66
5 -2 7 o 4057.972 3428.993 0.00 0.94462 0.62
5 -1 0 o 8731.400 8957.363 0.00 0.93924 1.24
4 1 0 o 8767.830 8994.755 0.00 0.93924 1.25
2 0 -22 o 984.630 1542.839 0.00 0.93046 0.15
5 -2 -8 o 40.056 69.694 0.00 0.93259 0.02
3 2 -8 o 90.669 140.089 0.00 0.93259 0.03
5 -1 3 o 503.084 793.975 0.00 0.93209 0.13
4 1 3 o 6.127 39.841 0.00 0.93209 0.02
5 -1 -3 o 7.448 42.343 0.00 0.93209 0.02
4 1 -3 o 502.922 793.745 0.00 0.93209 0.13
2 1 -20 o 2.802 3.850 180.00 0.93088 0.00
3 -1 -20 o 2.367 3.512 180.00 0.93088 0.00
4 0 13 o 174.782 308.259 0.00 0.91608 0.03
4 -1 -16 o 1494.951 1354.234 0.00 0.91345 0.24
5 -1 6 o 2288.386 2185.429 0.00 0.91157 0.29
5 -1 -6 o 4834.604 4588.250 0.00 0.91157 0.64
4 1 -6 o 2271.037 2168.872 0.00 0.91157 0.29
4 1 6 o 4835.726 4589.291 0.00 0.91157 0.64
3 1 -16 o 1505.460 1334.563 0.00 0.91345 0.24
3 2 10 o 827.799 755.201 0.00 0.90549 0.14
5 -2 10 o 613.297 608.409 0.00 0.90549 0.11
2 0 23 o 4360.498 4068.062 0.00 0.89716 0.60
4 0 -14 o 1621.424 1383.805 0.00 0.89659 0.30
5 -2 -11 o 2607.136 2414.614 0.00 0.89073 0.36
3 2 -11 o 2743.086 2533.383 0.00 0.89073 0.38
3 1 17 o 4768.377 4846.917 0.00 0.88999 0.67
4 -1 17 o 5337.206 5487.966 0.00 0.88999 0.75
