#------------------------------------------------------------------------------
#$Date: 2021-02-25 12:23:49 +0200 (Thu, 25 Feb 2021) $
#$Revision: 262230 $
#$URL: file:///home/coder/svn-repositories/cod/cif/1/56/06/1560653.cif $
#------------------------------------------------------------------------------
#
# This file is available in the Crystallography Open Database (COD),
# http://www.crystallography.net/
#
# All data on this site have been placed in the public domain by the
# contributors.
#
data_1560653
loop_
_publ_author_name
'L\"u, Minfeng'
'Jo, Hongil'
'Oh, Seung-Jin'
'Ok, Kang Min'
_publ_section_title
;
 Variable dimensionality and framework found in a series of quaternary
 zinc selenites, A 2 Zn 3 (SeO 3 ) 4 &#x00B7; x H 2 O (A = Na, Rb, and Cs;
 0&#x2264; x &#x2264;1) and Cs 2 Zn 2 (SeO 3 ) 3 &#x00B7;2H 2 O
;
_journal_name_full               'Journal of Solid State Chemistry'
_journal_page_first              1
_journal_page_last               9
_journal_paper_doi               10.1016/j.jssc.2016.09.031
_journal_volume                  245
_journal_year                    2017
_chemical_absolute_configuration .
_chemical_formula_sum            'Cs2 O12 Se4 Zn3'
_chemical_formula_weight         969.8
_space_group_IT_number           2
_space_group_name_Hall           '-P 1'
_space_group_name_H-M_alt        'P -1'
_symmetry_cell_setting           triclinic
_symmetry_Int_Tables_number      2
_symmetry_space_group_name_Hall  '-P 1'
_symmetry_space_group_name_H-M   'P -1'
_cell_angle_alpha                87.627(2)
_cell_angle_beta                 86.869(2)
_cell_angle_gamma                73.756(2)
_cell_formula_units_Z            2
_cell_length_a                   7.2090(3)
_cell_length_b                   7.5447(3)
_cell_length_c                   14.6494(5)
_cell_measurement_reflns_used    4699
_cell_measurement_temperature    293
_cell_measurement_theta_max      28.245
_cell_measurement_theta_min      2.8125
_cell_volume                     763.54(5)
_diffrn_ambient_temperature      293
_diffrn_measured_fraction_theta_full 0.99
_diffrn_measured_fraction_theta_max 0.99
_diffrn_measurement_device       CCD
_diffrn_measurement_device_type  'Bruker SMART BREEZE'
_diffrn_radiation_monochromator  graphite
_diffrn_radiation_probe          x-ray
_diffrn_radiation_source         'X-ray tube'
_diffrn_radiation_type           'Mo K\a'
_diffrn_radiation_wavelength     0.71073
_diffrn_reflns_av_R_equivalents  0.0328
_diffrn_reflns_av_unetI/netI     0.0352
_diffrn_reflns_limit_h_max       9
_diffrn_reflns_limit_h_min       -9
_diffrn_reflns_limit_k_max       8
_diffrn_reflns_limit_k_min       -10
_diffrn_reflns_limit_l_max       19
_diffrn_reflns_limit_l_min       -19
_diffrn_reflns_number            10999
_diffrn_reflns_theta_full        28.3
_diffrn_reflns_theta_max         28.3
_diffrn_reflns_theta_min         2.79
_exptl_absorpt_coefficient_mu    18.956
_exptl_absorpt_correction_T_max  0.7457
_exptl_absorpt_correction_T_min  0.5376
_exptl_absorpt_correction_type   multi-scan
_exptl_absorpt_process_details   Bruker
_exptl_crystal_colour            colorless
_exptl_crystal_density_diffrn    4.2181
_exptl_crystal_description       transparent
_exptl_crystal_F_000             864
_exptl_crystal_size_max          0.146
_exptl_crystal_size_mid          0.110
_exptl_crystal_size_min          0.088
_refine_diff_density_max         1.59
_refine_diff_density_min         -2.27
_refine_ls_extinction_method     none
_refine_ls_goodness_of_fit_gt    2.38
_refine_ls_goodness_of_fit_ref   2.19
_refine_ls_number_constraints    0
_refine_ls_number_parameters     130
_refine_ls_number_reflns         3743
_refine_ls_number_restraints     0
_refine_ls_R_factor_all          0.0559
_refine_ls_R_factor_gt           0.0447
_refine_ls_shift/su_max          0.0318
_refine_ls_shift/su_mean         0.0065
_refine_ls_structure_factor_coef F
_refine_ls_weighting_details     w=1/(\s^2^(F)+0.0001F^2^)
_refine_ls_weighting_scheme      sigma
_refine_ls_wR_factor_gt          0.0559
_refine_ls_wR_factor_ref         0.0576
_reflns_number_gt                3012
_reflns_number_total             3743
_reflns_threshold_expression     I>3\s(I)
_cod_data_source_file            JSSC-2017-245-1.cif
_cod_data_source_block           Cs2Zn3Se3O12
_cod_depositor_comments
;
The following automatic conversions were performed:

data item '_diffrn_radiation_probe' value 'X-ray' was changed to
'x-ray' in accordance with the built-in table derived from the CIF
Core dictionary named 'cif_core.dic' version 2.4.5 last updated on
2014-11-21.

Automatic conversion script
Id: cif_fix_values 8369 2020-08-20 11:38:08Z andrius 
;
_cod_database_code               1560653
loop_
_space_group_symop_id
_space_group_symop_operation_xyz
1 x,y,z
2 -x,-y,-z
loop_
_atom_site_label
_atom_site_type_symbol
_atom_site_fract_x
_atom_site_fract_y
_atom_site_fract_z
_atom_site_adp_type
_atom_site_U_iso_or_equiv
_atom_site_site_symmetry_multiplicity
_atom_site_occupancy
_atom_site_calc_flag
_atom_site_refinement_flags
_atom_site_disorder_assembly
_atom_site_disorder_group
Cs1 Cs 0.80257(9) 0.28959(8) 0.49069(4) Uani 0.0268(2) 2 1 d . . .
Cs2 Cs 0.21710(9) 0.69140(9) 0.00790(4) Uani 0.0297(2) 2 1 d . . .
Se1 Se 0.00172(14) 0.10738(13) 0.73126(6) Uani 0.0225(3) 2 1 d . . .
Se2 Se 0.66806(14) -0.20778(12) 0.61585(6) Uani 0.0200(3) 2 1 d . . .
Se3 Se 0.71437(14) -0.17906(13) 0.89338(6) Uani 0.0227(3) 2 1 d . . .
Se4 Se 0.41978(15) 0.47143(13) 0.76171(6) Uani 0.0243(3) 2 1 d . . .
Zn1 Zn 0.96525(16) -0.46303(14) 0.75047(7) Uani 0.0226(4) 2 1 d . . .
Zn2 Zn 0.32225(16) 0.14458(15) 0.87915(7) Uani 0.0239(4) 2 1 d . . .
Zn3 Zn 0.35642(17) 0.18301(14) 0.61020(7) Uani 0.0229(4) 2 1 d . . .
O1 O 0.3691(10) 0.4177(9) 0.6577(4) Uiso 0.0305(16) 2 1 d . . .
O2 O 0.7589(10) -0.3862(9) 0.8472(4) Uiso 0.0258(15) 2 1 d . . .
O3 O 0.8889(10) -0.2593(8) 0.6583(4) Uiso 0.0248(14) 2 1 d . . .
O4 O 0.0731(11) 0.1439(9) 0.8345(5) Uiso 0.0345(17) 2 1 d . . .
O5 O 0.2081(12) 0.0255(10) 0.6676(5) Uiso 0.0409(19) 2 1 d . . .
O6 O 0.6225(10) 0.0216(9) 0.5943(4) Uiso 0.0264(15) 2 1 d . . .
O7 O 0.9251(10) -0.6734(9) 0.6902(4) Uiso 0.0313(16) 2 1 d . . .
O8 O 0.4728(10) -0.1120(9) 0.9009(4) Uiso 0.0314(16) 2 1 d . . .
O9 O 0.5031(12) 0.2646(10) 0.8188(5) Uiso 0.0423(19) 2 1 d . . .
O10 O 1.1955(11) -0.4527(9) 0.8109(5) Uiso 0.0348(17) 2 1 d . . .
O11 O 0.2763(12) 0.2930(10) 0.4897(5) Uiso 0.044(2) 2 1 d . . .
O12 O 0.2303(14) 0.2490(13) 0.9984(6) Uiso 0.059(2) 2 1 d . . .
loop_
_atom_site_aniso_label
_atom_site_aniso_type_symbol
_atom_site_aniso_U_11
_atom_site_aniso_U_22
_atom_site_aniso_U_33
_atom_site_aniso_U_12
_atom_site_aniso_U_13
_atom_site_aniso_U_23
Cs1 Cs 0.0292(4) 0.0260(3) 0.0253(3) -0.0080(3) -0.0011(3) 0.0011(2)
Cs2 Cs 0.0284(4) 0.0328(3) 0.0276(3) -0.0084(3) 0.0025(3) -0.0018(3)
Se1 Se 0.0236(5) 0.0249(5) 0.0207(5) -0.0089(4) 0.0009(4) -0.0067(4)
Se2 Se 0.0208(5) 0.0175(4) 0.0211(5) -0.0040(4) -0.0039(4) 0.0010(3)
Se3 Se 0.0187(5) 0.0239(5) 0.0242(5) -0.0031(4) -0.0013(4) -0.0053(4)
Se4 Se 0.0266(5) 0.0263(5) 0.0225(5) -0.0103(4) -0.0093(4) 0.0007(4)
Zn1 Zn 0.0236(6) 0.0222(5) 0.0184(5) 0.0007(5) -0.0048(5) -0.0041(4)
Zn2 Zn 0.0196(6) 0.0254(6) 0.0232(6) 0.0005(5) -0.0037(5) -0.0030(4)
Zn3 Zn 0.0235(6) 0.0190(5) 0.0232(6) -0.0004(5) -0.0029(5) -0.0029(4)
loop_
_atom_type_symbol
_atom_type_scat_dispersion_real
_atom_type_scat_dispersion_imag
_atom_type_scat_source
Cs -0.3680 2.1192 'International Tables Vol C tables 4.2.6.8 and 6.1.1.1'
O 0.0106 0.0060 'International Tables Vol C tables 4.2.6.8 and 6.1.1.1'
Se -0.0929 2.2259 'International Tables Vol C tables 4.2.6.8 and 6.1.1.1'
Zn 0.2839 1.4301 'International Tables Vol C tables 4.2.6.8 and 6.1.1.1'
loop_
_geom_angle_atom_site_label_1
_geom_angle_atom_site_label_2
_geom_angle_atom_site_label_3
_geom_angle_site_symmetry_1
_geom_angle_site_symmetry_2
_geom_angle_site_symmetry_3
_geom_angle
O1 Cs1 O3 2_666 . 2_756 73.38(17)
O1 Cs1 O6 2_666 . . 129.34(19)
O1 Cs1 O7 2_666 . 1_565 131.64(18)
O1 Cs1 O11 2_666 . 2_666 55.2(2)
O3 Cs1 O6 2_756 . . 135.16(17)
O3 Cs1 O7 2_756 . 1_565 116.20(19)
O3 Cs1 O11 2_756 . 2_666 95.01(19)
O6 Cs1 O7 . . 1_565 79.29(19)
O6 Cs1 O11 . . 2_666 129.82(19)
O7 Cs1 O11 1_565 . 2_666 76.43(19)
O2 Cs2 O4 2_656 . 2_566 72.93(17)
O2 Cs2 O8 2_656 . 1_564 140.41(18)
O2 Cs2 O10 2_656 . 1_464 111.20(18)
O2 Cs2 O12 2_656 . 2_566 90.1(2)
O4 Cs2 O8 2_566 . 1_564 125.45(19)
O4 Cs2 O10 2_566 . 1_464 136.5(2)
O4 Cs2 O12 2_566 . 2_566 56.4(2)
O8 Cs2 O10 1_564 . 1_464 80.2(2)
O8 Cs2 O12 1_564 . 2_566 129.5(2)
O10 Cs2 O12 1_464 . 2_566 80.1(2)
O4 Se1 O5 . . . 105.2(4)
O4 Se1 O7 . . 1_465 100.3(3)
O5 Se1 O7 . . 1_465 101.5(3)
O3 Se2 O6 . . . 101.7(3)
O3 Se2 O11 . . 2_656 100.5(3)
O6 Se2 O11 . . 2_656 101.9(3)
O2 Se3 O8 . . . 101.8(4)
O2 Se3 O12 . . 2_657 98.5(4)
O8 Se3 O12 . . 2_657 102.2(4)
O1 Se4 O9 . . . 105.2(4)
O1 Se4 O10 . . 1_465 101.0(4)
O9 Se4 O10 . . 1_465 100.7(4)
O2 Zn1 O3 . . . 101.9(2)
O2 Zn1 O7 . . . 108.1(3)
O2 Zn1 O10 . . . 102.8(3)
O3 Zn1 O7 . . . 103.3(3)
O3 Zn1 O10 . . . 111.1(3)
O7 Zn1 O10 . . . 127.1(3)
O4 Zn2 O8 . . . 108.3(3)
O4 Zn2 O9 . . . 125.8(3)
O4 Zn2 O12 . . . 97.9(4)
O8 Zn2 O9 . . . 105.2(3)
O8 Zn2 O12 . . . 107.2(3)
O9 Zn2 O12 . . . 111.4(4)
O1 Zn3 O5 . . . 125.0(3)
O1 Zn3 O6 . . . 108.2(3)
O1 Zn3 O11 . . . 93.2(3)
O5 Zn3 O6 . . . 105.1(3)
O5 Zn3 O11 . . . 116.7(4)
O6 Zn3 O11 . . . 107.4(3)
loop_
_geom_bond_atom_site_label_1
_geom_bond_atom_site_label_2
_geom_bond_site_symmetry_1
_geom_bond_site_symmetry_2
_geom_bond_distance
Cs1 O1 . 2_666 3.082(6)
Cs1 O3 . 2_756 2.998(6)
Cs1 O6 . . 3.013(7)
Cs1 O7 . 1_565 3.144(7)
Cs1 O11 . 2_666 3.062(8)
Cs2 O2 . 2_656 3.041(6)
Cs2 O4 . 2_566 3.083(7)
Cs2 O8 . 1_564 3.013(8)
Cs2 O10 . 1_464 3.153(7)
Cs2 O12 . 2_566 3.135(10)
Se1 O4 . . 1.681(7)
Se1 O5 . . 1.688(7)
Se1 O7 . 1_465 1.687(7)
Se2 O3 . . 1.677(7)
Se2 O6 . . 1.688(6)
Se2 O11 . 2_656 1.684(8)
Se3 O2 . . 1.669(6)
Se3 O8 . . 1.670(7)
Se3 O12 . 2_657 1.682(9)
Se4 O1 . . 1.678(7)
Se4 O9 . . 1.708(7)
Se4 O10 . 1_465 1.688(7)
Zn1 O2 . . 1.978(6)
Zn1 O3 . . 1.981(6)
Zn1 O7 . . 1.945(8)
Zn1 O10 . . 1.945(8)
Zn2 O4 . . 1.946(8)
Zn2 O8 . . 1.959(6)
Zn2 O9 . . 1.942(9)
Zn2 O12 . . 1.952(9)
Zn3 O1 . . 1.956(7)
Zn3 O5 . . 1.947(9)
Zn3 O6 . . 1.971(6)
Zn3 O11 . . 1.965(7)
loop_
_refln_index_h
_refln_index_k
_refln_index_l
_refln_F_squared_calc
_refln_F_squared_meas
_refln_F_squared_sigma
_refln_observed_status
1 0 0 70.25 186.08 29.38 o
2 0 0 25755.40 23015.40 430.93 o
3 0 0 13182.50 11781.90 225.26 o
4 0 0 6216.63 6346.36 156.70 o
5 0 0 9600.05 9666.45 225.26 o
6 0 0 3839.13 4162.35 146.91 o
7 0 0 1199.14 1253.60 107.73 o
8 0 0 1166.84 1292.78 117.53 o
9 0 0 1906.99 2154.63 146.91 o
-8 1 0 1864.35 1762.88 137.11 o
-7 1 0 754.44 607.21 78.35 o
-6 1 0 282.65 284.02 48.97 o
-5 1 0 16744.60 16257.70 332.99 o
-4 1 0 38572.50 33524.10 558.24 o
-3 1 0 27148.40 25816.40 381.96 o
-2 1 0 53775.80 47685.90 714.95 o
-1 1 0 1414.82 1880.40 48.97 o
0 1 0 857.14 1087.11 39.18 o
1 1 0 6407.99 7041.72 127.32 o
2 1 0 45638.30 37461.20 577.83 o
3 1 0 1028.72 940.20 48.97 o
4 1 0 53651.10 44855.50 705.15 o
5 1 0 111.46 97.94 29.38 o
6 1 0 25930.80 24073.10 450.51 o
7 1 0 4.51 19.59 29.38 <
8 1 0 34.83 88.14 39.18 <
9 1 0 183.46 137.11 48.97 <
-8 2 0 252.47 254.64 58.76 o
-7 2 0 7988.65 7903.57 264.43 o
-6 2 0 635.89 460.31 68.56 o
-5 2 0 220.15 548.45 68.56 o
-4 2 0 625.62 724.74 68.56 o
-3 2 0 3403.95 3457.20 97.94 o
-2 2 0 38526.30 39645.20 538.66 o
-1 2 0 49691.10 47225.50 577.83 o
0 2 0 33131.60 30350.90 401.54 o
1 2 0 42022.40 37960.60 470.10 o
2 2 0 71085.30 55383.80 685.56 o
3 2 0 18748.60 18862.80 284.02 o
4 2 0 3755.83 3486.58 97.94 o
5 2 0 5401.09 5386.57 137.11 o
6 2 0 5496.24 5993.79 176.29 o
7 2 0 1405.19 1664.94 117.53 o
8 2 0 4126.36 3995.86 176.29 o
9 2 0 0.93 -39.18 29.38 <
-8 3 0 90.87 117.53 48.97 <
-7 3 0 1350.45 1263.40 117.53 o
-6 3 0 75.68 48.97 39.18 <
-5 3 0 11563.60 12163.90 274.23 o
-4 3 0 404.20 538.66 48.97 o
-3 3 0 42952.70 42769.40 665.98 o
-2 3 0 464.76 636.59 68.56 o
-1 3 0 18067.00 17883.40 225.26 o
0 3 0 14400.80 13437.00 186.08 o
1 3 0 534.62 499.48 29.38 o
2 3 0 25715.20 25787.00 313.40 o
3 3 0 49783.10 45286.40 577.83 o
4 3 0 17742.50 17031.40 274.23 o
5 3 0 1072.62 1106.70 58.76 o
6 3 0 12958.40 12653.50 274.23 o
7 3 0 8234.20 8236.56 225.26 o
8 3 0 2.55 48.97 39.18 <
9 3 0 637.25 695.36 88.14 o
-7 4 0 2527.51 2517.00 156.70 o
-6 4 0 4390.46 4309.26 186.08 o
-5 4 0 957.47 39.18 68.56 <
-4 4 0 923.70 871.65 68.56 o
-3 4 0 1020.93 969.58 68.56 o
-2 4 0 1053.69 1116.49 48.97 o
-1 4 0 64761.10 55569.80 685.56 o
0 4 0 2020.30 2095.87 48.97 o
1 4 0 53897.80 48273.50 548.45 o
2 4 0 8220.07 8275.73 137.11 o
3 4 0 12469.00 12800.50 215.46 o
4 4 0 617.48 793.29 39.18 o
5 4 0 2678.11 2869.57 88.14 o
6 4 0 1272.35 1312.36 78.35 o
7 4 0 265.27 303.61 48.97 o
8 4 0 3565.96 3388.64 156.70 o
9 4 0 904.07 744.33 88.14 o
-6 5 0 728.26 734.53 88.14 o
-5 5 0 2459.38 2360.30 146.91 o
-4 5 0 8233.94 8549.96 254.64 o
-3 5 0 15913.30 15141.20 362.37 o
-2 5 0 11.87 215.46 48.97 o
-1 5 0 15018.10 14318.50 264.43 o
0 5 0 7106.83 7208.21 146.91 o
1 5 0 4344.06 4730.39 107.73 o
2 5 0 3202.20 3594.31 127.32 o
3 5 0 2439.52 2389.68 97.94 o
4 5 0 3859.17 3760.81 127.32 o
5 5 0 33560.30 34180.20 568.04 o
6 5 0 63.25 117.53 29.38 o
7 5 0 457.76 528.86 68.56 o
8 5 0 4.06 -19.59 39.18 <
9 5 0 1230.42 1282.98 146.91 o
-5 6 0 1204.81 1224.22 117.53 o
-4 6 0 1478.17 1782.47 127.32 o
-3 6 0 2002.37 1880.40 117.53 o
-2 6 0 1471.86 1488.65 88.14 o
-1 6 0 2713.72 2565.97 88.14 o
0 6 0 6360.14 6493.27 156.70 o
1 6 0 20395.90 20165.40 342.78 o
2 6 0 8133.05 8804.60 215.46 o
3 6 0 17465.70 17765.90 460.31 o
4 6 0 951.01 901.03 88.14 o
5 6 0 410.32 411.34 48.97 o
6 6 0 4060.74 3839.16 186.08 o
7 6 0 1171.22 1371.13 137.11 o
8 6 0 1312.81 1302.57 137.11 o
-4 7 0 3148.84 3045.86 156.70 o
-3 7 0 4.77 -29.38 29.38 <
-2 7 0 8146.18 8569.55 264.43 o
-1 7 0 2032.32 1909.78 88.14 o
0 7 0 2500.34 2663.90 97.94 o
1 7 0 96.73 29.38 19.59 <
2 7 0 549.91 509.28 48.97 o
3 7 0 9877.80 10068.00 254.64 o
4 7 0 248.08 284.02 58.76 o
5 7 0 1628.30 1704.12 117.53 o
6 7 0 1076.54 1165.46 117.53 o
7 7 0 1865.21 2242.77 146.91 o
8 7 0 2708.21 2399.47 176.29 o
-3 8 0 206.77 137.11 48.97 <
-2 8 0 1794.79 1743.29 156.70 o
-1 8 0 265.35 235.05 48.97 o
0 8 0 3381.10 3466.99 137.11 o
1 8 0 1817.63 1831.43 107.73 o
2 8 0 5221.82 5494.30 176.29 o
3 8 0 289.91 470.10 78.35 o
4 8 0 1685.18 1860.82 127.32 o
5 8 0 6.00 0.00 39.18 <
6 8 0 1545.91 1410.30 205.67 o
7 8 0 2986.05 2879.37 244.84 o
-1 9 0 1166.83 1028.35 97.94 o
0 9 0 23.09 -39.18 29.38 <
1 9 0 35.39 78.35 39.18 <
2 9 0 92.13 78.35 39.18 <
3 9 0 923.88 1136.08 127.32 o
4 9 0 3258.51 3427.82 186.08 o
5 9 0 796.88 881.44 107.73 o
6 9 0 233.28 362.37 107.73 o
2 10 0 1891.63 1997.93 127.32 o
3 10 0 162.68 264.43 78.35 o
-6 -9 1 58.68 117.53 68.56 <
-5 -9 1 1402.72 1557.21 146.91 o
-4 -9 1 91.76 58.76 48.97 <
-3 -9 1 542.22 450.51 78.35 o
-2 -9 1 712.36 901.03 78.35 o
-1 -9 1 555.39 587.63 68.56 o
0 -9 1 67.93 97.94 39.18 <
1 -9 1 2326.12 2252.57 137.11 o
-7 -8 1 208.94 166.49 78.35 <
-6 -8 1 30.63 0.00 48.97 <
-5 -8 1 581.79 646.39 88.14 o
-4 -8 1 1570.06 1841.23 127.32 o
-3 -8 1 794.13 773.71 97.94 o
-2 -8 1 1552.12 1449.48 97.94 o
-1 -8 1 5788.29 5699.97 176.29 o
0 -8 1 3.71 19.59 29.38 <
1 -8 1 1181.27 1077.31 88.14 o
2 -8 1 179.49 137.11 58.76 <
3 -8 1 436.22 430.93 88.14 o
-7 -7 1 21.33 -9.79 39.18 <
-6 -7 1 8224.95 8070.06 293.81 o
-5 -7 1 623.80 773.71 97.94 o
-4 -7 1 13.27 48.97 39.18 <
-3 -7 1 8789.10 9441.19 313.40 o
-2 -7 1 1057.16 1028.35 97.94 o
-1 -7 1 1133.97 1116.49 78.35 o
0 -7 1 918.11 822.68 68.56 o
1 -7 1 1553.08 1449.48 78.35 o
2 -7 1 4.16 -39.18 19.59 <
3 -7 1 4148.62 4211.32 186.08 o
4 -7 1 3884.61 3555.14 176.29 o
-7 -6 1 6976.28 7159.24 274.23 o
-6 -6 1 115.80 58.76 39.18 <
-5 -6 1 1595.33 1331.95 88.14 o
-4 -6 1 3080.79 3290.71 146.91 o
-3 -6 1 707.01 626.80 78.35 o
-2 -6 1 2004.11 2203.60 97.94 o
-1 -6 1 24.93 68.56 19.59 o
0 -6 1 7946.12 7580.38 166.49 o
1 -6 1 2196.77 2291.74 88.14 o
2 -6 1 2025.40 1890.20 88.14 o
3 -6 1 815.69 724.74 78.35 o
4 -6 1 50.59 9.79 39.18 <
5 -6 1 73.11 97.94 39.18 <
-9 -5 1 1615.16 1420.10 205.67 o
-8 -5 1 49.22 58.76 48.97 <
-7 -5 1 982.97 1018.55 107.73 o
-6 -5 1 1183.64 1028.35 68.56 o
-5 -5 1 45.09 58.76 29.38 <
-4 -5 1 8253.53 8099.45 205.67 o
-3 -5 1 5.53 29.38 19.59 <
-2 -5 1 2644.87 2487.62 97.94 o
-1 -5 1 22614.70 22124.10 323.19 o
0 -5 1 91.33 29.38 9.79 o
1 -5 1 3871.84 3760.81 107.73 o
2 -5 1 4283.66 3878.33 117.53 o
3 -5 1 471.23 430.93 58.76 o
4 -5 1 268.74 499.48 97.94 o
5 -5 1 12.22 19.59 39.18 <
6 -5 1 4842.36 4975.23 274.23 o
-9 -4 1 54.52 9.79 48.97 <
-8 -4 1 537.42 381.96 58.76 o
-7 -4 1 6.63 0.00 29.38 <
-6 -4 1 6025.22 6140.69 166.49 o
-5 -4 1 5479.77 5004.62 127.32 o
-4 -4 1 186.00 88.14 19.59 o
-3 -4 1 10088.80 10068.00 137.11 o
-2 -4 1 5873.58 6493.27 117.53 o
-1 -4 1 2148.48 2458.24 58.76 o
0 -4 1 15929.60 16277.20 225.26 o
1 -4 1 7365.03 7384.50 137.11 o
2 -4 1 588.23 607.21 39.18 o
3 -4 1 8.67 19.59 19.59 <
4 -4 1 11485.70 12173.70 264.43 o
5 -4 1 317.33 303.61 48.97 o
6 -4 1 266.49 235.05 58.76 o
7 -4 1 81.59 88.14 48.97 <
-9 -3 1 222.98 313.40 68.56 o
-8 -3 1 698.58 695.36 78.35 o
-7 -3 1 8533.35 8373.67 244.84 o
-6 -3 1 28.80 127.32 29.38 o
-5 -3 1 238.87 156.70 29.38 o
-4 -3 1 10533.90 10420.60 186.08 o
-3 -3 1 32.65 48.97 9.79 o
-2 -3 1 40.60 29.38 9.79 o
-1 -3 1 72.62 48.97 9.79 o
0 -3 1 8967.61 9421.60 137.11 o
1 -3 1 197.02 215.46 19.59 o
2 -3 1 67.88 137.11 19.59 o
3 -3 1 5692.33 6865.43 156.70 o
4 -3 1 5760.13 6483.47 166.49 o
5 -3 1 685.07 685.56 137.11 o
6 -3 1 652.94 489.69 68.56 o
7 -3 1 1990.82 2046.90 146.91 o
8 -3 1 581.05 538.66 78.35 o
-9 -2 1 447.89 646.39 97.94 o
-8 -2 1 2528.20 2536.59 127.32 o
-7 -2 1 83.61 58.76 29.38 <
-6 -2 1 3254.65 3457.20 127.32 o
-5 -2 1 4917.62 4622.66 117.53 o
-4 -2 1 6549.52 6032.96 127.32 o
-3 -2 1 149.68 225.26 19.59 o
-2 -2 1 66.55 48.97 9.79 o
-1 -2 1 45636.50 39566.80 714.95 o
0 -2 1 2003.83 2017.52 39.18 o
1 -2 1 115.70 215.46 29.38 o
2 -2 1 6965.24 7139.66 107.73 o
3 -2 1 12231.00 12624.20 215.46 o
4 -2 1 7704.62 7658.73 166.49 o
5 -2 1 58.13 88.14 29.38 <
6 -2 1 3735.93 3819.57 166.49 o
7 -2 1 1206.01 1077.31 107.73 o
8 -2 1 419.64 440.72 78.35 o
-9 -1 1 346.75 176.29 68.56 <
-8 -1 1 3766.16 4142.76 176.29 o
-7 -1 1 615.44 558.24 78.35 o
-6 -1 1 115.27 78.35 29.38 <
-5 -1 1 10812.90 10156.10 225.26 o
-4 -1 1 2315.85 2654.11 88.14 o
-3 -1 1 425.53 440.72 39.18 o
-2 -1 1 43551.00 35952.90 793.29 o
-1 -1 1 19.19 58.76 9.79 o
0 -1 1 2278.09 2820.60 68.56 o
1 -1 1 120.72 195.88 19.59 o
2 -1 1 3251.90 3839.16 137.11 o
3 -1 1 3753.00 4074.21 97.94 o
4 -1 1 5415.12 5396.37 146.91 o
5 -1 1 2287.30 2389.68 97.94 o
6 -1 1 78.47 127.32 39.18 o
7 -1 1 5288.86 4877.30 195.88 o
8 -1 1 3.35 9.79 39.18 <
-9 0 1 196.46 205.67 58.76 o
-8 0 1 298.44 274.23 58.76 o
-7 0 1 1714.57 1664.94 127.32 o
-6 0 1 3669.92 3623.69 146.91 o
-5 0 1 102.57 225.26 39.18 o
-4 0 1 32858.40 29792.60 558.24 o
-3 0 1 4681.85 4847.92 117.53 o
-2 0 1 1887.92 2095.87 97.94 o
1 0 1 121.83 440.72 29.38 o
2 0 1 14877.90 14387.00 284.02 o
3 0 1 577.23 499.48 39.18 o
4 0 1 140.61 186.08 29.38 o
5 0 1 5619.22 5308.22 156.70 o
6 0 1 2393.61 2379.89 107.73 o
7 0 1 175.33 127.32 48.97 <
8 0 1 135.82 166.49 48.97 o
9 0 1 327.07 499.48 78.35 o
-8 1 1 1852.11 1811.85 137.11 o
-7 1 1 0.29 0.00 29.38 <
-6 1 1 1354.15 1361.33 107.73 o
-5 1 1 93.52 146.91 39.18 o
-4 1 1 6348.88 6013.37 176.29 o
-3 1 1 167.91 127.32 29.38 o
-2 1 1 3229.23 3643.28 88.14 o
-1 1 1 130.24 176.29 19.59 o
0 1 1 849.14 1243.81 48.97 o
1 1 1 26.24 48.97 9.79 o
2 1 1 9875.84 10665.40 215.46 o
3 1 1 2650.95 2791.22 78.35 o
4 1 1 6895.65 7031.93 166.49 o
5 1 1 77.05 127.32 29.38 o
6 1 1 7404.95 7315.94 195.88 o
7 1 1 658.94 636.59 78.35 o
8 1 1 2535.90 2595.35 137.11 o
9 1 1 3042.81 3300.50 166.49 o
-8 2 1 72.85 137.11 48.97 <
-7 2 1 157.60 137.11 39.18 o
-6 2 1 9106.82 9225.73 274.23 o
-5 2 1 6342.41 6013.37 195.88 o
-4 2 1 1058.35 1067.52 68.56 o
-3 2 1 389.50 499.48 48.97 o
-2 2 1 7913.20 8324.70 146.91 o
-1 2 1 5578.54 6189.66 97.94 o
0 2 1 11514.20 11546.90 166.49 o
1 2 1 14226.00 14955.10 195.88 o
2 2 1 28.34 29.38 9.79 o
3 2 1 18539.10 17442.70 264.43 o
4 2 1 9096.07 9382.43 176.29 o
5 2 1 587.16 685.56 48.97 o
6 2 1 6826.44 6326.77 176.29 o
7 2 1 657.64 871.65 88.14 o
8 2 1 71.35 146.91 48.97 <
9 2 1 85.74 117.53 48.97 <
-7 3 1 961.05 959.79 107.73 o
-6 3 1 204.99 215.46 48.97 o
-5 3 1 59.07 -39.18 29.38 <
-4 3 1 138.66 186.08 29.38 o
-3 3 1 12190.10 12702.50 244.84 o
-2 3 1 7227.80 8109.24 156.70 o
-1 3 1 409.24 577.83 29.38 o
0 3 1 2646.66 2605.14 58.76 o
1 3 1 3159.44 3320.09 68.56 o
2 3 1 16306.40 16238.10 205.67 o
3 3 1 27.76 19.59 9.79 <
4 3 1 1657.23 1498.45 58.76 o
5 3 1 7637.74 7472.65 156.70 o
6 3 1 527.80 381.96 48.97 o
7 3 1 254.06 460.31 58.76 o
8 3 1 3815.77 3956.68 166.49 o
9 3 1 3295.60 3369.06 166.49 o
-7 4 1 3559.11 3496.38 176.29 o
-6 4 1 873.66 891.23 97.94 o
-5 4 1 5014.62 4798.95 156.70 o
-4 4 1 11487.30 12183.40 264.43 o
-3 4 1 6136.65 6708.73 166.49 o
-2 4 1 906.38 1390.71 97.94 o
-1 4 1 8707.29 9108.20 166.49 o
0 4 1 1294.45 1234.01 48.97 o
1 4 1 7285.08 7639.14 117.53 o
2 4 1 5754.66 6581.41 117.53 o
3 4 1 1676.03 1537.62 48.97 o
4 4 1 88.62 39.18 9.79 o
5 4 1 9503.43 8628.31 166.49 o
6 4 1 1604.52 1439.68 78.35 o
7 4 1 1495.94 1410.30 97.94 o
8 4 1 3308.80 3525.76 156.70 o
9 4 1 788.27 861.85 97.94 o
-6 5 1 947.49 861.85 127.32 o
-5 5 1 74.69 48.97 39.18 <
-4 5 1 418.57 342.78 58.76 o
-3 5 1 7255.78 6698.94 205.67 o
-2 5 1 504.13 646.39 68.56 o
-1 5 1 95.31 88.14 19.59 o
0 5 1 4741.80 4593.28 107.73 o
1 5 1 2558.57 2448.44 68.56 o
2 5 1 5.08 29.38 19.59 <
3 5 1 7322.21 8422.64 166.49 o
4 5 1 7767.41 7364.91 166.49 o
5 5 1 15.34 9.79 19.59 <
6 5 1 4391.13 4289.67 156.70 o
7 5 1 4820.88 4681.42 186.08 o
8 5 1 149.43 88.14 48.97 <
9 5 1 973.25 1087.11 137.11 o
-5 6 1 2536.41 2967.51 156.70 o
-4 6 1 491.49 714.95 88.14 o
-3 6 1 3092.00 2722.67 137.11 o
-2 6 1 105.25 68.56 29.38 <
-1 6 1 0.90 9.79 19.59 <
0 6 1 84.17 97.94 29.38 o
1 6 1 8512.62 8559.75 176.29 o
2 6 1 6508.43 6708.73 146.91 o
3 6 1 1.37 9.79 29.38 <
4 6 1 801.49 930.41 78.35 o
5 6 1 5250.18 5425.75 176.29 o
6 6 1 79.40 9.79 39.18 <
7 6 1 209.84 166.49 58.76 <
8 6 1 1074.01 1038.14 127.32 o
9 6 1 1300.94 1312.36 205.67 o
-4 7 1 3126.16 3016.48 156.70 o
-3 7 1 441.14 342.78 58.76 o
-2 7 1 23.68 19.59 29.38 <
-1 7 1 14647.10 13760.20 284.02 o
0 7 1 41.94 48.97 19.59 <
1 7 1 1472.28 1645.35 78.35 o
2 7 1 1262.16 1449.48 68.56 o
3 7 1 249.80 244.84 39.18 o
4 7 1 3666.94 3515.96 166.49 o
5 7 1 3958.24 4162.35 186.08 o
6 7 1 36.61 29.38 39.18 <
7 7 1 26.40 9.79 39.18 <
8 7 1 3238.29 3153.59 186.08 o
-3 8 1 595.88 665.98 88.14 o
-2 8 1 6.78 29.38 39.18 <
-1 8 1 212.33 205.67 39.18 o
0 8 1 100.57 58.76 29.38 <
1 8 1 2106.03 2135.04 88.14 o
2 8 1 34.91 29.38 19.59 <
3 8 1 2345.58 2409.27 146.91 o
4 8 1 739.42 871.65 107.73 o
5 8 1 62.80 19.59 68.56 <
6 8 1 916.26 1018.55 166.49 o
7 8 1 3762.33 3692.25 205.67 o
-1 9 1 28.38 -9.79 48.97 <
0 9 1 377.20 401.54 58.76 o
1 9 1 2789.26 2663.90 127.32 o
2 9 1 88.34 127.32 39.18 o
3 9 1 2080.42 2056.69 166.49 o
4 9 1 1275.89 1292.78 137.11 o
5 9 1 1935.20 1841.23 244.84 o
6 9 1 1253.07 1067.52 186.08 o
2 10 1 937.37 1096.90 97.94 o
3 10 1 476.56 460.31 58.76 o
-6 -9 2 1369.52 1234.01 186.08 o
-5 -9 2 41.46 48.97 48.97 <
-4 -9 2 29.11 48.97 48.97 <
-3 -9 2 945.36 695.36 97.94 o
-2 -9 2 116.81 88.14 39.18 <
-1 -9 2 4110.10 3868.54 156.70 o
0 -9 2 2877.91 2595.35 127.32 o
1 -9 2 643.00 577.83 68.56 o
-6 -8 2 446.59 244.84 58.76 o
-5 -8 2 3459.49 3672.66 186.08 o
-4 -8 2 5760.24 5709.77 235.05 o
-3 -8 2 105.53 88.14 48.97 <
-2 -8 2 4147.05 4181.94 146.91 o
-1 -8 2 1358.94 1410.30 97.94 o
0 -8 2 1454.18 1322.16 97.94 o
1 -8 2 220.73 254.64 48.97 o
2 -8 2 680.32 685.56 78.35 o
3 -8 2 2123.52 1762.88 156.70 o
-6 -7 2 1436.24 1547.42 117.53 o
-5 -7 2 3244.76 3643.28 176.29 o
-4 -7 2 1307.83 1420.10 127.32 o
-3 -7 2 515.30 519.07 78.35 o
-2 -7 2 4156.75 3995.86 186.08 o
-1 -7 2 1604.12 1939.17 88.14 o
0 -7 2 6389.27 6365.95 186.08 o
1 -7 2 1601.96 1498.45 97.94 o
2 -7 2 3542.41 3564.93 146.91 o
3 -7 2 349.73 156.70 58.76 <
4 -7 2 820.27 763.91 117.53 o
-6 -6 2 4810.97 4593.28 156.70 o
-5 -6 2 264.34 244.84 39.18 o
-4 -6 2 9855.80 10312.80 313.40 o
-3 -6 2 3.37 -19.59 19.59 <
-2 -6 2 5942.96 6209.25 225.26 o
-1 -6 2 3589.02 3780.39 107.73 o
0 -6 2 3242.54 3525.76 107.73 o
1 -6 2 5037.90 4828.33 137.11 o
2 -6 2 50.02 78.35 29.38 <
3 -6 2 209.83 117.53 39.18 o
4 -6 2 403.31 430.93 68.56 o
5 -6 2 821.54 803.09 88.14 o
-7 -5 2 3880.93 4416.99 195.88 o
-6 -5 2 307.58 284.02 39.18 o
-5 -5 2 48.92 29.38 19.59 <
-4 -5 2 448.81 509.28 48.97 o
-3 -5 2 27264.90 26942.70 528.86 o
-2 -5 2 12700.30 13211.80 244.84 o
-1 -5 2 2693.88 2830.40 78.35 o
0 -5 2 1973.13 2242.77 68.56 o
1 -5 2 1728.62 1802.05 68.56 o
2 -5 2 18163.90 17511.30 313.40 o
3 -5 2 2765.38 2771.64 127.32 o
4 -5 2 681.73 979.38 97.94 o
5 -5 2 2094.15 1841.23 137.11 o
6 -5 2 120.26 391.75 88.14 o
-9 -4 2 206.94 342.78 78.35 o
-8 -4 2 3709.73 3672.66 195.88 o
-7 -4 2 90.56 48.97 29.38 <
-6 -4 2 12408.20 13251.00 313.40 o
-5 -4 2 252.09 362.37 39.18 o
-4 -4 2 2699.00 2879.37 78.35 o
-3 -4 2 13829.50 14406.60 195.88 o
-2 -4 2 4318.31 4671.63 97.94 o
-1 -4 2 28957.60 27882.90 352.58 o
0 -4 2 6.80 9.79 9.79 <
1 -4 2 1105.44 1136.08 39.18 o
2 -4 2 3368.56 3966.48 97.94 o
3 -4 2 10550.90 10303.00 215.46 o
4 -4 2 4586.10 5337.60 176.29 o
5 -4 2 812.46 920.61 78.35 o
6 -4 2 211.81 117.53 48.97 <
7 -4 2 818.36 822.68 97.94 o
-9 -3 2 1958.40 1664.94 166.49 o
-8 -3 2 47.82 97.94 48.97 <
-7 -3 2 26.81 -29.38 29.38 <
-6 -3 2 254.49 274.23 48.97 o
-5 -3 2 22119.90 21301.40 381.96 o
-4 -3 2 16498.80 16365.40 293.81 o
-3 -3 2 286.62 342.78 19.59 o
-2 -3 2 6331.32 6610.79 107.73 o
-1 -3 2 640.59 597.42 19.59 o
0 -3 2 60596.00 53023.50 636.59 o
1 -3 2 6737.42 6571.62 97.94 o
2 -3 2 1284.86 1459.27 48.97 o
3 -3 2 11396.70 12212.80 215.46 o
4 -3 2 57.45 891.23 97.94 o
5 -3 2 9756.78 9460.78 225.26 o
6 -3 2 443.66 607.21 78.35 o
7 -3 2 2169.35 2037.10 156.70 o
-9 -2 2 802.34 1008.76 127.32 o
-8 -2 2 2356.48 2683.49 166.49 o
-7 -2 2 2233.17 2193.80 117.53 o
-6 -2 2 4302.60 4299.46 156.70 o
-5 -2 2 21267.50 20527.70 372.16 o
-4 -2 2 2419.95 2477.82 97.94 o
-3 -2 2 5163.25 5259.25 127.32 o
-2 -2 2 11585.40 12095.30 166.49 o
-1 -2 2 33488.20 31986.40 499.48 o
0 -2 2 76452.60 60290.40 714.95 o
1 -2 2 5612.77 5602.04 78.35 o
2 -2 2 7380.01 8765.42 127.32 o
3 -2 2 1409.04 1821.64 58.76 o
4 -2 2 9639.05 9940.67 195.88 o
5 -2 2 1882.62 2135.04 88.14 o
6 -2 2 1103.77 1175.25 88.14 o
7 -2 2 591.66 342.78 68.56 o
8 -2 2 2960.43 3192.77 166.49 o
-9 -1 2 5402.53 5004.62 264.43 o
-8 -1 2 23.77 39.18 39.18 <
-7 -1 2 1926.26 2242.77 117.53 o
-6 -1 2 125.60 146.91 39.18 o
-5 -1 2 2276.52 2507.20 107.73 o
-4 -1 2 25964.80 22486.50 538.66 o
-3 -1 2 1049.08 1351.54 68.56 o
-2 -1 2 41640.90 37030.20 1155.66 o
-1 -1 2 2318.41 2605.14 68.56 o
0 -1 2 1006.80 1312.36 48.97 o
1 -1 2 36587.50 34699.30 528.86 o
2 -1 2 2136.38 3065.45 68.56 o
3 -1 2 10021.10 9901.50 176.29 o
4 -1 2 11094.00 11409.70 205.67 o
5 -1 2 1553.86 1547.42 88.14 o
6 -1 2 19162.70 17795.30 372.16 o
7 -1 2 1210.04 1302.57 117.53 o
8 -1 2 500.63 440.72 68.56 o
-9 0 2 495.92 342.78 78.35 o
-8 0 2 4.09 127.32 48.97 <
-7 0 2 14874.50 15209.70 381.96 o
-6 0 2 239.12 293.81 48.97 o
-5 0 2 2219.28 2663.90 117.53 o
-4 0 2 485.62 724.74 58.76 o
-3 0 2 42966.70 37255.50 803.09 o
-2 0 2 89278.60 67126.50 1919.58 o
0 0 2 1071.19 1214.43 48.97 o
1 0 2 2778.95 2987.10 88.14 o
2 0 2 106876.00 66303.80 1136.08 o
3 0 2 7389.83 6865.43 146.91 o
4 0 2 3182.77 2791.22 97.94 o
5 0 2 461.89 430.93 48.97 o
6 0 2 178.58 166.49 39.18 o
7 0 2 2529.90 2908.75 137.11 o
8 0 2 2757.42 3163.39 156.70 o
9 0 2 23.08 -78.35 29.38 <
-8 1 2 6.58 39.18 39.18 <
-7 1 2 1092.45 1057.73 107.73 o
-6 1 2 5820.79 5464.92 195.88 o
-5 1 2 2013.61 2232.98 107.73 o
-4 1 2 569.75 421.13 48.97 o
-3 1 2 5323.32 4994.82 127.32 o
-1 1 2 44911.40 43503.90 920.61 o
0 1 2 2301.93 2223.19 58.76 o
1 1 2 5856.24 6679.35 117.53 o
2 1 2 19006.20 18970.50 352.58 o
3 1 2 482.90 558.24 39.18 o
4 1 2 30315.20 27089.60 509.28 o
5 1 2 406.79 313.40 39.18 o
6 1 2 6641.15 6062.34 176.29 o
7 1 2 932.02 901.03 88.14 o
8 1 2 9470.97 9127.79 284.02 o
9 1 2 92.25 166.49 48.97 o
-8 2 2 492.06 440.72 68.56 o
-7 2 2 842.86 949.99 97.94 o
-6 2 2 2760.74 2644.32 137.11 o
-5 2 2 14276.50 13564.40 332.99 o
-4 2 2 9868.29 10342.20 264.43 o
-3 2 2 392.35 430.93 39.18 o
-2 2 2 7392.10 8598.93 146.91 o
-1 2 2 4006.87 4779.36 97.94 o
0 2 2 86106.90 65461.50 763.91 o
1 2 2 20632.10 20694.20 293.81 o
2 2 2 2061.41 2232.98 58.76 o
3 2 2 7423.34 7815.43 146.91 o
4 2 2 6074.76 5827.29 127.32 o
5 2 2 24271.70 22966.40 372.16 o
6 2 2 339.64 323.19 48.97 o
7 2 2 963.45 901.03 88.14 o
8 2 2 1818.05 1694.32 137.11 o
9 2 2 259.84 225.26 58.76 o
-7 3 2 577.20 489.69 78.35 o
-6 3 2 27.33 -9.79 29.38 <
-5 3 2 3052.66 3085.04 137.11 o
-3 3 2 9220.09 9705.62 205.67 o
-2 3 2 2195.67 2517.00 78.35 o
-1 3 2 10704.40 10459.70 176.29 o
0 3 2 17861.00 16590.60 225.26 o
1 3 2 1.13 48.97 9.79 o
2 3 2 11741.30 11870.00 176.29 o
3 3 2 3130.14 3525.76 78.35 o
4 3 2 17722.60 17178.30 244.84 o
5 3 2 23946.50 22858.70 401.54 o
6 3 2 4726.40 4975.23 146.91 o
7 3 2 2056.15 2350.50 107.73 o
8 3 2 1711.93 1899.99 127.32 o
9 3 2 2030.56 2301.54 156.70 o
-7 4 2 16.01 0.00 39.18 <
-6 4 2 599.47 773.71 88.14 o
-5 4 2 1847.86 1899.99 107.73 o
-4 4 2 9339.19 9764.39 235.05 o
-3 4 2 6568.40 6375.74 166.49 o
-2 4 2 10059.70 10430.40 195.88 o
-1 4 2 4173.24 4358.23 97.94 o
0 4 2 3209.82 3124.21 78.35 o
1 4 2 29953.70 28274.60 332.99 o
2 4 2 1488.96 1527.83 48.97 o
3 4 2 16721.30 16953.00 274.23 o
4 4 2 531.75 597.42 39.18 o
5 4 2 419.65 499.48 48.97 o
6 4 2 5905.84 6209.25 166.49 o
7 4 2 140.97 127.32 39.18 o
8 4 2 297.29 538.66 78.35 o
9 4 2 462.61 656.18 88.14 o
-6 5 2 296.55 744.33 166.49 o
-5 5 2 814.09 959.79 97.94 o
-4 5 2 9.37 48.97 39.18 <
-3 5 2 3008.81 3545.34 146.91 o
-2 5 2 12102.80 11958.20 293.81 o
-1 5 2 100.33 19.59 19.59 <
0 5 2 25.43 19.59 19.59 <
1 5 2 97.13 19.59 9.79 <
2 5 2 22859.90 23358.10 342.78 o
3 5 2 30564.80 29489.00 479.89 o
4 5 2 580.66 754.12 58.76 o
5 5 2 1562.43 1655.15 88.14 o
6 5 2 773.99 852.06 97.94 o
7 5 2 14514.60 14808.20 381.96 o
8 5 2 2276.16 2311.33 156.70 o
9 5 2 808.66 617.01 107.73 o
-5 6 2 1109.74 1087.11 117.53 o
-4 6 2 75.31 58.76 39.18 <
-3 6 2 67.41 88.14 39.18 <
-2 6 2 315.44 421.13 58.76 o
-1 6 2 17412.40 16140.10 303.61 o
0 6 2 4.89 9.79 19.59 <
1 6 2 8222.52 8226.76 176.29 o
2 6 2 90.54 166.49 29.38 o
3 6 2 1322.80 1390.71 97.94 o
4 6 2 7188.77 7521.61 205.67 o
5 6 2 696.76 695.36 88.14 o
6 6 2 174.90 254.64 68.56 o
7 6 2 692.81 607.21 97.94 o
8 6 2 321.82 284.02 97.94 <
-4 7 2 1199.42 1400.51 127.32 o
-3 7 2 2686.91 2526.79 137.11 o
-2 7 2 589.11 665.98 78.35 o
-1 7 2 72.77 29.38 29.38 <
0 7 2 652.71 724.74 58.76 o
1 7 2 2909.08 2928.34 97.94 o
2 7 2 66.98 58.76 19.59 o
3 7 2 2621.67 2849.99 117.53 o
4 7 2 47.41 48.97 39.18 <
5 7 2 12930.40 12947.40 411.34 o
6 7 2 919.79 881.44 107.73 o
7 7 2 565.16 509.28 88.14 o
8 7 2 219.51 205.67 68.56 <
-3 8 2 727.38 587.63 78.35 o
-2 8 2 935.92 891.23 88.14 o
-1 8 2 1611.54 1606.18 117.53 o
0 8 2 4126.09 4319.05 137.11 o
1 8 2 3463.91 3173.18 117.53 o
2 8 2 2867.02 2996.89 107.73 o
3 8 2 3205.94 2996.89 127.32 o
4 8 2 666.14 822.68 78.35 o
5 8 2 3433.79 3555.14 284.02 o
6 8 2 63.99 29.38 58.76 <
7 8 2 329.69 430.93 97.94 o
-1 9 2 1702.81 1400.51 156.70 o
0 9 2 357.27 450.51 68.56 o
1 9 2 517.38 284.02 48.97 o
2 9 2 3282.93 3535.55 146.91 o
3 9 2 2178.22 2262.36 156.70 o
4 9 2 290.64 215.46 58.76 o
5 9 2 1793.27 1694.32 225.26 o
6 9 2 2178.63 2027.31 254.64 o
2 10 2 2794.12 2693.29 166.49 o
3 10 2 243.55 137.11 39.18 o
-6 -9 3 1.13 39.18 58.76 <
-5 -9 3 127.96 29.38 58.76 <
-4 -9 3 55.05 97.94 48.97 <
-3 -9 3 67.88 88.14 48.97 <
-2 -9 3 1910.39 1821.64 107.73 o
-1 -9 3 38.73 29.38 39.18 <
0 -9 3 347.66 352.58 48.97 o
1 -9 3 728.79 705.15 78.35 o
-6 -8 3 68.59 19.59 58.76 <
-5 -8 3 520.00 665.98 88.14 o
-4 -8 3 2497.93 2536.59 146.91 o
-3 -8 3 102.03 88.14 39.18 <
-2 -8 3 183.18 205.67 39.18 o
-1 -8 3 698.89 607.21 68.56 o
0 -8 3 2967.30 2801.02 127.32 o
1 -8 3 3454.21 3555.14 146.91 o
2 -8 3 713.52 548.45 68.56 o
3 -8 3 2025.28 1684.53 166.49 o
-6 -7 3 4858.64 4740.18 284.02 o
-5 -7 3 88.52 19.59 29.38 <
-4 -7 3 1576.91 1420.10 117.53 o
-3 -7 3 2487.90 2448.44 137.11 o
-2 -7 3 570.96 421.13 68.56 o
-1 -7 3 3585.48 3525.76 127.32 o
0 -7 3 4372.51 4074.21 137.11 o
1 -7 3 861.47 734.53 68.56 o
2 -7 3 2064.60 1899.99 117.53 o
3 -7 3 355.55 362.37 78.35 o
4 -7 3 324.91 254.64 78.35 o
-6 -6 3 7.99 -19.59 39.18 <
-5 -6 3 13.86 29.38 29.38 <
-4 -6 3 1929.07 1547.42 107.73 o
-3 -6 3 489.91 401.54 68.56 o
-2 -6 3 273.87 274.23 58.76 o
-1 -6 3 36.66 58.76 19.59 o
0 -6 3 260.29 313.40 48.97 o
1 -6 3 646.39 793.29 68.56 o
2 -6 3 7654.18 7178.83 205.67 o
3 -6 3 666.55 714.95 68.56 o
4 -6 3 3013.83 2507.20 166.49 o
5 -6 3 1751.53 1909.78 166.49 o
-8 -5 3 537.64 538.66 127.32 o
-7 -5 3 175.87 166.49 68.56 <
-6 -5 3 48.62 68.56 29.38 <
-5 -5 3 0.04 -39.18 19.59 <
-4 -5 3 3481.01 3555.14 127.32 o
-3 -5 3 24.86 19.59 19.59 <
-2 -5 3 2614.77 2507.20 88.14 o
-1 -5 3 21412.80 19675.70 293.81 o
0 -5 3 1801.12 1919.58 68.56 o
1 -5 3 3977.15 4289.67 117.53 o
2 -5 3 483.58 470.10 48.97 o
3 -5 3 12.08 29.38 29.38 <
4 -5 3 12640.50 12242.20 323.19 o
5 -5 3 0.68 48.97 39.18 <
6 -5 3 2148.01 2458.24 205.67 o
-9 -4 3 299.47 372.16 117.53 o
-8 -4 3 731.64 832.47 107.73 o
-7 -4 3 2007.64 1978.34 127.32 o
-6 -4 3 1785.09 2281.95 127.32 o
-5 -4 3 1850.45 1811.85 88.14 o
-4 -4 3 3.99 9.79 9.79 <
-3 -4 3 6023.63 6943.78 117.53 o
-2 -4 3 4823.37 4896.88 88.14 o
-1 -4 3 13799.10 13535.00 215.46 o
0 -4 3 89.25 48.97 9.79 o
1 -4 3 132.38 176.29 19.59 o
2 -4 3 14751.30 14416.40 225.26 o
3 -4 3 752.40 636.59 48.97 o
4 -4 3 328.27 460.31 48.97 o
5 -4 3 463.09 558.24 68.56 o
6 -4 3 404.74 401.54 68.56 o
7 -4 3 237.44 264.43 58.76 o
-9 -3 3 1078.21 1136.08 137.11 o
-8 -3 3 131.18 107.73 48.97 <
-7 -3 3 4035.74 4348.43 205.67 o
-6 -3 3 1.56 0.00 19.59 <
-5 -3 3 203.62 284.02 39.18 o
-4 -3 3 6573.32 7423.68 156.70 o
-3 -3 3 3.81 29.38 9.79 o
-2 -3 3 2627.89 2438.65 58.76 o
-1 -3 3 1984.95 1968.55 58.76 o
0 -3 3 759.04 754.12 29.38 o
1 -3 3 688.27 705.15 29.38 o
2 -3 3 135.18 195.88 19.59 o
3 -3 3 2081.40 2125.25 58.76 o
4 -3 3 109.49 205.67 29.38 o
5 -3 3 4419.31 4867.50 156.70 o
6 -3 3 8045.83 8011.30 264.43 o
7 -3 3 105.12 58.76 39.18 <
-9 -2 3 2573.97 2801.02 186.08 o
-8 -2 3 326.81 293.81 68.56 o
-7 -2 3 2012.04 1664.94 146.91 o
-6 -2 3 724.59 558.24 78.35 o
-5 -2 3 581.58 450.51 48.97 o
-4 -2 3 2369.91 2634.52 78.35 o
-3 -2 3 4473.70 4093.79 97.94 o
-2 -2 3 9.69 19.59 9.79 <
-1 -2 3 7296.49 7218.01 186.08 o
0 -2 3 1209.98 1390.71 29.38 o
1 -2 3 11636.80 11360.80 146.91 o
2 -2 3 6687.79 7932.95 117.53 o
3 -2 3 2748.01 3143.80 88.14 o
4 -2 3 25219.80 24846.80 391.75 o
5 -2 3 1946.54 1674.73 88.14 o
6 -2 3 1755.42 1664.94 107.73 o
7 -2 3 2998.64 2879.37 146.91 o
8 -2 3 39.44 29.38 39.18 <
-9 -1 3 313.47 274.23 68.56 o
-8 -1 3 504.83 421.13 88.14 o
-7 -1 3 1519.25 1234.01 107.73 o
-6 -1 3 175.22 332.99 48.97 o
-5 -1 3 10474.30 9950.47 254.64 o
-4 -1 3 22747.90 20674.60 411.34 o
-3 -1 3 4007.02 4250.50 117.53 o
-2 -1 3 6074.34 5915.44 127.32 o
-1 -1 3 43.31 88.14 9.79 o
0 -1 3 8658.21 9529.34 323.19 o
1 -1 3 2028.66 2193.80 48.97 o
2 -1 3 2941.91 3349.47 68.56 o
3 -1 3 3791.27 3868.54 88.14 o
4 -1 3 1667.21 1704.12 68.56 o
5 -1 3 3337.06 3143.80 117.53 o
6 -1 3 347.98 381.96 48.97 o
7 -1 3 2429.08 2360.30 137.11 o
8 -1 3 601.15 577.83 78.35 o
-9 0 3 19.90 19.59 48.97 <
-8 0 3 2890.02 2663.90 176.29 o
-7 0 3 3570.30 3564.93 156.70 o
-6 0 3 3111.38 3085.04 137.11 o
-5 0 3 2347.83 2242.77 107.73 o
-4 0 3 2485.02 2311.33 97.94 o
-3 0 3 248.08 284.02 39.18 o
-2 0 3 1883.96 2076.28 88.14 o
-1 0 3 5666.68 6032.96 146.91 o
0 0 3 53.16 78.35 19.59 o
1 0 3 685.23 949.99 29.38 o
2 0 3 6047.40 5915.44 117.53 o
3 0 3 6426.63 6708.73 146.91 o
4 0 3 750.16 822.68 58.76 o
5 0 3 12.62 29.38 19.59 <
6 0 3 2501.08 2184.01 97.94 o
7 0 3 2.41 58.76 39.18 <
8 0 3 290.66 156.70 48.97 o
9 0 3 3440.65 3486.58 176.29 o
-8 1 3 309.53 293.81 78.35 o
-7 1 3 52.95 68.56 39.18 <
-6 1 3 1629.68 1518.03 117.53 o
-5 1 3 38.60 58.76 29.38 <
-4 1 3 388.88 401.54 48.97 o
-3 1 3 19.15 58.76 19.59 o
-2 1 3 5848.78 5974.20 127.32 o
-1 1 3 705.75 901.03 39.18 o
0 1 3 3169.28 3398.44 78.35 o
1 1 3 55.43 58.76 19.59 o
2 1 3 3800.89 4054.62 107.73 o
3 1 3 1813.53 1772.67 58.76 o
4 1 3 7708.07 8187.59 176.29 o
5 1 3 9407.93 9078.82 205.67 o
6 1 3 1469.34 1253.60 88.14 o
7 1 3 6869.86 6787.08 225.26 o
8 1 3 3.15 -19.59 29.38 <
9 1 3 304.36 264.43 58.76 o
-8 2 3 2329.18 1821.64 176.29 o
-7 2 3 3336.54 3231.94 156.70 o
-6 2 3 1011.20 989.17 97.94 o
-5 2 3 82.67 107.73 39.18 <
-4 2 3 24021.50 23661.70 479.89 o
-3 2 3 366.57 342.78 39.18 o
-2 2 3 6453.29 7404.09 137.11 o
-1 2 3 5421.84 5699.97 107.73 o
0 2 3 4054.71 4358.23 97.94 o
1 2 3 6902.62 7413.88 107.73 o
2 2 3 8.75 9.79 9.79 <
3 2 3 12605.80 12379.30 205.67 o
4 2 3 1485.89 1664.94 58.76 o
5 2 3 68.14 58.76 19.59 o
6 2 3 1410.11 1469.07 78.35 o
7 2 3 1048.45 1057.73 97.94 o
8 2 3 34.24 -9.79 39.18 <
9 2 3 676.65 744.33 88.14 o
-7 3 3 300.68 293.81 58.76 o
-6 3 3 277.60 235.05 48.97 o
-5 3 3 2239.75 2291.74 127.32 o
-4 3 3 1603.71 1537.62 88.14 o
-3 3 3 532.11 773.71 58.76 o
-2 3 3 4800.70 5063.38 107.73 o
-1 3 3 2814.08 3094.83 78.35 o
0 3 3 2921.10 2879.37 58.76 o
1 3 3 5543.28 5435.54 88.14 o
2 3 3 11297.90 11282.40 166.49 o
3 3 3 46.29 48.97 9.79 o
4 3 3 509.52 430.93 39.18 o
5 3 3 4305.41 4681.42 137.11 o
6 3 3 5625.92 5886.05 166.49 o
7 3 3 343.82 440.72 58.76 o
8 3 3 294.70 215.46 58.76 o
9 3 3 2692.55 2889.16 146.91 o
-7 4 3 957.12 783.50 97.94 o
-6 4 3 3714.91 3966.48 215.46 o
-5 4 3 7244.73 7276.77 235.05 o
-4 4 3 639.12 695.36 68.56 o
-3 4 3 913.42 861.85 68.56 o
-2 4 3 14359.30 15219.50 254.64 o
-1 4 3 3690.11 3976.27 117.53 o
0 4 3 21.52 19.59 9.79 <
1 4 3 11198.00 11253.00 166.49 o
2 4 3 1883.87 1851.02 48.97 o
3 4 3 303.01 303.61 19.59 o
4 4 3 0.96 48.97 19.59 <
5 4 3 4651.63 4955.65 137.11 o
6 4 3 1.41 -29.38 19.59 <
7 4 3 141.74 274.23 48.97 o
8 4 3 1876.94 2095.87 127.32 o
9 4 3 1505.63 1292.78 117.53 o
-6 5 3 77.09 235.05 68.56 o
-5 5 3 33.33 88.14 39.18 <
-4 5 3 1957.50 1948.96 127.32 o
-3 5 3 2156.02 2379.89 117.53 o
-2 5 3 1157.07 1057.73 88.14 o
-1 5 3 16545.50 15523.10 342.78 o
0 5 3 257.29 332.99 39.18 o
1 5 3 4743.42 4779.36 97.94 o
2 5 3 153.63 107.73 19.59 o
3 5 3 6914.72 6953.58 156.70 o
4 5 3 3159.61 3466.99 107.73 o
5 5 3 7.78 -19.59 19.59 <
6 5 3 2747.39 3192.77 176.29 o
7 5 3 2852.85 3134.01 176.29 o
8 5 3 26.21 19.59 39.18 <
9 5 3 85.80 88.14 48.97 <
-5 6 3 4408.44 4358.23 195.88 o
-4 6 3 99.37 48.97 39.18 <
-3 6 3 3721.57 3790.19 156.70 o
-2 6 3 234.44 244.84 48.97 o
-1 6 3 116.54 146.91 39.18 o
0 6 3 14.66 29.38 19.59 <
1 6 3 1808.87 1743.29 68.56 o
2 6 3 6118.76 6052.55 137.11 o
3 6 3 4145.14 4054.62 166.49 o
4 6 3 441.48 313.40 48.97 o
5 6 3 3719.05 3937.09 186.08 o
6 6 3 0.93 -9.79 39.18 <
7 6 3 13.69 39.18 39.18 <
8 6 3 293.13 391.75 137.11 <
-4 7 3 51.62 78.35 39.18 <
-3 7 3 993.16 930.41 97.94 o
-2 7 3 5243.57 5053.58 195.88 o
-1 7 3 4.04 29.38 29.38 <
0 7 3 508.00 421.13 48.97 o
1 7 3 12864.80 12320.60 244.84 o
2 7 3 3301.03 3300.50 107.73 o
3 7 3 160.25 186.08 39.18 o
4 7 3 1469.72 1596.38 117.53 o
5 7 3 2649.21 2624.73 156.70 o
6 7 3 46.25 48.97 48.97 <
7 7 3 1.37 48.97 48.97 <
8 7 3 2651.61 2947.92 186.08 o
-3 8 3 1237.06 1136.08 107.73 o
-2 8 3 1610.22 1625.77 137.11 o
-1 8 3 812.53 754.12 78.35 o
0 8 3 119.03 48.97 29.38 <
1 8 3 25.19 58.76 29.38 <
2 8 3 54.63 39.18 29.38 <
3 8 3 51.68 39.18 29.38 <
4 8 3 1774.39 1821.64 107.73 o
5 8 3 90.49 29.38 58.76 <
6 8 3 1138.50 1165.46 186.08 o
7 8 3 2465.44 2193.80 176.29 o
-1 9 3 672.72 695.36 88.14 o
0 9 3 3184.02 3075.24 156.70 o
1 9 3 798.46 783.50 68.56 o
2 9 3 1502.48 1469.07 88.14 o
3 9 3 1590.74 1694.32 97.94 o
4 9 3 2451.21 2585.55 127.32 o
5 9 3 80.07 117.53 68.56 <
6 9 3 808.55 695.36 146.91 o
-5 -9 4 0.86 -58.76 48.97 <
-4 -9 4 1158.36 1292.78 186.08 o
-3 -9 4 1053.97 1155.66 127.32 o
-2 -9 4 1683.93 1557.21 107.73 o
-1 -9 4 2787.83 3192.77 137.11 o
0 -9 4 397.49 381.96 58.76 o
1 -9 4 4585.25 4642.25 186.08 o
-6 -8 4 1992.79 2213.39 195.88 o
-5 -8 4 169.56 195.88 78.35 <
-4 -8 4 2153.39 2419.06 156.70 o
-3 -8 4 7639.29 7502.03 284.02 o
-2 -8 4 1973.77 1948.96 137.11 o
-1 -8 4 228.17 215.46 48.97 o
0 -8 4 20.54 29.38 29.38 <
1 -8 4 1208.68 1038.14 88.14 o
2 -8 4 43.39 -19.59 29.38 <
3 -8 4 1627.59 1488.65 156.70 o
-7 -7 4 8.05 58.76 48.97 <
-6 -7 4 1450.02 1312.36 176.29 o
-5 -7 4 594.10 499.48 97.94 o
-4 -7 4 461.96 421.13 68.56 o
-3 -7 4 4620.88 5190.70 215.46 o
-2 -7 4 1634.78 1880.40 127.32 o
-1 -7 4 5722.72 5670.59 166.49 o
0 -7 4 4438.31 4701.01 156.70 o
1 -7 4 2712.44 2448.44 107.73 o
2 -7 4 1184.18 1145.87 88.14 o
3 -7 4 2956.51 3055.66 137.11 o
4 -7 4 61.50 58.76 58.76 <
-7 -6 4 455.45 274.23 78.35 o
-6 -6 4 3888.37 4377.81 274.23 o
-5 -6 4 3344.70 3202.56 225.26 o
-4 -6 4 9309.86 9666.45 303.61 o
-3 -6 4 187.60 117.53 39.18 o
-2 -6 4 8965.69 9539.13 293.81 o
-1 -6 4 569.11 901.03 68.56 o
0 -6 4 135.57 127.32 29.38 o
1 -6 4 367.81 352.58 48.97 o
2 -6 4 5667.11 5484.51 166.49 o
3 -6 4 10466.10 9852.53 254.64 o
4 -6 4 2048.95 1968.55 166.49 o
5 -6 4 561.71 587.63 146.91 o
-8 -5 4 192.71 225.26 88.14 <
-7 -5 4 528.02 558.24 88.14 o
-6 -5 4 3729.82 3584.52 166.49 o
-5 -5 4 12636.70 12232.40 274.23 o
-4 -5 4 3065.76 3124.21 117.53 o
-3 -5 4 3300.89 3741.22 127.32 o
-2 -5 4 20916.50 21203.50 430.93 o
-1 -5 4 9768.62 9460.78 195.88 o
0 -5 4 55883.40 50780.70 773.71 o
1 -5 4 4453.11 4691.21 137.11 o
2 -5 4 3188.49 3339.67 107.73 o
3 -5 4 409.04 489.69 48.97 o
4 -5 4 170.80 186.08 48.97 o
5 -5 4 986.51 1361.33 146.91 o
6 -5 4 137.07 78.35 58.76 <
-9 -4 4 1215.66 1204.63 195.88 o
-8 -4 4 1955.83 1841.23 235.05 o
-7 -4 4 374.38 401.54 107.73 o
-5 -4 4 6786.27 6816.46 146.91 o
-4 -4 4 35803.80 34621.00 440.72 o
-3 -4 4 2853.16 2957.72 88.14 o
-2 -4 4 11752.00 13280.30 215.46 o
-1 -4 4 766.62 852.06 29.38 o
0 -4 4 1332.77 1341.75 39.18 o
1 -4 4 3074.81 3222.15 78.35 o
2 -4 4 21598.00 20890.10 313.40 o
3 -4 4 229.56 284.02 29.38 o
4 -4 4 13910.90 15483.90 313.40 o
5 -4 4 4563.89 4730.39 186.08 o
6 -4 4 4354.82 4456.16 195.88 o
7 -4 4 35.83 78.35 48.97 <
-9 -3 4 937.26 1077.31 137.11 o
-8 -3 4 2468.40 2340.71 156.70 o
-7 -3 4 9728.14 10685.00 362.37 o
-6 -3 4 22.27 19.59 39.18 <
-5 -3 4 1762.90 1811.85 107.73 o
-4 -3 4 496.23 411.34 29.38 o
-3 -3 4 563.25 538.66 29.38 o
-2 -3 4 47734.70 43533.30 577.83 o
-1 -3 4 36213.10 34640.60 470.10 o
0 -3 4 21481.20 20488.60 225.26 o
1 -3 4 3207.58 3212.36 48.97 o
2 -3 4 55932.70 51162.60 568.04 o
3 -3 4 53.01 166.49 19.59 o
4 -3 4 850.77 930.41 58.76 o
5 -3 4 303.97 293.81 48.97 o
6 -3 4 4109.51 3927.30 176.29 o
7 -3 4 1630.84 1615.97 137.11 o
-9 -2 4 180.80 58.76 48.97 <
-8 -2 4 747.68 812.88 117.53 o
-7 -2 4 4545.17 4906.68 225.26 o
-6 -2 4 4579.50 4299.46 195.88 o
-5 -2 4 15805.20 16149.90 303.61 o
-4 -2 4 5055.24 5699.97 146.91 o
-3 -2 4 54953.40 49732.80 656.18 o
-2 -2 4 4712.37 5161.32 88.14 o
-1 -2 4 7406.85 8158.21 205.67 o
0 -2 4 11039.30 11047.40 166.49 o
1 -2 4 4230.22 4201.53 58.76 o
2 -2 4 46603.00 48067.80 528.86 o
3 -2 4 8019.02 10371.60 156.70 o
4 -2 4 29905.80 30566.30 460.31 o
5 -2 4 1194.32 1371.13 88.14 o
6 -2 4 3114.39 3036.07 127.32 o
7 -2 4 21.76 48.97 39.18 <
8 -2 4 680.13 754.12 97.94 o
-9 -1 4 1241.72 1478.86 166.49 o
-8 -1 4 39.71 39.18 48.97 <
-7 -1 4 4326.78 4583.48 225.26 o
-6 -1 4 1792.15 1439.68 137.11 o
-5 -1 4 10307.90 10175.70 254.64 o
-4 -1 4 932.12 1165.46 68.56 o
-3 -1 4 17744.50 17383.90 401.54 o
-2 -1 4 1194.92 1361.33 39.18 o
-1 -1 4 84279.50 54962.60 1165.46 o
0 -1 4 55669.70 42514.70 1312.36 o
1 -1 4 62800.00 50702.30 587.63 o
2 -1 4 11934.20 13456.60 176.29 o
3 -1 4 7809.61 7227.80 137.11 o
4 -1 4 1704.42 1802.05 78.35 o
5 -1 4 14.66 29.38 19.59 <
6 -1 4 1197.87 1018.55 78.35 o
7 -1 4 231.49 244.84 48.97 o
8 -1 4 8065.28 7521.61 264.43 o
-8 0 4 6.39 0.00 48.97 <
-7 0 4 94.16 186.08 58.76 o
-6 0 4 1364.18 1145.87 97.94 o
-5 0 4 48684.80 46706.50 852.06 o
-4 0 4 15257.20 14827.80 323.19 o
-3 0 4 26035.70 24376.70 450.51 o
-2 0 4 9084.80 9176.76 166.49 o
-1 0 4 64581.20 49086.40 812.88 o
0 0 4 9087.85 9715.42 313.40 o
1 0 4 19281.50 22094.70 372.16 o
2 0 4 1082.84 861.85 29.38 o
3 0 4 28031.50 25845.80 421.13 o
4 0 4 22255.50 21291.70 372.16 o
5 0 4 40183.50 37108.60 617.01 o
6 0 4 3247.27 3378.85 127.32 o
7 0 4 24.43 -9.79 29.38 <
8 0 4 67.18 68.56 39.18 <
9 0 4 678.76 675.77 88.14 o
-8 1 4 6235.07 5484.51 274.23 o
-7 1 4 1427.67 1390.71 146.91 o
-6 1 4 1023.03 1185.05 97.94 o
-5 1 4 4365.44 4328.85 205.67 o
-4 1 4 2599.53 2781.43 97.94 o
-3 1 4 4026.52 3976.27 107.73 o
-2 1 4 2773.34 2810.81 68.56 o
-1 1 4 42510.70 40791.00 607.21 o
0 1 4 38348.80 32730.80 577.83 o
1 1 4 190249.00 94529.40 1224.22 o
2 1 4 52.92 88.14 9.79 o
3 1 4 17408.70 16590.60 284.02 o
4 1 4 82.36 88.14 19.59 o
5 1 4 319.21 225.26 39.18 o
6 1 4 7492.88 7423.68 195.88 o
7 1 4 2743.52 3036.07 146.91 o
8 1 4 589.38 577.83 78.35 o
9 1 4 361.48 293.81 58.76 o
-8 2 4 56.31 146.91 58.76 <
-7 2 4 1685.92 1527.83 156.70 o
-6 2 4 4236.88 4446.37 176.29 o
-5 2 4 357.77 470.10 68.56 o
-4 2 4 26427.60 25532.40 519.07 o
-3 2 4 22020.50 24366.90 479.89 o
-2 2 4 70090.30 62944.50 852.06 o
-1 2 4 16084.90 17109.70 254.64 o
0 2 4 87.42 137.11 19.59 o
1 2 4 1733.65 1880.40 48.97 o
2 2 4 4855.49 5298.43 88.14 o
3 2 4 62893.20 53023.50 724.74 o
4 2 4 8673.29 9245.32 176.29 o
5 2 4 9988.49 9705.62 215.46 o
6 2 4 10.86 48.97 29.38 <
7 2 4 12050.00 11684.00 313.40 o
8 2 4 653.78 577.83 78.35 o
9 2 4 139.78 166.49 48.97 o
-7 3 4 61.51 78.35 58.76 <
-6 3 4 8156.70 7198.42 244.84 o
-5 3 4 351.84 381.96 58.76 o
-4 3 4 548.43 626.80 68.56 o
-3 3 4 621.68 763.91 58.76 o
-2 3 4 20710.60 21203.50 323.19 o
-1 3 4 2470.94 2526.79 58.76 o
0 3 4 35350.80 32397.80 460.31 o
1 3 4 14853.30 13936.50 176.29 o
2 3 4 68298.90 57029.10 587.63 o
3 3 4 920.19 1038.14 39.18 o
4 3 4 4349.14 4534.51 107.73 o
5 3 4 2371.08 2556.17 97.94 o
6 3 4 20.42 48.97 19.59 <
7 3 4 10958.30 10841.70 293.81 o
8 3 4 230.16 195.88 48.97 o
9 3 4 1456.95 1282.98 117.53 o
-7 4 4 31.76 58.76 48.97 <
-6 4 4 5537.87 5670.59 215.46 o
-5 4 4 1905.85 1870.61 127.32 o
-4 4 4 12193.60 14181.40 303.61 o
-3 4 4 7.00 78.35 29.38 <
-2 4 4 32099.40 31516.30 528.86 o
-1 4 4 362.39 489.69 48.97 o
0 4 4 20489.80 20586.50 303.61 o
1 4 4 529.98 558.24 29.38 o
2 4 4 5054.92 5592.24 88.14 o
3 4 4 1603.78 1635.56 48.97 o
4 4 4 14160.60 14720.00 264.43 o
5 4 4 12265.90 11899.40 244.84 o
6 4 4 2241.82 2487.62 97.94 o
7 4 4 112.53 127.32 39.18 o
8 4 4 2573.44 2575.76 137.11 o
9 4 4 1072.01 891.23 97.94 o
-6 5 4 880.19 842.26 117.53 o
-5 5 4 1646.66 1782.47 176.29 o
-4 5 4 465.98 989.17 97.94 o
-3 5 4 282.90 440.72 58.76 o
-2 5 4 65.60 127.32 39.18 o
-1 5 4 1047.49 1116.49 78.35 o
0 5 4 55684.90 50173.50 881.44 o
1 5 4 3579.80 3907.71 88.14 o
2 5 4 16414.00 16443.70 274.23 o
3 5 4 3574.59 3799.98 107.73 o
4 5 4 11910.30 12007.20 284.02 o
5 5 4 14902.20 14318.50 323.19 o
6 5 4 42.87 117.53 48.97 <
7 5 4 67.58 88.14 48.97 <
8 5 4 557.20 421.13 88.14 o
9 5 4 2141.56 2203.60 186.08 o
-5 6 4 98.68 117.53 58.76 <
-4 6 4 2872.31 2830.40 146.91 o
-3 6 4 13173.40 12604.60 332.99 o
-2 6 4 5471.63 4936.06 176.29 o
-1 6 4 608.43 656.18 68.56 o
0 6 4 3417.39 3408.23 137.11 o
1 6 4 3227.85 2820.60 88.14 o
2 6 4 1520.10 1704.12 68.56 o
3 6 4 0.31 39.18 29.38 <
4 6 4 2414.65 2575.76 146.91 o
5 6 4 83.40 107.73 48.97 <
6 6 4 8525.05 8755.63 323.19 o
7 6 4 211.56 264.43 78.35 o
8 6 4 601.74 665.98 156.70 o
-4 7 4 6.79 39.18 39.18 <
-3 7 4 17.39 48.97 39.18 <
-2 7 4 437.46 460.31 68.56 o
-1 7 4 589.90 626.80 78.35 o
0 7 4 963.98 1057.73 88.14 o
1 7 4 4882.94 5337.60 146.91 o
2 7 4 6548.57 6522.65 156.70 o
3 7 4 14743.50 14494.80 332.99 o
4 7 4 889.47 1008.76 166.49 o
5 7 4 43.15 107.73 48.97 <
6 7 4 277.99 264.43 68.56 o
7 7 4 3520.11 3427.82 205.67 o
8 7 4 2383.02 2252.57 186.08 o
-3 8 4 1152.70 793.29 88.14 o
-2 8 4 5.94 39.18 39.18 <
-1 8 4 7097.09 6610.79 225.26 o
0 8 4 13.38 48.97 29.38 <
1 8 4 1583.01 1674.73 88.14 o
2 8 4 406.70 381.96 48.97 o
3 8 4 1106.62 1234.01 78.35 o
4 8 4 3025.17 2693.29 156.70 o
5 8 4 343.25 313.40 97.94 o
6 8 4 1440.14 1380.92 205.67 o
7 8 4 1730.64 1772.67 166.49 o
-1 9 4 2380.65 2076.28 137.11 o
0 9 4 57.57 0.00 39.18 <
1 9 4 1194.02 1282.98 117.53 o
2 9 4 493.88 558.24 58.76 o
3 9 4 1865.18 1831.43 97.94 o
4 9 4 2200.40 1851.02 146.91 o
5 9 4 788.14 920.61 117.53 o
6 9 4 1123.28 920.61 176.29 o
-5 -9 5 1295.49 1243.81 186.08 o
-4 -9 5 706.34 675.77 137.11 o
-3 -9 5 221.74 264.43 88.14 o
-2 -9 5 2038.68 1821.64 107.73 o
-1 -9 5 715.09 636.59 68.56 o
0 -9 5 1170.23 989.17 88.14 o
-6 -8 5 1701.17 1469.07 205.67 o
-5 -8 5 145.73 88.14 58.76 <
-4 -8 5 1876.27 1586.59 195.88 o
-3 -8 5 10.10 29.38 39.18 <
-2 -8 5 2066.13 2056.69 137.11 o
-1 -8 5 30.03 48.97 29.38 <
0 -8 5 42.66 68.56 39.18 <
1 -8 5 707.19 891.23 88.14 o
2 -8 5 1189.27 1155.66 97.94 o
-7 -7 5 74.13 127.32 68.56 <
-6 -7 5 264.02 254.64 88.14 <
-5 -7 5 1100.72 1185.05 166.49 o
-4 -7 5 2542.78 2791.22 215.46 o
-3 -7 5 879.61 783.50 97.94 o
-2 -7 5 2883.71 2595.35 146.91 o
-1 -7 5 11582.90 10724.20 264.43 o
0 -7 5 1590.14 1576.80 97.94 o
1 -7 5 568.12 636.59 68.56 o
2 -7 5 3000.37 2996.89 137.11 o
3 -7 5 1523.54 1625.77 107.73 o
4 -7 5 297.96 215.46 68.56 o
-7 -6 5 1.21 -9.79 48.97 <
-6 -6 5 97.45 107.73 58.76 <
-5 -6 5 10618.80 10616.40 479.89 o
-4 -6 5 1995.72 2007.72 176.29 o
-3 -6 5 867.00 1008.76 97.94 o
-2 -6 5 8372.75 7854.60 264.43 o
-1 -6 5 358.95 254.64 39.18 o
0 -6 5 31.43 29.38 19.59 <
1 -6 5 17.54 58.76 29.38 <
2 -6 5 228.94 215.46 39.18 o
3 -6 5 537.87 548.45 68.56 o
4 -6 5 168.72 195.88 58.76 o
5 -6 5 1448.80 1234.01 225.26 o
-8 -5 5 120.90 58.76 48.97 <
-7 -5 5 2341.73 2663.90 156.70 o
-6 -5 5 8836.04 9147.38 303.61 o
-5 -5 5 389.55 617.01 68.56 o
-4 -5 5 1123.81 1420.10 88.14 o
-3 -5 5 11720.10 10694.80 215.46 o
-2 -5 5 1279.91 1400.51 78.35 o
-1 -5 5 37.22 9.79 19.59 <
0 -5 5 2169.19 2370.09 78.35 o
1 -5 5 11100.80 10743.80 244.84 o
2 -5 5 382.38 509.28 39.18 o
3 -5 5 301.76 323.19 39.18 o
4 -5 5 1436.08 1351.54 97.94 o
5 -5 5 1096.36 1038.14 127.32 o
6 -5 5 1449.98 1449.48 156.70 o
-9 -4 5 2489.49 1978.34 254.64 o
-8 -4 5 1939.61 1997.93 244.84 o
-7 -4 5 198.38 313.40 88.14 o
-6 -4 5 3049.97 3643.28 176.29 o
-5 -4 5 709.74 744.33 78.35 o
-4 -4 5 0.50 -9.79 19.59 <
-3 -4 5 817.26 1096.90 48.97 o
-2 -4 5 511.59 401.54 29.38 o
-1 -4 5 9818.00 10312.80 156.70 o
0 -4 5 2398.42 2663.90 68.56 o
1 -4 5 4095.60 4221.11 88.14 o
2 -4 5 36.85 39.18 19.59 <
3 -4 5 265.97 195.88 29.38 o
4 -4 5 658.45 744.33 68.56 o
5 -4 5 718.81 1713.91 127.32 o
6 -4 5 1682.01 1772.67 137.11 o
7 -4 5 830.02 607.21 88.14 o
-9 -3 5 602.45 803.09 166.49 o
-8 -3 5 128.05 29.38 58.76 <
-7 -3 5 220.20 205.67 58.76 o
-6 -3 5 199.32 244.84 58.76 o
-5 -3 5 11661.80 12232.40 293.81 o
-4 -3 5 151.52 284.02 29.38 o
-3 -3 5 307.08 362.37 19.59 o
-2 -3 5 11369.50 11801.50 186.08 o
-1 -3 5 5559.13 5680.39 97.94 o
0 -3 5 7.52 9.79 9.79 <
1 -3 5 1441.29 1459.27 39.18 o
2 -3 5 24.37 19.59 9.79 <
3 -3 5 1173.44 1126.28 48.97 o
4 -3 5 6847.16 6973.16 186.08 o
5 -3 5 654.51 812.88 78.35 o
6 -3 5 172.63 254.64 58.76 o
7 -3 5 15.79 58.76 39.18 <
-9 -2 5 1766.66 1762.88 166.49 o
-8 -2 5 33.38 -48.97 39.18 <
-7 -2 5 3450.79 3124.21 176.29 o
-6 -2 5 5313.16 6248.42 244.84 o
-5 -2 5 318.72 215.46 48.97 o
-4 -2 5 1263.38 1185.05 48.97 o
-3 -2 5 11551.70 11938.60 186.08 o
-2 -2 5 36.10 88.14 9.79 o
-1 -2 5 433.63 460.31 29.38 o
0 -2 5 148.90 205.67 19.59 o
1 -2 5 4345.44 4270.08 68.56 o
2 -2 5 14906.80 15640.60 186.08 o
3 -2 5 1883.99 2007.72 48.97 o
4 -2 5 8677.70 10763.40 235.05 o
5 -2 5 559.01 421.13 48.97 o
6 -2 5 674.98 861.85 78.35 o
7 -2 5 428.43 381.96 68.56 o
8 -2 5 3813.76 3995.86 186.08 o
-9 -1 5 2022.59 2056.69 176.29 o
-8 -1 5 16.00 58.76 48.97 <
-7 -1 5 8511.13 8794.80 332.99 o
-6 -1 5 2908.17 2761.84 166.49 o
-5 -1 5 1295.57 1449.48 127.32 o
-4 -1 5 11089.90 11311.80 254.64 o
-3 -1 5 5583.09 5651.00 156.70 o
-2 -1 5 1490.91 1410.30 39.18 o
-1 -1 5 17.30 39.18 9.79 o
0 -1 5 5885.85 5778.32 127.32 o
1 -1 5 2678.11 2781.43 48.97 o
2 -1 5 1869.11 2918.54 58.76 o
3 -1 5 1706.62 1831.43 48.97 o
4 -1 5 1922.47 1939.17 78.35 o
5 -1 5 4055.36 4093.79 137.11 o
6 -1 5 5663.55 5729.35 176.29 o
7 -1 5 2.77 0.00 39.18 <
8 -1 5 656.39 597.42 78.35 o
-8 0 5 198.47 313.40 78.35 o
-7 0 5 1746.99 1802.05 166.49 o
-6 0 5 161.06 235.05 58.76 o
-5 0 5 1056.86 949.99 107.73 o
-4 0 5 14.89 29.38 19.59 <
-3 0 5 40.46 39.18 19.59 <
-2 0 5 511.72 695.36 39.18 o
-1 0 5 6934.97 7080.89 127.32 o
0 0 5 8.12 19.59 9.79 <
1 0 5 6562.24 7433.47 117.53 o
2 0 5 850.93 1008.76 29.38 o
3 0 5 177.10 88.14 19.59 o
4 0 5 16914.40 16238.10 303.61 o
5 0 5 1128.20 1136.08 78.35 o
6 0 5 3168.66 3016.48 117.53 o
7 0 5 7135.44 7364.91 244.84 o
8 0 5 648.21 411.34 68.56 o
9 0 5 5.49 -39.18 39.18 <
-8 1 5 169.67 284.02 68.56 o
-7 1 5 5.71 19.59 48.97 <
-6 1 5 296.72 528.86 88.14 o
-5 1 5 4457.26 4319.05 195.88 o
-4 1 5 7910.03 8383.46 195.88 o
-3 1 5 7572.63 7746.87 166.49 o
-2 1 5 1988.26 1958.75 48.97 o
-1 1 5 1637.60 1899.99 39.18 o
0 1 5 3141.87 4015.44 78.35 o
1 1 5 514.51 617.01 29.38 o
2 1 5 5555.81 5631.42 97.94 o
3 1 5 6343.16 6757.70 127.32 o
4 1 5 1684.22 1567.00 68.56 o
5 1 5 6258.55 6228.84 166.49 o
6 1 5 483.64 430.93 48.97 o
7 1 5 237.88 352.58 58.76 o
8 1 5 2631.28 2712.87 146.91 o
9 1 5 684.72 901.03 97.94 o
-8 2 5 1055.23 979.38 137.11 o
-7 2 5 3757.40 3976.27 225.26 o
-6 2 5 3365.65 3574.73 195.88 o
-5 2 5 144.42 127.32 39.18 o
-4 2 5 3748.79 4123.18 186.08 o
-3 2 5 0.60 0.00 19.59 <
-2 2 5 8468.92 10401.00 166.49 o
-1 2 5 10567.80 10988.60 146.91 o
0 2 5 283.94 381.96 29.38 o
1 2 5 6119.71 5876.26 88.14 o
2 2 5 0.02 19.59 9.79 <
3 2 5 0.57 9.79 9.79 <
4 2 5 534.24 636.59 39.18 o
5 2 5 2586.78 2732.46 97.94 o
6 2 5 2960.56 2938.13 107.73 o
7 2 5 1817.44 1704.12 117.53 o
8 2 5 1068.44 1047.93 107.73 o
9 2 5 5238.35 4446.37 195.88 o
-7 3 5 9.66 9.79 48.97 <
-6 3 5 2809.71 2781.43 176.29 o
-5 3 5 3011.56 2996.89 137.11 o
-4 3 5 1566.93 1380.92 97.94 o
-3 3 5 119.45 127.32 29.38 o
-2 3 5 1005.02 1224.22 48.97 o
-1 3 5 1811.92 1899.99 48.97 o
0 3 5 168.80 146.91 19.59 o
1 3 5 3903.98 4221.11 78.35 o
2 3 5 326.35 352.58 19.59 o
3 3 5 293.85 313.40 19.59 o
4 3 5 30348.50 29165.80 391.75 o
5 3 5 2092.07 2223.19 88.14 o
6 3 5 704.83 636.59 58.76 o
7 3 5 15055.10 14220.50 362.37 o
8 3 5 2.24 -39.18 29.38 <
9 3 5 149.47 39.18 39.18 <
-6 4 5 70.05 88.14 58.76 <
-5 4 5 837.84 665.98 78.35 o
-4 4 5 1036.99 1243.81 97.94 o
-3 4 5 2919.82 3447.41 117.53 o
-2 4 5 16871.40 16933.40 362.37 o
-1 4 5 641.62 724.74 48.97 o
0 4 5 6316.99 5699.97 117.53 o
1 4 5 6623.27 6689.14 117.53 o
2 4 5 1396.46 1508.24 39.18 o
3 4 5 29127.80 27873.10 372.16 o
4 4 5 382.75 450.51 48.97 o
5 4 5 3040.59 3173.18 97.94 o
6 4 5 5167.53 5357.19 156.70 o
7 4 5 38.44 39.18 29.38 <
8 4 5 523.84 714.95 88.14 o
9 4 5 401.24 352.58 68.56 o
-6 5 5 1072.99 930.41 186.08 o
-5 5 5 4.10 29.38 48.97 <
-4 5 5 7925.16 7805.63 244.84 o
-3 5 5 455.22 342.78 58.76 o
-2 5 5 214.87 176.29 39.18 o
-1 5 5 24.71 107.73 29.38 o
0 5 5 3356.08 3623.69 127.32 o
1 5 5 11526.70 11282.40 225.26 o
2 5 5 869.28 930.41 48.97 o
3 5 5 3035.21 3026.27 97.94 o
4 5 5 2844.92 3094.83 127.32 o
5 5 5 14.90 -19.59 19.59 <
6 5 5 4226.05 4319.05 156.70 o
7 5 5 408.68 401.54 117.53 o
8 5 5 1036.56 998.96 127.32 o
9 5 5 3473.30 3682.46 225.26 o
-5 6 5 38.72 313.40 78.35 o
-4 6 5 1355.20 1224.22 117.53 o
-3 6 5 2.23 0.00 29.38 <
-2 6 5 1159.63 1087.11 97.94 o
-1 6 5 2956.95 2693.29 127.32 o
0 6 5 1221.18 1243.81 97.94 o
1 6 5 189.52 205.67 39.18 o
2 6 5 410.60 421.13 39.18 o
3 6 5 668.62 656.18 78.35 o
4 6 5 5787.55 5699.97 225.26 o
5 6 5 3503.59 3623.69 186.08 o
6 6 5 194.02 205.67 58.76 o
7 6 5 5466.35 5406.16 254.64 o
8 6 5 2083.06 2605.14 264.43 o
-4 7 5 232.74 137.11 48.97 <
-3 7 5 2.44 88.14 39.18 <
-2 7 5 1761.57 1410.30 117.53 o
-1 7 5 1653.38 1567.00 107.73 o
0 7 5 5493.20 5278.84 186.08 o
1 7 5 1856.04 2007.72 107.73 o
2 7 5 2669.73 2791.22 97.94 o
3 7 5 14455.30 13730.90 264.43 o
4 7 5 1810.44 1380.92 186.08 o
5 7 5 819.16 695.36 97.94 o
6 7 5 6471.04 6777.29 293.81 o
7 7 5 0.21 -58.76 39.18 <
8 7 5 171.60 274.23 78.35 o
-2 8 5 1321.71 1341.75 127.32 o
-1 8 5 168.23 166.49 48.97 o
0 8 5 4078.12 3418.02 156.70 o
1 8 5 1756.78 1713.91 117.53 o
2 8 5 924.84 822.68 68.56 o
3 8 5 164.01 186.08 39.18 o
4 8 5 2224.24 2056.69 156.70 o
5 8 5 1337.79 1282.98 195.88 o
6 8 5 2069.14 2135.04 166.49 o
7 8 5 55.75 39.18 48.97 <
-1 9 5 852.55 861.85 97.94 o
0 9 5 193.97 127.32 48.97 <
1 9 5 392.87 381.96 68.56 o
2 9 5 5364.88 5269.05 195.88 o
3 9 5 191.46 186.08 39.18 o
4 9 5 81.17 78.35 39.18 <
5 9 5 1728.69 1772.67 146.91 o
6 9 5 319.99 244.84 97.94 <
-4 -9 6 462.95 284.02 88.14 o
-3 -9 6 1376.78 1743.29 215.46 o
-2 -9 6 3987.68 3535.55 156.70 o
-1 -9 6 1265.98 1273.19 97.94 o
0 -9 6 92.39 39.18 39.18 <
-6 -8 6 548.07 470.10 117.53 o
-5 -8 6 4072.51 3760.81 274.23 o
-4 -8 6 1075.04 1136.08 176.29 o
-3 -8 6 475.51 450.51 107.73 o
-2 -8 6 914.10 832.47 107.73 o
-1 -8 6 32.77 48.97 29.38 <
0 -8 6 1701.06 1792.26 107.73 o
1 -8 6 1568.46 1537.62 117.53 o
2 -8 6 216.35 225.26 48.97 o
-7 -7 6 1294.03 1371.13 195.88 o
-6 -7 6 1136.07 1018.55 156.70 o
-5 -7 6 2859.46 2536.59 215.46 o
-4 -7 6 988.56 744.33 127.32 o
-3 -7 6 3628.29 3790.19 254.64 o
-2 -7 6 1051.04 1273.19 117.53 o
-1 -7 6 7342.72 6718.52 195.88 o
0 -7 6 284.87 254.64 48.97 o
1 -7 6 4181.89 4544.31 156.70 o
2 -7 6 735.41 803.09 78.35 o
3 -7 6 1132.31 1224.22 97.94 o
4 -7 6 131.09 97.94 97.94 <
-7 -6 6 1562.06 1508.24 195.88 o
-6 -6 6 2908.60 2340.71 205.67 o
-5 -6 6 65.60 0.00 48.97 <
-4 -6 6 7121.89 6963.37 362.37 o
-3 -6 6 1840.77 2184.01 186.08 o
-2 -6 6 1825.96 2037.10 117.53 o
-1 -6 6 3180.40 3104.62 107.73 o
0 -6 6 74.19 78.35 19.59 o
1 -6 6 7245.73 6689.14 186.08 o
2 -6 6 234.87 225.26 48.97 o
3 -6 6 1599.13 1331.95 97.94 o
4 -6 6 860.63 989.17 205.67 o
5 -6 6 2531.51 2330.92 323.19 o
-8 -5 6 2321.76 2115.45 146.91 o
-7 -5 6 5565.44 5915.44 244.84 o
-6 -5 6 50.34 127.32 48.97 <
-5 -5 6 132.12 127.32 39.18 o
-4 -5 6 19.78 48.97 19.59 <
-3 -5 6 14305.40 14161.80 372.16 o
-2 -5 6 10762.60 10606.70 235.05 o
-1 -5 6 984.57 1038.14 48.97 o
0 -5 6 6047.60 6816.46 137.11 o
1 -5 6 2015.60 2321.12 78.35 o
2 -5 6 9514.29 10224.70 205.67 o
3 -5 6 413.95 391.75 48.97 o
4 -5 6 3.21 19.59 39.18 <
5 -5 6 421.51 509.28 88.14 o
6 -5 6 249.07 401.54 88.14 o
-8 -4 6 481.22 274.23 68.56 o
-7 -4 6 485.10 332.99 68.56 o
-6 -4 6 6202.54 6170.07 244.84 o
-5 -4 6 124.71 195.88 48.97 o
-4 -4 6 2556.19 2859.78 127.32 o
-3 -4 6 7612.09 8138.62 332.99 o
-2 -4 6 12059.90 12829.80 186.08 o
-1 -4 6 4132.32 4426.78 88.14 o
0 -4 6 331.90 293.81 19.59 o
1 -4 6 30.83 19.59 19.59 <
2 -4 6 8560.32 8579.34 176.29 o
3 -4 6 4751.72 4603.07 127.32 o
4 -4 6 9632.79 10352.00 284.02 o
5 -4 6 50.34 58.76 29.38 <
6 -4 6 1337.47 1420.10 127.32 o
-8 -3 6 1170.06 1214.43 195.88 o
-7 -3 6 2017.84 2272.15 215.46 o
-6 -3 6 56.14 176.29 58.76 <
-5 -3 6 19848.70 19910.70 528.86 o
-4 -3 6 7261.25 7090.69 235.05 o
-3 -3 6 2991.06 3310.29 88.14 o
-2 -3 6 6261.97 6346.36 117.53 o
-1 -3 6 228.38 186.08 19.59 o
0 -3 6 71596.20 62621.40 685.56 o
1 -3 6 6761.12 6718.52 97.94 o
2 -3 6 3178.98 3173.18 68.56 o
3 -3 6 1452.04 1527.83 48.97 o
4 -3 6 7132.81 7482.44 166.49 o
5 -3 6 1037.99 969.58 78.35 o
6 -3 6 404.88 440.72 68.56 o
7 -3 6 465.65 293.81 58.76 o
-8 -2 6 2113.58 2046.90 166.49 o
-7 -2 6 56.75 58.76 48.97 <
-6 -2 6 167.19 215.46 58.76 o
-5 -2 6 10618.20 11684.00 352.58 o
-4 -2 6 5427.04 5572.65 166.49 o
-3 -2 6 11825.10 11830.90 195.88 o
-2 -2 6 7504.86 7854.60 176.29 o
-1 -2 6 14023.20 14201.00 264.43 o
0 -2 6 11032.50 11488.10 195.88 o
1 -2 6 1837.92 1841.23 39.18 o
2 -2 6 3459.33 4152.56 68.56 o
3 -2 6 7659.32 8305.12 127.32 o
4 -2 6 14574.30 16433.90 284.02 o
5 -2 6 1789.03 2086.07 146.91 o
6 -2 6 11447.00 10606.70 303.61 o
7 -2 6 1626.79 1459.27 127.32 o
8 -2 6 476.48 470.10 78.35 o
-8 -1 6 2539.78 2556.17 195.88 o
-7 -1 6 4826.92 5043.79 235.05 o
-6 -1 6 3491.18 3418.02 176.29 o
-5 -1 6 1085.54 891.23 97.94 o
-3 -1 6 367.84 372.16 29.38 o
-2 -1 6 13034.80 12242.20 215.46 o
-1 -1 6 41254.00 36403.40 744.33 o
0 -1 6 4654.28 5034.00 117.53 o
1 -1 6 27395.30 24983.90 284.02 o
2 -1 6 21762.40 21693.20 284.02 o
3 -1 6 12103.20 12447.90 186.08 o
4 -1 6 43.59 48.97 19.59 <
5 -1 6 716.04 665.98 58.76 o
6 -1 6 1828.01 1841.23 97.94 o
7 -1 6 151.39 137.11 39.18 o
8 -1 6 31.68 78.35 39.18 <
-8 0 6 2811.23 3329.88 205.67 o
-7 0 6 1775.91 1733.50 166.49 o
-6 0 6 77.46 68.56 39.18 <
-5 0 6 212.20 284.02 58.76 o
-4 0 6 1166.90 1224.22 97.94 o
-3 0 6 52205.70 46735.90 577.83 o
-2 0 6 29642.50 27961.20 381.96 o
-1 0 6 7952.58 8246.35 146.91 o
0 0 6 190.83 430.93 19.59 o
1 0 6 352.86 538.66 19.59 o
2 0 6 41012.70 38959.60 460.31 o
3 0 6 29971.00 27696.80 391.75 o
4 0 6 285.72 264.43 29.38 o
5 0 6 5760.88 5582.45 156.70 o
6 0 6 1326.05 1322.16 88.14 o
7 0 6 18147.30 17432.90 430.93 o
8 0 6 567.31 646.39 88.14 o
-8 1 6 138.34 117.53 58.76 <
-7 1 6 118.13 195.88 68.56 <
-6 1 6 15263.70 15748.40 479.89 o
-5 1 6 105.64 235.05 58.76 o
-4 1 6 2095.82 1860.82 117.53 o
-3 1 6 1087.27 1106.70 58.76 o
-2 1 6 120.74 107.73 19.59 o
-1 1 6 27448.60 24699.90 342.78 o
0 1 6 386.32 421.13 19.59 o
1 1 6 15363.40 13838.60 186.08 o
2 1 6 6902.55 7443.26 117.53 o
3 1 6 29538.10 27598.80 391.75 o
4 1 6 2773.96 2781.43 78.35 o
5 1 6 1938.64 1782.47 78.35 o
6 1 6 245.47 303.61 48.97 o
7 1 6 1227.05 1155.66 107.73 o
8 1 6 850.43 724.74 88.14 o
9 1 6 2929.11 2712.87 156.70 o
-7 2 6 83.17 137.11 48.97 <
-6 2 6 176.53 176.29 58.76 <
-5 2 6 3931.15 4387.61 215.46 o
-4 2 6 10486.50 10312.80 264.43 o
-3 2 6 1338.87 1469.07 68.56 o
-2 2 6 4406.16 5024.20 88.14 o
-1 2 6 7571.68 9872.12 137.11 o
0 2 6 54993.20 47685.90 577.83 o
1 2 6 4570.12 5024.20 78.35 o
2 2 6 7543.59 8040.68 137.11 o
3 2 6 1096.10 1126.28 48.97 o
4 2 6 627.44 695.36 39.18 o
5 2 6 35308.50 32789.50 548.45 o
6 2 6 2577.79 2771.64 107.73 o
7 2 6 873.99 1038.14 97.94 o
8 2 6 713.03 665.98 78.35 o
9 2 6 2746.22 3045.86 166.49 o
-7 3 6 965.65 793.29 117.53 o
-6 3 6 753.75 695.36 107.73 o
-5 3 6 1142.40 1371.13 137.11 o
-4 3 6 3209.95 2957.72 156.70 o
-3 3 6 3712.45 3839.16 166.49 o
-2 3 6 1268.99 2086.07 68.56 o
-1 3 6 6023.19 6806.67 117.53 o
0 3 6 38272.20 35228.20 450.51 o
1 3 6 18474.10 17491.70 215.46 o
2 3 6 6062.88 6189.66 97.94 o
3 3 6 7476.53 8079.86 146.91 o
4 3 6 13454.20 12800.50 244.84 o
5 3 6 1716.61 1615.97 68.56 o
6 3 6 4510.70 3829.36 127.32 o
7 3 6 18.56 39.18 29.38 <
8 3 6 119.22 137.11 48.97 <
9 3 6 945.25 949.99 107.73 o
-6 4 6 181.28 244.84 107.73 <
-5 4 6 81.17 -29.38 58.76 <
-4 4 6 9049.26 10254.10 342.78 o
-3 4 6 15.44 949.99 88.14 o
-2 4 6 15275.30 17628.80 381.96 o
-1 4 6 403.55 577.83 39.18 o
0 4 6 975.14 959.79 48.97 o
1 4 6 3041.57 3202.56 78.35 o
2 4 6 15.00 39.18 9.79 o
3 4 6 15546.60 14671.10 264.43 o
4 4 6 2013.00 2301.54 88.14 o
5 4 6 641.07 724.74 58.76 o
6 4 6 12148.10 11938.60 235.05 o
7 4 6 1961.47 2154.63 97.94 o
8 4 6 3107.49 3006.69 146.91 o
9 4 6 209.66 284.02 58.76 o
-6 5 6 302.73 303.61 107.73 <
-5 5 6 786.58 548.45 146.91 o
-4 5 6 262.84 293.81 68.56 o
-3 5 6 1285.79 1214.43 97.94 o
-2 5 6 10775.90 10675.20 274.23 o
-1 5 6 299.76 156.70 39.18 o
0 5 6 3793.86 3506.17 127.32 o
1 5 6 1455.22 1400.51 68.56 o
2 5 6 33670.90 31202.90 587.63 o
3 5 6 4620.08 4779.36 117.53 o
4 5 6 1956.07 2105.66 78.35 o
5 5 6 1818.15 1919.58 97.94 o
6 5 6 1143.60 1253.60 88.14 o
7 5 6 7055.17 7227.80 274.23 o
8 5 6 1198.39 1165.46 127.32 o
9 5 6 2.73 -9.79 48.97 <
-5 6 6 1059.26 724.74 166.49 o
-4 6 6 601.29 822.68 88.14 o
-3 6 6 12.81 39.18 39.18 <
-2 6 6 4786.61 4769.56 176.29 o
-1 6 6 8353.22 8265.94 235.05 o
0 6 6 467.79 450.51 58.76 o
1 6 6 52.51 48.97 29.38 <
2 6 6 1093.88 1087.11 78.35 o
3 6 6 1328.63 1087.11 88.14 o
4 6 6 16380.50 15875.70 450.51 o
5 6 6 690.88 675.77 97.94 o
6 6 6 3172.65 3134.01 176.29 o
7 6 6 286.44 313.40 97.94 o
8 6 6 1702.28 2007.72 274.23 o
-4 7 6 19.09 -29.38 39.18 <
-3 7 6 8.63 78.35 39.18 <
-2 7 6 639.74 626.80 78.35 o
-1 7 6 1992.02 1988.13 117.53 o
0 7 6 13000.60 12261.80 313.40 o
1 7 6 3471.12 3251.53 137.11 o
2 7 6 3953.35 4221.11 156.70 o
3 7 6 86.01 97.94 39.18 <
4 7 6 839.80 1057.73 166.49 o
5 7 6 7001.69 6973.16 284.02 o
6 7 6 450.09 548.45 97.94 o
7 7 6 9.90 29.38 39.18 <
8 7 6 47.77 0.00 48.97 <
-2 8 6 1024.32 989.17 107.73 o
-1 8 6 1.33 -39.18 29.38 <
0 8 6 166.11 205.67 48.97 o
1 8 6 30.56 29.38 29.38 <
2 8 6 1537.37 1557.21 107.73 o
3 8 6 41.32 19.59 29.38 <
4 8 6 2960.48 2830.40 166.49 o
5 8 6 2268.46 2193.80 215.46 o
6 8 6 1405.12 1498.45 156.70 o
7 8 6 177.20 146.91 58.76 <
0 9 6 1761.32 1694.32 137.11 o
1 9 6 5160.98 4975.23 195.88 o
2 9 6 301.05 332.99 58.76 o
3 9 6 1775.65 1743.29 166.49 o
4 9 6 993.79 793.29 107.73 o
5 9 6 47.43 39.18 39.18 <
-4 -9 7 505.99 430.93 107.73 o
-3 -9 7 0.13 88.14 68.56 <
-2 -9 7 0.38 0.00 29.38 <
-1 -9 7 448.66 244.84 48.97 o
-6 -8 7 239.90 107.73 68.56 <
-5 -8 7 42.02 29.38 48.97 <
-4 -8 7 219.49 195.88 78.35 <
-3 -8 7 892.75 793.29 137.11 o
-2 -8 7 197.26 137.11 39.18 o
-1 -8 7 35.70 39.18 29.38 <
0 -8 7 749.78 754.12 78.35 o
1 -8 7 328.54 293.81 58.76 o
2 -8 7 37.31 -29.38 29.38 <
-7 -7 7 10.47 78.35 58.76 <
-6 -7 7 185.24 97.94 68.56 <
-5 -7 7 99.56 58.76 58.76 <
-4 -7 7 1148.62 1214.43 166.49 o
-3 -7 7 115.53 156.70 68.56 <
-2 -7 7 416.94 411.34 88.14 o
-1 -7 7 823.78 793.29 68.56 o
0 -7 7 421.58 362.37 48.97 o
1 -7 7 10267.60 10587.10 274.23 o
2 -7 7 1255.36 1214.43 97.94 o
3 -7 7 343.46 235.05 48.97 o
-7 -6 7 216.73 127.32 68.56 <
-6 -6 7 25.59 107.73 58.76 <
-5 -6 7 2664.79 2575.76 215.46 o
-4 -6 7 7.94 9.79 39.18 <
-3 -6 7 450.68 489.69 97.94 o
-2 -6 7 272.99 303.61 78.35 o
-1 -6 7 3266.78 3026.27 107.73 o
0 -6 7 997.78 1067.52 78.35 o
1 -6 7 20.10 19.59 29.38 <
2 -6 7 553.26 519.07 58.76 o
3 -6 7 1205.65 1234.01 97.94 o
4 -6 7 53.25 19.59 88.14 <
5 -6 7 1732.68 1469.07 244.84 o
-8 -5 7 501.81 548.45 88.14 o
-7 -5 7 332.52 313.40 68.56 o
-6 -5 7 1851.97 1527.83 117.53 o
-5 -5 7 156.22 146.91 58.76 <
-4 -5 7 316.49 332.99 78.35 o
-3 -5 7 3101.36 3114.42 146.91 o
-2 -5 7 268.32 254.64 48.97 o
-1 -5 7 5388.38 5298.43 117.53 o
0 -5 7 978.99 1145.87 58.76 o
1 -5 7 82.82 88.14 19.59 o
2 -5 7 711.65 812.88 58.76 o
3 -5 7 12697.40 12408.70 254.64 o
4 -5 7 257.60 401.54 78.35 o
5 -5 7 337.46 235.05 68.56 o
6 -5 7 2989.04 2928.34 215.46 o
-8 -4 7 12.55 39.18 48.97 <
-7 -4 7 1252.46 1077.31 127.32 o
-6 -4 7 176.28 117.53 48.97 <
-5 -4 7 26.09 107.73 39.18 <
-4 -4 7 0.44 19.59 39.18 <
-3 -4 7 194.26 264.43 48.97 o
-2 -4 7 192.16 117.53 29.38 o
-1 -4 7 24.28 39.18 9.79 o
0 -4 7 2737.48 2673.70 68.56 o
1 -4 7 4077.70 4044.83 107.73 o
2 -4 7 381.55 509.28 39.18 o
3 -4 7 900.35 1096.90 68.56 o
4 -4 7 2823.48 3192.77 176.29 o
5 -4 7 4852.58 4622.66 235.05 o
6 -4 7 329.42 401.54 78.35 o
-8 -3 7 912.76 1018.55 127.32 o
-7 -3 7 307.99 284.02 68.56 o
-6 -3 7 476.08 607.21 97.94 o
-5 -3 7 1801.10 1518.03 117.53 o
-4 -3 7 670.06 626.80 78.35 o
-3 -3 7 78.13 58.76 29.38 <
-1 -3 7 3359.76 3692.25 78.35 o
0 -3 7 3014.15 3094.83 58.76 o
1 -3 7 4329.83 4309.26 78.35 o
2 -3 7 6741.71 6258.22 127.32 o
3 -3 7 3605.77 4113.38 78.35 o
4 -3 7 159.58 137.11 29.38 o
5 -3 7 1283.42 1243.81 88.14 o
6 -3 7 272.92 264.43 48.97 o
7 -3 7 7.17 -48.97 29.38 <
-8 -2 7 892.55 1165.46 195.88 o
-7 -2 7 53.65 68.56 68.56 <
-6 -2 7 762.46 675.77 97.94 o
-5 -2 7 65.15 97.94 48.97 <
-4 -2 7 1824.63 1518.03 88.14 o
-3 -2 7 2147.64 2027.31 88.14 o
-2 -2 7 83.18 107.73 19.59 o
-1 -2 7 3355.61 3466.99 88.14 o
0 -2 7 1199.22 1390.71 48.97 o
1 -2 7 3570.41 3780.39 58.76 o
2 -2 7 4558.09 5024.20 88.14 o
3 -2 7 5498.96 5406.16 107.73 o
4 -2 7 332.33 450.51 39.18 o
5 -2 7 1566.35 1762.88 78.35 o
6 -2 7 10707.20 9930.88 244.84 o
7 -2 7 536.07 577.83 68.56 o
-8 -1 7 74.77 68.56 58.76 <
-7 -1 7 540.15 705.15 107.73 o
-6 -1 7 4158.28 4211.32 205.67 o
-5 -1 7 5001.03 5063.38 176.29 o
-4 -1 7 199.49 195.88 39.18 o
-3 -1 7 1707.75 1527.83 68.56 o
-2 -1 7 4790.28 5366.98 137.11 o
-1 -1 7 2.06 39.18 9.79 o
0 -1 7 1812.42 2037.10 78.35 o
1 -1 7 389.05 411.34 29.38 o
2 -1 7 2630.61 2536.59 48.97 o
3 -1 7 492.36 568.04 39.18 o
4 -1 7 9944.63 9813.35 186.08 o
5 -1 7 5224.39 5318.02 137.11 o
6 -1 7 3.20 88.14 39.18 <
7 -1 7 3.90 -19.59 29.38 <
8 -1 7 429.97 381.96 68.56 o
-8 0 7 0.25 -137.11 39.18 <
-7 0 7 760.14 577.83 97.94 o
-6 0 7 13.38 -9.79 39.18 <
-5 0 7 98.72 176.29 48.97 o
-4 0 7 160.82 127.32 29.38 o
-3 0 7 8122.01 8442.23 215.46 o
-2 0 7 2318.68 2448.44 78.35 o
-1 0 7 966.98 1057.73 48.97 o
0 0 7 59.96 107.73 9.79 o
1 0 7 5746.57 6522.65 107.73 o
2 0 7 4528.94 4612.86 88.14 o
3 0 7 49.42 39.18 9.79 o
4 0 7 13349.40 13104.10 225.26 o
5 0 7 274.44 313.40 39.18 o
6 0 7 14.56 48.97 29.38 <
7 0 7 1201.89 1224.22 107.73 o
8 0 7 2516.30 2340.71 137.11 o
-8 1 7 11.81 48.97 48.97 <
-7 1 7 5747.91 5778.32 274.23 o
-6 1 7 386.74 372.16 78.35 o
-5 1 7 2840.75 2889.16 166.49 o
-4 1 7 2806.29 3192.77 156.70 o
-3 1 7 1577.84 1527.83 58.76 o
-2 1 7 4010.54 4250.50 88.14 o
-1 1 7 799.71 744.33 29.38 o
0 1 7 4070.88 4691.21 88.14 o
1 1 7 178.24 225.26 19.59 o
2 1 7 1172.55 1282.98 39.18 o
3 1 7 1515.09 1782.47 48.97 o
4 1 7 0.48 19.59 9.79 <
5 1 7 8.10 39.18 19.59 <
6 1 7 1531.16 1723.70 78.35 o
7 1 7 682.66 705.15 78.35 o
8 1 7 283.47 274.23 58.76 o
-7 2 7 185.04 146.91 58.76 <
-6 2 7 1318.83 1253.60 146.91 o
-5 2 7 645.83 675.77 97.94 o
-4 2 7 332.63 479.89 78.35 o
-3 2 7 4750.28 4583.48 127.32 o
-2 2 7 10283.60 10410.80 156.70 o
-1 2 7 695.68 901.03 29.38 o
0 2 7 678.85 1028.35 39.18 o
1 2 7 4528.43 4524.72 97.94 o
2 2 7 59.08 78.35 19.59 o
3 2 7 1906.80 2076.28 58.76 o
4 2 7 40.29 39.18 19.59 <
5 2 7 3310.28 3427.82 97.94 o
6 2 7 2535.58 2389.68 88.14 o
7 2 7 371.32 352.58 58.76 o
8 2 7 988.91 920.61 97.94 o
9 2 7 113.97 88.14 48.97 <
-7 3 7 635.88 470.10 88.14 o
-6 3 7 3357.13 3320.09 195.88 o
-5 3 7 3118.66 2634.52 166.49 o
-4 3 7 4424.91 4701.01 205.67 o
-3 3 7 8386.49 8971.09 195.88 o
-2 3 7 1206.77 1664.94 58.76 o
-1 3 7 138.27 137.11 19.59 o
0 3 7 652.21 714.95 39.18 o
1 3 7 100.63 146.91 9.79 o
2 3 7 2830.57 2938.13 58.76 o
3 3 7 50.58 58.76 9.79 o
4 3 7 14521.90 13828.80 254.64 o
5 3 7 817.93 969.58 58.76 o
6 3 7 488.15 695.36 58.76 o
7 3 7 2216.44 1880.40 97.94 o
8 3 7 8.51 -19.59 29.38 <
9 3 7 1092.24 1096.90 97.94 o
-6 4 7 2204.89 2536.59 264.43 o
-5 4 7 6.00 -29.38 68.56 <
-4 4 7 6760.05 6003.58 372.16 o
-3 4 7 318.46 352.58 68.56 o
-2 4 7 24.86 48.97 29.38 <
-1 4 7 11985.30 11723.10 215.46 o
0 4 7 13889.80 13887.60 235.05 o
1 4 7 1167.66 1165.46 48.97 o
2 4 7 564.29 705.15 39.18 o
3 4 7 14332.30 14318.50 264.43 o
4 4 7 203.20 254.64 39.18 o
5 4 7 10.57 9.79 19.59 <
6 4 7 711.71 842.26 68.56 o
7 4 7 243.39 235.05 39.18 o
8 4 7 212.09 293.81 48.97 o
9 4 7 201.98 166.49 39.18 o
-5 5 7 42.56 -9.79 58.76 <
-4 5 7 2923.02 2908.75 264.43 o
-3 5 7 15.94 97.94 48.97 <
-2 5 7 5139.76 4916.47 176.29 o
-1 5 7 1463.90 1576.80 97.94 o
0 5 7 96.81 137.11 39.18 o
1 5 7 1861.48 2056.69 78.35 o
2 5 7 4419.54 4544.31 137.11 o
3 5 7 526.59 528.86 58.76 o
4 5 7 362.14 293.81 39.18 o
5 5 7 6.37 48.97 29.38 <
6 5 7 553.26 597.42 68.56 o
7 5 7 443.87 460.31 78.35 o
8 5 7 0.16 19.59 39.18 <
-4 6 7 486.13 323.19 117.53 <
-3 6 7 417.03 342.78 58.76 o
-2 6 7 6046.92 5435.54 195.88 o
-1 6 7 1254.86 1606.18 107.73 o
0 6 7 3806.91 3907.71 146.91 o
1 6 7 718.02 822.68 78.35 o
2 6 7 1751.87 1841.23 88.14 o
3 6 7 771.66 949.99 146.91 o
4 6 7 287.54 401.54 68.56 o
5 6 7 345.61 205.67 58.76 o
6 6 7 27.54 88.14 48.97 <
7 6 7 1360.34 1371.13 215.46 o
8 6 7 432.83 411.34 127.32 o
-3 7 7 1978.46 1851.02 137.11 o
-2 7 7 276.95 215.46 48.97 o
-1 7 7 773.63 597.42 68.56 o
0 7 7 1142.47 1155.66 97.94 o
1 7 7 3765.98 3995.86 156.70 o
2 7 7 416.83 528.86 68.56 o
3 7 7 4765.89 4730.39 215.46 o
4 7 7 2.57 19.59 58.76 <
5 7 7 25.31 19.59 39.18 <
6 7 7 2197.44 2027.31 166.49 o
7 7 7 0.51 39.18 48.97 <
-2 8 7 180.44 107.73 48.97 <
-1 8 7 1266.86 1331.95 117.53 o
0 8 7 111.95 78.35 39.18 <
1 8 7 2414.88 2497.41 127.32 o
2 8 7 1362.01 1302.57 107.73 o
3 8 7 434.60 430.93 78.35 o
4 8 7 5.36 39.18 39.18 <
5 8 7 140.27 176.29 88.14 <
6 8 7 52.60 117.53 58.76 <
0 9 7 24.47 78.35 39.18 <
1 9 7 1278.71 1214.43 117.53 o
2 9 7 225.12 166.49 48.97 o
3 9 7 313.15 137.11 58.76 <
4 9 7 547.68 479.89 88.14 o
5 9 7 688.32 695.36 107.73 o
-5 -8 8 25.60 137.11 68.56 <
-4 -8 8 22.20 19.59 48.97 <
-3 -8 8 586.89 499.48 117.53 o
-2 -8 8 2013.11 1713.91 117.53 o
-1 -8 8 2845.82 2781.43 137.11 o
0 -8 8 3731.30 3799.98 166.49 o
1 -8 8 200.05 137.11 39.18 o
-6 -7 8 1560.56 1273.19 186.08 o
-5 -7 8 1949.57 2125.25 205.67 o
-4 -7 8 675.72 519.07 117.53 o
-3 -7 8 7478.06 7374.71 391.75 o
-2 -7 8 3447.34 3633.49 254.64 o
-1 -7 8 1178.85 1292.78 97.94 o
0 -7 8 284.98 372.16 48.97 o
1 -7 8 869.65 783.50 78.35 o
2 -7 8 905.97 763.91 78.35 o
3 -7 8 170.92 176.29 58.76 <
-6 -6 8 16.51 39.18 58.76 <
-5 -6 8 2385.33 2477.82 215.46 o
-4 -6 8 1184.12 1253.60 176.29 o
-3 -6 8 4165.06 4240.70 274.23 o
-2 -6 8 2001.75 1753.08 166.49 o
-1 -6 8 4037.62 3937.09 146.91 o
0 -6 8 6385.23 6268.01 176.29 o
1 -6 8 4623.52 4534.51 156.70 o
2 -6 8 1526.03 1380.92 97.94 o
3 -6 8 2171.20 2242.77 137.11 o
4 -6 8 141.85 254.64 97.94 <
-8 -5 8 2.92 9.79 48.97 <
-7 -5 8 585.83 665.98 88.14 o
-6 -5 8 331.43 372.16 68.56 o
-5 -5 8 17305.10 17393.70 665.98 o
-4 -5 8 17.35 88.14 48.97 <
-3 -5 8 5783.22 5660.80 205.67 o
-2 -5 8 6.50 78.35 29.38 <
-1 -5 8 8189.64 8197.38 186.08 o
0 -5 8 743.75 832.47 48.97 o
1 -5 8 1369.03 1469.07 68.56 o
2 -5 8 435.62 470.10 48.97 o
3 -5 8 7158.21 6865.43 205.67 o
4 -5 8 5561.71 5925.23 264.43 o
5 -5 8 472.42 284.02 117.53 <
-8 -4 8 1108.07 1038.14 127.32 o
-7 -4 8 1508.81 1390.71 137.11 o
-6 -4 8 1336.40 1282.98 117.53 o
-5 -4 8 141.69 146.91 39.18 o
-4 -4 8 3001.74 3202.56 215.46 o
-3 -4 8 1492.78 1567.00 97.94 o
-2 -4 8 1643.42 1762.88 97.94 o
-1 -4 8 28990.90 28117.90 509.28 o
0 -4 8 40.88 48.97 19.59 <
1 -4 8 31664.10 28930.80 450.51 o
2 -4 8 775.94 803.09 58.76 o
3 -4 8 405.60 460.31 58.76 o
4 -4 8 19.21 97.94 48.97 <
5 -4 8 26.37 235.05 68.56 o
6 -4 8 4247.46 4975.23 254.64 o
-8 -3 8 285.69 342.78 88.14 o
-7 -3 8 5556.30 5366.98 254.64 o
-6 -3 8 4954.27 4652.04 215.46 o
-5 -3 8 1565.70 1508.24 137.11 o
-4 -3 8 6344.25 5817.50 215.46 o
-3 -3 8 45897.10 42681.20 910.82 o
-2 -3 8 22410.80 22437.50 509.28 o
0 -3 8 1985.07 2046.90 48.97 o
1 -3 8 131.62 127.32 19.59 o
2 -3 8 5756.08 5827.29 107.73 o
3 -3 8 16898.50 16718.00 274.23 o
4 -3 8 616.72 705.15 78.35 o
5 -3 8 5729.06 5915.44 195.88 o
6 -3 8 783.14 910.82 88.14 o
7 -3 8 649.00 479.89 68.56 o
-8 -2 8 2220.60 2301.54 205.67 o
-7 -2 8 416.07 264.43 68.56 o
-6 -2 8 6358.23 6268.01 274.23 o
-5 -2 8 426.07 460.31 78.35 o
-4 -2 8 224.36 293.81 58.76 o
-3 -2 8 5858.82 5768.53 205.67 o
-2 -2 8 14174.30 14201.00 352.58 o
-1 -2 8 9961.29 10254.10 205.67 o
0 -2 8 23027.00 21419.00 342.78 o
1 -2 8 15178.70 14837.60 195.88 o
2 -2 8 17088.20 17824.70 225.26 o
3 -2 8 16731.50 16786.50 244.84 o
4 -2 8 285.02 372.16 39.18 o
5 -2 8 2294.01 2517.00 88.14 o
6 -2 8 90.71 0.00 29.38 <
7 -2 8 3913.88 3721.63 146.91 o
-8 -1 8 400.01 391.75 88.14 o
-7 -1 8 10.63 9.79 39.18 <
-6 -1 8 7616.35 7962.33 244.84 o
-5 -1 8 2417.25 2428.85 156.70 o
-4 -1 8 31362.00 28460.70 558.24 o
-3 -1 8 0.24 39.18 19.59 <
-2 -1 8 21599.70 21272.10 401.54 o
-1 -1 8 10000.10 9881.91 195.88 o
0 -1 8 19910.20 17491.70 274.23 o
1 -1 8 22.31 0.00 9.79 <
2 -1 8 21486.00 22212.30 264.43 o
3 -1 8 12760.70 14553.50 205.67 o
4 -1 8 4577.42 4945.85 117.53 o
5 -1 8 10944.50 10430.40 215.46 o
6 -1 8 78.55 29.38 29.38 <
7 -1 8 157.56 97.94 39.18 <
8 -1 8 625.39 509.28 68.56 o
-8 0 8 2361.36 2526.79 195.88 o
-7 0 8 73.29 88.14 48.97 <
-6 0 8 6095.09 6199.45 215.46 o
-5 0 8 5020.40 5699.97 195.88 o
-4 0 8 601.46 646.39 88.14 o
-3 0 8 4451.99 4113.38 117.53 o
-2 0 8 9313.35 8696.87 205.67 o
-1 0 8 2180.89 2184.01 78.35 o
0 0 8 113099.00 79358.90 1126.28 o
1 0 8 2719.15 3173.18 58.76 o
2 0 8 10083.80 10841.70 176.29 o
3 0 8 7885.21 7864.40 146.91 o
4 0 8 13219.10 13192.20 225.26 o
5 0 8 4083.96 4309.26 117.53 o
6 0 8 77.03 19.59 29.38 <
7 0 8 787.62 852.06 78.35 o
8 0 8 170.60 146.91 39.18 o
-7 1 8 687.21 646.39 97.94 o
-6 1 8 278.23 235.05 68.56 o
-5 1 8 5331.14 5484.51 195.88 o
-4 1 8 25348.50 23475.70 489.69 o
-3 1 8 9043.26 9029.85 195.88 o
-2 1 8 27844.80 26541.10 381.96 o
-1 1 8 276.13 254.64 29.38 o
0 1 8 7388.03 7835.01 117.53 o
1 1 8 1845.45 2095.87 48.97 o
2 1 8 3740.35 3388.64 78.35 o
3 1 8 27.78 19.59 9.79 <
4 1 8 18436.10 17540.60 284.02 o
5 1 8 770.39 803.09 58.76 o
6 1 8 13840.40 13241.20 284.02 o
7 1 8 779.20 920.61 78.35 o
8 1 8 197.41 186.08 39.18 o
-7 2 8 4605.60 4632.45 244.84 o
-6 2 8 924.39 705.15 107.73 o
-5 2 8 1262.50 1498.45 117.53 o
-4 2 8 1449.28 1606.18 107.73 o
-3 2 8 2171.06 2311.33 88.14 o
-2 2 8 15024.80 15425.20 225.26 o
-1 2 8 19779.30 21761.80 293.81 o
0 2 8 1802.07 3036.07 68.56 o
1 2 8 12683.20 12438.10 176.29 o
2 2 8 104556.00 78017.10 1028.35 o
3 2 8 14344.00 15004.10 284.02 o
4 2 8 457.76 568.04 39.18 o
5 2 8 933.40 793.29 58.76 o
6 2 8 675.55 587.63 58.76 o
7 2 8 8186.97 7746.87 205.67 o
8 2 8 2612.91 2448.44 117.53 o
-7 3 8 55.21 -29.38 48.97 <
-6 3 8 1528.24 1312.36 146.91 o
-5 3 8 5810.39 5288.63 195.88 o
-4 3 8 15.16 19.59 29.38 <
-3 3 8 19016.10 18549.40 391.75 o
-2 3 8 2580.61 4319.05 107.73 o
-1 3 8 30868.60 29635.90 391.75 o
0 3 8 11489.20 11801.50 176.29 o
1 3 8 1183.74 1087.11 39.18 o
2 3 8 5323.71 5484.51 97.94 o
3 3 8 3158.74 3702.04 88.14 o
4 3 8 12913.30 12712.30 244.84 o
5 3 8 139.47 156.70 29.38 o
6 3 8 4201.08 4358.23 137.11 o
7 3 8 1689.96 1909.78 97.94 o
8 3 8 417.91 548.45 58.76 o
-6 4 8 1424.40 1253.60 215.46 o
-5 4 8 3206.34 2791.22 264.43 o
-4 4 8 8.92 127.32 68.56 <
-3 4 8 262.67 401.54 107.73 o
-2 4 8 189.19 215.46 48.97 o
-1 4 8 12193.80 12114.90 244.84 o
0 4 8 4531.39 4769.56 107.73 o
1 4 8 24567.10 23495.20 352.58 o
2 4 8 229.92 274.23 29.38 o
3 4 8 10569.40 10880.90 215.46 o
4 4 8 1.45 39.18 19.59 <
5 4 8 8032.80 7844.81 225.26 o
6 4 8 404.15 499.48 78.35 o
7 4 8 112.28 137.11 58.76 <
8 4 8 3249.53 3280.91 156.70 o
-5 5 8 1811.44 1567.00 235.05 o
-4 5 8 2242.79 2281.95 235.05 o
-3 5 8 5590.72 5415.95 352.58 o
-2 5 8 526.40 607.21 68.56 o
-1 5 8 9906.11 9225.73 244.84 o
0 5 8 9178.80 9754.59 244.84 o
1 5 8 444.93 470.10 48.97 o
2 5 8 274.28 274.23 39.18 o
3 5 8 83.95 88.14 19.59 o
4 5 8 4441.46 4270.08 127.32 o
5 5 8 17504.70 17550.40 391.75 o
6 5 8 79.74 117.53 48.97 <
7 5 8 11.48 48.97 39.18 <
8 5 8 8.71 107.73 48.97 <
-4 6 8 3840.72 4632.45 352.58 o
-3 6 8 197.97 244.84 97.94 <
-2 6 8 21.42 -29.38 29.38 <
-1 6 8 609.17 548.45 68.56 o
0 6 8 590.11 450.51 58.76 o
1 6 8 13890.40 12682.90 303.61 o
2 6 8 4138.27 4074.21 146.91 o
3 6 8 6445.65 6512.86 342.78 o
4 6 8 138.43 195.88 58.76 o
5 6 8 41.58 29.38 39.18 <
6 6 8 4704.57 4798.95 235.05 o
7 6 8 19.08 107.73 48.97 <
8 6 8 1420.68 1498.45 244.84 o
-3 7 8 0.80 137.11 58.76 <
-2 7 8 8373.36 8001.51 264.43 o
-1 7 8 778.65 656.18 78.35 o
0 7 8 1469.67 1762.88 127.32 o
1 7 8 711.06 871.65 78.35 o
2 7 8 3809.58 3907.71 156.70 o
3 7 8 3966.39 4230.91 205.67 o
4 7 8 0.39 58.76 68.56 <
5 7 8 25.10 48.97 39.18 <
6 7 8 104.99 176.29 58.76 <
7 7 8 2755.77 3006.69 195.88 o
-2 8 8 333.14 313.40 68.56 o
-1 8 8 821.47 617.01 78.35 o
0 8 8 535.36 558.24 78.35 o
1 8 8 93.35 29.38 39.18 <
2 8 8 2634.09 2722.67 137.11 o
3 8 8 65.92 78.35 48.97 <
4 8 8 4228.07 3937.09 205.67 o
5 8 8 22.12 -19.59 58.76 <
6 8 8 1136.15 1096.90 137.11 o
1 9 8 283.32 313.40 58.76 o
2 9 8 1642.93 1704.12 166.49 o
3 9 8 505.15 479.89 88.14 o
4 9 8 190.99 195.88 68.56 <
-5 -8 9 915.44 959.79 166.49 o
-4 -8 9 2101.78 2517.00 235.05 o
-3 -8 9 65.71 0.00 58.76 <
-2 -8 9 37.65 58.76 29.38 <
-1 -8 9 4460.00 4319.05 176.29 o
0 -8 9 69.16 48.97 39.18 <
1 -8 9 82.35 29.38 39.18 <
-6 -7 9 2985.61 2849.99 254.64 o
-5 -7 9 814.41 852.06 156.70 o
-4 -7 9 28.99 68.56 58.76 <
-3 -7 9 4814.59 4701.01 303.61 o
-2 -7 9 420.64 244.84 78.35 o
-1 -7 9 5.46 -19.59 19.59 <
0 -7 9 250.55 264.43 48.97 o
1 -7 9 306.03 352.58 58.76 o
2 -7 9 51.88 0.00 29.38 <
3 -7 9 2247.76 2732.46 342.78 o
-6 -6 9 264.85 254.64 88.14 <
-5 -6 9 581.57 293.81 88.14 o
-4 -6 9 795.25 763.91 137.11 o
-3 -6 9 435.15 509.28 117.53 o
-2 -6 9 1604.54 1224.22 156.70 o
-1 -6 9 141.56 137.11 39.18 o
0 -6 9 2636.14 2517.00 117.53 o
1 -6 9 3032.79 3045.86 127.32 o
2 -6 9 31.49 0.00 29.38 <
3 -6 9 16.08 9.79 39.18 <
4 -6 9 322.20 460.31 146.91 o
-7 -5 9 2318.89 1968.55 137.11 o
-6 -5 9 0.21 39.18 48.97 <
-5 -5 9 172.49 225.26 68.56 o
-4 -5 9 8558.55 8785.01 401.54 o
-3 -5 9 31.48 19.59 19.59 <
-2 -5 9 168.00 146.91 39.18 o
-1 -5 9 6555.26 6747.91 166.49 o
0 -5 9 186.01 166.49 29.38 o
1 -5 9 5531.15 5435.54 137.11 o
2 -5 9 1285.01 1155.66 68.56 o
3 -5 9 142.85 107.73 29.38 o
4 -5 9 720.76 793.29 107.73 o
5 -5 9 404.79 332.99 78.35 o
-8 -4 9 853.41 812.88 117.53 o
-7 -4 9 396.09 450.51 78.35 o
-6 -4 9 2946.49 2556.17 156.70 o
-5 -4 9 6024.69 5915.44 332.99 o
-4 -4 9 953.06 1018.55 146.91 o
-2 -4 9 2610.69 2595.35 117.53 o
-1 -4 9 4.79 0.00 19.59 <
0 -4 9 61.19 68.56 19.59 o
1 -4 9 23.38 39.18 19.59 <
2 -4 9 309.23 332.99 39.18 o
3 -4 9 27.17 48.97 29.38 <
4 -4 9 1735.72 2135.04 166.49 o
5 -4 9 436.66 372.16 78.35 o
6 -4 9 53.59 176.29 58.76 <
-8 -3 9 1498.35 1331.95 156.70 o
-7 -3 9 4326.35 4319.05 225.26 o
-6 -3 9 496.14 372.16 68.56 o
-5 -3 9 1682.08 1743.29 137.11 o
-4 -3 9 1813.17 1674.73 166.49 o
-3 -3 9 16.47 39.18 29.38 <
-2 -3 9 1380.22 1165.46 88.14 o
-1 -3 9 1576.27 1684.53 88.14 o
0 -3 9 1304.56 1537.62 48.97 o
1 -3 9 2029.89 2095.87 58.76 o
2 -3 9 34.75 78.35 19.59 o
3 -3 9 2304.81 2595.35 88.14 o
4 -3 9 1458.77 1449.48 97.94 o
5 -3 9 75.59 127.32 39.18 o
6 -3 9 819.52 714.95 78.35 o
7 -3 9 486.34 254.64 58.76 o
-8 -2 9 300.06 313.40 78.35 o
-7 -2 9 9.22 78.35 48.97 <
-6 -2 9 1742.90 1606.18 156.70 o
-5 -2 9 1.66 -19.59 29.38 <
-4 -2 9 4749.86 4240.70 186.08 o
-3 -2 9 457.95 411.34 58.76 o
-2 -2 9 768.45 695.36 68.56 o
-1 -2 9 10708.00 10675.20 284.02 o
0 -2 9 14.22 39.18 19.59 <
1 -2 9 3523.40 3760.81 68.56 o
2 -2 9 2361.29 2389.68 58.76 o
3 -2 9 4260.84 4818.53 127.32 o
4 -2 9 6208.95 6356.16 166.49 o
5 -2 9 2252.75 2046.90 88.14 o
6 -2 9 1423.20 1400.51 97.94 o
7 -2 9 3060.82 2938.13 146.91 o
-8 -1 9 3626.20 3604.11 225.26 o
-7 -1 9 1219.72 1214.43 146.91 o
-6 -1 9 404.68 519.07 88.14 o
-5 -1 9 4435.81 4044.83 195.88 o
-4 -1 9 1238.65 1234.01 117.53 o
-3 -1 9 89.55 19.59 19.59 <
-2 -1 9 12176.00 12467.50 332.99 o
-1 -1 9 49.86 58.76 19.59 o
0 -1 9 2036.38 2135.04 78.35 o
1 -1 9 535.71 558.24 29.38 o
2 -1 9 237.51 293.81 19.59 o
3 -1 9 8172.46 8530.37 146.91 o
4 -1 9 820.40 1018.55 58.76 o
5 -1 9 296.99 352.58 39.18 o
6 -1 9 28.10 29.38 29.38 <
7 -1 9 128.91 97.94 39.18 <
8 -1 9 318.32 244.84 48.97 o
-7 0 9 526.82 617.01 78.35 o
-6 0 9 2040.67 2017.52 127.32 o
-5 0 9 335.98 313.40 48.97 o
-4 0 9 2635.06 3182.97 166.49 o
-3 0 9 2715.90 2859.78 97.94 o
-2 0 9 91.41 97.94 29.38 o
-1 0 9 3372.69 3329.88 97.94 o
0 0 9 107.03 146.91 19.59 o
1 0 9 432.09 568.04 29.38 o
2 0 9 8960.48 9421.60 156.70 o
3 0 9 538.20 577.83 48.97 o
4 0 9 25.13 48.97 19.59 <
5 0 9 3218.41 3173.18 97.94 o
6 0 9 9362.51 9646.86 235.05 o
7 0 9 531.36 568.04 58.76 o
8 0 9 76.05 39.18 29.38 <
-7 1 9 28.07 48.97 39.18 <
-6 1 9 2867.46 3369.06 156.70 o
-5 1 9 1575.63 1518.03 117.53 o
-4 1 9 733.39 861.85 78.35 o
-3 1 9 81.98 127.32 29.38 o
-2 1 9 2441.02 2428.85 97.94 o
-1 1 9 1134.89 1067.52 68.56 o
0 1 9 1729.60 2017.52 48.97 o
1 1 9 5.31 58.76 9.79 o
2 1 9 4186.06 4132.97 78.35 o
3 1 9 78.54 68.56 19.59 o
4 1 9 8632.75 8491.20 166.49 o
5 1 9 3841.53 3741.22 107.73 o
6 1 9 3027.48 3006.69 117.53 o
7 1 9 765.46 812.88 78.35 o
8 1 9 2006.32 1802.05 117.53 o
-7 2 9 85.40 88.14 48.97 <
-6 2 9 1182.12 1410.30 117.53 o
-5 2 9 2255.93 2340.71 127.32 o
-4 2 9 144.75 68.56 29.38 <
-3 2 9 924.39 920.61 68.56 o
-2 2 9 6820.59 6885.02 186.08 o
-1 2 9 338.05 460.31 39.18 o
0 2 9 8212.30 8922.12 137.11 o
1 2 9 1005.80 1057.73 39.18 o
2 2 9 1451.64 1635.56 58.76 o
3 2 9 16879.70 17325.20 284.02 o
4 2 9 5378.78 5651.00 146.91 o
5 2 9 552.34 656.18 48.97 o
6 2 9 4241.48 4505.13 137.11 o
7 2 9 1162.37 1175.25 88.14 o
8 2 9 1574.00 1459.27 107.73 o
-6 3 9 102.46 9.79 39.18 <
-5 3 9 533.56 646.39 78.35 o
-4 3 9 27.08 19.59 29.38 <
-3 3 9 45.28 48.97 29.38 <
-2 3 9 5534.51 5905.64 176.29 o
-1 3 9 1942.42 2859.78 78.35 o
0 3 9 1908.33 2007.72 58.76 o
1 3 9 1219.66 1165.46 48.97 o
2 3 9 14819.90 15405.60 225.26 o
3 3 9 105.17 166.49 29.38 o
4 3 9 935.85 989.17 68.56 o
5 3 9 3555.41 3604.11 117.53 o
6 3 9 4257.71 4191.73 137.11 o
7 3 9 613.60 656.18 68.56 o
8 3 9 1147.42 1038.14 88.14 o
-6 4 9 170.01 225.26 97.94 <
-5 4 9 182.87 117.53 78.35 <
-4 4 9 5479.02 5347.40 352.58 o
-3 4 9 2659.57 2301.54 215.46 o
-2 4 9 5063.81 5425.75 215.46 o
-1 4 9 3884.17 3643.28 127.32 o
0 4 9 198.60 156.70 29.38 o
1 4 9 7650.72 7472.65 195.88 o
2 4 9 7592.40 8324.70 176.29 o
3 4 9 1.51 -9.79 19.59 <
4 4 9 212.32 225.26 39.18 o
5 4 9 13897.60 13515.40 323.19 o
6 4 9 1934.29 1919.58 127.32 o
7 4 9 726.97 656.18 88.14 o
8 4 9 5703.16 5523.69 254.64 o
-5 5 9 11.72 58.76 68.56 <
-4 5 9 717.53 842.26 176.29 o
-3 5 9 52.51 107.73 68.56 <
-2 5 9 893.08 1067.52 166.49 o
-1 5 9 1481.87 1567.00 107.73 o
0 5 9 2589.12 2223.19 107.73 o
1 5 9 158.81 39.18 19.59 <
2 5 9 157.98 205.67 29.38 o
3 5 9 6468.26 6581.41 156.70 o
4 5 9 10439.30 10224.70 225.26 o
5 5 9 442.22 617.01 68.56 o
6 5 9 3224.77 3163.39 176.29 o
7 5 9 4257.96 4338.64 215.46 o
8 5 9 226.71 225.26 58.76 o
-4 6 9 817.04 1038.14 186.08 o
-3 6 9 516.01 617.01 146.91 o
-2 6 9 821.17 626.80 137.11 o
-1 6 9 6.37 68.56 29.38 <
0 6 9 1112.35 1087.11 88.14 o
1 6 9 8956.85 8873.15 244.84 o
2 6 9 5199.54 4926.27 205.67 o
3 6 9 893.63 842.26 137.11 o
4 6 9 5136.63 5063.38 215.46 o
5 6 9 1754.15 1674.73 137.11 o
6 6 9 2.14 88.14 48.97 <
7 6 9 1696.34 1753.08 176.29 o
-3 7 9 201.97 225.26 88.14 <
-2 7 9 1355.43 1312.36 146.91 o
-1 7 9 5238.61 5073.17 195.88 o
0 7 9 187.37 127.32 39.18 o
1 7 9 1144.61 1400.51 107.73 o
2 7 9 2161.12 2086.07 137.11 o
3 7 9 36.25 29.38 39.18 <
4 7 9 404.95 450.51 117.53 o
5 7 9 5331.43 5386.57 244.84 o
6 7 9 752.06 548.45 88.14 o
7 7 9 127.41 78.35 58.76 <
-1 8 9 163.99 117.53 48.97 <
0 8 9 71.58 -19.59 39.18 <
1 8 9 1582.97 1733.50 127.32 o
2 8 9 1.27 0.00 39.18 <
3 8 9 3092.67 2898.96 176.29 o
4 8 9 3384.57 3075.24 186.08 o
5 8 9 220.93 205.67 88.14 <
6 8 9 1151.07 1194.84 146.91 o
2 9 9 29.82 0.00 39.18 <
3 9 9 2140.57 1870.61 166.49 o
-4 -8 10 1171.29 989.17 176.29 o
-3 -8 10 25.51 176.29 78.35 <
-2 -8 10 2589.79 2693.29 146.91 o
-1 -8 10 817.25 675.77 78.35 o
0 -8 10 2357.65 2252.57 127.32 o
-5 -7 10 712.02 714.95 146.91 o
-4 -7 10 2198.45 2644.32 235.05 o
-3 -7 10 987.17 861.85 146.91 o
-2 -7 10 36.03 -9.79 29.38 <
-1 -7 10 593.28 548.45 68.56 o
0 -7 10 17.33 19.59 29.38 <
1 -7 10 586.52 548.45 68.56 o
2 -7 10 3047.92 2742.25 137.11 o
-5 -6 10 38.75 19.59 48.97 <
-4 -6 10 910.26 871.65 146.91 o
-3 -6 10 298.56 323.19 88.14 o
-2 -6 10 4368.50 4084.00 274.23 o
-1 -6 10 6483.11 6708.73 215.46 o
0 -6 10 3870.58 4015.44 156.70 o
1 -6 10 2105.33 2330.92 117.53 o
2 -6 10 2836.03 3153.59 127.32 o
3 -6 10 11.79 19.59 39.18 <
4 -6 10 117.53 372.16 137.11 <
-7 -5 10 673.66 607.21 117.53 o
-6 -5 10 21.28 -9.79 48.97 <
-5 -5 10 2746.31 2761.84 215.46 o
-4 -5 10 38.67 68.56 39.18 <
-3 -5 10 17055.20 18138.10 489.69 o
-2 -5 10 2.81 -19.59 19.59 <
-1 -5 10 486.77 548.45 48.97 o
0 -5 10 304.57 244.84 29.38 o
1 -5 10 511.42 352.58 39.18 o
2 -5 10 4756.20 4534.51 127.32 o
3 -5 10 1141.59 1126.28 88.14 o
4 -5 10 1186.10 1429.89 156.70 o
5 -5 10 3007.88 2761.84 205.67 o
-7 -4 10 681.33 519.07 88.14 o
-6 -4 10 3719.72 3280.91 264.43 o
-5 -4 10 624.04 1067.52 156.70 o
-4 -4 10 435.63 323.19 88.14 o
-3 -4 10 3436.54 3623.69 156.70 o
-2 -4 10 588.91 675.77 107.73 o
-1 -4 10 10843.40 10841.70 244.84 o
0 -4 10 41.21 9.79 19.59 <
1 -4 10 11610.50 11821.10 244.84 o
2 -4 10 6.99 9.79 19.59 <
3 -4 10 9949.53 9715.42 244.84 o
4 -4 10 19.76 264.43 97.94 <
5 -4 10 636.26 763.91 117.53 o
6 -4 10 141.07 39.18 48.97 <
-7 -3 10 47.74 0.00 39.18 <
-6 -3 10 23.78 -39.18 39.18 <
-5 -3 10 11944.70 12114.90 548.45 o
-4 -3 10 7691.34 7952.54 274.23 o
-3 -3 10 290.08 332.99 58.76 o
-2 -3 10 2527.34 2370.09 117.53 o
-1 -3 10 20634.90 20116.40 470.10 o
0 -3 10 6737.47 7247.39 137.11 o
1 -3 10 1893.55 1821.64 58.76 o
2 -3 10 5942.99 5474.72 137.11 o
3 -3 10 5909.68 5797.91 146.91 o
4 -3 10 792.28 989.17 117.53 o
5 -3 10 7856.90 8216.97 244.84 o
6 -3 10 2.41 48.97 39.18 <
-7 -2 10 601.84 587.63 97.94 o
-6 -2 10 4087.50 3819.57 205.67 o
-5 -2 10 555.93 705.15 97.94 o
-4 -2 10 3511.45 3643.28 176.29 o
-3 -2 10 337.33 421.13 68.56 o
-2 -2 10 4002.81 3976.27 156.70 o
-1 -2 10 12618.60 12349.90 323.19 o
0 -2 10 14254.00 14534.00 352.58 o
1 -2 10 34419.60 31516.30 430.93 o
2 -2 10 4888.20 5043.79 107.73 o
3 -2 10 3084.10 3134.01 88.14 o
4 -2 10 2006.04 2448.44 97.94 o
5 -2 10 1198.81 1253.60 97.94 o
6 -2 10 561.24 587.63 78.35 o
7 -2 10 342.18 332.99 58.76 o
-7 -1 10 1073.48 1194.84 137.11 o
-6 -1 10 1193.16 852.06 117.53 o
-5 -1 10 623.62 548.45 88.14 o
-4 -1 10 12669.90 11997.40 303.61 o
-3 -1 10 8041.41 8060.27 264.43 o
-2 -1 10 36337.20 33328.20 744.33 o
-1 -1 10 46.97 39.18 29.38 <
0 -1 10 5.50 19.59 19.59 <
1 -1 10 660.00 519.07 39.18 o
2 -1 10 1559.95 1527.83 48.97 o
3 -1 10 2626.27 2742.25 68.56 o
4 -1 10 10151.60 10097.40 195.88 o
5 -1 10 4437.08 4544.31 127.32 o
6 -1 10 4740.29 4015.44 137.11 o
7 -1 10 4192.57 3790.19 146.91 o
-7 0 10 3392.11 3643.28 215.46 o
-6 0 10 2953.24 3065.45 186.08 o
-5 0 10 499.68 313.40 68.56 o
-4 0 10 837.20 969.58 78.35 o
-3 0 10 4563.40 4534.51 146.91 o
-2 0 10 8259.21 8559.75 205.67 o
-1 0 10 562.20 665.98 48.97 o
0 0 10 13344.60 13221.60 264.43 o
1 0 10 3588.11 3711.84 88.14 o
2 0 10 66010.80 62650.70 754.12 o
3 0 10 66.29 78.35 29.38 <
4 0 10 2667.37 3290.71 97.94 o
5 0 10 1026.90 1038.14 68.56 o
6 0 10 54.45 107.73 29.38 o
7 0 10 1429.37 1596.38 107.73 o
8 0 10 180.12 97.94 39.18 <
-7 1 10 944.57 852.06 97.94 o
-6 1 10 2834.99 2693.29 137.11 o
-5 1 10 774.50 685.56 78.35 o
-4 1 10 3060.96 3290.71 137.11 o
-3 1 10 6432.18 5983.99 156.70 o
-2 1 10 25806.20 23789.10 558.24 o
-1 1 10 10179.40 9940.67 225.26 o
0 1 10 13883.20 13760.20 332.99 o
1 1 10 250.79 430.93 29.38 o
2 1 10 6430.29 6885.02 117.53 o
3 1 10 364.95 235.05 29.38 o
4 1 10 12671.40 12007.20 215.46 o
5 1 10 437.57 313.40 39.18 o
6 1 10 4565.12 4230.91 137.11 o
7 1 10 84.36 137.11 39.18 o
8 1 10 6785.36 6287.60 195.88 o
-7 2 10 870.24 812.88 97.94 o
-6 2 10 4.90 29.38 29.38 <
-5 2 10 10110.00 10410.80 293.81 o
-4 2 10 268.37 284.02 48.97 o
-3 2 10 991.63 861.85 68.56 o
-2 2 10 12.89 39.18 29.38 <
-1 2 10 365.02 470.10 48.97 o
0 2 10 58300.80 57920.30 969.58 o
1 2 10 15489.90 16218.50 244.84 o
2 2 10 4641.23 4847.92 117.53 o
3 2 10 461.32 558.24 39.18 o
4 2 10 19688.70 18666.90 342.78 o
5 2 10 8776.58 8500.99 205.67 o
6 2 10 0.46 19.59 19.59 <
7 2 10 669.75 803.09 68.56 o
8 2 10 328.33 323.19 48.97 o
-6 3 10 238.94 235.05 58.76 o
-5 3 10 858.41 724.74 88.14 o
-4 3 10 2408.40 2193.80 117.53 o
-3 3 10 10945.00 10146.30 225.26 o
-2 3 10 3104.47 3173.18 127.32 o
-1 3 10 3797.00 3770.60 127.32 o
0 3 10 62.87 107.73 29.38 o
1 3 10 2326.76 1939.17 58.76 o
2 3 10 39.73 58.76 19.59 o
3 3 10 1012.68 1165.46 58.76 o
4 3 10 4457.68 4652.04 127.32 o
5 3 10 5456.46 5112.35 146.91 o
6 3 10 6940.70 7002.54 215.46 o
7 3 10 835.08 734.53 68.56 o
8 3 10 415.81 362.37 58.76 o
-5 4 10 1252.51 1185.05 195.88 o
-4 4 10 838.80 930.41 166.49 o
-3 4 10 43.68 156.70 78.35 <
-2 4 10 2394.21 2918.54 156.70 o
-1 4 10 3712.78 4230.91 176.29 o
0 4 10 249.52 313.40 39.18 o
1 4 10 16139.30 15474.20 323.19 o
2 4 10 10975.50 10616.40 215.46 o
3 4 10 12721.30 12966.90 254.64 o
4 4 10 294.74 401.54 48.97 o
5 4 10 593.41 577.83 78.35 o
6 4 10 267.65 88.14 39.18 <
7 4 10 2421.58 2428.85 156.70 o
8 4 10 337.50 362.37 78.35 o
-5 5 10 253.97 127.32 88.14 <
-4 5 10 343.50 254.64 107.73 <
-3 5 10 6048.38 5513.89 362.37 o
-2 5 10 1413.98 1469.07 195.88 o
-1 5 10 7066.67 7139.66 381.96 o
0 5 10 834.39 920.61 97.94 o
1 5 10 1707.88 1762.88 88.14 o
2 5 10 5145.06 5014.41 137.11 o
3 5 10 7849.58 7511.82 176.29 o
4 5 10 1145.46 1008.76 68.56 o
5 5 10 57.69 29.38 29.38 <
6 5 10 1215.60 1371.13 127.32 o
7 5 10 7997.85 7942.75 303.61 o
8 5 10 66.74 -19.59 48.97 <
-4 6 10 7.06 9.79 68.56 <
-3 6 10 1031.29 959.79 186.08 o
-2 6 10 126.81 19.59 68.56 <
-1 6 10 9080.99 7727.28 421.13 o
0 6 10 486.99 421.13 58.76 o
1 6 10 4278.48 4093.79 156.70 o
2 6 10 5.73 9.79 39.18 <
3 6 10 5930.00 5895.85 332.99 o
4 6 10 1166.55 1087.11 107.73 o
5 6 10 1975.55 2232.98 146.91 o
6 6 10 205.84 166.49 58.76 <
7 6 10 206.93 166.49 58.76 <
-2 7 10 453.92 450.51 117.53 o
-1 7 10 1727.15 1459.27 156.70 o
0 7 10 3340.44 3271.12 146.91 o
1 7 10 32.98 146.91 39.18 o
2 7 10 238.74 195.88 58.76 o
3 7 10 227.81 107.73 48.97 <
4 7 10 474.58 381.96 107.73 o
5 7 10 9844.68 9823.15 362.37 o
6 7 10 301.61 303.61 78.35 o
-1 8 10 61.76 9.79 48.97 <
0 8 10 1773.96 1802.05 137.11 o
1 8 10 3792.50 3300.50 156.70 o
2 8 10 2162.11 2330.92 156.70 o
3 8 10 2001.67 2174.22 156.70 o
4 8 10 147.46 156.70 58.76 <
5 8 10 154.17 274.23 97.94 <
-2 -8 11 487.42 489.69 68.56 o
-5 -7 11 8.33 48.97 68.56 <
-4 -7 11 768.85 528.86 127.32 o
-3 -7 11 8.17 97.94 68.56 <
-2 -7 11 107.65 58.76 39.18 <
-1 -7 11 1560.16 1841.23 117.53 o
0 -7 11 367.92 440.72 58.76 o
1 -7 11 12.22 29.38 29.38 <
2 -7 11 145.92 78.35 48.97 <
-5 -6 11 509.53 381.96 117.53 o
-4 -6 11 13.88 39.18 68.56 <
-3 -6 11 0.20 0.00 48.97 <
-2 -6 11 5.72 39.18 29.38 <
-1 -6 11 103.71 107.73 29.38 o
0 -6 11 62.84 48.97 29.38 <
1 -6 11 134.14 156.70 39.18 o
2 -6 11 4788.46 4475.75 215.46 o
-6 -5 11 476.64 470.10 117.53 o
-5 -5 11 35.17 39.18 48.97 <
-4 -5 11 538.71 440.72 97.94 o
-3 -5 11 224.10 215.46 48.97 o
-2 -5 11 2771.42 2565.97 137.11 o
-1 -5 11 2211.87 2350.50 97.94 o
0 -5 11 474.46 450.51 48.97 o
1 -5 11 4649.99 4338.64 137.11 o
2 -5 11 1469.68 1547.42 88.14 o
3 -5 11 164.79 195.88 39.18 o
4 -5 11 3460.10 3065.45 186.08 o
-7 -4 11 1197.67 1077.31 186.08 o
-6 -4 11 26.02 29.38 48.97 <
-5 -4 11 184.67 401.54 97.94 o
-4 -4 11 1.64 29.38 39.18 <
-3 -4 11 1158.40 1087.11 107.73 o
-2 -4 11 1492.15 1263.40 97.94 o
-1 -4 11 1012.34 1018.55 97.94 o
0 -4 11 2312.57 2095.87 88.14 o
1 -4 11 7.85 9.79 19.59 <
2 -4 11 2455.21 2448.44 107.73 o
3 -4 11 647.99 636.59 68.56 o
4 -4 11 1125.13 1312.36 137.11 o
5 -4 11 12.78 29.38 48.97 <
-7 -3 11 50.20 9.79 58.76 <
-6 -3 11 81.57 88.14 78.35 <
-5 -3 11 153.84 29.38 48.97 <
-4 -3 11 468.46 323.19 68.56 o
-3 -3 11 289.49 215.46 48.97 o
-2 -3 11 827.76 734.53 78.35 o
-1 -3 11 441.20 548.45 68.56 o
0 -3 11 731.39 685.56 39.18 o
1 -3 11 3652.32 3858.74 97.94 o
2 -3 11 249.90 372.16 39.18 o
3 -3 11 1239.60 1361.33 68.56 o
4 -3 11 602.97 705.15 68.56 o
5 -3 11 678.96 597.42 88.14 o
6 -3 11 4263.53 4319.05 176.29 o
-7 -2 11 53.05 48.97 39.18 <
-6 -2 11 398.33 479.89 78.35 o
-5 -2 11 2037.11 1615.97 205.67 o
-4 -2 11 28.45 68.56 39.18 <
-3 -2 11 1603.80 1576.80 107.73 o
-2 -2 11 3.81 29.38 29.38 <
-1 -2 11 2689.02 2840.19 127.32 o
0 -2 11 24.47 39.18 19.59 <
1 -2 11 8517.02 8745.83 156.70 o
2 -2 11 140.58 195.88 29.38 o
3 -2 11 1308.29 1459.27 58.76 o
4 -2 11 8114.91 8119.03 195.88 o
5 -2 11 1080.01 1331.95 107.73 o
6 -2 11 133.64 146.91 48.97 <
7 -2 11 54.38 58.76 39.18 <
-7 -1 11 2352.37 1968.55 186.08 o
-6 -1 11 674.11 763.91 107.73 o
-5 -1 11 1021.07 891.23 107.73 o
-4 -1 11 2673.65 2722.67 156.70 o
-3 -1 11 6.63 19.59 29.38 <
-2 -1 11 2644.45 2497.41 127.32 o
-1 -1 11 19.05 117.53 39.18 o
0 -1 11 3317.52 3672.66 146.91 o
1 -1 11 101.74 127.32 19.59 o
2 -1 11 5.85 29.38 9.79 o
3 -1 11 795.29 930.41 68.56 o
4 -1 11 2.38 58.76 29.38 <
5 -1 11 175.14 146.91 39.18 o
6 -1 11 121.80 127.32 39.18 o
7 -1 11 1671.98 1635.56 127.32 o
-7 0 11 130.04 68.56 48.97 <
-6 0 11 482.61 617.01 97.94 o
-5 0 11 432.62 362.37 78.35 o
-4 0 11 3342.19 2987.10 127.32 o
-3 0 11 4.17 -9.79 29.38 <
-2 0 11 526.25 460.31 68.56 o
-1 0 11 3669.17 3584.52 146.91 o
0 0 11 113.16 107.73 39.18 <
1 0 11 1018.63 1145.87 48.97 o
2 0 11 2542.07 2605.14 68.56 o
3 0 11 1618.59 1576.80 68.56 o
4 0 11 5374.70 5445.33 127.32 o
5 0 11 594.02 568.04 58.76 o
6 0 11 2750.57 2409.27 107.73 o
7 0 11 1039.31 822.68 78.35 o
-7 1 11 615.91 548.45 97.94 o
-6 1 11 35.90 -48.97 39.18 <
-5 1 11 1384.67 1116.49 97.94 o
-4 1 11 738.18 724.74 68.56 o
-3 1 11 41.02 48.97 29.38 <
-2 1 11 14684.20 14318.50 313.40 o
-1 1 11 108.04 127.32 29.38 o
0 1 11 298.91 313.40 39.18 o
1 1 11 304.15 313.40 29.38 o
2 1 11 12.71 58.76 19.59 o
3 1 11 1374.05 1243.81 58.76 o
4 1 11 1119.50 1155.66 68.56 o
5 1 11 336.50 362.37 48.97 o
6 1 11 456.85 372.16 48.97 o
7 1 11 302.74 244.84 39.18 o
8 1 11 51.67 -19.59 29.38 <
-6 2 11 1595.69 1733.50 137.11 o
-5 2 11 81.17 166.49 39.18 o
-4 2 11 10246.70 10577.30 284.02 o
-3 2 11 0.21 -29.38 29.38 <
-2 2 11 50.37 48.97 29.38 <
-1 2 11 1.01 0.00 19.59 <
0 2 11 1621.91 1821.64 78.35 o
1 2 11 208.42 342.78 29.38 o
2 2 11 14.57 19.59 19.59 <
3 2 11 648.30 656.18 48.97 o
4 2 11 411.58 372.16 39.18 o
5 2 11 40.97 127.32 29.38 o
6 2 11 1448.43 1890.20 107.73 o
7 2 11 134.74 68.56 29.38 <
8 2 11 111.23 137.11 39.18 o
-6 3 11 1084.80 1126.28 107.73 o
-5 3 11 56.40 127.32 48.97 <
-4 3 11 350.26 332.99 58.76 o
-3 3 11 529.36 499.48 68.56 o
-2 3 11 517.79 607.21 58.76 o
-1 3 11 2459.27 2565.97 97.94 o
0 3 11 749.76 714.95 58.76 o
1 3 11 54.58 58.76 9.79 o
2 3 11 2097.01 2056.69 78.35 o
3 3 11 33.31 19.59 19.59 <
4 3 11 2007.53 1968.55 78.35 o
5 3 11 0.46 -19.59 19.59 <
6 3 11 1225.14 1145.87 97.94 o
7 3 11 215.30 146.91 39.18 o
8 3 11 11.75 -19.59 39.18 <
-5 4 11 6125.51 5915.44 401.54 o
-4 4 11 119.95 186.08 88.14 <
-3 4 11 411.40 636.59 127.32 o
-2 4 11 11038.30 10929.80 352.58 o
-1 4 11 1506.49 1508.24 117.53 o
0 4 11 1381.42 1263.40 97.94 o
1 4 11 4390.41 4319.05 146.91 o
2 4 11 20.62 39.18 19.59 <
3 4 11 2347.48 2360.30 88.14 o
4 4 11 1.93 0.00 19.59 <
5 4 11 1686.94 1821.64 117.53 o
6 4 11 507.74 440.72 117.53 o
7 4 11 164.18 313.40 68.56 o
8 4 11 70.41 19.59 48.97 <
-4 5 11 507.42 391.75 117.53 o
-3 5 11 1482.17 1576.80 215.46 o
-2 5 11 100.34 176.29 78.35 <
-1 5 11 2578.85 2419.06 205.67 o
0 5 11 926.57 910.82 137.11 o
1 5 11 401.26 430.93 48.97 o
2 5 11 26.51 9.79 19.59 <
3 5 11 543.55 568.04 48.97 o
4 5 11 1188.29 1175.25 88.14 o
5 5 11 44.63 39.18 29.38 <
6 5 11 594.07 636.59 88.14 o
7 5 11 520.53 714.95 146.91 o
-3 6 11 4157.11 3702.04 313.40 o
-2 6 11 619.17 665.98 146.91 o
-1 6 11 201.14 117.53 78.35 <
0 6 11 984.81 744.33 137.11 o
1 6 11 1416.46 1380.92 127.32 o
2 6 11 187.45 293.81 58.76 o
3 6 11 3182.31 2791.22 156.70 o
4 6 11 46.36 68.56 39.18 <
5 6 11 229.08 117.53 58.76 <
6 6 11 67.22 58.76 48.97 <
7 6 11 174.58 156.70 58.76 <
-2 7 11 1960.49 2046.90 264.43 o
-1 7 11 327.21 156.70 78.35 <
0 7 11 4.43 9.79 58.76 <
1 7 11 4260.71 3888.13 195.88 o
2 7 11 463.96 528.86 88.14 o
3 7 11 312.57 323.19 68.56 o
4 7 11 37.14 235.05 88.14 <
5 7 11 123.12 117.53 48.97 <
6 7 11 416.89 411.34 88.14 o
0 8 11 1.97 -9.79 48.97 <
1 8 11 139.59 156.70 58.76 <
2 8 11 362.24 303.61 68.56 o
3 8 11 2.19 29.38 48.97 <
4 8 11 285.71 401.54 78.35 o
5 8 11 3.30 -29.38 58.76 <
-4 -7 12 49.74 -48.97 58.76 <
-3 -7 12 535.16 479.89 117.53 o
-2 -7 12 18.41 29.38 29.38 <
-1 -7 12 1829.82 1939.17 117.53 o
0 -7 12 3805.46 3437.61 156.70 o
1 -7 12 1353.67 1351.54 107.73 o
-5 -6 12 1999.83 2232.98 225.26 o
-4 -6 12 5409.07 5239.67 352.58 o
-3 -6 12 205.26 176.29 78.35 <
-2 -6 12 4378.86 4691.21 186.08 o
-1 -6 12 1720.40 1851.02 107.73 o
0 -6 12 685.81 685.56 78.35 o
1 -6 12 453.11 332.99 58.76 o
2 -6 12 830.14 871.65 97.94 o
-6 -5 12 2257.87 2164.42 205.67 o
-5 -5 12 700.64 1136.08 166.49 o
-4 -5 12 132.82 39.18 39.18 <
-3 -5 12 13.45 19.59 39.18 <
-2 -5 12 2605.46 2497.41 146.91 o
-1 -5 12 2884.78 3153.59 117.53 o
0 -5 12 7150.37 7570.58 195.88 o
1 -5 12 1939.48 1939.17 88.14 o
2 -5 12 1690.57 1567.00 88.14 o
3 -5 12 1.01 0.00 19.59 <
4 -5 12 653.91 832.47 137.11 o
-6 -4 12 2624.18 2497.41 225.26 o
-5 -4 12 714.84 871.65 146.91 o
-4 -4 12 11237.00 11106.10 352.58 o
-3 -4 12 1.59 39.18 29.38 <
-2 -4 12 6237.92 6698.94 235.05 o
-1 -4 12 1538.46 1733.50 88.14 o
0 -4 12 716.60 832.47 58.76 o
1 -4 12 1262.68 1165.46 68.56 o
2 -4 12 801.29 744.33 78.35 o
3 -4 12 35.52 48.97 19.59 <
4 -4 12 2879.05 2781.43 166.49 o
5 -4 12 3466.68 3515.96 205.67 o
-7 -3 12 2847.42 3153.59 284.02 o
-6 -3 12 58.93 39.18 68.56 <
-5 -3 12 11.52 9.79 48.97 <
-4 -3 12 196.27 215.46 48.97 o
-3 -3 12 5358.11 5004.62 205.67 o
-2 -3 12 8113.58 8256.15 274.23 o
-1 -3 12 8203.51 8540.17 264.43 o
0 -3 12 6884.11 6845.84 146.91 o
1 -3 12 1.12 -9.79 19.59 <
2 -3 12 23550.00 22545.30 411.34 o
3 -3 12 161.55 137.11 29.38 o
4 -3 12 54.17 58.76 29.38 <
5 -3 12 416.76 313.40 58.76 o
6 -3 12 852.28 1106.70 107.73 o
-7 -2 12 82.58 58.76 58.76 <
-6 -2 12 2722.31 2291.74 225.26 o
-5 -2 12 2955.94 2820.60 244.84 o
-4 -2 12 1843.53 1968.55 137.11 o
-3 -2 12 14034.20 14132.40 401.54 o
-2 -2 12 9486.41 9656.65 293.81 o
-1 -2 12 8193.46 8070.06 254.64 o
0 -2 12 1451.16 1410.30 78.35 o
1 -2 12 336.48 372.16 39.18 o
2 -2 12 6091.61 6189.66 146.91 o
3 -2 12 389.59 323.19 39.18 o
4 -2 12 7298.06 7815.43 195.88 o
5 -2 12 83.22 78.35 39.18 <
6 -2 12 952.91 1038.14 97.94 o
-7 -1 12 2043.68 2046.90 195.88 o
-6 -1 12 41.40 -29.38 39.18 <
-5 -1 12 7558.11 6865.43 401.54 o
-4 -1 12 688.82 744.33 97.94 o
-3 -1 12 4149.81 3555.14 176.29 o
-2 -1 12 384.42 264.43 58.76 o
-1 -1 12 3255.65 3349.47 146.91 o
0 -1 12 16445.10 16336.00 411.34 o
1 -1 12 14093.70 12918.00 235.05 o
2 -1 12 773.78 881.44 48.97 o
3 -1 12 3896.30 3780.39 117.53 o
4 -1 12 2981.41 3280.91 117.53 o
5 -1 12 591.90 470.10 58.76 o
6 -1 12 2263.93 2330.92 137.11 o
7 -1 12 43.87 9.79 39.18 <
-7 0 12 541.84 499.48 88.14 o
-6 0 12 181.51 127.32 58.76 <
-5 0 12 9334.41 9108.20 342.78 o
-4 0 12 110.37 166.49 58.76 <
-3 0 12 9461.95 9304.08 303.61 o
-2 0 12 37.29 -19.59 29.38 <
-1 0 12 17378.00 17002.00 430.93 o
0 0 12 7130.31 7306.15 323.19 o
1 0 12 71.62 117.53 19.59 o
2 0 12 165.10 156.70 29.38 o
3 0 12 3399.98 3604.11 107.73 o
4 0 12 10549.50 10890.70 244.84 o
5 0 12 4859.52 4573.69 166.49 o
6 0 12 2933.75 3212.36 146.91 o
7 0 12 16.42 19.59 39.18 <
-6 1 12 226.35 235.05 68.56 o
-5 1 12 1967.04 2281.95 156.70 o
-4 1 12 3843.22 3623.69 186.08 o
-3 1 12 137.02 225.26 58.76 o
-2 1 12 184.57 195.88 48.97 o
-1 1 12 4557.28 4142.76 166.49 o
0 1 12 1770.89 1988.13 88.14 o
1 1 12 22821.60 21889.10 323.19 o
2 1 12 1690.40 1890.20 68.56 o
3 1 12 6649.30 6483.47 156.70 o
4 1 12 248.25 186.08 29.38 o
5 1 12 96.65 9.79 29.38 <
6 1 12 3513.56 3094.83 117.53 o
7 1 12 158.70 88.14 29.38 <
-6 2 12 681.21 685.56 88.14 o
-5 2 12 3.75 39.18 29.38 <
-4 2 12 3279.79 3280.91 176.29 o
-3 2 12 13164.60 12536.00 313.40 o
-2 2 12 20947.30 20841.10 430.93 o
-1 2 12 2737.68 2732.46 107.73 o
0 2 12 19.30 48.97 19.59 <
1 2 12 4226.04 4152.56 97.94 o
2 2 12 10174.30 10841.70 254.64 o
3 2 12 10778.90 9754.59 205.67 o
4 2 12 425.46 430.93 48.97 o
5 2 12 945.97 1077.31 78.35 o
6 2 12 1055.92 1214.43 97.94 o
7 2 12 4996.94 5278.84 195.88 o
-5 3 12 14.08 9.79 29.38 <
-4 3 12 707.52 577.83 88.14 o
-3 3 12 86.22 68.56 29.38 <
-2 3 12 14.60 39.18 29.38 <
-1 3 12 3120.19 2996.89 117.53 o
0 3 12 3069.04 3584.52 127.32 o
1 3 12 1613.14 1674.73 68.56 o
2 3 12 14819.30 13848.40 264.43 o
3 3 12 6768.75 6228.84 156.70 o
4 3 12 3462.52 3662.87 127.32 o
5 3 12 121.53 195.88 39.18 o
6 3 12 352.57 362.37 58.76 o
7 3 12 3314.70 2820.60 137.11 o
-5 4 12 67.81 284.02 88.14 o
-4 4 12 2574.48 2232.98 235.05 o
-3 4 12 132.55 97.94 68.56 <
-2 4 12 6700.47 7727.28 284.02 o
-1 4 12 40.84 244.84 48.97 o
0 4 12 18368.20 18118.50 470.10 o
1 4 12 152.07 146.91 29.38 o
2 4 12 13.41 9.79 19.59 <
3 4 12 608.80 656.18 58.76 o
4 4 12 0.27 19.59 29.38 <
5 4 12 8483.20 8902.54 303.61 o
6 4 12 884.08 1116.49 117.53 o
7 4 12 59.42 29.38 39.18 <
-4 5 12 1191.68 1234.01 195.88 o
-3 5 12 603.62 284.02 97.94 <
-2 5 12 304.33 381.96 117.53 o
-1 5 12 14.97 9.79 48.97 <
0 5 12 6630.64 6228.84 235.05 o
1 5 12 174.46 284.02 58.76 o
2 5 12 2206.64 2086.07 97.94 o
3 5 12 125.28 117.53 29.38 o
4 5 12 5810.01 6160.28 186.08 o
5 5 12 4797.80 4926.27 176.29 o
6 5 12 557.78 626.80 88.14 o
7 5 12 12.91 -48.97 39.18 <
-3 6 12 4113.66 4201.53 332.99 o
-2 6 12 498.60 460.31 117.53 o
-1 6 12 824.03 705.15 137.11 o
0 6 12 1915.74 1567.00 205.67 o
1 6 12 5810.18 5092.76 323.19 o
2 6 12 197.80 274.23 58.76 o
3 6 12 1221.76 1185.05 117.53 o
4 6 12 262.21 186.08 58.76 o
5 6 12 59.72 78.35 39.18 <
6 6 12 2722.21 2497.41 176.29 o
-1 7 12 49.59 39.18 68.56 <
0 7 12 207.31 235.05 88.14 <
1 7 12 280.63 274.23 97.94 <
2 7 12 3005.08 3114.42 176.29 o
3 7 12 5305.99 5602.04 244.84 o
4 7 12 19.78 9.79 39.18 <
5 7 12 22.14 29.38 39.18 <
1 8 12 817.17 705.15 146.91 o
2 8 12 6.28 29.38 39.18 <
3 8 12 1118.42 1008.76 117.53 o
-3 -7 13 654.13 636.59 146.91 o
-2 -7 13 746.73 665.98 78.35 o
-1 -7 13 747.99 803.09 88.14 o
0 -7 13 1631.10 1576.80 117.53 o
-5 -6 13 1789.23 1674.73 235.05 o
-4 -6 13 1049.82 695.36 146.91 o
-3 -6 13 175.54 352.58 97.94 o
-2 -6 13 1505.12 1459.27 88.14 o
-1 -6 13 94.84 29.38 29.38 <
0 -6 13 24.48 19.59 29.38 <
1 -6 13 113.92 176.29 48.97 o
2 -6 13 137.95 58.76 39.18 <
-5 -5 13 188.40 342.78 97.94 o
-4 -5 13 60.35 39.18 48.97 <
-3 -5 13 1372.88 1185.05 117.53 o
-2 -5 13 541.04 577.83 78.35 o
-1 -5 13 185.75 186.08 29.38 o
0 -5 13 1339.14 1282.98 78.35 o
1 -5 13 3937.49 3878.33 156.70 o
2 -5 13 5.30 29.38 19.59 <
3 -5 13 441.49 284.02 78.35 o
-6 -4 13 1810.04 1498.45 215.46 o
-5 -4 13 190.26 39.18 58.76 <
-4 -4 13 16.70 -48.97 39.18 <
-3 -4 13 3319.16 3026.27 156.70 o
-2 -4 13 27.18 -58.76 19.59 <
-1 -4 13 552.32 577.83 78.35 o
0 -4 13 634.46 607.21 58.76 o
1 -4 13 1226.22 1243.81 88.14 o
2 -4 13 1104.99 940.20 88.14 o
3 -4 13 10.87 39.18 48.97 <
4 -4 13 1447.74 1185.05 166.49 o
-6 -3 13 164.10 58.76 58.76 <
-5 -3 13 2219.52 2115.45 205.67 o
-4 -3 13 2248.58 2105.66 137.11 o
-3 -3 13 756.34 822.68 97.94 o
-2 -3 13 883.28 1077.31 107.73 o
-1 -3 13 2670.92 2859.78 137.11 o
0 -3 13 43.84 19.59 19.59 <
1 -3 13 691.94 675.77 58.76 o
2 -3 13 882.52 803.09 58.76 o
3 -3 13 103.97 146.91 48.97 <
4 -3 13 3247.88 3506.17 166.49 o
5 -3 13 57.00 117.53 39.18 o
-6 -2 13 587.97 665.98 146.91 o
-5 -2 13 193.53 156.70 68.56 <
-4 -2 13 443.87 597.42 88.14 o
-3 -2 13 871.30 763.91 97.94 o
-2 -2 13 120.53 117.53 39.18 o
-1 -2 13 752.10 744.33 78.35 o
0 -2 13 25.65 29.38 19.59 <
1 -2 13 777.63 734.53 48.97 o
2 -2 13 1118.36 1087.11 58.76 o
3 -2 13 962.71 1008.76 78.35 o
4 -2 13 16.46 176.29 48.97 o
5 -2 13 172.38 78.35 39.18 <
6 -2 13 1444.02 1576.80 127.32 o
-6 -1 13 397.85 548.45 137.11 o
-5 -1 13 23.40 -39.18 48.97 <
-4 -1 13 630.54 577.83 88.14 o
-3 -1 13 1895.03 1870.61 127.32 o
-2 -1 13 1699.06 1851.02 117.53 o
-1 -1 13 45.89 78.35 39.18 <
0 -1 13 960.30 861.85 88.14 o
1 -1 13 13.12 9.79 19.59 <
2 -1 13 545.93 656.18 48.97 o
3 -1 13 88.24 156.70 39.18 o
4 -1 13 35.79 97.94 29.38 o
5 -1 13 2053.98 1899.99 107.73 o
6 -1 13 4100.26 3839.16 166.49 o
-6 0 13 942.24 744.33 107.73 o
-5 0 13 691.13 901.03 166.49 o
-4 0 13 22.35 19.59 39.18 <
-3 0 13 668.39 607.21 88.14 o
-2 0 13 41.17 29.38 39.18 <
-1 0 13 1803.07 2095.87 117.53 o
0 0 13 0.26 19.59 29.38 <
1 0 13 4470.54 4583.48 117.53 o
2 0 13 179.47 235.05 29.38 o
3 0 13 358.67 313.40 48.97 o
4 0 13 10304.80 9960.26 254.64 o
5 0 13 162.34 215.46 48.97 o
6 0 13 657.35 519.07 68.56 o
7 0 13 1457.91 1224.22 117.53 o
-6 1 13 34.28 97.94 48.97 <
-5 1 13 2125.12 1704.12 225.26 o
-4 1 13 3210.45 3212.36 176.29 o
-3 1 13 0.42 29.38 39.18 <
-2 1 13 2105.03 1958.75 127.32 o
-1 1 13 13.71 48.97 29.38 <
0 1 13 5370.76 5269.05 186.08 o
1 1 13 947.23 1155.66 58.76 o
2 1 13 2405.12 2291.74 78.35 o
3 1 13 2127.81 1860.82 88.14 o
4 1 13 47.76 9.79 19.59 <
5 1 13 1639.35 1664.94 97.94 o
6 1 13 10.27 58.76 29.38 <
7 1 13 2324.93 2693.29 117.53 o
-5 2 13 19.63 97.94 68.56 <
-4 2 13 7.18 19.59 58.76 <
-3 2 13 13.13 9.79 29.38 <
-2 2 13 2554.63 2859.78 117.53 o
-1 2 13 59.88 19.59 19.59 <
0 2 13 255.96 313.40 48.97 o
1 2 13 1010.58 1165.46 48.97 o
2 2 13 83.03 107.73 29.38 o
3 2 13 3745.97 3643.28 146.91 o
4 2 13 231.93 244.84 39.18 o
5 2 13 2139.86 1909.78 97.94 o
6 2 13 5596.21 5915.44 195.88 o
7 2 13 63.49 97.94 29.38 o
-5 3 13 199.88 88.14 48.97 <
-4 3 13 2.04 48.97 39.18 <
-3 3 13 9.54 9.79 29.38 <
-2 3 13 1155.83 1165.46 88.14 o
-1 3 13 4.49 78.35 29.38 <
0 3 13 15.73 78.35 29.38 <
1 3 13 2998.44 3055.66 117.53 o
2 3 13 1319.97 1273.19 88.14 o
3 3 13 1579.01 1674.73 78.35 o
4 3 13 9251.55 9088.62 235.05 o
5 3 13 1577.73 1762.88 97.94 o
6 3 13 12.01 29.38 29.38 <
7 3 13 5197.83 5288.63 195.88 o
-4 4 13 2160.50 2565.97 244.84 o
-3 4 13 3269.70 3496.38 195.88 o
-2 4 13 1582.89 1645.35 146.91 o
-1 4 13 563.52 646.39 88.14 o
0 4 13 4110.11 4524.72 186.08 o
1 4 13 3100.10 3506.17 156.70 o
2 4 13 439.10 342.78 58.76 o
3 4 13 8648.85 8990.68 235.05 o
4 4 13 293.19 274.23 48.97 o
5 4 13 546.74 558.24 78.35 o
6 4 13 1261.14 1116.49 117.53 o
7 4 13 856.76 901.03 107.73 o
-3 5 13 359.72 470.10 117.53 o
-2 5 13 135.27 205.67 88.14 <
-1 5 13 453.31 568.04 117.53 o
0 5 13 735.09 607.21 88.14 o
1 5 13 4206.05 3741.22 176.29 o
2 5 13 430.43 264.43 58.76 o
3 5 13 2941.47 3065.45 117.53 o
4 5 13 2.54 0.00 29.38 <
5 5 13 228.72 303.61 58.76 o
6 5 13 5177.64 5092.76 225.26 o
-2 6 13 26.97 19.59 58.76 <
-1 6 13 3652.92 3349.47 274.23 o
0 6 13 2028.34 1899.99 195.88 o
1 6 13 30.56 29.38 58.76 <
2 6 13 2261.09 2105.66 195.88 o
3 6 13 1513.72 1664.94 127.32 o
4 6 13 2539.70 2497.41 156.70 o
5 6 13 4108.26 4113.38 215.46 o
6 6 13 684.73 773.71 107.73 o
0 7 13 1730.76 1488.65 215.46 o
1 7 13 3.77 58.76 68.56 <
2 7 13 2347.40 2869.57 244.84 o
3 7 13 6206.16 6160.28 264.43 o
4 7 13 124.28 127.32 48.97 <
5 7 13 1241.98 1018.55 117.53 o
-4 -6 14 1478.60 1469.07 146.91 o
-3 -6 14 3045.76 2898.96 166.49 o
-2 -6 14 2412.74 2507.20 117.53 o
-1 -6 14 84.50 29.38 29.38 <
0 -6 14 156.10 156.70 29.38 o
1 -6 14 16.64 78.35 39.18 <
-5 -5 14 201.10 117.53 68.56 <
-4 -5 14 89.21 156.70 78.35 <
-3 -5 14 1387.30 1567.00 146.91 o
-2 -5 14 1195.08 1194.84 117.53 o
-1 -5 14 227.85 137.11 29.38 o
0 -5 14 5992.39 6238.63 176.29 o
1 -5 14 1290.77 1067.52 88.14 o
2 -5 14 4334.83 4710.80 186.08 o
3 -5 14 1883.53 1811.85 176.29 o
-5 -4 14 6.05 97.94 68.56 <
-4 -4 14 5132.25 4916.47 225.26 o
-3 -4 14 2469.87 2419.06 146.91 o
-2 -4 14 9873.41 10156.10 332.99 o
-1 -4 14 160.63 176.29 39.18 o
0 -4 14 1357.27 1645.35 78.35 o
1 -4 14 65.84 107.73 39.18 <
2 -4 14 2081.51 1880.40 107.73 o
3 -4 14 1338.60 1322.16 176.29 o
4 -4 14 2752.31 2673.70 215.46 o
-6 -3 14 1229.61 1028.35 186.08 o
-5 -3 14 6068.46 5553.07 362.37 o
-4 -3 14 30.35 0.00 39.18 <
-3 -3 14 1577.43 1635.56 127.32 o
-2 -3 14 700.54 724.74 88.14 o
-1 -3 14 96.92 146.91 48.97 <
0 -3 14 22043.50 20948.90 352.58 o
1 -3 14 1668.48 1792.26 88.14 o
2 -3 14 5228.46 5229.87 156.70 o
3 -3 14 32.76 19.59 29.38 <
4 -3 14 4812.22 4446.37 195.88 o
5 -3 14 58.06 97.94 48.97 <
-6 -2 14 42.92 176.29 88.14 <
-5 -2 14 2565.30 2193.80 215.46 o
-4 -2 14 4555.31 4230.91 205.67 o
-3 -2 14 5419.68 5239.67 225.26 o
-2 -2 14 1805.15 1802.05 117.53 o
-1 -2 14 4371.98 4573.69 186.08 o
0 -2 14 2142.12 2105.66 78.35 o
1 -2 14 219.50 186.08 29.38 o
2 -2 14 94.77 88.14 19.59 o
3 -2 14 3433.00 3271.12 156.70 o
4 -2 14 5349.61 6111.31 235.05 o
5 -2 14 63.91 19.59 39.18 <
-6 -1 14 705.57 812.88 156.70 o
-5 -1 14 814.32 910.82 156.70 o
-4 -1 14 36.11 48.97 39.18 <
-3 -1 14 2805.60 2565.97 146.91 o
-2 -1 14 1639.12 1684.53 127.32 o
-1 -1 14 10683.80 10263.90 313.40 o
0 -1 14 692.65 724.74 78.35 o
1 -1 14 8688.64 8070.06 176.29 o
2 -1 14 18712.80 18999.90 332.99 o
3 -1 14 6558.38 5846.88 215.46 o
4 -1 14 158.90 244.84 58.76 o
5 -1 14 48.70 -48.97 29.38 <
6 -1 14 159.37 293.81 48.97 o
-6 0 14 118.48 274.23 107.73 <
-5 0 14 1168.57 901.03 166.49 o
-4 0 14 507.65 607.21 97.94 o
-3 0 14 19686.60 18813.80 519.07 o
-2 0 14 297.72 274.23 58.76 o
-1 0 14 10906.20 9842.74 303.61 o
0 0 14 2722.49 2497.41 127.32 o
1 0 14 1045.49 1165.46 68.56 o
2 0 14 3180.78 4093.79 146.91 o
3 0 14 1116.88 1664.94 107.73 o
4 0 14 200.44 195.88 48.97 o
5 0 14 3736.53 3976.27 156.70 o
6 0 14 1575.95 1694.32 117.53 o
-5 1 14 1755.31 1782.47 235.05 o
-4 1 14 167.78 156.70 48.97 o
-3 1 14 101.64 117.53 48.97 <
-2 1 14 57.86 58.76 39.18 <
-1 1 14 3641.71 3212.36 156.70 o
0 1 14 3.84 -9.79 29.38 <
1 1 14 17790.80 17726.70 323.19 o
2 1 14 1318.65 1567.00 97.94 o
3 1 14 14599.90 13760.20 372.16 o
4 1 14 151.64 186.08 48.97 o
5 1 14 1632.70 1635.56 107.73 o
6 1 14 17.83 0.00 29.38 <
-5 2 14 2231.00 2605.14 244.84 o
-4 2 14 4180.00 4191.73 215.46 o
-3 2 14 989.77 783.50 97.94 o
-2 2 14 2871.71 3085.04 156.70 o
-1 2 14 14269.90 13868.00 391.75 o
0 2 14 12500.80 13006.10 362.37 o
1 2 14 229.95 372.16 48.97 o
2 2 14 3737.59 3418.02 146.91 o
3 2 14 306.46 235.05 48.97 o
4 2 14 1165.02 1400.51 107.73 o
5 2 14 11592.00 11654.60 293.81 o
6 2 14 315.40 362.37 58.76 o
7 2 14 155.64 166.49 48.97 o
-4 3 14 4174.80 3888.13 274.23 o
-3 3 14 32.04 39.18 29.38 <
-2 3 14 341.69 264.43 48.97 o
-1 3 14 165.03 2379.89 195.88 o
0 3 14 5225.81 5445.33 166.49 o
1 3 14 11004.40 10214.90 244.84 o
2 3 14 3939.28 3868.54 127.32 o
3 3 14 3521.13 2761.84 137.11 o
4 3 14 3026.37 3134.01 146.91 o
5 3 14 641.84 538.66 58.76 o
6 3 14 2046.81 2115.45 117.53 o
7 3 14 44.30 9.79 29.38 <
-4 4 14 2329.36 2262.36 225.26 o
-3 4 14 141.53 323.19 97.94 o
-2 4 14 9936.51 10880.90 372.16 o
-1 4 14 152.91 195.88 48.97 o
0 4 14 887.87 1028.35 107.73 o
1 4 14 97.18 58.76 39.18 <
2 4 14 2973.64 3349.47 156.70 o
3 4 14 2074.81 2027.31 166.49 o
4 4 14 2781.37 3055.66 156.70 o
5 4 14 1.22 29.38 29.38 <
6 4 14 813.45 871.65 107.73 o
-3 5 14 3.65 107.73 78.35 <
-2 5 14 149.36 68.56 68.56 <
-1 5 14 9.70 -39.18 58.76 <
0 5 14 1352.53 1214.43 117.53 o
1 5 14 17.83 29.38 39.18 <
2 5 14 12461.70 11968.00 362.37 o
3 5 14 13.87 -19.59 29.38 <
4 5 14 1539.52 1851.02 97.94 o
5 5 14 419.03 558.24 68.56 o
6 5 14 619.17 656.18 78.35 o
-1 6 14 1742.01 1870.61 235.05 o
0 6 14 3213.58 3388.64 264.43 o
1 6 14 37.42 9.79 48.97 <
2 6 14 2.77 -39.18 58.76 <
3 6 14 344.19 195.88 78.35 <
4 6 14 1854.35 1478.86 137.11 o
5 6 14 1311.85 1351.54 137.11 o
1 7 14 1056.75 842.26 156.70 o
2 7 14 775.88 832.47 156.70 o
3 7 14 65.60 68.56 58.76 <
-2 -6 15 72.68 78.35 29.38 <
-1 -6 15 788.11 959.79 78.35 o
-4 -5 15 1391.18 1224.22 186.08 o
-3 -5 15 234.13 244.84 58.76 o
-2 -5 15 18.28 0.00 39.18 <
-1 -5 15 1756.75 1772.67 97.94 o
0 -5 15 134.97 156.70 39.18 o
1 -5 15 97.26 58.76 29.38 <
2 -5 15 66.84 48.97 39.18 <
-5 -4 15 1064.85 597.42 127.32 o
-4 -4 15 96.79 166.49 48.97 o
-3 -4 15 0.42 -9.79 39.18 <
-2 -4 15 310.85 254.64 78.35 o
-1 -4 15 257.82 293.81 48.97 o
0 -4 15 67.66 48.97 29.38 <
1 -4 15 1748.85 1429.89 107.73 o
2 -4 15 184.77 127.32 39.18 o
3 -4 15 39.33 97.94 58.76 <
-5 -3 15 31.88 48.97 58.76 <
-4 -3 15 39.99 39.18 48.97 <
-3 -3 15 4.94 0.00 39.18 <
-2 -3 15 307.23 244.84 58.76 o
-1 -3 15 973.40 832.47 97.94 o
0 -3 15 89.49 117.53 29.38 o
1 -3 15 2931.91 2791.22 107.73 o
2 -3 15 1237.64 1253.60 78.35 o
3 -3 15 33.63 9.79 39.18 <
4 -3 15 33.83 39.18 39.18 <
-5 -2 15 207.50 205.67 88.14 <
-4 -2 15 15.05 19.59 39.18 <
-3 -2 15 23.10 39.18 39.18 <
-2 -2 15 95.01 39.18 39.18 <
-1 -2 15 953.29 1038.14 107.73 o
0 -2 15 6.09 19.59 29.38 <
1 -2 15 94.46 39.18 29.38 <
2 -2 15 88.52 127.32 29.38 o
3 -2 15 691.79 724.74 88.14 o
4 -2 15 278.45 342.78 58.76 o
5 -2 15 20.38 156.70 48.97 o
-5 -1 15 2228.82 2203.60 225.26 o
-4 -1 15 1.49 -48.97 39.18 <
-3 -1 15 19.28 68.56 39.18 <
-2 -1 15 1404.25 1469.07 137.11 o
-1 -1 15 3.28 9.79 29.38 <
0 -1 15 1201.22 1371.13 117.53 o
1 -1 15 75.65 39.18 19.59 <
2 -1 15 555.79 587.63 58.76 o
3 -1 15 6.39 0.00 29.38 <
4 -1 15 2337.41 2272.15 137.11 o
5 -1 15 301.01 264.43 58.76 o
-5 0 15 252.54 244.84 88.14 <
-4 0 15 51.39 39.18 39.18 <
-3 0 15 786.22 479.89 88.14 o
-2 0 15 178.58 215.46 58.76 o
-1 0 15 686.74 577.83 78.35 o
0 0 15 63.79 176.29 48.97 o
1 0 15 1017.49 803.09 58.76 o
2 0 15 1025.62 1067.52 68.56 o
3 0 15 780.47 891.23 97.94 o
4 0 15 919.36 1096.90 107.73 o
5 0 15 392.12 293.81 58.76 o
6 0 15 1389.83 1488.65 137.11 o
-5 1 15 114.53 -29.38 58.76 <
-4 1 15 1045.42 998.96 127.32 o
-3 1 15 4558.52 4084.00 205.67 o
-2 1 15 846.20 989.17 107.73 o
-1 1 15 1.64 9.79 39.18 <
0 1 15 1303.06 1341.75 107.73 o
1 1 15 42.81 58.76 29.38 <
2 1 15 411.82 479.89 68.56 o
3 1 15 107.19 97.94 39.18 <
4 1 15 99.00 19.59 39.18 <
5 1 15 2549.75 2605.14 146.91 o
6 1 15 1010.65 1136.08 117.53 o
-4 2 15 5.88 0.00 48.97 <
-3 2 15 170.45 176.29 58.76 <
-2 2 15 984.85 989.17 107.73 o
-1 2 15 2285.74 2389.68 137.11 o
0 2 15 179.13 205.67 48.97 o
1 2 15 3.20 78.35 29.38 <
2 2 15 213.16 195.88 48.97 o
3 2 15 135.65 78.35 39.18 <
4 2 15 2719.72 2624.73 137.11 o
5 2 15 10.10 0.00 29.38 <
6 2 15 235.37 235.05 48.97 o
-3 3 15 2146.89 2125.25 156.70 o
-2 3 15 210.01 156.70 48.97 o
-1 3 15 102.08 146.91 48.97 <
0 3 15 439.26 509.28 68.56 o
1 3 15 209.87 254.64 39.18 o
2 3 15 29.79 0.00 29.38 <
3 3 15 10.95 -19.59 19.59 <
4 3 15 347.41 509.28 68.56 o
5 3 15 30.30 -19.59 29.38 <
6 3 15 682.57 636.59 78.35 o
-3 4 15 183.77 166.49 58.76 <
-2 4 15 100.28 235.05 58.76 o
-1 4 15 2055.84 2174.22 137.11 o
0 4 15 2509.92 2938.13 156.70 o
1 4 15 80.38 29.38 39.18 <
2 4 15 521.07 509.28 78.35 o
3 4 15 1663.96 1939.17 166.49 o
4 4 15 29.53 -9.79 39.18 <
5 4 15 2077.52 2037.10 186.08 o
6 4 15 11.91 78.35 39.18 <
-2 5 15 1630.33 1782.47 235.05 o
-1 5 15 768.23 558.24 127.32 o
0 5 15 31.32 58.76 39.18 <
1 5 15 219.14 137.11 48.97 <
2 5 15 1181.37 1390.71 127.32 o
3 5 15 834.33 822.68 97.94 o
4 5 15 1301.32 1214.43 156.70 o
5 5 15 63.65 88.14 58.76 <
0 6 15 12.67 -117.53 48.97 <
1 6 15 2509.27 2291.74 215.46 o
2 6 15 343.61 254.64 88.14 <
3 6 15 1075.36 724.74 146.91 o
4 6 15 135.34 48.97 58.76 <
-2 -5 16 191.15 146.91 39.18 o
-1 -5 16 3111.77 3212.36 127.32 o
0 -5 16 59.45 39.18 29.38 <
-4 -4 16 351.13 372.16 107.73 o
-3 -4 16 158.21 58.76 58.76 <
-2 -4 16 372.13 244.84 88.14 <
-1 -4 16 3186.21 3075.24 127.32 o
0 -4 16 181.08 146.91 39.18 o
1 -4 16 2879.28 2791.22 137.11 o
2 -4 16 369.09 293.81 48.97 o
-4 -3 16 222.08 342.78 78.35 o
-3 -3 16 9484.01 9754.59 342.78 o
-2 -3 16 2270.47 2742.25 166.49 o
-1 -3 16 242.24 225.26 58.76 o
0 -3 16 126.05 146.91 29.38 o
1 -3 16 137.23 205.67 39.18 o
2 -3 16 2639.04 2614.94 107.73 o
3 -3 16 831.97 822.68 97.94 o
-5 -2 16 26.86 97.94 58.76 <
-4 -2 16 165.11 137.11 58.76 <
-3 -2 16 796.13 744.33 97.94 o
-2 -2 16 310.95 274.23 58.76 o
-1 -2 16 2265.47 2046.90 137.11 o
0 -2 16 1076.53 969.58 78.35 o
1 -2 16 4261.83 3946.89 137.11 o
2 -2 16 1343.61 1488.65 88.14 o
3 -2 16 3868.14 3535.55 176.29 o
4 -2 16 219.61 117.53 48.97 <
-5 -1 16 2413.81 1890.20 244.84 o
-4 -1 16 4129.97 3966.48 215.46 o
-3 -1 16 39.28 0.00 39.18 <
-2 -1 16 3497.23 3251.53 176.29 o
-1 -1 16 2436.17 2673.70 156.70 o
0 -1 16 8467.48 8334.50 215.46 o
1 -1 16 1238.46 1282.98 78.35 o
2 -1 16 1522.27 1341.75 88.14 o
3 -1 16 1820.39 1851.02 117.53 o
4 -1 16 1079.77 1263.40 127.32 o
5 -1 16 3750.96 3623.69 186.08 o
-4 0 16 989.64 1038.14 127.32 o
-3 0 16 44.66 19.59 39.18 <
-2 0 16 259.03 186.08 58.76 o
-1 0 16 1889.20 1782.47 127.32 o
0 0 16 5531.14 6336.57 244.84 o
1 0 16 1187.66 1087.11 78.35 o
2 0 16 1343.50 1576.80 107.73 o
3 0 16 36.90 78.35 39.18 <
4 0 16 2817.13 3212.36 166.49 o
5 0 16 203.45 244.84 58.76 o
-4 1 16 3861.90 3927.30 215.46 o
-3 1 16 180.37 274.23 68.56 o
-2 1 16 5947.66 5974.20 244.84 o
-1 1 16 2251.46 2135.04 137.11 o
0 1 16 672.84 656.18 78.35 o
1 1 16 1933.46 1615.97 88.14 o
2 1 16 804.16 1018.55 107.73 o
3 1 16 744.66 460.31 68.56 o
4 1 16 2723.70 2448.44 137.11 o
5 1 16 1506.47 1351.54 127.32 o
-4 2 16 256.92 205.67 58.76 o
-3 2 16 2859.64 2771.64 166.49 o
-2 2 16 1095.83 1214.43 127.32 o
-1 2 16 837.29 969.58 107.73 o
0 2 16 97.93 225.26 48.97 o
1 2 16 11.97 107.73 39.18 <
2 2 16 15355.50 15532.90 421.13 o
3 2 16 1287.13 1351.54 107.73 o
4 2 16 18.92 48.97 39.18 <
5 2 16 3.23 58.76 39.18 <
-3 3 16 1400.83 1282.98 205.67 o
-2 3 16 1563.47 1547.42 205.67 o
-1 3 16 6044.69 6179.87 244.84 o
0 3 16 414.96 460.31 68.56 o
1 3 16 569.32 342.78 58.76 o
2 3 16 470.46 509.28 78.35 o
3 3 16 960.33 1087.11 107.73 o
4 3 16 1801.40 1518.03 117.53 o
5 3 16 191.10 195.88 58.76 o
-2 4 16 87.99 176.29 68.56 <
-1 4 16 78.07 362.37 97.94 o
0 4 16 3563.69 3966.48 195.88 o
1 4 16 1889.59 2213.39 137.11 o
2 4 16 447.02 332.99 58.76 o
3 4 16 1121.43 949.99 97.94 o
4 4 16 1774.36 1655.15 195.88 o
5 4 16 4487.28 4916.47 303.61 o
-1 5 16 1282.86 1322.16 186.08 o
0 5 16 2652.17 2585.55 156.70 o
1 5 16 2647.94 2634.52 156.70 o
2 5 16 220.00 225.26 58.76 o
3 5 16 323.40 391.75 68.56 o
4 5 16 1967.95 1694.32 166.49 o
2 6 16 39.20 -29.38 58.76 <
-2 -4 17 205.00 186.08 58.76 o
-1 -4 17 91.24 107.73 39.18 <
0 -4 17 18.57 0.00 29.38 <
1 -4 17 22.55 39.18 29.38 <
-3 -3 17 2.57 -19.59 39.18 <
-2 -3 17 714.33 871.65 107.73 o
-1 -3 17 461.12 430.93 58.76 o
0 -3 17 59.29 39.18 29.38 <
1 -3 17 599.97 587.63 58.76 o
2 -3 17 3.64 -19.59 19.59 <
-4 -2 17 381.98 117.53 58.76 <
-3 -2 17 454.41 323.19 68.56 o
-2 -2 17 315.39 381.96 78.35 o
-1 -2 17 141.03 137.11 48.97 <
0 -2 17 414.73 450.51 58.76 o
1 -2 17 884.07 822.68 68.56 o
2 -2 17 15.69 58.76 29.38 <
3 -2 17 25.71 58.76 39.18 <
-4 -1 17 781.62 763.91 107.73 o
-3 -1 17 79.43 58.76 39.18 <
-2 -1 17 400.74 293.81 68.56 o
-1 -1 17 176.12 215.46 58.76 o
0 -1 17 894.68 930.41 78.35 o
1 -1 17 195.25 146.91 29.38 o
2 -1 17 107.93 78.35 39.18 <
3 -1 17 221.84 264.43 58.76 o
4 -1 17 11.13 39.18 39.18 <
-4 0 17 39.51 97.94 48.97 <
-3 0 17 9.69 88.14 48.97 <
-2 0 17 28.57 88.14 48.97 <
-1 0 17 1506.96 1380.92 127.32 o
0 0 17 8.67 78.35 29.38 <
1 0 17 79.15 107.73 29.38 o
2 0 17 256.63 274.23 58.76 o
3 0 17 1642.44 1743.29 127.32 o
4 0 17 215.60 205.67 58.76 o
-3 1 17 3.27 -29.38 39.18 <
-2 1 17 973.82 871.65 107.73 o
-1 1 17 749.80 636.59 88.14 o
0 1 17 700.31 989.17 107.73 o
1 1 17 10.17 58.76 29.38 <
2 1 17 2608.89 2791.22 146.91 o
3 1 17 35.95 176.29 48.97 o
4 1 17 1808.20 1948.96 127.32 o
5 1 17 2921.03 2703.08 156.70 o
-3 2 17 95.40 58.76 48.97 <
-2 2 17 125.90 117.53 48.97 <
-1 2 17 70.79 39.18 39.18 <
0 2 17 886.38 842.26 97.94 o
1 2 17 2189.02 2272.15 137.11 o
2 2 17 1176.22 1371.13 117.53 o
3 2 17 1694.97 1498.45 117.53 o
4 2 17 2047.48 1880.40 127.32 o
5 2 17 381.02 215.46 58.76 o
-2 3 17 1876.34 2056.69 244.84 o
-1 3 17 400.69 195.88 78.35 <
0 3 17 111.81 284.02 88.14 o
1 3 17 1349.92 1087.11 166.49 o
2 3 17 557.70 479.89 107.73 o
3 3 17 14.75 9.79 48.97 <
4 3 17 537.66 734.53 137.11 o
-1 4 17 165.09 156.70 78.35 <
0 4 17 28.92 58.76 58.76 <
1 4 17 710.70 754.12 137.11 o
2 4 17 3458.43 3369.06 244.84 o
3 4 17 31.19 107.73 58.76 <
4 4 17 591.41 607.21 117.53 o
1 5 17 547.65 509.28 78.35 o
2 5 17 681.48 675.77 88.14 o
3 5 17 1183.56 1273.19 186.08 o
-2 -3 18 918.61 773.71 107.73 o
-1 -3 18 7565.77 7707.69 225.26 o
0 -3 18 250.45 332.99 48.97 o
1 -3 18 35.61 48.97 29.38 <
-3 -2 18 174.54 430.93 107.73 o
-2 -2 18 437.09 430.93 78.35 o
-1 -2 18 1604.40 1557.21 146.91 o
0 -2 18 1831.46 1909.78 107.73 o
1 -2 18 6309.96 5886.05 186.08 o
2 -2 18 740.37 989.17 107.73 o
-3 -1 18 2685.77 2830.40 176.29 o
-2 -1 18 8319.63 8608.72 332.99 o
-1 -1 18 1.14 -29.38 29.38 <
0 -1 18 449.15 528.86 68.56 o
1 -1 18 2302.12 2164.42 107.73 o
2 -1 18 1427.08 1674.73 137.11 o
3 -1 18 559.98 450.51 78.35 o
-3 0 18 56.18 58.76 48.97 <
-2 0 18 3.75 0.00 39.18 <
-1 0 18 103.11 97.94 48.97 <
0 0 18 3962.58 3731.43 146.91 o
1 0 18 275.69 107.73 29.38 o
2 0 18 11025.00 11292.20 362.37 o
3 0 18 1781.75 1841.23 127.32 o
-2 1 18 6269.57 5758.74 254.64 o
-1 1 18 5.68 -19.59 39.18 <
0 1 18 8551.24 8334.50 225.26 o
1 1 18 130.83 127.32 48.97 <
2 1 18 300.80 401.54 68.56 o
3 1 18 161.97 264.43 58.76 o
4 1 18 197.06 215.46 58.76 o
-2 2 18 252.16 264.43 68.56 o
-1 2 18 8.50 -9.79 39.18 <
0 2 18 6768.05 7580.38 284.02 o
1 2 18 2007.80 2144.83 137.11 o
2 2 18 1677.56 1909.78 127.32 o
3 2 18 57.44 48.97 39.18 <
4 2 18 7223.65 7433.47 274.23 o
-1 3 18 2263.68 1958.75 244.84 o
0 3 18 1301.04 1508.24 205.67 o
1 3 18 2584.07 2487.62 215.46 o
2 3 18 455.11 342.78 107.73 o
3 3 18 227.88 68.56 68.56 <
1 4 18 1431.38 1615.97 205.67 o
2 4 18 5199.96 5415.95 332.99 o
-1 -1 19 33.43 9.79 39.18 <
0 -1 19 292.40 332.99 48.97 o
1 -1 19 38.87 78.35 29.38 <
-1 0 19 471.46 646.39 97.94 o
0 0 19 32.16 19.59 29.38 <
1 0 19 1300.88 1361.33 127.32 o
2 0 19 55.81 107.73 39.18 <
-1 1 19 16.46 39.18 39.18 <
0 1 19 667.13 548.45 68.56 o
1 1 19 199.29 195.88 58.76 o
2 1 19 28.47 97.94 39.18 <
0 2 19 1.99 0.00 39.18 <
1 2 19 89.87 78.35 39.18 <
2 2 19 0.10 -9.79 39.18 <
