#------------------------------------------------------------------------------
#$Date: 2021-02-16 10:47:15 +0200 (Tue, 16 Feb 2021) $
#$Revision: 262001 $
#$URL: file:///home/coder/svn-repositories/cod/cif/1/56/04/1560410.cif $
#------------------------------------------------------------------------------
#
# This file is available in the Crystallography Open Database (COD),
# http://www.crystallography.net/
#
# All data on this site have been placed in the public domain by the
# contributors.
#
data_1560410
loop_
_publ_author_name
'Mesbah, Adel'
'Prakash, Jai'
'Malliakas, Christos D.'
'Leb\`egue, S\'ebastien'
'Badawi, Michael'
'Ibers, James A.'
_publ_section_title
;
 Syntheses, crystal structures, and optical properties of CsBa5Ti2Se9Cl
 and CsBa2Cl5
;
_journal_name_full               'Journal of Solid State Chemistry'
_journal_page_first              258
_journal_page_last               262
_journal_paper_doi               10.1016/j.jssc.2017.05.029
_journal_volume                  253
_journal_year                    2017
_chemical_formula_sum            'Ba2 Cl5 Cs'
_chemical_formula_weight         584.84
_space_group_crystal_system      monoclinic
_space_group_IT_number           14
_space_group_name_Hall           '-P 2ybc'
_space_group_name_H-M_alt        'P 1 21/c 1'
_atom_sites_solution_hydrogens   .
_cell_angle_alpha                90
_cell_angle_beta                 90.192(2)
_cell_angle_gamma                90
_cell_formula_units_Z            4
_cell_length_a                   9.5203(3)
_cell_length_b                   8.2098(2)
_cell_length_c                   13.1640(4)
_cell_measurement_reflns_used    3401
_cell_measurement_temperature    100(2)
_cell_measurement_theta_max      29.899
_cell_measurement_theta_min      4.284
_cell_volume                     1028.89(5)
_computing_structure_refinement  'SHELXL-2016/6 (Sheldrick, 2016)'
_diffrn_ambient_temperature      100(2)
_diffrn_measured_fraction_theta_full 0.995
_diffrn_measured_fraction_theta_max 0.986
_diffrn_measurement_device_type  'bruker apex II'
_diffrn_measurement_method       ' omega and phi scans'
_diffrn_radiation_type           MoK\a
_diffrn_radiation_wavelength     0.71073
_diffrn_reflns_av_R_equivalents  0.0510
_diffrn_reflns_av_unetI/netI     0.0425
_diffrn_reflns_Laue_measured_fraction_full 0.995
_diffrn_reflns_Laue_measured_fraction_max 0.986
_diffrn_reflns_limit_h_max       13
_diffrn_reflns_limit_h_min       -13
_diffrn_reflns_limit_k_max       11
_diffrn_reflns_limit_k_min       -11
_diffrn_reflns_limit_l_max       15
_diffrn_reflns_limit_l_min       -18
_diffrn_reflns_number            14921
_diffrn_reflns_point_group_measured_fraction_full 0.995
_diffrn_reflns_point_group_measured_fraction_max 0.986
_diffrn_reflns_theta_full        25.242
_diffrn_reflns_theta_max         30.041
_diffrn_reflns_theta_min         2.924
_exptl_absorpt_coefficient_mu    12.312
_exptl_absorpt_correction_T_max  0.76445
_exptl_absorpt_correction_T_min  0.64753
_exptl_absorpt_correction_type   numerical
_exptl_absorpt_process_details   'face indexed (SADABS; Sheldrick), 2008'
_exptl_crystal_colour            pink
_exptl_crystal_density_diffrn    3.776
_exptl_crystal_description       plate
_exptl_crystal_F_000             1008
_exptl_crystal_size_max          0.063
_exptl_crystal_size_mid          0.039
_exptl_crystal_size_min          0.034
_refine_diff_density_max         1.157
_refine_diff_density_min         -1.113
_refine_diff_density_rms         0.262
_refine_ls_extinction_coef       0.00015(4)
_refine_ls_extinction_expression Fc^*^=kFc[1+0.001xFc^2^\l^3^/sin(2\q)]^-1/4^
_refine_ls_extinction_method     'SHELXL-2016/6 (Sheldrick 2016)'
_refine_ls_goodness_of_fit_ref   0.991
_refine_ls_hydrogen_treatment    undef
_refine_ls_matrix_type           full
_refine_ls_number_parameters     74
_refine_ls_number_reflns         2984
_refine_ls_number_restraints     0
_refine_ls_restrained_S_all      0.991
_refine_ls_R_factor_all          0.0424
_refine_ls_R_factor_gt           0.0259
_refine_ls_shift/su_max          0.000
_refine_ls_shift/su_mean         0.000
_refine_ls_structure_factor_coef Fsqd
_refine_ls_weighting_details
'w=1/[\s^2^(Fo^2^)+(0.0149P)^2^] where P=(1.0000Fo^2^+0.0000Fc^2^)'
_refine_ls_weighting_scheme      calc
_refine_ls_wR_factor_gt          0.0400
_refine_ls_wR_factor_ref         0.0433
_reflns_Friedel_coverage         0.000
_reflns_Friedel_fraction_full    .
_reflns_Friedel_fraction_max     .
_reflns_number_gt                2431
_reflns_number_total             2984
_reflns_threshold_expression     'I > 2\s(I)'
_cod_data_source_file            JSSC-2018-253-258.cif
_cod_data_source_block           Ba2CsCl5
_cod_original_sg_symbol_H-M      'P 21/c'
_cod_database_code               1560410
_shelx_space_group_comment
;
The symmetry employed for this shelxl refinement is uniquely defined
by the following loop, which should always be used as a source of
symmetry information in preference to the above space-group names.
They are only intended as comments.
;
_shelx_estimated_absorpt_t_min   0.511
_shelx_estimated_absorpt_t_max   0.680
_shelx_res_file
;
TITL t in P2(1)/c
    Ba2CsCl5.res
    created by SHELXL-2016/6 at 09:17:45 on 20-Feb-2017
CELL 0.71073   9.5203   8.2098  13.1640  90.000  90.192  90.000
ZERR    4.00   0.0003   0.0002   0.0004   0.000   0.002   0.000
LATT  1
SYMM -X, 0.5+Y, 0.5-Z
SFAC CL CS BA
UNIT 20 4 8
TEMP -173.080
SIZE 0.034 0.039 0.063
omit 1 1 0
omit 1 0 0
acta
L.S. 10
BOND
FMAP 2
PLAN 20
WGHT    0.014900    0.000000    0.000000    0.000000    0.000000    1.000000
EXTI    0.000154
FVAR       0.15819
CS1   2    0.489290    0.057719    0.165370    11.00000    0.01027    0.01100 =
         0.01238   -0.00217    0.00047   -0.00177
BA1   3    0.000360    0.028111    0.175697    11.00000    0.00867    0.00727 =
         0.00681   -0.00017   -0.00015    0.00080
BA2   3    0.248674    0.566478    0.007274    11.00000    0.00835    0.00823 =
         0.00861    0.00077   -0.00011    0.00003
CL1   1    0.037212    0.162469    0.401096    11.00000    0.01008    0.00994 =
         0.00981    0.00209    0.00064    0.00070
CL2   1    0.209568    0.333954    0.187154    11.00000    0.01279    0.01023 =
         0.01200    0.00141    0.00243    0.00121
CL3   1    0.213589    0.550436    0.502231    11.00000    0.00953    0.01091 =
         0.00861   -0.00055   -0.00102   -0.00012
CL4   1    0.463709    0.175655    0.421156    11.00000    0.01177    0.01231 =
         0.01629    0.00381   -0.00097   -0.00124
CL5   1    0.775487    0.308716    0.218616    11.00000    0.01046    0.00997 =
         0.01018   -0.00126   -0.00078    0.00002
HKLF 4




REM  t in P2(1)/c
REM R1 =  0.0259 for    2431 Fo > 4sig(Fo)  and  0.0424 for all    2984 data
REM     74 parameters refined using      0 restraints

END

WGHT      0.0149      0.0000

REM Highest difference peak  1.157,  deepest hole -1.113,  1-sigma level  0.262
Q1    1  -0.0797  0.0332  0.1608  11.00000  0.05    1.16
Q2    1   0.0000  0.5000  0.5000  10.50000  0.05    1.11
Q3    1   0.0941  0.0541  0.1781  11.00000  0.05    1.04
Q4    1   0.1740  0.6436  0.0393  11.00000  0.05    0.97
Q5    1   0.3833  0.0974  0.1726  11.00000  0.05    0.96
Q6    1  -0.0033  0.0217  0.1401  11.00000  0.05    0.93
Q7    1  -0.0187  0.1958  0.0626  11.00000  0.05    0.91
Q8    1   0.2431  0.6215  0.4795  11.00000  0.05    0.88
Q9    1   0.5609  0.1226  0.1575  11.00000  0.05    0.87
Q10   1   0.4265 -0.0015  0.1799  11.00000  0.05    0.87
Q11   1   0.4846 -0.0007  0.0635  11.00000  0.05    0.86
Q12   1   0.6324  0.1873  0.2209  11.00000  0.05    0.84
Q13   1   0.1819  0.4932  0.0194  11.00000  0.05    0.83
Q14   1   0.8333  0.4453  0.1368  11.00000  0.05    0.82
Q15   1   0.4264  0.5445 -0.0412  11.00000  0.05    0.81
Q16   1   0.7429  0.3668  0.1396  11.00000  0.05    0.81
Q17   1   0.6745  0.0108  0.2196  11.00000  0.05    0.81
Q18   1   0.4011  0.5915 -0.1083  11.00000  0.05    0.80
Q19   1   0.6618  0.1054  0.1618  11.00000  0.05    0.80
Q20   1  -0.0853  0.0008  0.4194  11.00000  0.05    0.80
;
_shelx_res_checksum              87853
_shelx_hkl_file
;
   1   0   0 -2.8241  2.0012   6
   2   0   0 464.245  13.442   6
  -3   0   0 212.504  10.808   7
   3   0   0 209.819  11.384   6
   3   0   0 224.187  10.979   7
  -4   0   0 9960.63  181.06   7
   4   0   0 9818.92  180.87   7
  -4   0   0 9932.58  181.68   1
   4   0   0 9999.99  185.29   6
   5   0   0 326.986  14.898   7
  -5   0   0 360.502  15.124   7
   5   0   0 360.774  16.085   6
  -5   0   0 331.203  15.349   1
  -6   0   0 289.322  15.376   7
   6   0   0 301.194  16.127   6
   6   0   0 275.553  15.067   7
  -6   0   0 316.318  15.632   1
  -7   0   0 163.066  14.211   1
   7   0   0 155.585  14.982   6
  -7   0   0 157.038  13.328   7
   7   0   0 175.293  13.967   7
   8   0   0 2188.65   55.93   6
  -8   0   0 2227.80   54.17   1
   8   0   0 2299.83   54.96   7
  -8   0   0 2225.57   54.39   7
  -9   0   0 253.193  19.095   7
   9   0   0 242.854  19.039   7
  -9   0   0 260.003  19.367   1
   9   0   0 203.444  19.709   6
  10   0   0 135.864  17.345   7
  10   0   0 120.512  19.094   6
 -10   0   0 153.481  17.419   1
 -10   0   0 151.849  17.496   7
 -11   0   0  0.6269 13.1989   1
 -11   0   0  0.8835 11.6960   7
  11   0   0 -4.3595 15.7655   6
  11   0   0 -5.4567 12.6942   7
 -12   0   0 473.993  29.804   1
 -12   0   0 464.715  28.170   7
  12   0   0 488.288  30.183   7
 -13   0   0 78.2240 18.1002   7
  13   0   0 73.2769 18.9146   7
   0  -1   0 -7.0741  2.4039   6
   1  -1   0 -0.5916  3.0371   6
   2  -1   0 -0.4105  5.1406   6
   2   1   0 7.10987 6.81295   6
   3  -1   0 683.575  18.755   6
  -3  -1   0 695.326  18.852   7
   3   1   0 686.681  19.551   7
  -3   1   0 680.904  18.313   7
   3   1   0 672.357  20.591   6
   4  -1   0 -4.0492  7.2720   6
   4  -1   0 -5.9464  5.7283   7
  -4  -1   0 6.54572 6.49217   7
  -4  -1   0 -2.0965  6.5216   1
  -4   1   0 11.3419  6.8436   1
   4   1   0 -2.4276  6.8113   7
   4   1   0 -14.891   7.762   6
  -4   1   0 -6.9022  5.5302   7
  -5  -1   0 -11.379   6.138   7
   5  -1   0 6.02406 6.27855   7
   5  -1   0 11.1204  7.5475   6
  -5  -1   0 1.62769 6.61750   1
   5   1   0 5.19942 8.54008   6
  -5   1   0 -4.2486  6.7548   1
  -5   1   0 -3.3027  6.0377   7
   5   1   0 -2.0423  6.5323   7
   5   1   0 5.59086 7.46229   5
   6  -1   0 17.3937  9.6061   6
   6  -1   0 23.0612  7.9661   7
  -6  -1   0 27.6734  8.1228   7
  -6  -1   0 25.3059  8.3723   1
   6   1   0 15.8137  8.1456   7
   6   1   0 30.5770 10.1927   6
  -6   1   0 18.6390  7.4585   7
  -6   1   0 24.0098  8.3727   1
   7  -1   0 537.076  22.109   7
  -7  -1   0 518.845  22.213   1
  -7  -1   0 568.305  22.271   7
   7  -1   0 548.706  22.256   6
  -7   1   0 531.944  21.493   7
  -7   1   0 546.637  21.754   1
   7   1   0 521.719  23.489   6
   7   1   0 498.416  22.313   7
  -8  -1   0 -13.436   8.733   1
   8  -1   0 -3.6031  8.9028   7
  -8  -1   0 0.21636 8.84505   7
   8  -1   0 -7.1032 10.7548   6
  -8   1   0 -2.1758  9.0573   1
  -8   1   0 -5.8116  8.2860   7
   8   1   0 -19.004   9.900   6
   8   1   0 7.70651 9.84008   7
   9  -1   0 -18.131  11.605   6
  -9  -1   0  0.4364 10.1636   7
   9  -1   0 16.0581 10.9587   7
  -9  -1   0 -13.308  10.130   1
  -9   1   0 -5.4459  9.4510   7
   9   1   0 10.5494 12.4630   6
   9   1   0  3.8685 10.8694   7
  -9   1   0 -1.9144 10.4434   1
 -10  -1   0 54.9200 14.5664   1
 -10  -1   0 46.1557 13.5923   7
  10  -1   0 40.2592 13.6854   7
  10  -1   0 48.7717 14.8469   6
 -10   1   0 53.2158 13.1278   7
  10   1   0 38.6245 14.2341   7
 -10   1   0 43.0115 14.4755   1
  10   1   0 26.9966 15.1666   6
 -11  -1   0 184.399  19.539   7
  11  -1   0 191.770  19.874   7
  11  -1   0 146.600  21.013   6
 -11  -1   0 165.110  19.426   1
 -11   1   0 183.517  20.812   1
  11   1   0 165.823  22.525   6
  11   1   0 181.100  20.847   7
 -11   1   0 171.276  19.200   7
 -12  -1   0  7.9684 13.1665   7
  12  -1   0 -6.3890 14.0343   7
 -12   1   0 -21.074  12.251   7
  12   1   0 -16.533  14.254   7
 -12   1   0 -6.3981 13.7170   1
 -13  -1   0 -38.739  11.822   7
  13  -1   0 11.2068 15.3021   7
 -13   1   0  8.5933 14.0686   7
  13   1   0  8.5211 16.6257   7
   0  -2   0 3505.49   67.93   6
   0   2   0 3619.32   66.47   7
   1  -2   0 48.5020  6.4536   6
   1  -2   0 50.6928  6.0524   4
  -1   2   0 52.7334  5.6806   7
   1   2   0 58.1632  6.1930   7
   2  -2   0 600.378  16.654   6
  -2   2   0 605.972  16.162   7
   2   2   0 575.742  19.512   6
   2   2   0 600.195  18.031   7
  -3  -2   0 48.7260  7.7882   7
  -3  -2   0 63.8734  8.5730   1
   3  -2   0 72.0523  7.7423   7
   3  -2   0 68.9216  8.4738   6
  -3   2   0 57.6163  7.0184   7
  -3   2   0 54.4158  7.7108   1
   3   2   0 64.6786 10.5981   6
   3   2   0 56.9557  8.9514   7
   4  -2   0 2664.00   55.26   6
   4  -2   0 2683.39   54.55   7
  -4  -2   0 2628.81   55.30   7
  -4  -2   0 2601.47   55.01   1
   4   2   0 2561.42   58.44   6
   4   2   0 2626.40   57.69   5
   4   2   0 2557.35   56.34   7
  -4   2   0 2660.11   55.28   1
  -4   2   0 2670.27   54.03   7
   5  -2   0 20.9933  7.6763   6
  -5  -2   0 33.1983  8.1625   1
  -5  -2   0 32.2462  8.1464   7
   5  -2   0 22.8806  7.1859   7
   5   2   0 21.3967  8.7866   5
   5   2   0 27.1098 10.4058   6
  -5   2   0 40.6664  8.5902   1
   5   2   0 35.2516  8.8911   7
  -5   2   0 30.6190  7.3626   7
   6  -2   0 412.891  17.933   7
   6  -2   0 397.271  18.430   6
  -6  -2   0 419.320  18.605   7
  -6  -2   0 417.981  18.142   1
   6   2   0 414.919  20.468   5
   6   2   0 417.373  19.844   7
   6   2   0 417.775  21.157   6
  -6   2   0 392.473  18.476   1
  -6   2   0 442.773  17.947   7
  -7  -2   0 38.6366 10.1120   1
   7  -2   0 54.0353 11.3465   6
  -7  -2   0 40.0771 10.1649   7
   7  -2   0 37.7917  9.4359   7
   7   2   0 41.2738 11.1303   5
   7   2   0 48.8649 12.2857   6
  -7   2   0 38.3526  9.0713   7
   7   2   0 73.1444 12.2582   7
  -7   2   0 40.6898 10.1887   1
  -8  -2   0 1617.91   44.09   7
   8  -2   0 1672.58   44.10   7
  -8  -2   0 1615.70   43.65   1
   8  -2   0 1560.76   43.80   6
  -8   2   0 1606.68   43.95   1
   8   2   0 1592.82   46.05   7
  -8   2   0 1664.24   43.39   7
   8   2   0 1543.37   47.23   6
  -9  -2   0 28.7603 12.4279   1
  -9  -2   0 23.0455 11.5948   7
   9  -2   0 17.4310 11.9240   6
   9  -2   0 30.8127 11.5788   7
  -9   2   0 50.2418 12.0722   7
   9   2   0 25.7688 14.1368   6
   9   2   0 39.8767 13.5788   7
  -9   2   0 16.7304 11.5124   1
 -10  -2   0 239.388  20.423   7
  10  -2   0 223.977  20.437   6
 -10  -2   0 233.461  20.753   1
  10  -2   0 233.686  20.634   7
 -10   2   0 223.339  19.651   7
 -10   2   0 239.573  20.903   1
  10   2   0 228.590  23.259   6
  10   2   0 198.998  21.397   7
  11  -2   0 28.2314 14.1573   7
  11  -2   0 24.9542 15.9539   6
 -11  -2   0 39.9610 14.4974   7
 -11  -2   0 31.0687 14.7510   1
  11   2   0  9.4709 16.8641   6
 -11   2   0 34.6513 14.5134   1
  11   2   0 24.9213 15.0721   7
 -11   2   0 54.1632 14.4104   7
 -12  -2   0 927.348  38.497   7
  12  -2   0 795.911  37.410   7
 -12   2   0 811.884  36.782   1
 -12   2   0 850.438  36.128   7
  12   2   0 829.361  39.428   7
 -13  -2   0  8.4934 14.7587   7
 -13   2   0 37.8905 15.5663   7
  13   2   0 11.2661 17.6724   7
   0  -3   0 2.46085 7.07077   6
   0   3   0 5.14119 6.16665   1
   0   3   0 2.74743 5.28154   7
  -1  -3   0 774.352  21.190   7
   1  -3   0 725.358  20.149   6
  -1  -3   0 726.366  21.509   6
   1  -3   0 742.405  19.494   4
  -1   3   0 748.257  20.847   1
   1   3   0 747.438  20.195   7
  -1   3   0 729.797  19.391   7
   2  -3   0 15.6777  6.0029   7
   2  -3   0 21.3509  6.3523   4
  -2  -3   0 15.9430  7.4682   7
   2  -3   0 22.3093  6.6450   6
  -2   3   0 17.0510  5.7189   7
  -2   3   0 19.7263  6.9704   1
   2   3   0 17.6581  6.5198   7
  -3  -3   0 886.011  24.769   7
   3  -3   0 893.517  23.624   6
   3  -3   0 838.702  21.982   4
   3  -3   0 853.222  23.383   7
  -3   3   0 909.057  24.711   1
  -3   3   0 866.557  23.135   7
   3   3   0 822.641  25.902   5
   3   3   0 877.905  27.493   6
   3   3   0 836.357  24.564   7
  -4  -3   0 -2.8933  6.6778   7
  -4  -3   0 -0.2080  7.1236   1
   4  -3   0 -4.1004  6.0552   7
   4  -3   0 -5.6923  6.1753   6
  -4   3   0 0.60154 6.74168   1
  -4   3   0 -0.1007  5.6396   7
   4   3   0 -4.3991  9.4123   6
   4   3   0 10.7105  7.7446   7
   4   3   0 11.4508  8.4109   5
  -5  -3   0 225.301  14.689   7
   5  -3   0 242.385  13.735   6
   5  -3   0 235.976  13.646   7
  -5  -3   0 214.716  14.365   1
   5   3   0 197.043  15.803   5
   5   3   0 226.832  15.818   7
  -5   3   0 222.607  14.475   1
  -5   3   0 214.455  13.167   7
   5   3   0 191.735  16.868   6
   6  -3   0 44.3481  9.3539   7
  -6  -3   0 67.4144 10.8040   7
   6  -3   0 89.0320 11.7599   6
  -6  -3   0 89.9932 11.4179   1
  -6   3   0 86.5526 10.1744   7
   6   3   0 82.9198 12.4422   7
  -6   3   0 64.6262 10.6931   1
   6   3   0 86.6684 12.7893   5
   6   3   0 69.3811 14.3758   6
   7  -3   0 606.708  23.523   7
  -7  -3   0 591.882  23.746   1
  -7  -3   0 539.453  23.874   7
   7  -3   0 590.335  23.057   6
   7   3   0 524.456  25.749   5
   7   3   0 595.077  26.146   7
  -7   3   0 557.546  22.812   7
  -7   3   0 603.924  23.625   1
   7   3   0 552.659  27.106   6
  -8  -3   0 11.8281 10.1899   1
   8  -3   0  9.4551 10.0212   7
  -8  -3   0 17.9118 10.6124   7
   8  -3   0 11.1773 10.4961   6
   8   3   0 23.4184 11.9411   7
  -8   3   0  9.8859 10.8002   1
   8   3   0 13.2136 11.9344   5
   8   3   0  4.5241 12.9323   6
  -8   3   0 30.6086 10.5123   7
   9  -3   0 18.6494 12.8272   6
  -9  -3   0 21.1017 12.1306   7
   9  -3   0 30.7018 11.9882   7
  -9  -3   0 28.0533 12.4335   1
   9   3   0 31.2348 13.4233   7
  -9   3   0 38.1344 11.7396   7
   9   3   0 31.4761 15.2958   6
  -9   3   0 30.3221 12.4514   1
 -10  -3   0 66.4290 14.6598   7
  10  -3   0 64.2161 15.9526   6
  10  -3   0 85.3373 15.2639   7
 -10  -3   0 80.7159 15.5654   1
 -10   3   0 86.2213 14.8879   7
  10   3   0 69.4328 16.3497   7
 -10   3   0 64.8044 15.0724   1
  10   3   0 88.3344 18.8977   6
  11  -3   0 372.182  25.420   6
 -11  -3   0 342.120  25.035   1
 -11  -3   0 318.500  25.510   7
 -11   3   0 395.983  26.516   1
  11   3   0 314.917  27.072   7
 -11   3   0 357.992  24.330   7
 -12  -3   0 24.7340 15.2172   7
 -12   3   0 27.0701 14.4444   7
  12   3   0 48.7025 17.2975   7
 -12   3   0 27.4832 16.2015   1
   0  -4   0 179.828  12.801   6
   0  -4   0 166.470  12.141   7
   0  -4   0 201.142  12.610   7
   0   4   0 190.168  12.523   1
   0   4   0 154.780  10.683   7
  -1  -4   0 205.479  12.814   7
   1  -4   0 196.179  11.624   6
  -1  -4   0 199.134  13.187   6
   1  -4   0 227.845  12.770   7
   1   4   0 176.097  12.701   1
  -1   4   0 175.443  11.184   7
   1   4   0 210.033  13.070   5
  -1   4   0 200.628  12.421   1
   1   4   0 191.563  11.497   7
  -2  -4   0 401.212  17.085   7
   2  -4   0 396.898  15.395   7
   2  -4   0 380.183  14.899   6
   2  -4   0 362.278  14.412   4
   2   4   0 399.312  16.157   7
  -2   4   0 359.995  16.399   1
   2   4   0 374.626  17.326   5
  -2   4   0 384.610  14.812   7
   3  -4   0 192.354  12.027   4
   3  -4   0 203.221  11.970   6
   3  -4   0 218.507  12.500   7
  -3  -4   0 205.523  14.490   7
   3   4   0 177.900  13.532   5
  -3   4   0 245.473  13.922   1
   3   4   0 196.352   9.012   3
  -3   4   0 191.185  11.850   7
   3   4   0 165.937  12.829   7
   4  -4   0 188.837  12.961   7
   4  -4   0 194.428  13.161   6
  -4  -4   0 182.210  14.009   7
   4  -4   0 178.666  11.445   4
   4   4   0 196.679  14.514   7
  -4   4   0 191.031  12.650   7
   4   4   0 201.327  15.282   5
  -4   4   0 190.830  13.951   1
   4   4   0 208.779  16.796   6
   5  -4   0 149.862  12.336   7
  -5  -4   0 142.410  13.445   1
  -5  -4   0 153.378  13.468   7
   5  -4   0 146.603  12.622   6
   5   4   0 166.832  17.085   6
  -5   4   0 141.190  11.606   7
   5   4   0 141.158  14.581   5
  -5   4   0 176.917  14.512   1
   5   4   0 148.063  13.990   7
   6  -4   0 312.795  17.270   7
  -6  -4   0 272.156  17.462   1
   6  -4   0 306.123  16.578   6
  -6  -4   0 296.980  18.069   7
   6   4   0 301.043  20.707   5
  -6   4   0 322.137  17.107   7
   6   4   0 315.308  19.473   7
  -6   4   0 280.698  17.716   1
   6   4   0 284.554  21.362   6
   7  -4   0 152.649  14.592   6
  -7  -4   0 155.284  15.583   7
   7  -4   0 133.857  13.907   7
  -7  -4   0 144.208  14.861   1
   7   4   0 155.973  19.636   6
   7   4   0 157.411  17.221   5
  -7   4   0 137.736  13.918   7
  -7   4   0 170.463  16.872   1
   7   4   0 158.291  16.534   7
  -8  -4   0 201.217  18.328   7
   8  -4   0 226.019  18.231   7
   8  -4   0 207.324  17.903   6
  -8  -4   0 165.791  16.755   1
   8   4   0 182.125  18.883   7
   8   4   0 179.673  20.916   6
   8   4   0 230.512  20.796   5
  -8   4   0 211.369  18.680   1
  -8   4   0 188.247  16.586   7
   9  -4   0 92.3826 15.4128   7
  -9  -4   0 100.942  15.751   7
  -9  -4   0 166.376  17.766   1
   9  -4   0 94.0945 16.0521   6
  -9   4   0 107.147  16.639   1
   9   4   0 127.998  18.321   7
   9   4   0 113.313  20.005   6
  -9   4   0 73.9340 13.6850   7
   9   4   0 128.989  18.710   5
  10  -4   0 237.042  22.140   6
 -10  -4   0 193.299  19.496   1
 -10  -4   0 227.339  21.271   7
  10   4   0 179.664  20.979   7
 -10   4   0 197.674  18.879   7
 -10   4   0 237.178  21.786   1
  10   4   0 162.902  24.203   6
  11  -4   0 96.9387 18.2589   6
 -11   4   0 95.2368 18.5738   1
 -11   4   0 100.470  16.793   7
  11   4   0 101.239  19.084   7
 -12   4   0 91.8986 19.8763   1
  12   4   0 126.995  21.345   7
 -12   4   0 147.990  19.745   7
   0  -5   0 -6.8918  6.7995   7
   0  -5   0 9.63138 8.67958   6
   0   5   0 7.82950 6.22218   7
   0   5   0 10.7118  7.4920   1
   1  -5   0 836.997  24.865   6
  -1  -5   0 791.723  25.874   6
   1  -5   0 852.456  25.343   7
  -1  -5   0 885.735  26.069   7
  -1   5   0 793.858  23.824   7
  -1   5   0 805.958  25.457   1
   1   5   0 775.090  23.813   7
   1   5   0 799.663  25.246   1
   1   5   0 788.609  25.629   5
   2  -5   0 65.5991  9.4739   7
   2  -5   0 47.4882  9.1002   4
  -2  -5   0 76.0938 10.7200   7
   2  -5   0 52.2653  9.7713   6
  -2   5   0 72.1719  9.0144   7
   2   5   0 46.3201  9.7632   5
  -2   5   0 52.4410  9.4041   1
   2   5   0 68.6765  9.3380   7
   3  -5   0 501.933  19.226   6
  -3  -5   0 528.589  21.865   7
   3  -5   0 558.219  20.641   7
   3  -5   0 534.799  18.897   4
  -3   5   0 512.080  19.476   7
  -3   5   0 498.228  21.350   1
   3   5   0 552.026  20.961   7
   3   5   0 529.647  22.581   5
   4  -5   0 12.9896  7.5532   7
   4  -5   0 9.54618 7.97839   6
  -4  -5   0 4.76949 8.99318   7
   4  -5   0 0.95645 7.96634   4
   4   5   0 -2.3641  8.8041   5
   4   5   0 2.95563 8.01346   7
  -4   5   0 14.6639  7.4593   7
   4   5   0  8.3822 11.2299   6
  -4   5   0 -3.0175  8.0502   1
  -5  -5   0 356.850  20.299   7
   5  -5   0 396.760  18.346   6
   5  -5   0 393.678  17.778   4
   5  -5   0 381.283  18.950   7
   5   5   0 388.552  21.754   5
  -5   5   0 346.879  19.639   1
  -5   5   0 386.099  18.329   7
   5   5   0 321.675  22.495   6
   5   5   0 402.164  20.590   7
  -6  -5   0 247.099  18.317   1
   6  -5   0 229.117  17.475   7
   6  -5   0 243.742  16.206   6
   6  -5   0 257.003  15.227   4
  -6  -5   0 243.281  18.408   7
   6   5   0 236.367  18.492   7
   6   5   0 228.139  21.205   6
  -6   5   0 259.674  18.539   1
   6   5   0 213.700  19.132   5
  -6   5   0 214.019  15.972   7
  -7  -5   0 194.394  17.677   7
  -7  -5   0 200.889  17.427   1
   7  -5   0 193.568  17.299   6
   7  -5   0 222.162  16.276   4
   7  -5   0 194.719  16.678   7
   7   5   0 190.683  18.314   7
   7   5   0 196.641  21.531   6
  -7   5   0 197.284  16.637   7
   7   5   0 167.119  19.032   5
  -7   5   0 207.266  18.425   1
  -8  -5   0  1.0906 11.1742   1
  -8  -5   0 -16.334  10.397   7
   8  -5   0 -1.6166 11.4232   6
   8   5   0  6.4007 15.1006   6
  -8   5   0 0.11236 9.70551   7
  -8   5   0  8.8365 11.8667   1
   8   5   0  5.0181 12.2344   7
   8   5   0 16.0111 13.6836   5
  -9  -5   0 35.5573 13.2523   1
   9  -5   0 44.9836 13.9114   6
   9   5   0 30.6075 15.0663   5
   9   5   0 12.3081 12.9464   7
  -9   5   0 36.6608 12.3720   7
  -9   5   0 43.7408 14.7766   1
   9   5   0 40.5720 18.1254   6
 -10  -5   0 138.993  18.077   1
  10   5   0 121.706  20.661   5
  10   5   0 103.578  18.124   7
 -10   5   0 134.691  18.953   1
 -10   5   0 126.168  16.907   7
  11   5   0 119.981  19.746   7
 -11   5   0 88.8901 18.7626   1
 -11   5   0 132.917  18.209   7
 -12   5   0 31.6958 14.8393   7
  12   5   0 31.9641 17.0507   7
 -12   5   0 16.6533 16.4087   1
   0  -6   0 1.38444 9.33317   6
   0  -6   0 7.10836 8.39753   7
   0   6   0 -7.8018  6.7296   7
   0   6   0 4.80964 8.12753   1
   1  -6   0 507.829  21.340   7
  -1  -6   0 502.482  21.652   7
  -1  -6   0 509.673  22.486   7
   1  -6   0 526.440  21.321   6
   1   6   0 512.664  21.981   5
   1   6   0 491.995  21.579   1
   1   6   0 505.153  19.679   7
  -1   6   0 503.645  19.828   7
  -1   6   0 478.895  21.230   1
  -2  -6   0 303.344  19.305   7
   2  -6   0 304.169  17.322   7
   2  -6   0 336.313  17.681   6
  -2   6   0 310.543  16.222   7
  -2   6   0 311.823  17.771   1
   2   6   0 293.760  18.038   5
   2   6   0 324.360  16.921   7
   3  -6   0 264.920  16.532   6
   3  -6   0 263.873  15.829   4
   3  -6   0 298.742  17.546   7
  -3  -6   0 271.875  18.476   7
  -3   6   0 267.669  17.302   1
   3   6   0 298.242  17.393   7
   3   6   0 272.598  18.338   5
  -3   6   0 271.339  15.901   7
  -4  -6   0 43.3170 11.7939   7
   4  -6   0 33.9424  9.7770   7
   4  -6   0 32.0115 10.2420   4
   4  -6   0 56.2186 10.8188   6
  -4   6   0 34.8544 10.5781   1
   4   6   0 62.7213 14.9636   6
   4   6   0 48.4315 12.0929   5
   4   6   0 35.6919 10.5870   7
  -4   6   0 33.8312  9.5959   7
   5  -6   0 455.366  21.358   6
   5  -6   0 477.852  21.255   4
  -5  -6   0 455.092  23.613   7
   5   6   0 456.706  23.186   7
   5   6   0 466.788  24.724   5
  -5   6   0 429.923  22.919   1
  -5   6   0 439.678  20.761   7
   5   6   0 454.579  25.678   6
   6  -6   0 212.376  17.303   6
  -6  -6   0 216.891  18.411   1
   6  -6   0 160.559  15.486   4
  -6   6   0 195.220  16.126   7
   6   6   0 196.084  19.684   5
   6   6   0 178.363  20.475   6
  -6   6   0 175.308  17.592   1
   6   6   0 190.208  17.628   7
  -7  -6   0 139.833  16.178   1
   7  -6   0 121.014  15.824   6
  -7   6   0 119.830  16.833   1
   7   6   0 96.8758 19.3625   6
   7   6   0 110.519  18.016   5
  -7   6   0 108.272  13.843   7
   7   6   0 149.343  17.402   7
  -8  -6   0 151.264  17.959   1
   8   6   0 147.736  18.657   7
   8   6   0 163.660  20.375   5
  -8   6   0 155.221  18.844   1
   8   6   0 186.540  23.863   6
  -8   6   0 176.157  17.157   7
  -9  -6   0 217.246  20.725   1
   9   6   0 241.252  21.945   7
   9   6   0 214.382  23.419   5
   9   6   0 194.980  25.325   6
  -9   6   0 182.296  20.736   1
  -9   6   0 207.492  19.504   7
  10   6   0 79.1248 19.3245   5
  10   6   0 88.0072 17.3817   7
 -10   6   0 99.0096 18.3610   1
 -10   6   0 83.2915 15.6600   7
  11   6   0 57.1674 18.5539   5
 -11   6   0 78.9388 16.3317   7
  11   6   0 89.4274 19.1127   7
 -11   6   0 46.5036 16.7585   1
   0  -7   0  0.2381 11.0345   6
   0   7   0 6.09676 9.71128   5
   0   7   0 3.63154 8.17847   7
   0   7   0 8.78854 9.69213   1
   1  -7   0 13.6186 11.2762   6
   1   7   0 29.3798 10.4683   5
  -1   7   0 40.1052 11.1136   1
  -1   7   0 22.6514  8.8433   7
   1   7   0 36.7695  9.6783   7
   1   7   0 18.9884 10.4239   1
   2  -7   0 5.63425 9.71171   6
   2   7   0 -2.0253  9.8724   5
  -2   7   0 3.54231 8.27348   7
   2   7   0 0.70754 8.62882   7
  -2   7   0 7.95297 9.55423   1
   3  -7   0 176.672  16.222   6
  -3   7   0 174.430  15.007   7
   3   7   0 166.076  15.200   7
  -3   7   0 184.516  16.707   1
   3   7   0 184.839  17.746   5
   4  -7   0 -7.7455 10.2261   6
   4  -7   0 -2.3303 10.6071   4
  -4   7   0 -11.656   9.596   1
   4   7   0  5.2998 11.4633   5
   4   7   0 11.4875 14.6855   6
  -4   7   0 0.95943 9.05170   7
   4   7   0 -2.3010  9.5341   7
   5  -7   0 -12.762  10.709   6
   5  -7   0  1.5325 11.0397   4
   5   7   0 19.1953 11.2274   7
   5   7   0  4.9283 15.1592   6
  -5   7   0 18.9096 12.5602   1
  -5   7   0 23.2180  9.9895   7
   5   7   0  5.8294 12.1271   5
  -6   7   0 26.5324 13.0570   1
  -6   7   0 29.7255 10.8328   7
   6   7   0 10.5522 13.6388   5
   6   7   0 24.1379 16.9041   6
   6   7   0 36.3394 12.8815   7
  -7  -7   0 205.999  20.299   1
  -7   7   0 200.894  20.485   1
   7   7   0 200.962  23.735   6
   7   7   0 203.453  21.580   5
   7   7   0 173.298  19.134   7
  -7   7   0 166.105  16.908   7
  -8  -7   0 -11.093  12.335   1
   8   7   0 15.3218 19.5493   6
   8   7   0 15.3538 15.4865   5
   8   7   0 23.4299 13.7134   7
  -8   7   0 12.3295 11.4374   7
  -8   7   0 35.4019 14.5198   1
  -9  -7   0 28.0737 14.7915   1
   9   7   0 15.8474 16.5323   5
  -9   7   0 27.0341 15.8879   1
  -9   7   0 -10.105  11.328   7
   9   7   0 29.7402 14.2690   7
 -10   7   0 38.8236 14.9186   7
 -10   7   0 31.1281 16.2753   1
  10   7   0 31.7431 17.9327   5
  10   7   0 25.9612 14.7698   7
   0  -8   0 1691.94   48.42   6
   0   8   0 1719.29   48.12   1
   0   8   0 1658.95   44.92   7
   0   8   0 1715.50   48.88   5
   1  -8   0 274.777  19.692   6
   1   8   0 326.339  21.612   1
  -1   8   0 310.175  21.278   1
   1   8   0 288.025  18.375   7
  -1   8   0 306.119  18.706   7
   1   8   0 264.151  21.241   5
   2  -8   0 70.3498 14.5850   6
  -2   8   0 45.4791 13.1766   1
   2   8   0 65.0479 12.2327   7
   2   8   0 54.8179 13.8913   5
  -2   8   0 52.2583 11.6926   7
   3  -8   0 520.175  25.708   6
  -3   8   0 495.765  23.895   7
  -3   8   0 545.593  27.391   1
   3   8   0 495.214  24.463   7
   3   8   0 567.936  28.310   5
   4   8   0 1091.81   40.51   5
   4   8   0 1155.26   41.50   6
  -4   8   0 1125.24   36.21   7
  -4   8   0 1168.60   39.79   1
   4   8   0 1039.07   36.48   7
   5   8   0 65.4532 16.5649   5
   5   8   0 55.6621 18.5498   6
   5   8   0 35.6624 13.0954   7
  -5   8   0 39.5974 14.3417   1
  -5   8   0 64.9836 12.7126   7
   6   8   0 24.2314 13.3032   7
   6   8   0 38.5415 15.9467   5
   6   8   0 46.9406 19.0671   6
  -6   8   0 28.7966 11.6968   7
  -6   8   0 16.3611 14.0947   1
  -7  -8   0 413.885  27.335   1
   7   8   0 407.881  26.299   7
  -7   8   0 384.659  23.569   7
   7   8   0 378.518  31.591   6
  -7   8   0 382.223  26.683   1
   7   8   0 388.433  29.153   5
  -8  -8   0 295.485  24.577   1
   8   8   0 316.369  25.428   7
  -8   8   0 321.428  26.921   1
  -8   8   0 287.736  22.811   7
   8   8   0 304.603  27.965   5
  -9   8   0 -4.7263 11.7480   7
  -9   8   0  3.4544 15.2847   1
   9   8   0  9.9029 14.1763   7
   9   8   0 20.6616 17.0819   5
   0   9   0  3.5620 11.7925   1
   0   9   0  2.2966 11.9393   5
   0   9   0 -2.3690  9.6894   7
   1   9   0 144.383  18.536   5
  -1   9   0 123.343  14.454   7
  -1   9   0 120.489  17.433   1
   1   9   0 93.3836 14.0630   7
   1   9   0 113.794  17.619   1
  -1   9   0 127.654  17.698   5
   2   9   0 -8.2994  9.9503   7
  -2   9   0 2.52163 9.96872   7
   2   9   0  6.9029 13.2644   5
  -2   9   0 20.1790 13.3023   1
   3   9   0 138.204  16.660   7
  -3   9   0 115.335  17.227   1
   3   9   0 133.090  18.852   5
  -3   9   0 125.318  15.110   7
   4   9   0  4.7921 11.6155   7
   4   9   0  1.9383 13.9445   5
  -4   9   0 -22.837   9.469   7
   4   9   0 -29.265  14.051   6
  -4   9   0 -0.2151 12.4761   1
   5   9   0 79.9843 18.0001   5
  -5   9   0 95.0230 14.6182   7
  -5   9   0 71.4364 17.4680   1
   5   9   0 88.4764 20.8036   6
   5   9   0 69.9894 14.9871   7
   6   9   0 35.8637 14.4499   7
   6   9   0 32.5316 16.0772   5
  -6   9   0  7.6968 14.3184   1
  -6   9   0 49.9627 13.2651   7
  -7  -9   0 118.035  19.852   1
   7   9   0 99.3764 19.7937   5
  -7   9   0 114.777  16.306   7
  -7   9   0 64.6612 17.8419   1
   7   9   0 105.738  17.800   7
  -8   9   0 -20.087  11.074   7
  -8   9   0 -1.8657 15.0377   1
   8   9   0 -9.7327 15.8204   5
   8   9   0  2.2942 14.4323   7
   0  10   0 546.734  31.276   5
   0  10   0 576.427  31.118   1
   0  10   0 518.197  26.213   7
   1  10   0  7.0588 11.4622   7
  -1  10   0 22.6446 13.9555   1
  -1  10   0 14.5389 14.3265   5
   1  10   0 27.3792 14.6895   5
  -1  10   0 22.1365 11.4877   7
   2  10   0 30.4250 15.3850   5
  -2  10   0 27.8888 11.4744   7
   2  10   0 42.9314 13.4507   7
  -2  10   0 59.2693 16.5690   1
   3  10   0 62.4519 17.4129   5
  -3  10   0 51.8084 16.4274   1
  -3  10   0 51.1782 13.0871   7
   3  10   0 77.5037 14.5372   7
  -4  10   0 377.072  23.463   7
  -4  10   0 409.172  28.215   1
   4  10   0 389.824  25.010   7
   4  10   0 364.608  28.580   5
  -5  10   0  9.5564 14.9034   1
   5  10   0 17.2164 13.3500   7
  -5  10   0 12.6934 11.9600   7
   5  10   0 19.9280 16.3592   5
   6  10   0 43.2305 17.6130   5
  -6  10   0 35.4822 13.0467   7
   6  10   0 24.4963 14.4510   7
  -6  10   0 27.7563 16.4333   1
   0  11   0 18.6045 12.0334   7
   0  11   0 20.7440 16.1661   5
   0  11   0 21.6601 15.7926   1
  -1  11   0 31.4350 16.0658   1
   1  11   0 49.3064 14.2274   7
  -1  11   0 45.8836 16.6513   5
   1  11   0 42.5001 16.8084   5
  -1  11   0 33.0183 12.5722   7
  -2  11   0 -5.0662 10.7288   7
  -2  11   0 15.9275 14.6441   1
   2  11   0  8.2824 15.4873   5
   2  11   0  0.8320 12.2630   7
  -2  11   0  2.5542 14.6840   5
  -3  11   0 153.246  22.108   1
   3  11   0 157.061  22.427   5
   3  11   0 166.794  19.536   7
  -3  11   0 153.198  17.693   7
  -4  11   0 11.2151 16.0667   1
   4  11   0 -0.4630 12.6288   7
   4  11   0 -6.6232 15.3865   5
  -4  11   0 26.6788 12.7605   7
 -13   0   1 -11.932  15.030   1
 -13   0   1 -1.2209 14.1873   7
  13   0  -1 -2.3151 15.5123   7
  12   0  -1 19.8373 14.8923   7
 -12   0   1 14.5648 15.0151   1
 -12   0   1 -23.078  12.028   7
 -11   0   1 19.7357 13.0623   7
  11   0  -1  7.3141 16.2384   6
  11   0  -1  9.0560 12.9521   7
 -11   0   1 -19.260  12.276   1
 -10   0   1 16.2789 13.2731   1
 -10   0   1 -2.5141 11.3176   7
  10   0  -1  0.1967 11.4556   7
  10   0  -1 -10.662  12.545   6
  -9   0   1 15.2613 10.6446   7
   9   0  -1  2.7807 10.4136   7
  -9   0   1 14.0954 11.5478   1
   9   0  -1 -7.4294 11.4153   6
   8   0  -1 11.8706  9.1054   7
  -8   0   1 -10.624   9.457   1
   8   0  -1 -14.371   9.608   6
  -8   0   1 -4.6147  8.6969   7
  -7   0   1 3.43725 7.71035   7
   7   0  -1 10.7520  9.7627   6
  -7   0   1 -4.4831  8.2037   1
   7   0  -1 -15.567   7.343   7
  -6   0   1 -1.9895  7.6717   1
   6   0  -1 0.53026 7.05103   7
   6   0  -1 9.13395 8.57950   6
  -6   0   1 6.38710 6.79867   7
  -5   0   1 0.80070 6.23448   7
   5   0  -1 2.86440 6.46813   7
   5   0  -1 -11.373   7.572   6
  -5   0   1 -1.2076  7.0155   1
   4   0  -1 -0.8882  5.9369   7
   4   0  -1 -5.5503  7.0708   6
  -4   0   1 -0.5068  6.7960   1
  -4   0   1 4.06391 5.79725   7
   3   0  -1 -3.6702  5.4362   7
   3   0  -1 -6.0825  6.5551   6
   2   0  -1 -1.4667  5.3301   6
   1   0  -1 -3.2543  2.7643   6
   1   0   1 -3.1606  2.6228   6
   2   0   1 6.34709 5.42642   6
   3   0   1 -6.8013  6.7528   6
  -3   0  -1 -7.4611  5.2542   7
  -4   0  -1 1.07714 5.78612   7
   4   0   1 0.56857 6.05001   7
   4   0   1 -10.579   7.551   6
   5   0   1 -6.7403  7.3405   6
  -5   0  -1 -9.5993  5.7964   7
  -5   0  -1 -0.0723  6.6520   1
   5   0   1 2.27871 6.38476   7
  -6   0  -1 5.65485 7.51797   1
  -6   0  -1 -5.8417  6.5448   7
   6   0   1 5.90012 7.09041   7
   6   0   1 -7.0144  8.0801   6
   7   0   1 3.21703 9.03907   6
  -7   0  -1 7.12117 7.73001   7
   7   0   1 -3.1616  7.6786   7
  -7   0  -1 -3.3088  7.8916   1
  -8   0  -1 -2.7274  9.0603   1
  -8   0  -1 -0.6796  8.8730   7
   8   0   1 13.4564  9.7705   7
   8   0   1 -7.9447 10.1277   6
   9   0   1 -9.2824 11.9976   6
  -9   0  -1 -22.904   9.397   1
   9   0   1 -4.0453  9.6341   7
  -9   0  -1 -10.525   9.152   7
 -10   0  -1  3.4658 10.6023   7
  10   0   1 18.1074 12.3714   7
  10   0   1 -2.6335 14.0975   6
 -10   0  -1  1.7314 11.8873   1
  11   0   1 -9.6170 12.2401   7
 -11   0  -1 -7.4613 11.6021   7
 -11   0  -1  7.5210 13.2637   1
  11   0   1 -8.9491 14.5507   6
 -12   0  -1 -12.103  12.508   7
 -13   0  -1 10.1672 13.8518   7
  13  -1  -1 87.5392 18.5281   7
 -13   1   1 58.9170 18.1482   1
 -13   1   1 98.0135 18.4115   7
  13   1  -1 53.4312 18.7456   7
  12  -1  -1 83.5775 17.3361   7
 -12  -1   1 91.5429 18.6344   1
 -12  -1   1 86.3915 17.6932   7
 -12   1   1 73.2190 17.6139   1
 -12   1   1 75.7123 17.0004   7
  12   1  -1 106.424  19.032   7
  11  -1  -1 76.6304 18.3288   6
 -11  -1   1 83.8872 16.9957   1
 -11  -1   1 94.1970 17.1989   7
  11  -1  -1 76.4984 16.0134   7
 -11   1   1 86.1818 17.1700   1
  11   1  -1 56.0164 18.0628   6
 -11   1   1 93.7082 15.8806   7
  11   1  -1 84.1650 16.7200   7
  10  -1  -1 559.130  27.884   7
 -10  -1   1 542.945  28.079   1
  10  -1  -1 536.528  27.910   6
 -10  -1   1 534.408  26.837   7
  10   1  -1 490.778  27.558   7
  10   1  -1 566.102  29.415   6
 -10   1   1 554.321  26.812   7
 -10   1   1 555.012  28.146   1
   9  -1  -1 154.889  17.540   6
   9  -1  -1 192.840  17.118   7
  -9  -1   1 156.797  16.956   1
  -9  -1   1 169.898  16.853   7
  -9   1   1 188.990  17.015   7
   9   1  -1 198.376  18.083   7
   9   1  -1 162.486  18.892   6
  -9   1   1 147.209  16.290   1
  -8  -1   1 68.2844 12.2683   7
   8  -1  -1 71.3531 11.9620   7
  -8  -1   1 62.2274 12.1355   1
   8  -1  -1 48.0434 12.3233   6
   8   1  -1 42.1875 11.5280   7
   8   1  -1 38.5917 12.5294   6
  -8   1   1 70.4020 11.5547   7
  -8   1   1 65.7418 12.1269   1
   7  -1  -1 52.3814 10.2090   7
  -7  -1   1 77.3201 11.5799   1
   7  -1  -1 50.2038 11.1540   6
  -7  -1   1 68.8102 10.9369   7
  -7   1   1 61.8129 10.7743   1
   7   1  -1 49.3740 10.8414   7
  -7   1   1 50.3424  9.5780   7
   7   1  -1 49.3858 11.4293   6
   6  -1  -1 940.394  27.093   7
   6  -1  -1 918.994  28.288   6
  -6  -1   1 956.724  27.769   7
  -6  -1   1 900.537  27.721   1
   6   1  -1 897.956  29.110   6
  -6   1   1 868.858  27.187   1
  -6   1   1 948.821  27.364   7
   6   1  -1 935.572  28.233   7
  -5  -1   1 140.308  11.339   1
  -5  -1   1 181.890  12.153   7
   5  -1  -1 140.704  11.806   6
   5  -1  -1 135.190  10.763   7
  -5   1   1 143.436  10.717   7
   5   1  -1 124.586  12.249   6
   5   1  -1 138.132  11.534   7
  -5   1   1 147.846  11.516   1
   5   1  -1 139.473  12.115   5
  -4  -1   1 21.7564  6.7879   7
   4  -1  -1 19.2235  7.9776   6
   4  -1  -1 19.8050  6.5633   7
  -4  -1   1 16.3416  7.2010   1
  -4   1   1 22.6497  7.1971   1
  -4   1   1 22.0714  6.5988   7
   4   1  -1 26.8003  7.4256   7
   4   1  -1 15.8348  8.2710   6
   3  -1  -1 21.9420  6.1316   7
   3  -1  -1 24.6700  7.3466   6
   3   1  -1 31.3120  8.1997   6
   3   1  -1 35.6204  7.3288   7
  -3   1   1 23.5777  5.9127   7
   2  -1  -1 1572.46   33.27   6
   2  -1  -1 1608.60   32.26   7
   2   1  -1 1593.56   33.02   7
   2   1  -1 1543.03   33.74   6
   1  -1  -1 -0.3087  4.2443   6
   1   1  -1 -4.5649  4.6267   6
   0  -1  -1 7.25461 3.59899   6
   0  -1   1 2.57098 2.36935   6
   0  -1  -1 -1.3812  2.8193   4
   1  -1   1 -6.8626  2.8851   6
  -2  -1  -1 2084.67   42.65   7
   2  -1   1 2206.45   41.97   6
   2   1   1 2135.29   44.82   6
  -2   1  -1 2133.10   41.35   7
   3  -1   1 132.684   9.145   6
  -3  -1  -1 135.787  10.258   7
   3   1   1 132.398  11.371   6
  -3   1  -1 124.497   8.949   7
   3   1   1 165.503  11.081   7
   4  -1   1 21.5143  6.4123   7
   4  -1   1 7.68056 6.62885   6
  -4  -1  -1 -0.1194  6.2009   7
   4   1   1 12.6170  8.7534   6
   4   1   1 -3.1991  6.2790   7
  -4   1  -1 11.0380  6.5363   1
  -4   1  -1 8.70964 5.75068   7
   5  -1   1 39.7723  7.7791   7
  -5  -1  -1 33.7070  7.6796   7
  -5  -1  -1 32.4334  7.7502   1
   5  -1   1 31.1367  8.2173   6
  -5   1  -1 29.3544  7.0203   7
  -5   1  -1 33.5474  7.6130   1
   5   1   1 33.5506  8.5122   5
   5   1   1 40.8021  9.8747   6
   5   1   1 24.8342  7.5638   7
   6  -1   1 1807.86   44.84   6
  -6  -1  -1 1904.34   43.86   1
  -6  -1  -1 1895.28   44.74   7
   6  -1   1 1914.66   44.39   7
   6   1   1 1940.98   45.28   7
  -6   1  -1 1892.44   43.95   1
   6   1   1 1934.11   47.17   6
  -6   1  -1 1814.49   43.81   7
  -7  -1  -1 137.119  13.307   7
   7  -1   1 109.146  12.222   7
   7  -1   1 127.147  13.273   6
  -7  -1  -1 153.297  13.463   1
  -7   1  -1 107.499  11.966   1
   7   1   1 118.671  12.836   7
  -7   1  -1 126.369  12.374   7
   7   1   1 113.521  14.470   6
   8  -1   1 13.2492 10.6694   6
   8  -1   1 31.5057 10.3154   7
  -8  -1  -1 28.4004 10.2294   7
  -8  -1  -1 27.7939 10.9537   1
  -8   1  -1 16.7628  9.3341   7
   8   1   1 39.4369 13.1161   6
   8   1   1 24.5666 10.9712   7
  -8   1  -1 24.8927 10.4799   1
  -9  -1  -1 67.0200 13.3537   1
   9  -1   1 63.7703 13.2038   7
  -9  -1  -1 41.8432 12.1734   7
   9  -1   1 71.4850 14.1510   6
   9   1   1 47.9983 15.1946   6
   9   1   1 50.9900 13.2633   7
  -9   1  -1 53.6538 11.8878   7
  -9   1  -1 52.2175 12.6160   1
  10  -1   1 1341.41   42.26   7
 -10  -1  -1 1282.24   40.81   1
 -10  -1  -1 1306.74   41.20   7
  10  -1   1 1262.23   42.95   6
 -10   1  -1 1280.52   40.93   1
  10   1   1 1314.14   42.94   7
 -10   1  -1 1172.83   40.27   7
  10   1   1 1266.48   44.79   6
  11  -1   1 56.0267 17.1656   6
 -11  -1  -1 67.8471 15.1106   7
 -11   1  -1  8.6992 12.5977   7
  11   1   1 40.3793 15.2720   7
 -11   1  -1 42.8923 14.8047   1
  11   1   1 25.6036 16.3615   6
 -12  -1  -1 31.3004 15.0379   7
  12   1   1 16.8561 16.0035   7
 -12   1  -1 41.9677 14.4258   7
 -13  -1  -1 36.9973 15.6462   7
  13   1   1 21.6808 18.1702   7
 -13   1  -1 -1.6181 14.0224   7
  13  -2  -1 239.106  24.684   7
  13   2  -1 198.479  24.687   7
 -13   2   1 253.193  26.379   1
 -13   2   1 250.270  24.938   7
  12  -2  -1 185.042  21.128   7
 -12  -2   1 145.205  20.863   1
 -12   2   1 146.347  19.486   7
 -12   2   1 145.711  20.140   1
  12   2  -1 126.649  21.335   7
  11  -2  -1 219.754  20.935   7
  11  -2  -1 173.788  20.984   6
 -11  -2   1 180.037  20.713   1
 -11   2   1 191.265  20.281   7
  11   2  -1 179.588  23.043   6
  11   2  -1 151.976  20.729   7
 -11   2   1 220.615  21.677   1
  10  -2  -1 93.1953 15.2497   7
  10  -2  -1 87.7805 16.4285   6
 -10  -2   1 69.4240 14.7175   7
 -10  -2   1 120.781  17.111   1
  10   2  -1 81.0628 16.3288   7
 -10   2   1 65.7458 15.0279   1
  10   2  -1 59.8795 17.0288   6
 -10   2   1 101.104  15.430   7
   9  -2  -1 412.569  23.080   7
   9  -2  -1 406.918  23.107   6
  -9  -2   1 404.481  23.592   7
  -9  -2   1 395.247  23.268   1
   9   2  -1 341.967  24.016   6
  -9   2   1 369.015  21.850   7
  -9   2   1 377.097  22.939   1
   9   2  -1 372.475  24.130   7
   8  -2  -1 157.943  15.686   6
  -8  -2   1 239.589  18.069   7
   8  -2  -1 210.364  16.469   7
  -8  -2   1 227.689  17.807   1
   8   2  -1 226.108  18.580   7
  -8   2   1 237.176  18.265   1
  -8   2   1 206.934  16.236   7
   8   2  -1 197.915  18.799   6
   7  -2  -1 498.642  21.761   6
   7  -2  -1 443.193  20.746   7
  -7  -2   1 492.259  21.898   7
  -7  -2   1 492.051  21.564   1
  -7   2   1 467.767  20.450   7
   7   2  -1 476.399  22.791   7
  -7   2   1 498.047  21.649   1
   7   2  -1 455.853  23.112   6
   7   2  -1 457.481  23.785   5
   6  -2  -1 674.467  23.246   7
  -6  -2   1 674.536  23.570   1
   6  -2  -1 613.384  23.186   6
  -6  -2   1 687.135  23.881   7
  -6   2   1 642.588  23.200   1
  -6   2   1 687.615  22.881   7
   6   2  -1 637.242  25.566   5
   6   2  -1 683.687  25.705   6
   6   2  -1 673.018  24.829   7
  -5  -2   1 499.241  18.855   7
   5  -2  -1 515.117  19.183   6
   5  -2  -1 515.838  18.619   7
  -5  -2   1 482.469  19.391   1
  -5   2   1 479.280  18.100   7
   5   2  -1 487.622  21.093   6
   5   2  -1 480.921  20.692   5
   5   2  -1 539.990  20.889   7
  -5   2   1 496.692  19.150   1
  -4  -2   1 312.458  14.398   7
   4  -2  -1 299.779  13.462   7
  -4  -2   1 292.498  14.795   1
   4  -2  -1 310.951  14.188   6
   4   2  -1 311.236  16.692   6
  -4   2   1 322.038  15.063   1
   4   2  -1 328.009  16.574   5
  -4   2   1 327.163  13.500   7
   4   2  -1 303.509  15.399   7
   3  -2  -1 437.340  15.761   6
  -3  -2   1 456.825  16.842   1
  -3  -2   1 420.506  15.472   7
   3  -2  -1 452.009  15.184   7
   3   2  -1 471.415  18.303   6
  -3   2   1 457.146  16.308   1
   3   2  -1 441.686  16.911   7
  -3   2   1 436.546  14.767   7
   2  -2  -1 2081.61   43.01   6
   2  -2  -1 2142.61   42.15   7
   2   2  -1 2020.75   44.40   6
   2   2  -1 2102.98   42.32   7
  -2   2   1 1983.79   41.62   7
   1  -2  -1 494.026  14.256   4
   1  -2  -1 493.280  15.136   6
   1   2  -1 462.182  13.394   7
   0  -2  -1 526.659  15.469   6
   0  -2   1 484.844  13.700   6
   0   2  -1 515.242  13.092   7
  -1  -2  -1 11.6238  5.8328   7
   1  -2   1 17.5358  5.0701   4
  -1  -2  -1 10.6950  7.0613   6
   1  -2   1 8.51557 4.74661   6
  -1   2  -1 16.0824  4.3690   7
  -2  -2  -1 1364.13   31.49   7
   2  -2   1 1368.26   29.07   6
  -2   2  -1 1362.49   29.11   7
   2   2   1 1379.11   31.48   7
   3  -2   1 389.397  13.436   6
  -3  -2  -1 389.539  15.487   7
  -3   2  -1 404.846  13.542   7
   3   2   1 362.265  16.082   7
   3   2   1 373.453  17.593   6
  -3   2  -1 384.124  14.826   1
  -4  -2  -1 404.090  15.690   1
  -4  -2  -1 420.790  16.650   7
   4  -2   1 427.793  15.756   7
   4  -2   1 428.452  15.377   6
   4   2   1 417.486  19.239   6
  -4   2  -1 397.191  15.006   7
   4   2   1 379.611  17.605   7
  -4   2  -1 423.369  15.705   1
  -5  -2  -1 16.0238  7.3548   7
   5  -2   1 6.74916 6.42464   7
  -5  -2  -1 8.39941 7.16151   1
   5  -2   1 2.08955 7.05324   6
   5   2   1 -7.2182  7.3525   7
  -5   2  -1 -0.5177  6.0442   7
   5   2   1 0.43056 7.65462   5
   5   2   1 -5.3156  9.4897   6
  -5   2  -1 -2.2042  6.7550   1
  -6  -2  -1 178.513  13.218   1
  -6  -2  -1 194.656  14.233   7
   6  -2   1 164.780  13.038   6
   6  -2   1 183.880  13.320   7
   6   2   1 177.004  14.675   7
  -6   2  -1 148.614  11.820   7
   6   2   1 187.258  15.081   5
   6   2   1 152.220  15.339   6
  -6   2  -1 168.094  13.098   1
   7  -2   1 272.051  16.561   7
  -7  -2  -1 287.709  17.235   7
  -7  -2  -1 255.683  16.251   1
   7  -2   1 267.393  16.385   6
  -7   2  -1 256.940  16.523   1
   7   2   1 238.865  18.085   5
  -7   2  -1 272.094  16.075   7
   7   2   1 262.923  19.153   6
   7   2   1 250.436  18.055   7
   8  -2   1 154.905  15.166   7
   8  -2   1 169.609  16.107   6
  -8  -2  -1 179.313  16.419   7
  -8  -2  -1 197.441  16.274   1
  -8   2  -1 201.526  15.976   7
   8   2   1 134.349  17.253   6
   8   2   1 198.735  18.217   7
  -8   2  -1 209.906  16.658   1
  -9  -2  -1 31.8331 11.6550   7
   9  -2   1 28.3319 11.6810   7
  -9  -2  -1 33.8531 12.4947   1
   9  -2   1 18.8159 12.9800   6
  -9   2  -1 24.1749 11.3146   1
   9   2   1 25.2069 13.3389   7
  -9   2  -1  9.9936 10.3549   7
   9   2   1 43.5583 15.6907   6
 -10  -2  -1 -26.769  10.171   7
 -10  -2  -1 10.7433 12.4290   1
  10  -2   1 -9.2444 12.8658   6
  10   2   1  0.9740 13.1313   7
 -10   2  -1  5.2252 12.5283   1
  10   2   1 -0.1323 14.6752   6
 -10   2  -1 12.0766 10.9629   7
 -11  -2  -1 106.730  17.070   7
  11  -2   1 105.989  18.089   6
 -11   2  -1 87.2311 15.6786   7
  11   2   1 114.714  19.379   7
  11   2   1 120.056  21.583   6
 -11   2  -1 86.3423 16.9723   1
 -12  -2  -1 59.2087 16.1167   7
 -12   2  -1 21.5647 14.0296   7
  12   2   1 -0.8982 15.7735   7
 -13  -2  -1 123.265  19.794   7
 -13   2  -1 115.711  18.409   7
  13   2   1 152.284  23.625   7
  12  -3  -1 41.5692 15.6211   7
 -12  -3   1 36.0078 16.2447   1
 -12   3   1 27.6851 14.5796   7
  12   3  -1 26.4350 16.3029   7
 -12   3   1 16.8342 15.3722   1
  11  -3  -1 23.2672 14.0569   7
 -11  -3   1 15.4586 14.1218   1
  11  -3  -1 37.2103 17.1353   6
 -11   3   1 33.3575 15.4964   1
 -11   3   1 42.1776 14.2322   7
  11   3  -1 27.2368 15.0954   7
  10  -3  -1 49.7481 15.4652   6
  10  -3  -1 52.1220 13.8186   7
 -10  -3   1 -3.5564 12.0113   1
  10   3  -1 21.9827 16.3230   6
 -10   3   1 68.3166 13.8456   7
  10   3  -1 51.6989 15.0651   7
 -10   3   1 31.3039 14.1256   1
  -9  -3   1 -3.0765 10.7530   1
   9  -3  -1 23.2571 11.0667   7
   9  -3  -1 -18.522  10.968   6
  -9  -3   1 19.5748 12.3175   7
  -9   3   1 24.2025 11.0969   7
   9   3  -1 -12.368  14.082   6
  -9   3   1 10.4006 12.4471   1
   9   3  -1 -2.8904 11.8997   7
   8  -3  -1 0.77250 9.34655   7
  -8  -3   1 -2.4919  9.7009   1
   8  -3  -1 -11.294  10.482   6
  -8  -3   1 -3.1025 10.0739   7
  -8   3   1 -0.2430 10.1284   1
  -8   3   1 -9.2954  8.5986   7
   8   3  -1 -9.9961 10.7838   5
   8   3  -1 -16.454  12.363   6
   8   3  -1 -4.7133 10.7028   7
  -7  -3   1 13.6876  9.7248   7
   7  -3  -1 -19.454   7.387   7
   7  -3  -1 -3.9866  9.1054   6
  -7  -3   1 -7.3184  9.0514   1
  -7   3   1 12.6242  8.4815   7
   7   3  -1 -14.708   9.332   7
  -7   3   1 -4.0934  9.0956   1
   7   3  -1 -2.2252 10.5745   5
   7   3  -1  4.6322 11.7270   6
  -6  -3   1 280.103  17.219   1
  -6  -3   1 294.628  16.960   7
   6  -3  -1 283.969  16.571   6
   6  -3  -1 258.530  15.292   7
  -6   3   1 256.228  16.400   1
   6   3  -1 267.660  19.321   6
   6   3  -1 285.599  18.282   7
   6   3  -1 271.874  19.145   5
  -6   3   1 233.154  15.462   7
  -5  -3   1 16.9040  7.9314   7
  -5  -3   1 19.6385  8.3585   1
   5  -3  -1 23.0878  9.0679   6
   5  -3  -1 31.9269  7.8438   7
   5   3  -1 21.4261  9.7108   5
   5   3  -1  8.7477 10.6685   6
   5   3  -1 11.4586  8.5944   7
  -5   3   1 21.9545  8.0862   1
  -5   3   1 17.0443  6.9397   7
  -4  -3   1 190.482  13.579   1
   4  -3  -1 171.118  12.168   6
   4  -3  -1 185.504  11.788   7
  -4  -3   1 173.892  12.762   7
   4   3  -1 180.161  13.805   7
   4   3  -1 169.704  14.821   6
   4   3  -1 185.624  14.763   5
  -4   3   1 175.100  13.083   1
  -4   3   1 163.636  11.642   7
  -3  -3   1 4.60772 6.95556   7
   3  -3  -1 1.86333 5.98338   7
   3  -3  -1 8.03565 7.56724   6
   3   3  -1 10.4524  6.8155   7
  -3   3   1 3.96142 6.80631   1
  -3   3   1 4.17841 5.74053   7
   3   3  -1 3.75313 7.88810   5
   3   3  -1 14.2398  9.5428   6
   2  -3  -1 750.936  21.259   6
   2  -3  -1 752.206  20.674   4
  -2   3   1 732.008  21.429   1
   2   3  -1 730.074  22.969   6
   2   3  -1 762.707  20.567   7
   1  -3  -1 15.7106  7.2884   6
   1  -3  -1 20.5236  6.5836   7
   1  -3  -1 26.3683  7.0569   4
   1   3  -1 22.1341  5.9697   7
  -1   3   1 23.2228  6.1496   7
   1   3  -1 21.3635  7.3655   1
  -1   3   1 21.0692  6.6284   1
   0  -3  -1 934.937  24.470   6
   0  -3   1 920.889  23.172   6
   0   3   1 932.681  23.228   7
   0   3   1 918.087  23.170   1
   0   3  -1 909.478  22.147   7
  -1  -3  -1 53.0641  7.8184   7
  -1  -3  -1 48.2372  9.1266   6
   1  -3   1 55.6793  7.3143   6
  -1   3  -1 54.0812  6.2662   7
  -1   3  -1 54.4009  7.6776   1
   1   3   1 43.1365  7.1431   7
   2  -3   1 796.407  19.959   4
   2  -3   1 783.112  20.398   6
  -2  -3  -1 831.762  23.466   7
  -2   3  -1 798.583  22.289   1
   2   3   1 834.546  22.936   7
  -2   3  -1 793.945  20.447   7
  -3  -3  -1 5.26902 7.19503   7
   3  -3   1 -0.4489  5.5944   7
   3  -3   1 8.73770 6.43556   6
   3  -3   1 1.06201 5.66926   4
   3   3   1 3.82433 7.47028   5
  -3   3  -1 9.48718 5.51916   7
  -3   3  -1 0.74970 6.41940   1
   3   3   1 7.25452 7.48778   7
  -4  -3  -1 440.510  17.980   7
  -4  -3  -1 446.103  17.304   1
   4  -3   1 442.766  16.221   6
   4  -3   1 458.030  17.100   7
  -4   3  -1 422.902  15.864   7
   4   3   1 426.417  19.172   5
  -4   3  -1 481.059  17.840   1
   4   3   1 403.181  20.386   6
   4   3   1 462.896  19.610   7
  -5  -3  -1 177.524  13.138   1
   5  -3   1 171.001  12.795   6
  -5  -3  -1 185.130  14.107   7
   5  -3   1 164.462  12.535   7
  -5   3  -1 202.812  14.027   1
  -5   3  -1 175.710  12.231   7
   5   3   1 205.928  15.615   5
   5   3   1 161.423  14.280   7
   5   3   1 141.109  15.176   6
   6  -3   1 456.450  18.947   7
   6  -3   1 474.366  19.200   6
  -6  -3  -1 442.445  19.024   1
  -6  -3  -1 437.422  20.117   7
  -6   3  -1 427.562  19.330   1
  -6   3  -1 419.761  18.334   7
   6   3   1 478.310  22.023   7
   6   3   1 412.208  21.571   5
   6   3   1 413.467  23.223   6
  -7  -3  -1 -0.2434  8.8302   7
  -7  -3  -1 11.8164  9.3549   1
   7  -3   1 4.16580 8.88838   7
   7  -3   1 10.8759  9.6564   6
   7   3   1 -0.7751 12.1106   6
   7   3   1 -4.0977  9.8021   5
  -7   3  -1 10.9252  9.5299   1
  -7   3  -1 0.99648 8.17627   7
   7   3   1 13.8989 10.6393   7
   8  -3   1 30.5293 10.9719   7
   8  -3   1 15.8190 11.4321   6
  -8  -3  -1 21.9818 10.7002   7
  -8  -3  -1 18.0441 10.0960   1
   8   3   1 27.5936 12.6448   7
  -8   3  -1 37.9059  9.9574   7
   8   3   1 28.5667 14.7011   6
   8   3   1 18.3468 11.7282   5
  -8   3  -1 33.3874 11.3732   1
  -9  -3  -1 107.851  15.214   7
  -9  -3  -1 116.169  15.389   1
   9  -3   1 95.8781 15.5163   6
   9   3   1 86.5118 16.0124   7
  -9   3  -1 99.5147 15.0494   1
   9   3   1 50.3689 17.2539   6
  -9   3  -1 87.6229 13.4941   7
 -10  -3  -1 294.336  22.187   7
  10  -3   1 274.925  21.124   6
  10   3   1 233.545  24.404   6
 -10   3  -1 223.515  19.848   7
 -10   3  -1 220.001  20.961   1
  10   3   1 266.356  23.363   7
 -11  -3  -1 -12.841  11.650   7
  11  -3   1  8.4894 15.1272   6
 -11   3  -1  2.2896 11.5893   7
  11   3   1 15.0492 15.0730   7
 -11   3  -1  1.7056 13.7603   1
 -12  -3  -1 10.3555 13.5480   7
 -12   3  -1 31.2503 14.0480   7
 -12   3  -1 12.7826 15.0683   1
  12   3   1  4.8192 15.9139   7
  12  -4  -1 304.469  25.605   7
 -12   4   1 237.926  23.430   7
  12   4  -1 238.749  25.381   7
 -12   4   1 275.170  26.537   1
 -11  -4   1 33.9478 15.1127   1
  11  -4  -1 33.0725 14.0672   7
  11  -4  -1 38.5496 15.7930   6
 -11   4   1  8.2885 12.8314   7
  11   4  -1 -0.9455 14.6717   7
 -11   4   1 11.2558 14.2997   1
  10  -4  -1 628.344  31.136   6
 -10  -4   1 711.077  30.661   1
  10  -4  -1 641.473  30.242   7
 -10   4   1 627.511  31.415   1
  10   4  -1 698.465  35.967   6
 -10   4   1 632.910  29.309   7
  10   4  -1 657.581  32.124   7
  -9  -4   1 403.868  24.361   1
   9  -4  -1 426.802  24.056   7
   9  -4  -1 385.607  23.925   6
   9   4  -1 376.836  26.541   5
   9   4  -1 315.935  24.466   7
   9   4  -1 428.119  28.393   6
  -9   4   1 394.812  22.698   7
  -9   4   1 393.347  24.068   1
  -8  -4   1 596.770  26.197   1
   8  -4  -1 587.577  25.669   7
   8  -4  -1 620.070  26.826   6
  -8   4   1 590.456  25.578   7
  -8   4   1 634.947  27.753   1
   8   4  -1 575.092  29.642   5
   8   4  -1 546.422  27.658   7
   8   4  -1 605.578  30.417   6
  -7  -4   1 4.39460 9.96093   1
   7  -4  -1 6.73388 8.95826   7
   7  -4  -1 2.36643 9.65110   6
  -7  -4   1 10.5054  9.9935   7
   7   4  -1  7.9046 10.9389   7
   7   4  -1  9.4900 13.4848   6
  -7   4   1 -1.9762  8.4242   7
   7   4  -1 -0.0976 11.3688   5
  -7   4   1 11.4372 10.6697   1
  -6  -4   1 730.859  27.023   1
   6  -4  -1 766.989  25.991   7
   6  -4  -1 751.161  26.012   6
  -6  -4   1 757.879  26.987   7
   6   4  -1 748.178  31.000   6
  -6   4   1 770.995  25.812   7
   6   4  -1 761.532  28.206   7
  -6   4   1 750.118  27.578   1
   6   4  -1 752.686  29.933   5
   5  -4  -1 607.491  22.099   6
  -5  -4   1 618.414  23.388   7
   5  -4  -1 604.844  22.388   7
  -5  -4   1 594.664  23.379   1
   5   4  -1 579.257  26.442   6
  -5   4   1 636.141  22.024   7
   5   4  -1 622.261  23.888   7
  -5   4   1 626.042  23.440   1
   5   4  -1 612.415  26.023   5
   4  -4  -1 1247.34   32.71   7
   4  -4  -1 1220.11   31.55   4
   4  -4  -1 1285.50   33.61   6
  -4  -4   1 1286.37   33.94   7
   4   4  -1 1262.54   30.00   3
  -4   4   1 1213.38   33.53   1
  -4   4   1 1257.61   32.48   7
   4   4  -1 1235.30   35.87   5
   4   4  -1 1172.94   33.31   7
   4   4  -1 1206.16   36.59   6
   3  -4  -1 -9.2627  6.3825   4
  -3  -4   1 4.53827 7.46899   7
   3  -4  -1 -8.1347  6.8722   6
   3  -4  -1 -6.6444  5.7512   7
   3   4  -1 11.0623  8.3194   5
  -3   4   1 -0.5068  6.0173   7
  -3   4   1 -1.5147  6.4797   1
   3   4  -1 -4.2659  6.3091   7
   3   4  -1 -0.0076  4.7226   3
   3   4  -1 9.88174 9.78029   6
   2  -4  -1 475.245  16.917   4
  -2  -4   1 471.705  18.604   7
   2  -4  -1 502.901  17.501   6
   2  -4  -1 464.188  17.087   7
  -2   4   1 427.482  17.154   1
   2   4  -1 426.806  18.436   5
   2   4  -1 426.157  16.417   7
  -2   4   1 452.339  16.596   7
  -1  -4   1 672.980  21.374   7
   1  -4  -1 710.452  21.300   4
   1  -4  -1 700.304  21.996   6
   1  -4  -1 707.900  21.505   7
   1   4  -1 699.542  22.241   5
   1   4  -1 694.524  20.177   7
  -1   4   1 711.192  21.452   1
  -1   4   1 699.937  20.568   7
   1   4  -1 661.591  21.855   1
   0  -4   1 1831.48   40.03   7
   0  -4   1 1755.33   40.16   6
   0  -4  -1 1797.05   41.57   6
   0  -4  -1 1791.06   40.50   7
   0  -4   1 1835.93   40.21   7
   0   4  -1 1748.49   40.88   1
   0   4   1 1778.29   40.49   1
   0   4  -1 1775.85   38.68   7
   0   4   1 1762.48   39.83   7
   1  -4   1 360.807  14.509   6
  -1  -4  -1 376.834  16.468   7
   1  -4   1 345.153  15.020   7
  -1  -4  -1 365.503  16.901   6
   1   4   1 339.550  15.663   5
   1   4   1 352.500  15.122   1
   1   4   1 338.361  14.910   7
  -1   4  -1 360.459  13.711   7
  -1   4  -1 325.358  15.440   1
   2  -4   1 220.313  12.587   7
  -2  -4  -1 199.565  13.775   7
   2  -4   1 217.663  11.549   6
   2  -4   1 193.534  11.177   4
   2   4   1 206.342  13.053   7
   2   4   1 230.362  13.509   5
  -2   4  -1 201.177  13.063   1
  -2   4  -1 208.477  11.326   7
   3  -4   1 492.094  16.466   4
   3  -4   1 502.023  17.903   7
   3  -4   1 484.310  16.830   6
  -3  -4  -1 451.077  19.678   7
  -3   4  -1 500.823  18.741   1
   3   4   1 498.697  19.548   5
   3   4   1 461.068  18.969   7
  -3   4  -1 454.898  16.691   7
   4  -4   1 1171.56   29.57   6
   4  -4   1 1131.61   28.39   4
   4  -4   1 1178.83   30.61   7
  -4  -4  -1 1136.74   32.22   7
   4   4   1 1063.60   32.13   7
   4   4   1 1125.60   34.97   6
  -4   4  -1 1073.65   29.19   7
   4   4   1 1085.16   32.87   5
  -4   4  -1 1101.80   31.38   1
   5  -4   1 944.327  27.710   6
  -5  -4  -1 1007.25   29.64   1
   5  -4   1 961.325  29.156   7
  -5  -4  -1 1026.17   30.84   7
  -5   4  -1 1007.26   30.42   1
   5   4   1 1028.75   34.55   6
   5   4   1 1006.63   31.39   7
  -5   4  -1 986.537  28.290   7
   5   4   1 1023.64   32.15   5
   6  -4   1 215.072  15.590   7
   6  -4   1 186.426  13.527   6
  -6  -4  -1 195.627  15.923   7
  -6  -4  -1 199.810  15.204   1
  -6   4  -1 206.380  14.424   7
   6   4   1 231.168  18.137   7
  -6   4  -1 236.840  17.080   1
   6   4   1 217.104  18.064   5
   6   4   1 188.915  19.076   6
   7  -4   1 225.761  16.659   6
  -7  -4  -1 249.858  17.361   1
  -7  -4  -1 265.299  18.448   7
  -7   4  -1 247.096  18.003   1
   7   4   1 246.198  21.925   6
  -7   4  -1 256.207  16.652   7
   7   4   1 303.037  20.981   5
   7   4   1 246.822  20.159   7
  -8  -4  -1 379.739  21.276   1
   8  -4   1 389.307  21.667   6
  -8  -4  -1 388.345  22.353   7
   8   4   1 423.701  26.887   6
   8   4   1 416.086  25.107   7
  -8   4  -1 421.063  22.864   1
   8   4   1 395.660  25.352   5
  -8   4  -1 385.567  21.342   7
  -9  -4  -1 835.473  31.472   1
   9  -4   1 868.095  32.753   6
  -9  -4  -1 848.806  33.311   7
   9   4   1 841.011  38.285   6
  -9   4  -1 876.164  31.729   7
  -9   4  -1 813.871  33.031   1
   9   4   1 831.664  35.889   5
   9   4   1 834.106  35.342   7
 -10  -4  -1 213.183  20.703   7
  10   4   1 165.373  21.379   7
 -10   4  -1 252.080  22.179   1
 -10   4  -1 217.349  19.273   7
  10   4   1 199.436  23.389   6
 -11  -4  -1 100.625  17.639   7
 -11   4  -1 149.292  18.367   7
  11   4   1 133.708  20.957   7
 -11   4  -1 148.662  19.862   1
 -12  -4  -1 94.1591 18.5163   7
 -12   4  -1 92.5925 17.3190   7
 -12   4  -1 72.6077 18.1959   1
  12   4   1 110.397  20.715   7
 -12   5   1 69.8953 17.3815   7
  12   5  -1 128.813  19.832   7
 -12   5   1 68.5147 19.1038   1
 -11  -5   1 44.1067 15.6342   1
 -11   5   1 -22.121  11.049   7
  11   5  -1 -10.044  13.214   7
 -11   5   1 -1.5958 14.2245   1
  10  -5  -1 -15.027  11.915   7
 -10  -5   1 -17.761  12.214   1
  10  -5  -1 31.5709 15.6116   6
 -10   5   1 -3.3224 13.1848   1
  10   5  -1 10.7911 13.5012   7
 -10   5   1 -23.771  10.932   7
  10   5  -1 10.0693 14.9984   5
   9  -5  -1  8.8842 13.4167   6
   9  -5  -1  7.8349 11.6704   7
  -9  -5   1 38.2675 13.7072   1
   9   5  -1 32.3249 13.5429   7
  -9   5   1  3.5077 12.2212   1
   9   5  -1 35.2515 15.7736   5
  -9   5   1 29.9982 12.4122   7
   9   5  -1 24.9507 17.2424   6
   8  -5  -1 109.543  15.975   6
   8  -5  -1 142.671  15.809   7
  -8  -5   1 118.514  16.062   1
  -8   5   1 127.939  15.158   7
   8   5  -1 150.213  17.586   7
   8   5  -1 113.598  19.538   6
   8   5  -1 131.925  19.164   5
  -8   5   1 150.530  17.506   1
   7  -5  -1 41.2180 10.9067   7
  -7  -5   1 25.1567 11.9830   1
   7  -5  -1 15.9203 10.9135   6
  -7   5   1 33.2992 12.1060   1
   7   5  -1 25.9447 12.1028   7
   7   5  -1 18.0116 12.9651   5
  -7   5   1 15.0245  9.6062   7
   7   5  -1 19.9023 14.9947   6
   6  -5  -1 24.2317 10.2417   6
   6  -5  -1 21.3497  9.5386   7
   6  -5  -1 13.0243  9.2467   4
  -6  -5   1 25.2036 11.0372   1
  -6   5   1 11.5882 10.2531   1
   6   5  -1 -7.1091 10.7692   5
   6   5  -1 -10.155  12.758   6
   6   5  -1 10.1742 10.5955   7
  -6   5   1 1.41677 8.23167   7
   5  -5  -1 134.099  13.027   4
   5  -5  -1 123.207  13.094   6
   5  -5  -1 113.790  12.778   7
  -5  -5   1 91.5468 12.9757   7
  -5   5   1 111.095  13.347   1
   5   5  -1 92.8919 14.2901   5
   5   5  -1 121.998  16.459   6
  -5   5   1 142.681  12.874   7
   5   5  -1 118.859  13.196   7
  -4  -5   1 98.9335 12.2873   7
   4  -5  -1 110.061  11.604   4
   4  -5  -1 73.1686 10.4137   7
   4  -5  -1 98.2881 12.0873   6
  -4   5   1 82.6911 10.3460   7
   4   5  -1 96.5070 14.3392   6
   4   5  -1 89.0726 12.8142   5
   4   5  -1 89.2612 11.3792   7
  -4   5   1 91.0585 11.9934   1
   3  -5  -1 68.2277  9.7035   7
   3  -5  -1 56.8585 10.4130   6
   3  -5  -1 73.3608 10.1702   4
  -3  -5   1 67.6786 11.2032   7
   3   5  -1 73.6882  9.8403   7
  -3   5   1 71.0472  9.3547   7
   3   5  -1 62.1456 12.8243   6
  -3   5   1 68.0444 10.6542   1
   3   5  -1 63.3358 11.1157   5
   2  -5  -1 77.5089  9.5685   7
  -2  -5   1 83.5392 10.8640   7
   2  -5  -1 70.9427  9.9422   4
   2  -5  -1 64.6949 10.4189   6
  -2   5   1 76.0286  9.5117   7
   2   5  -1 67.2605  9.1803   7
  -2   5   1 90.5158 10.7221   1
   2   5  -1 82.5767 11.1189   5
   1  -5  -1 192.888  13.551   7
   1  -5  -1 199.589  13.708   6
  -1  -5   1 200.042  14.460   7
   1   5  -1 223.900  14.775   5
  -1   5   1 197.794  12.638   7
  -1   5   1 212.544  13.473   1
   1   5  -1 221.518  12.459   7
   1   5  -1 220.031  14.518   1
   0  -5   1 43.2018  9.3414   6
   0  -5  -1 57.7072 10.1344   6
   0  -5   1 57.8408  9.5493   7
   0  -5  -1 64.8921  9.6847   7
   0  -5   1 58.5060  9.2624   7
   0   5   1 68.1560  9.3630   1
   0   5   1 37.4959  7.6841   7
   0   5  -1 62.3944  7.9849   7
   0   5  -1 62.1518  9.8670   1
   1  -5   1 54.4104  8.8770   6
  -1  -5  -1 61.0881  9.6108   7
   1  -5   1 59.1398  9.0744   7
  -1  -5  -1 47.0664  8.8983   7
  -1  -5  -1 48.9149 10.4647   6
   1   5   1 44.1502  9.0890   5
  -1   5  -1 45.7590  7.6717   7
   1   5   1 50.5366  8.9576   1
   1   5   1 35.1447  7.8922   7
  -1   5  -1 45.6916  9.1916   1
  -2  -5  -1 106.682  11.774   7
   2  -5   1 123.473  10.933   6
   2  -5   1 113.736  11.151   7
   2   5   1 122.736  11.484   7
  -2   5  -1 118.095  11.546   1
   2   5   1 110.359  11.808   5
  -2   5  -1 123.760  10.410   7
   3  -5   1 169.072  12.792   7
   3  -5   1 184.250  12.365   4
  -3  -5  -1 166.354  14.311   7
   3  -5   1 170.269  12.233   6
  -3   5  -1 177.994  14.206   1
   3   5   1 169.264  14.126   5
   3   5   1 170.311  13.660   7
  -3   5  -1 161.597  11.836   7
   4  -5   1 93.5579 10.7275   7
   4  -5   1 106.880  10.406   4
  -4  -5  -1 81.1973 12.0490   7
   4  -5   1 98.8545 11.2883   6
  -4   5  -1 71.4615 11.1414   1
  -4   5  -1 90.8439 10.1246   7
   4   5   1 99.0335 12.0677   7
   4   5   1 128.457  13.730   5
   4   5   1 127.557  15.568   6
   5  -5   1 19.5553  8.7763   4
  -5  -5  -1 3.23269 9.44821   7
   5  -5   1 31.0303  9.4607   6
   5   5   1 13.7953 10.2252   5
   5   5   1 15.1517 12.3660   6
   5   5   1 14.6559 10.0875   7
  -5   5  -1 13.5573  9.7173   1
  -5   5  -1 -4.2642  6.9965   7
  -6  -5  -1 101.341  13.418   1
   6  -5   1 53.5782 11.2286   6
  -6  -5  -1 65.5907 12.4066   7
   6  -5   1 99.1588 12.0076   4
   6   5   1 66.2919 13.4191   7
   6   5   1 85.7530 16.0842   6
   6   5   1 93.2413 14.6470   5
  -6   5  -1 83.0019 13.5106   1
  -6   5  -1 67.9588 10.9532   7
   7  -5   1 98.1847 13.5961   6
  -7  -5  -1 75.1639 13.5225   7
  -7  -5  -1 96.0475 13.7498   1
  -7   5  -1 98.1220 14.4905   1
  -7   5  -1 85.6483 12.1342   7
   7   5   1 77.2897 15.6312   5
   7   5   1 102.876  15.315   7
   7   5   1 87.7662 17.4895   6
  -8  -5  -1 122.060  16.354   7
   8  -5   1 123.073  15.606   6
  -8  -5  -1 165.295  16.764   1
   8   5   1 144.971  18.776   5
  -8   5  -1 132.530  17.196   1
  -8   5  -1 124.490  14.676   7
   8   5   1 151.462  20.987   6
   8   5   1 130.392  17.490   7
  -9  -5  -1 25.4442 12.9502   7
  -9   5  -1  4.1435 10.6297   7
  -9   5  -1 25.9984 13.5430   1
   9   5   1  6.8742 13.2546   7
   9   5   1 -7.4785 15.3624   6
   9   5   1 34.1647 15.0597   5
 -10  -5  -1 39.0214 14.1043   7
 -10   5  -1 51.9285 15.7814   1
  10   5   1 55.4234 16.6861   7
 -10   5  -1 42.9171 13.2720   7
  10   5   1 54.9724 16.6891   5
 -11  -5  -1 33.0253 15.2653   7
 -11   5  -1 57.2944 17.1700   1
  11   5   1 54.8521 16.9919   7
 -11   5  -1 13.2817 13.1651   7
 -12   5  -1 158.345  21.860   1
  12   5   1 171.212  22.694   7
 -12   5  -1 146.018  19.731   7
 -11   6   1 144.486  19.170   7
 -11   6   1 154.829  21.970   1
  11   6  -1 108.676  18.823   7
  11   6  -1 163.285  23.264   5
 -10  -6   1 349.477  25.693   1
 -10   6   1 303.387  26.028   1
  10   6  -1 310.612  28.127   5
  10   6  -1 342.960  25.672   7
 -10   6   1 324.153  24.019   7
  -9  -6   1 127.735  17.585   1
   9  -6  -1 124.268  19.045   6
  -9   6   1 93.4110 17.8578   1
   9   6  -1 87.8008 21.7250   6
   9   6  -1 122.315  20.412   5
  -9   6   1 128.770  16.629   7
   9   6  -1 90.9262 16.8094   7
   8  -6  -1 319.941  22.815   6
  -8  -6   1 333.042  23.456   1
   8  -6  -1 323.085  22.222   7
  -8   6   1 330.616  22.002   7
   8   6  -1 316.968  25.874   5
   8   6  -1 380.775  29.543   6
  -8   6   1 328.109  23.589   1
   8   6  -1 370.350  24.324   7
   7  -6  -1 144.922  17.117   6
   7  -6  -1 164.178  17.475   4
  -7  -6   1 178.039  18.334   1
   7  -6  -1 159.432  16.749   7
  -7   6   1 163.020  18.211   1
   7   6  -1 164.028  17.696   7
  -7   6   1 172.339  16.150   7
   7   6  -1 158.759  21.652   6
   7   6  -1 166.975  19.769   5
   6  -6  -1 759.334  28.139   4
   6  -6  -1 747.540  28.903   7
  -6  -6   1 780.086  30.616   1
   6  -6  -1 760.521  29.101   6
  -6   6   1 725.691  28.080   7
   6   6  -1 767.353  29.834   7
   6   6  -1 779.117  33.934   6
   6   6  -1 718.633  32.189   5
  -6   6   1 743.410  30.805   1
   5  -6  -1 120.319  14.538   6
   5  -6  -1 131.957  14.004   4
   5  -6  -1 127.849  14.382   7
   5   6  -1 133.814  14.677   7
  -5   6   1 119.736  14.917   1
  -5   6   1 127.995  13.530   7
   5   6  -1 116.659  17.756   6
   5   6  -1 116.871  15.890   5
   4  -6  -1 490.023  21.786   7
   4  -6  -1 476.325  20.823   4
   4  -6  -1 499.141  22.084   6
  -4   6   1 474.256  21.209   7
   4   6  -1 527.610  25.386   6
   4   6  -1 454.148  23.984   5
  -4   6   1 421.502  21.703   1
   4   6  -1 511.038  22.220   7
   3  -6  -1 127.124  12.703   4
   3  -6  -1 131.775  13.301   7
   3  -6  -1 121.093  13.562   6
  -3   6   1 106.642  11.957   7
  -3   6   1 102.249  13.018   1
   3   6  -1 117.566  12.159   7
   3   6  -1 120.454  14.292   5
   2  -6  -1 1120.03   32.53   6
   2  -6  -1 1127.77   32.70   7
  -2   6   1 1107.88   32.14   7
   2   6  -1 1118.81   34.62   5
   2   6  -1 1108.43   31.43   7
  -2   6   1 1109.73   33.21   1
   1  -6  -1 74.8469 11.6180   6
   1  -6  -1 70.6569 10.9248   7
   1   6  -1 78.5242 11.3409   5
  -1   6   1 47.3010  9.9043   1
   1   6  -1 81.5938 11.5528   1
   1   6  -1 59.5802  9.0597   7
  -1   6   1 75.9137 10.1653   7
   0  -6   1 705.907  25.229   6
   0  -6  -1 769.461  26.256   7
   0  -6  -1 664.915  25.514   6
   0   6   1 705.301  24.099   7
   0   6   1 688.645  24.782   1
   0   6  -1 708.541  26.006   1
   0   6  -1 738.403  23.389   7
   1  -6   1 79.8868 11.2325   6
  -1  -6  -1 58.8358 12.1116   6
  -1  -6  -1 92.0733 12.5450   7
  -1  -6  -1 94.8861 12.6032   7
   1   6   1 67.3591 10.3909   1
   1   6   1 68.5599 11.1982   5
  -1   6  -1 81.1085  9.7125   7
   1   6   1 68.3371 10.1580   7
  -1   6  -1 77.1384 11.4300   1
  -2  -6  -1 952.085  31.044   7
   2  -6   1 948.070  28.401   6
   2   6   1 914.969  30.661   5
   2   6   1 897.431  28.871   7
  -2   6  -1 919.196  27.285   7
  -2   6  -1 955.433  30.271   1
  -3  -6  -1 20.9586 10.4014   7
   3  -6   1 17.2326  9.2083   6
  -3   6  -1 14.1928  9.5219   1
   3   6   1 17.8988 10.0264   5
   3   6   1 14.2798  9.3282   7
  -3   6  -1 18.5300  7.9537   7
   4  -6   1 688.707  23.801   4
   4  -6   1 678.929  24.297   6
  -4   6  -1 706.621  27.314   1
  -4   6  -1 699.866  24.311   7
   4   6   1 672.141  27.629   5
   4   6   1 686.207  26.947   7
   5  -6   1 98.0408 12.9198   6
  -5  -6  -1 100.154  14.617   7
   5  -6   1 98.8763 12.8491   4
  -5   6  -1 125.661  13.068   7
   5   6   1 96.6726 14.7133   5
   5   6   1 111.447  17.765   6
   5   6   1 107.984  14.347   7
  -5   6  -1 133.604  15.420   1
  -6  -6  -1 447.352  24.583   7
   6  -6   1 483.469  22.075   6
  -6  -6  -1 401.275  22.910   1
  -6   6  -1 442.520  21.457   7
  -6   6  -1 474.151  24.682   1
   6   6   1 460.016  27.374   6
   6   6   1 422.278  23.851   7
   6   6   1 423.363  25.628   5
  -7  -6  -1  4.3097 10.8742   1
  -7  -6  -1  5.5050 11.6341   7
  -7   6  -1 10.3451 11.8929   1
  -7   6  -1 -2.3280  9.2952   7
   7   6   1 24.3223 14.8191   6
   7   6   1 16.0445 13.3471   5
   7   6   1 27.0724 12.9361   7
  -8  -6  -1 457.885  26.538   7
  -8  -6  -1 397.288  24.199   1
  -8   6  -1 382.467  25.378   1
  -8   6  -1 403.079  22.815   7
   8   6   1 422.472  26.296   7
   8   6   1 417.162  29.750   6
   8   6   1 376.076  26.865   5
  -9  -6  -1 159.666  19.264   7
   9   6   1 156.382  20.093   7
   9   6   1 161.496  23.855   6
  -9   6  -1 175.301  20.938   1
   9   6   1 135.378  20.543   5
  -9   6  -1 153.634  17.899   7
 -10   6  -1 162.668  18.317   7
 -10   6  -1 167.896  21.298   1
  10   6   1 129.414  20.541   7
  10   6   1 143.497  21.557   5
 -11   6  -1 -2.2646 15.3129   1
 -11   6  -1  4.3119 12.7501   7
  11   6   1  2.5081 15.9088   7
  11   6   1 14.2677 16.6163   5
 -10  -7   1 127.854  19.852   1
 -10   7   1 100.859  19.386   1
 -10   7   1 86.0348 16.4205   7
  10   7  -1 88.0639 20.2179   5
  10   7  -1 94.1679 17.6788   7
  -9  -7   1 -9.7908 13.9256   1
  -9   7   1 17.0166 12.4835   7
   9   7  -1 -25.834  11.657   7
   9   7  -1  0.7508 15.6447   5
  -9   7   1  9.6769 13.9236   1
  -8  -7   1 405.255  26.550   1
   8   7  -1 406.057  29.698   5
   8   7  -1 393.766  25.898   7
  -8   7   1 399.708  27.137   1
   8   7  -1 396.768  30.585   6
  -8   7   1 425.035  24.884   7
  -7  -7   1 37.7309 14.8453   1
   7  -7  -1 20.0639 13.6561   6
   7   7  -1 28.3952 15.2609   5
  -7   7   1 46.9047 12.5326   7
   7   7  -1 17.4139 17.2435   6
  -7   7   1 29.8527 13.8500   1
   7   7  -1 37.5182 13.2535   7
   6  -7  -1 285.432  19.468   4
   6  -7  -1 283.800  20.867   6
   6   7  -1 285.677  25.059   6
  -6   7   1 262.676  21.971   1
   6   7  -1 256.119  20.873   7
  -6   7   1 304.147  20.161   7
   6   7  -1 258.037  23.425   5
   5  -7  -1 18.2488 11.9191   6
   5  -7  -1 -7.2021  9.9000   7
   5  -7  -1 27.1565 11.0169   4
  -5   7   1  0.7513 11.2411   1
  -5   7   1 1.56840 9.33500   7
   5   7  -1 16.6323 16.1292   6
   5   7  -1 -11.795  11.821   5
   5   7  -1  5.9311 10.7440   7
   4  -7  -1 293.826  19.224   7
   4  -7  -1 261.756  18.155   6
   4  -7  -1 253.954  18.703   4
   4   7  -1 238.795  18.305   7
  -4   7   1 246.591  20.103   1
   4   7  -1 259.025  22.428   6
  -4   7   1 277.865  18.187   7
   4   7  -1 261.796  21.509   5
   3  -7  -1 125.562  14.615   6
   3  -7  -1 127.247  14.472   7
  -3   7   1 113.484  14.396   1
   3   7  -1 96.7832 12.4244   7
   3   7  -1 106.817  15.072   5
  -3   7   1 121.202  13.471   7
   2  -7  -1 440.391  21.726   7
   2  -7  -1 431.243  22.227   6
   2   7  -1 404.478  19.577   7
  -2   7   1 459.059  20.827   7
   2   7  -1 416.605  23.036   5
  -2   7   1 422.313  22.304   1
   1  -7  -1 23.7066 11.3866   6
   1  -7  -1 -0.0988  9.7474   7
   1   7  -1 25.1519 10.7532   5
  -1   7   1 16.3558  9.1535   7
  -1   7   1 27.1739 10.4761   1
   1   7  -1 20.0118  8.5980   7
   1   7  -1 15.1938 10.5207   1
   0  -7  -1 53.9816 12.3251   6
   0  -7  -1 61.7194 12.3387   7
   0  -7   1 63.1892 12.8077   6
   0   7   1 62.8276 10.5752   7
   0   7  -1 58.6291 11.8763   1
   0   7  -1 59.2217 12.4273   5
   0   7  -1 38.4171  9.4645   7
   0   7   1 40.6326 11.0734   1
  -1  -7  -1 160.171  16.565   6
   1  -7   1 120.942  14.352   6
  -1  -7  -1 121.705  15.140   7
   1   7   1 144.176  13.633   7
  -1   7  -1 108.314  11.860   7
   1   7   1 150.237  15.336   1
   1   7   1 136.383  14.637   5
  -1   7  -1 101.324  14.050   1
   2  -7   1 483.287  21.952   6
  -2  -7  -1 512.070  24.619   7
  -2  -7  -1 480.602  24.989   7
   2   7   1 497.421  24.105   5
  -2   7  -1 474.479  23.294   1
   2   7   1 471.058  22.459   7
  -2   7  -1 469.187  20.513   7
   3  -7   1 57.6135 12.1786   6
  -3  -7  -1 68.5567 13.9106   7
  -3   7  -1 73.7054 13.4572   1
  -3   7  -1 47.9428 10.0111   7
   3   7   1 63.4798 12.4480   7
   3   7   1 54.8250 12.9572   5
  -4  -7  -1  5.9653 11.6682   7
  -4   7  -1  7.3622 10.8605   1
   4   7   1 14.3019 11.7923   5
   4   7   1  8.9606 10.3238   7
  -4   7  -1 8.00741 8.80353   7
  -5  -7  -1 73.6140 15.2059   7
   5   7   1 101.447  16.286   5
   5   7   1 100.542  15.371   7
   5   7   1 101.299  17.831   6
  -5   7  -1 72.3955 11.9663   7
  -5   7  -1 84.2215 14.7634   1
  -6  -7  -1 402.560  25.401   7
   6   7   1 410.168  27.590   6
   6   7   1 403.221  24.523   7
  -6   7  -1 439.096  26.203   1
  -6   7  -1 367.205  21.072   7
   6   7   1 424.770  27.144   5
  -7  -7  -1 159.160  18.542   1
   7   7   1 148.483  20.004   5
  -7   7  -1 140.130  15.827   7
   7   7   1 139.812  18.114   7
   7   7   1 133.433  21.078   6
  -7   7  -1 131.425  18.291   1
  -8   7  -1 29.3058 12.1207   7
  -8   7  -1  5.6752 12.9388   1
   8   7   1 11.5845 17.4546   6
   8   7   1 18.7840 15.3474   5
   8   7   1 38.9329 14.4598   7
   9   7   1 51.2199 16.0977   7
   9   7   1 25.1647 16.2808   5
  -9   7  -1 90.3694 17.8053   1
  -9   7  -1 53.7214 13.8768   7
  10   7   1 250.874  24.811   7
  10   7   1 268.555  27.290   5
 -10   7  -1 280.062  26.059   1
 -10   7  -1 263.767  22.297   7
  -9  -8   1 93.2377 18.8696   1
  -9   8   1 84.7427 16.0112   7
   9   8  -1 104.151  17.792   7
  -9   8   1 83.1699 18.6292   1
   9   8  -1 92.6209 20.1950   5
  -8  -8   1 129.473  19.613   1
  -8   8   1 132.905  17.566   7
   8   8  -1 172.447  19.955   7
   8   8  -1 113.717  21.023   5
  -8   8   1 133.046  20.638   1
  -7  -8   1 153.906  20.077   1
  -7   8   1 162.609  18.133   7
   7   8  -1 132.046  21.480   5
  -7   8   1 141.320  19.944   1
   7   8  -1 168.977  24.800   6
   7   8  -1 141.519  18.499   7
   6   8  -1 396.307  24.391   7
   6   8  -1 401.036  29.689   6
  -6   8   1 439.350  27.699   1
   6   8  -1 401.605  28.189   5
  -6   8   1 356.520  22.936   7
   5  -8  -1 280.205  22.223   6
   5  -8  -1 258.231  21.405   4
   5   8  -1 260.121  23.836   5
   5   8  -1 263.808  20.443   7
   5   8  -1 264.880  24.702   6
  -5   8   1 238.594  21.243   1
  -5   8   1 293.080  20.329   7
   4  -8  -1 229.866  19.801   6
   4   8  -1 212.009  21.231   5
  -4   8   1 219.263  18.389   7
  -4   8   1 235.204  21.059   1
   4   8  -1 281.900  24.783   6
   4   8  -1 232.304  18.710   7
   3  -8  -1 110.767  16.050   6
   3   8  -1 106.076  16.594   5
  -3   8   1 124.533  14.228   7
  -3   8   1 117.771  16.560   1
   3   8  -1 77.6709 13.0099   7
   2  -8  -1 595.091  27.569   6
  -2   8   1 619.667  28.348   1
   2   8  -1 619.961  29.568   5
  -2   8   1 561.954  24.933   7
   2   8  -1 627.524  25.280   7
   1  -8  -1 427.199  24.189   6
   1   8  -1 388.807  24.443   5
   1   8  -1 390.834  20.468   7
  -1   8   1 385.945  22.951   1
   1   8  -1 373.006  23.655   1
  -1   8   1 352.888  20.673   7
   0  -8  -1 338.753  22.348   6
   0   8  -1 357.925  22.485   5
   0   8   1 334.206  19.806   7
   0   8  -1 341.148  19.024   7
   0   8  -1 365.797  22.448   1
   0   8   1 378.420  22.761   5
   0   8   1 352.679  22.177   1
   1  -8   1 19.3521 12.7173   6
   1   8   1 26.7904 11.8320   1
  -1   8  -1 12.4424 11.5514   1
   1   8   1 21.8555 11.8233   5
  -1   8  -1 29.7535  9.5178   7
   1   8   1 23.4233 10.6060   7
   2   8   1 382.883  23.350   5
  -2   8  -1 428.740  20.919   7
   2   8   1 386.992  21.437   7
  -2   8  -1 414.294  24.471   1
  -3   8  -1 258.059  17.899   7
   3   8   1 269.128  22.146   5
   3   8   1 258.647  20.118   7
  -3   8  -1 298.508  22.022   1
   4   8   1 362.269  25.318   5
  -4   8  -1 357.313  24.118   1
  -4   8  -1 355.235  20.392   7
   4   8   1 317.484  22.127   7
  -5   8  -1 2.09497 9.90344   7
   5   8   1 -17.402  12.039   5
  -5   8  -1  7.0370 12.3698   1
   5   8   1 14.8250 11.9134   7
   5   8   1  7.3060 15.3544   6
  -6   8  -1 139.217  18.903   1
   6   8   1 145.765  22.097   6
   6   8   1 129.538  18.123   7
  -6   8  -1 117.648  14.765   7
   6   8   1 119.278  19.192   5
  -7  -8  -1 122.471  18.889   1
  -7   8  -1 112.214  15.645   7
   7   8   1 83.3162 17.5750   7
   7   8   1 135.598  20.657   5
  -7   8  -1 80.8769 17.7468   1
   8   8   1 267.636  26.583   5
   8   8   1 254.693  23.730   7
  -8   8  -1 230.869  23.963   1
  -8   8  -1 239.628  20.538   7
   9   8   1  4.7062 15.7536   5
   9   8   1 -1.8499 14.1876   7
  -9   8  -1  9.0419 16.2460   1
  -9   8  -1 20.6156 12.7962   7
  -8  -9   1 42.9115 17.0019   1
  -8   9   1 36.3134 17.1222   1
   8   9  -1 24.8076 15.0680   7
  -8   9   1 27.0815 13.4320   7
   8   9  -1 46.0147 18.2251   5
  -7  -9   1 -4.2197 14.2291   1
   7   9  -1  5.3463 13.2969   7
   7   9  -1  5.8525 15.1757   5
  -7   9   1 13.5028 12.2063   7
  -7   9   1 -6.1324 14.2339   1
  -6   9   1 105.801  18.937   1
  -6   9   1 77.6048 15.4512   7
   6   9  -1 93.6100 19.1227   5
   6   9  -1 92.9026 15.9527   7
   5   9  -1 -3.4827 11.4866   7
  -5   9   1 -0.8471 12.5739   1
   5   9  -1 -5.7439 13.8305   5
  -5   9   1  1.7343 10.7913   7
   5   9  -1 -22.269  16.565   6
   4   9  -1 52.9983 13.1148   7
  -4   9   1 47.5539 12.9348   7
   4   9  -1 55.4333 16.8376   5
  -4   9   1 50.9663 15.1182   1
   4   9  -1 49.1074 18.0676   6
   3   9  -1 14.9938 13.8236   5
  -3   9   1  7.0462 12.6015   1
  -3   9   1  4.4500 10.5270   7
   3   9  -1 -6.0098 10.1533   7
   3   9  -1  8.8999 15.6669   6
   2  -9  -1 87.4254 17.3459   6
   2   9  -1 59.1552 12.4010   7
  -2   9   1 92.2357 13.9764   7
  -2   9   1 114.100  17.214   1
   2   9  -1 74.4263 16.2721   5
   1  -9  -1 57.4416 15.2491   6
   1   9  -1 51.4647 12.1746   7
  -1   9   1 60.1270 12.7228   7
   1   9  -1 39.3049 14.8082   5
  -1   9   1 41.4304 13.8097   1
   0  -9  -1 89.1454 17.4898   6
   0   9   1 56.1835 14.4761   5
   0   9  -1 85.1672 13.2285   7
   0   9   1 70.2146 14.9082   1
   0   9  -1 94.0065 16.7682   1
   0   9  -1 37.8394 13.5825   5
   0   9   1 80.4604 13.5411   7
  -1   9  -1 27.6764 13.9608   5
   1   9   1 37.3399 13.8690   5
  -1   9  -1 28.5448 13.4861   1
   1   9   1 23.9024 13.8410   1
  -1   9  -1 26.1317 10.6995   7
   1   9   1 30.5405 11.5521   7
   2   9   1 205.600  20.911   5
  -2   9  -1 206.773  17.201   7
   2   9   1 197.545  18.257   7
  -2   9  -1 202.054  20.717   1
  -3   9  -1 204.231  21.272   1
   3   9   1 202.754  21.447   5
   3   9   1 183.747  18.443   7
  -3   9  -1 173.722  16.579   7
  -4   9  -1 66.0066 12.5485   7
  -4   9  -1 52.8178 15.7152   1
   4   9   1 40.6913 16.0600   5
   4   9   1 34.6258 13.8098   7
   4   9   1 56.1821 17.7320   6
  -5   9  -1 81.7641 13.8471   7
   5   9   1 93.1828 19.1214   5
   5   9   1 164.345  22.780   6
   5   9   1 85.3395 15.9554   7
  -5   9  -1 83.8171 17.5920   1
  -6   9  -1 389.833  28.189   1
   6   9   1 396.245  29.455   5
  -6   9  -1 375.806  23.141   7
   6   9   1 381.745  26.681   7
  -7   9  -1 158.739  21.115   1
  -7   9  -1 145.903  17.319   7
   7   9   1 146.485  20.039   7
   7   9   1 150.859  21.997   5
  -8   9  -1 15.7153 12.3064   7
  -8   9  -1 23.0135 16.3477   1
   8   9   1 10.8349 16.5638   5
   8   9   1 19.0031 14.6659   7
   6  10  -1 37.6977 14.5984   7
   6  10  -1 18.1515 16.7532   5
  -6  10   1 50.1643 13.8446   7
  -6  10   1  2.8042 15.1321   1
  -5  10   1 541.980  28.372   7
   5  10  -1 608.821  35.556   5
   5  10  -1 593.216  29.328   7
  -5  10   1 597.338  33.620   1
   4  10  -1 57.3423 18.0099   5
   4  10  -1 52.8345 13.7870   7
  -4  10   1 37.3016 13.0772   7
  -4  10   1 89.6779 18.0309   1
  -3  10   1 -13.084  11.373   7
  -3  10   1 -1.4009 13.6435   1
   3  10  -1 -6.3959 10.6581   7
   3  10  -1 -16.845  13.027   5
   2  10  -1 -9.4796 13.4880   5
  -2  10   1 -13.234  12.217   1
  -2  10   1 -15.575   9.929   7
   2  10  -1 -3.9658 10.1096   7
  -1  10   1 695.888  33.018   1
  -1  10   1 697.214  33.875   5
  -1  10   1 615.993  28.791   7
   1  10  -1 694.965  28.885   7
   1  10  -1 706.452  34.522   5
   0  10   1 45.2366 15.0174   5
   0  10   1 61.7712 13.9567   7
   0  10  -1 71.2229 17.3615   1
   0  10   1 86.4442 17.4663   1
   0  10  -1 70.3097 13.1197   7
   0  10  -1 90.2284 17.9010   5
  -1  10  -1 52.8914 12.6043   7
   1  10   1 59.8021 16.5791   5
   1  10   1 61.1718 14.1010   7
  -1  10  -1 63.3411 16.2122   5
  -1  10  -1 64.0062 16.1938   1
  -2  10  -1 -5.0493 13.3851   1
   2  10   1 13.4902 11.7126   7
   2  10   1 10.5233 13.9289   5
  -2  10  -1 -4.7393 10.2570   7
  -2  10  -1  7.8660 14.5187   5
   3  10   1 614.543  33.493   5
  -3  10  -1 656.673  28.510   7
   3  10   1 635.039  30.709   7
  -3  10  -1 707.269  34.506   1
  -4  10  -1 74.9556 13.7476   7
   4  10   1 44.4533 14.6257   7
   4  10   1 63.2709 17.8755   5
  -4  10  -1 50.9819 17.3491   1
   5  10   1 83.0711 19.0212   5
  -5  10  -1 81.7066 18.7763   1
  -5  10  -1 99.1644 15.6637   7
   5  10   1 131.073  19.543   7
   6  10   1 45.8997 16.4307   7
  -6  10  -1 44.0026 17.7359   1
  -6  10  -1 33.3226 13.1062   7
   6  10   1 46.9736 18.1324   5
   4  11  -1 28.6507 17.4592   5
  -4  11   1 79.8589 18.5507   1
  -4  11   1 33.8392 14.0875   7
   4  11  -1 26.0593 13.7511   7
   3  11  -1  6.2218 12.6173   7
  -3  11   1  1.7236 14.5007   1
  -3  11   1 24.2183 13.0706   7
   3  11  -1  5.2984 15.5380   5
  -2  11   1 27.6809 16.1976   1
   2  11  -1 22.9469 12.4122   7
  -2  11   1 60.1896 17.1196   5
  -2  11   1 30.1761 13.0805   7
   2  11  -1 42.1232 16.8738   5
  -1  11   1  0.2594 13.3440   1
  -1  11   1 13.6620 15.0212   5
   1  11  -1 -13.989  10.017   7
   1  11  -1 10.9247 15.2425   5
  -1  11   1 21.2958 12.6761   7
   0  11   1 77.6030 18.8257   5
   0  11   1 97.7112 19.2078   1
   0  11  -1 67.2440 18.8074   5
   0  11   1 89.9697 16.1318   7
   0  11  -1 101.860  15.826   7
   1  11   1 -11.936  11.635   7
  -1  11  -1 16.3548 11.6538   7
   1  11   1 -20.253  13.819   5
  -1  11  -1 10.8265 14.9033   1
  -1  11  -1 27.1433 16.5601   5
   2  11   1 46.7860 14.5949   7
  -2  11  -1 36.5809 16.3552   1
  -2  11  -1 31.0077 12.3039   7
  -2  11  -1 42.0815 16.8205   5
   2  11   1 14.8022 15.5376   5
   3  11   1 59.6321 18.0861   5
  -3  11  -1 33.9737 17.2910   5
  -3  11  -1 15.0188 15.7003   1
  -3  11  -1 13.2918 11.7283   7
   3  11   1  9.4080 13.5429   7
   4  11   1 44.9776 18.0113   5
  -4  11  -1 47.0738 18.3959   1
  -4  11  -1 48.6429 13.7854   7
  13   0  -2  7.9842 15.5788   7
 -13   0   2 -7.5349 15.3610   1
  12   0  -2 32.0782 14.9817   7
 -12   0   2 54.0749 16.7392   1
  11   0  -2 -4.9507 14.4717   6
  11   0  -2 24.5314 13.8072   7
 -11   0   2 -20.263  12.277   1
 -10   0   2 1447.54   45.35   7
  10   0  -2 1471.33   45.11   7
  10   0  -2 1477.13   47.26   6
 -10   0   2 1494.07   46.15   1
  -9   0   2 -1.0293 10.9830   1
   9   0  -2  5.9217 12.2174   6
  -9   0   2 -8.7783  9.6412   7
   9   0  -2 14.4419 10.7889   7
   8   0  -2 122.441  13.438   7
   8   0  -2 154.327  16.070   6
  -8   0   2 113.325  14.336   1
  -8   0   2 122.478  13.692   7
  -7   0   2 8.15573 8.15402   7
   7   0  -2 9.07207 8.29102   7
  -7   0   2 18.0854  9.5182   1
   7   0  -2 6.48791 9.75293   6
   6   0  -2 2152.58   49.39   7
  -6   0   2 2132.65   50.56   1
   6   0  -2 2207.98   51.63   6
  -6   0   2 2186.34   49.33   7
  -5   0   2 56.5689  9.2248   1
   5   0  -2 60.1800  8.1892   7
  -5   0   2 44.0450  7.8948   7
   5   0  -2 48.3235  9.2458   6
  -4   0   2 102.609   9.929   1
   4   0  -2 121.097  10.829   6
  -4   0   2 134.766  10.244   7
   4   0  -2 104.130   8.968   7
   3   0  -2 137.012  10.221   6
  -3   0   2 136.935  10.494   1
   3   0  -2 137.572   9.663   7
   2   0  -2 2638.07   51.65   6
   2   0  -2 2589.49   49.45   7
   1   0  -2 4.02919 4.02187   6
   1   0  -2 1.55608 3.99525   3
   0   0  -2 3.11452 2.77672   6
   2   0   2 2328.86   46.04   6
  -2   0  -2 2315.01   44.64   7
  -3   0  -2 19.7997  5.9118   7
   3   0   2 18.2805  7.2505   6
  -4   0  -2 65.3385  7.8258   7
   4   0   2 67.9848  8.0502   7
   4   0   2 74.5711  9.3443   6
  -5   0  -2 24.1237  6.9476   7
   5   0   2 9.02807 7.77043   6
  -5   0  -2 22.6763  6.8699   1
   5   0   2 10.5181  6.8838   7
   6   0   2 1294.57   35.04   6
  -6   0  -2 1259.45   31.98   1
  -6   0  -2 1228.20   32.92   7
   6   0   2 1315.65   33.76   7
  -7   0  -2 6.73900 7.68014   7
   7   0   2 -7.7536  7.5459   7
  -7   0  -2 19.1988  8.5743   1
   7   0   2 11.9519  9.4458   6
  -8   0  -2 54.2070 10.5422   7
   8   0   2 47.0050 12.5341   6
   8   0   2 51.3149 11.6092   7
  -8   0  -2 52.6497 11.1087   1
   9   0   2 16.2307 11.3133   7
  -9   0  -2 30.6114 11.4762   1
  -9   0  -2 58.2887 12.0063   7
   9   0   2 24.3781 13.2749   6
  10   0   2 534.436  28.250   6
 -10   0  -2 538.044  26.324   7
 -11   0  -2 77.3380 14.7418   7
  11   0   2 74.3213 18.8415   6
 -12   0  -2 44.2219 14.0941   7
 -13   0  -2 127.612  18.945   7
  13  -1  -2 30.8432 16.6267   7
 -13  -1   2 51.3219 17.5201   1
  13   1  -2 47.9951 17.7506   7
 -13   1   2 31.0657 16.5489   1
  12  -1  -2 55.5991 15.7547   7
 -12  -1   2 71.8238 17.7068   1
  12   1  -2 39.7976 17.2534   7
 -12   1   2 31.6891 16.5423   1
 -11  -1   2 18.0247 14.5398   1
  11  -1  -2 44.4841 14.2952   7
  11  -1  -2 34.2353 16.1729   6
  11   1  -2 28.7278 14.7649   7
  11   1  -2 23.7994 16.2382   6
 -11   1   2 55.7240 15.7945   1
 -11   1   2 -14.151  11.830   7
  10  -1  -2 70.7049 14.6665   7
  10  -1  -2 86.8522 17.0597   6
 -10  -1   2 125.962  17.516   1
 -10   1   2 97.7106 16.0140   1
  10   1  -2 108.110  16.566   7
  10   1  -2 90.1777 18.3238   6
 -10   1   2 117.537  16.677   7
  -9  -1   2 45.3461 12.6776   7
   9  -1  -2 21.5772 12.5863   6
   9  -1  -2 18.3152 10.7178   7
  -9  -1   2 26.0555 12.3489   1
  -9   1   2 25.3046 11.3398   7
   9   1  -2 13.1270 13.1477   6
   9   1  -2 29.8388 12.2973   7
  -9   1   2 32.3500 12.6563   1
   8  -1  -2 39.7383 11.8547   6
  -8  -1   2 28.3817 11.7381   1
   8  -1  -2 44.9560 10.6894   7
  -8  -1   2 42.6016 10.9751   7
  -8   1   2 52.5880 11.0935   7
   8   1  -2 47.4418 12.6253   6
  -8   1   2 48.1791 11.7313   1
   8   1  -2 57.3993 11.7814   7
   7  -1  -2 209.085  16.046   6
  -7  -1   2 188.172  15.513   1
   7  -1  -2 228.975  15.159   7
  -7  -1   2 191.983  15.016   7
   7   1  -2 189.205  16.096   6
   7   1  -2 189.785  15.363   7
  -7   1   2 191.926  15.387   1
  -7   1   2 216.619  15.702   7
   6  -1  -2 70.7415  9.8005   7
  -6  -1   2 59.6578  9.5896   7
   6  -1  -2 74.3858 11.0387   6
  -6  -1   2 60.0147 10.3321   1
  -6   1   2 60.2512 10.0295   1
   6   1  -2 71.4486 10.2708   7
  -6   1   2 73.2552  9.5921   7
   6   1  -2 48.3989 10.9148   6
  -5  -1   2 56.6165  8.7388   7
   5  -1  -2 41.0191  9.1431   6
  -5  -1   2 49.9931  8.9972   1
   5  -1  -2 46.0628  7.8805   7
   5   1  -2 46.9406  9.8550   5
   5   1  -2 52.1935  9.7006   6
  -5   1   2 47.7848  7.6771   7
   5   1  -2 47.7845  8.5622   7
  -5   1   2 40.5700  8.4188   1
  -4  -1   2 43.7248  7.2917   7
   4  -1  -2 36.5147  8.4590   6
  -4  -1   2 24.5920  7.7844   1
   4  -1  -2 41.0435  7.1564   7
   4   1  -2 26.7728  7.6306   7
  -4   1   2 29.7048  7.5998   1
   4   1  -2 29.4312  8.6939   6
  -4   1   2 38.9314  6.9847   7
   4   1  -2 40.4027  8.7903   5
  -3  -1   2 501.800  17.129   1
   3  -1  -2 489.342  15.109   7
   3  -1  -2 486.892  16.352   6
   3   1  -2 499.793  16.902   6
   3   1  -2 484.613  16.522   7
   2  -1  -2 13.7951  6.6073   6
   2  -1  -2 11.7422  4.8697   7
   2   1  -2 10.1117  5.5466   7
   2   1  -2 6.90732 5.67555   3
   2   1  -2 20.2082  6.2734   6
   1  -1  -2 58.0251  6.3153   6
   1  -1  -2 57.9221  5.8423   3
   1   1  -2 60.4326  5.4443   6
   1   1  -2 80.0048  6.0193   3
   0  -1  -2 57.8159  5.4830   4
   0  -1  -2 57.2658  5.8014   6
   0   1  -2 59.7670  3.4389   6
   1  -1   2 239.188   6.008   6
  -1  -1  -2 216.615  10.011   6
   1  -1   2 234.601   5.213   4
  -2  -1  -2 51.3090  6.7470   7
   2  -1   2 55.7619  5.2991   6
  -2   1  -2 51.4887  5.2954   7
   3  -1   2 28.6825  6.3005   6
  -3  -1  -2 15.8900  6.5647   7
  -3   1  -2 13.7120  5.4721   7
   3   1   2 17.9622  9.1803   6
  -4  -1  -2 106.039   9.476   7
   4  -1   2 96.1040  9.1747   6
   4  -1   2 105.197   9.036   7
  -4   1  -2 106.292   8.492   7
   4   1   2 96.3481  9.4524   7
  -4   1  -2 110.250   8.993   1
   4   1   2 82.7346 11.4986   6
  -5  -1  -2 15.0802  6.7357   1
   5  -1   2 13.3112  7.5962   6
   5  -1   2 16.1964  6.9896   7
  -5  -1  -2 10.5698  6.7175   7
  -5   1  -2 19.8003  6.7344   1
   5   1   2 18.3036  7.2920   7
   5   1   2 0.80090 8.67443   6
  -5   1  -2 2.92658 6.02114   7
   6  -1   2 42.1617  9.6594   6
  -6  -1  -2 32.7355  8.5227   7
  -6  -1  -2 42.4241  8.6858   1
   6  -1   2 32.2646  8.2905   7
  -6   1  -2 22.2379  7.7514   7
   6   1   2 38.6692 10.6349   6
  -6   1  -2 47.4115  8.7734   1
   6   1   2 26.6811  8.5385   7
  -7  -1  -2 -7.2878  7.4058   7
   7  -1   2 1.49083 7.99577   7
  -7  -1  -2 -0.6146  8.0690   1
   7  -1   2 -9.0991  9.1741   6
  -7   1  -2 7.93411 7.72394   7
  -7   1  -2 -1.2959  7.8839   1
   7   1   2 -2.5440  9.7298   6
   7   1   2 -2.3146  8.0584   7
   8  -1   2 85.9538 13.7907   6
  -8  -1  -2 81.3685 12.1001   7
   8  -1   2 71.8725 12.4574   7
  -8  -1  -2 90.8797 12.8582   1
  -8   1  -2 63.5428 11.5492   1
  -8   1  -2 87.9269 12.0735   7
   8   1   2 82.9202 13.1748   7
   8   1   2 85.9549 14.2280   6
  -9  -1  -2 2.27183 9.87926   7
   9  -1   2  8.6149 12.7885   6
  -9  -1  -2  7.0215 10.5659   1
  -9   1  -2 -7.8920  9.2521   7
   9   1   2 -16.232  11.783   6
   9   1   2  7.6308 11.3897   7
  -9   1  -2 -5.9179 10.1744   1
  10  -1   2 196.500  20.576   6
 -10  -1  -2 188.854  18.259   7
  10   1   2 194.961  22.003   6
  10   1   2 133.968  18.320   7
 -10   1  -2 169.619  17.208   7
 -10   1  -2 145.785  17.152   1
 -11  -1  -2 -9.1048 11.7085   7
  11  -1   2 -8.8944 14.9934   6
 -11   1  -2  0.6364 11.5323   7
  11   1   2 42.3704 18.3304   6
 -12  -1  -2 39.9906 14.5142   7
 -12   1  -2 19.0775 13.5398   7
 -13  -1  -2 32.2363 15.1025   7
 -13   1  -2 28.9829 14.6635   7
  13  -2  -2 24.3536 15.6633   7
 -13  -2   2 15.4212 16.9593   1
 -13   2   2 44.7519 16.9173   1
 -13   2   2 38.6759 16.2213   7
  13   2  -2 23.4518 17.0477   7
 -12  -2   2 113.662  20.083   1
  12  -2  -2 118.740  18.386   7
 -12   2   2 87.0704 17.8516   7
 -12   2   2 96.0658 18.7612   1
  12   2  -2 100.390  18.983   7
  11  -2  -2 -5.7362 14.0158   6
 -11  -2   2 -5.4622 13.7758   1
  11  -2  -2 -2.4459 12.3090   7
  11   2  -2  7.2548 14.2892   7
 -11   2   2 11.6498 14.1994   1
  11   2  -2 23.6225 16.5122   6
 -11   2   2 34.4384 14.4413   7
 -10  -2   2 542.530  27.862   1
  10  -2  -2 515.291  27.706   6
  10  -2  -2 537.834  27.259   7
 -10   2   2 501.573  26.421   7
  10   2  -2 520.541  29.878   6
  10   2  -2 492.913  27.836   7
 -10   2   2 548.416  28.382   1
   9  -2  -2 148.930  17.294   6
  -9  -2   2 184.965  18.150   1
   9  -2  -2 184.132  17.080   7
   9   2  -2 165.121  19.142   6
  -9   2   2 162.167  17.851   1
  -9   2   2 179.044  17.027   7
   9   2  -2 198.966  19.006   7
   8  -2  -2 92.7800 13.0147   7
  -8  -2   2 90.3587 13.8130   1
  -8  -2   2 81.1838 12.6720   7
   8  -2  -2 71.2487 13.4507   6
   8   2  -2 98.1274 14.2515   7
  -8   2   2 91.5762 13.1710   7
  -8   2   2 79.2960 13.4117   1
   8   2  -2 110.276  15.881   6
   7  -2  -2 39.6036 10.8246   6
  -7  -2   2 32.2459  9.8963   7
  -7  -2   2 36.0612 10.4945   1
   7  -2  -2 44.0033  9.7631   7
  -7   2   2 22.4103  9.9101   1
   7   2  -2 47.4558 12.5238   6
   7   2  -2 34.4377 10.9206   7
   7   2  -2 11.0252 10.6024   5
  -7   2   2 35.0922  9.4743   7
  -6  -2   2 1702.18   42.86   1
   6  -2  -2 1633.90   42.72   6
   6  -2  -2 1670.81   41.22   7
  -6  -2   2 1679.58   41.81   7
   6   2  -2 1721.32   43.31   7
   6   2  -2 1673.45   44.51   6
  -6   2   2 1667.16   42.54   1
   6   2  -2 1712.10   45.51   5
   5  -2  -2 267.862  14.820   6
  -5  -2   2 244.995  15.478   1
  -5  -2   2 273.494  14.552   7
   5  -2  -2 266.506  13.932   7
  -5   2   2 290.956  15.438   1
  -5   2   2 273.316  13.739   7
   5   2  -2 278.606  15.923   7
   5   2  -2 264.385  16.817   5
   5   2  -2 270.109  16.011   6
   4  -2  -2 22.8615  6.4987   7
  -4  -2   2 9.97237 7.66871   1
  -4  -2   2 11.3759  6.6845   7
   4  -2  -2 11.8959  7.8886   6
   4   2  -2 16.0955  7.8073   7
   4   2  -2 18.3341  9.0112   6
   4   2  -2 20.2980  8.4434   5
  -4   2   2 15.5776  6.3989   7
  -4   2   2 19.6372  7.4028   1
  -3  -2   2 41.0162  8.2652   1
   3  -2  -2 42.4803  6.8716   7
   3  -2  -2 55.7168  8.5875   6
   3   2  -2 44.4781  7.1859   3
  -3   2   2 49.5117  6.8010   7
   3   2  -2 41.7235  7.6033   7
  -3   2   2 32.4942  7.4312   1
   3   2  -2 48.6951  9.1433   6
   2  -2  -2 4143.74   80.85   6
   2  -2  -2 4142.52   78.32   7
   2   2  -2 4056.95   77.29   7
   2   2  -2 4210.10   79.81   3
   2   2  -2 4214.37   81.05   6
  -2   2   2 4087.89   79.39   1
   1  -2  -2 15.0811  6.7883   6
   1  -2  -2 12.7434  6.6922   4
   1  -2  -2 18.0150  5.3879   3
   1  -2  -2 14.0844  5.2726   7
   1   2  -2 8.82022 4.31716   7
   1   2  -2 16.9461  6.7792   6
   1   2  -2 14.1582  4.9416   3
   0  -2  -2 17.8297  5.4408   7
   0  -2  -2 6.76066 5.90822   4
   0  -2  -2 27.6545  7.2874   6
   0   2  -2 10.3388  4.9957   3
   0   2  -2 20.5813  3.9125   7
  -1  -2  -2 39.8337  6.4864   7
  -1  -2  -2 30.9155  8.0440   6
   1  -2   2 29.8469  4.5834   6
  -1   2  -2 28.0361  4.2546   7
   2  -2   2 3336.17   61.80   6
  -2  -2  -2 3254.05   64.31   7
   2  -2   2 3219.63   59.57   4
  -2   2  -2 3235.94   61.45   7
   3  -2   2 334.645  12.208   6
  -3  -2  -2 366.562  14.933   7
  -3   2  -2 343.992  12.255   7
   3   2   2 359.619  16.258   7
   3   2   2 333.158  16.965   6
  -3   2  -2 333.288  13.869   1
  -4  -2  -2 15.1516  6.2776   1
  -4  -2  -2 12.0096  7.0606   7
   4  -2   2 13.6912  6.3236   6
   4  -2   2 17.2163  6.5486   7
   4   2   2 14.5189  9.8534   6
   4   2   2 21.3003  8.1719   7
  -4   2  -2 10.1476  6.7208   1
  -4   2  -2 14.6880  6.0024   7
   5  -2   2 38.9352  8.2250   6
   5  -2   2 44.1173  7.8801   7
  -5  -2  -2 48.1145  8.7602   7
  -5  -2  -2 52.6082  8.2249   1
   5   2   2 49.0892 11.2134   6
   5   2   2 34.4207  9.6024   7
  -5   2  -2 57.4389  8.6182   1
   5   2   2 44.6617  9.2487   5
  -5   2  -2 44.8612  7.3607   7
   6  -2   2 939.660  26.895   6
   6  -2   2 960.261  27.628   7
  -6  -2  -2 898.151  26.163   1
  -6  -2  -2 938.836  28.309   7
  -6   2  -2 902.858  26.662   7
   6   2   2 936.632  29.742   7
   6   2   2 895.098  31.431   6
   6   2   2 879.065  29.020   5
  -6   2  -2 920.557  26.910   1
  -7  -2  -2 460.333  19.820   1
  -7  -2  -2 487.019  21.198   7
   7  -2   2 496.106  20.910   6
   7  -2   2 446.143  20.856   7
  -7   2  -2 486.549  20.756   1
   7   2   2 478.029  25.040   6
  -7   2  -2 468.510  20.051   7
   7   2   2 429.993  22.225   5
   7   2   2 497.545  23.393   7
   8  -2   2 -2.4566 10.6346   6
  -8  -2  -2 7.12014 9.36899   7
  -8  -2  -2 20.1885 10.4558   1
   8   2   2 -16.817  11.733   6
  -8   2  -2 19.2794 10.4663   1
   8   2   2 12.4848 11.3244   7
  -8   2  -2 -2.1659  8.3916   7
  -9  -2  -2 63.3709 13.1919   7
   9  -2   2 73.3022 14.2342   6
   9   2   2 80.1579 15.5001   7
  -9   2  -2 67.9006 13.3240   1
  -9   2  -2 71.5856 12.6505   7
   9   2   2 64.8176 16.8971   6
  10  -2   2 168.238  19.472   6
 -10  -2  -2 174.438  18.291   7
 -10   2  -2 157.709  16.867   7
  10   2   2 154.809  22.068   6
 -10   2  -2 152.361  17.736   1
  10   2   2 147.397  20.127   7
  11  -2   2 220.112  21.577   6
 -11  -2  -2 255.433  22.170   7
 -11   2  -2 193.879  19.190   7
  11   2   2 232.431  25.408   6
  11   2   2 228.487  24.191   7
 -12  -2  -2 -6.2202 12.4164   7
 -12   2  -2 -3.4911 12.1675   7
 -13  -2  -2 61.3265 17.1231   7
 -13   2  -2 47.9162 16.4404   7
  12  -3  -2 14.5189 13.8677   7
 -12  -3   2 29.0023 16.2485   1
 -12   3   2  4.5003 14.2345   7
  12   3  -2 16.3241 15.3693   7
 -12   3   2 -16.021  13.869   1
  11  -3  -2 48.4391 16.7244   6
 -11  -3   2 46.7393 16.0335   1
  11  -3  -2 37.9265 14.6369   7
 -11   3   2 53.7290 14.9856   7
  11   3  -2 38.9632 15.5590   7
 -11   3   2 38.7284 15.9082   1
  10  -3  -2 248.887  21.148   7
 -10  -3   2 210.489  20.691   1
  10  -3  -2 255.589  22.823   6
  10   3  -2 244.096  24.721   6
 -10   3   2 255.440  22.079   1
  10   3  -2 230.123  22.334   7
 -10   3   2 254.502  21.000   7
   9  -3  -2 217.619  18.634   7
  -9  -3   2 216.815  19.291   1
   9  -3  -2 254.152  21.027   6
   9   3  -2 192.845  19.404   7
  -9   3   2 189.643  17.992   7
  -9   3   2 215.692  19.604   1
   9   3  -2 190.818  21.210   6
   8  -3  -2 29.4207 10.3741   7
  -8  -3   2 69.1042 13.1412   1
   8  -3  -2 42.6066 12.2155   6
   8   3  -2 44.3258 12.7436   7
  -8   3   2 39.6459 10.8758   7
   8   3  -2 51.7473 15.3937   6
   8   3  -2 16.4443 12.6655   5
  -8   3   2 23.4928 10.7770   1
  -7  -3   2 333.617  19.995   1
   7  -3  -2 337.800  18.219   7
   7  -3  -2 335.253  19.391   6
   7   3  -2 315.278  21.411   6
   7   3  -2 318.211  21.772   5
  -7   3   2 307.818  18.037   7
  -7   3   2 280.540  18.921   1
   7   3  -2 339.288  20.528   7
   6  -3  -2 718.034  25.412   6
   6  -3  -2 727.663  24.654   7
  -6  -3   2 727.843  25.409   7
  -6  -3   2 709.793  26.277   1
  -6   3   2 720.203  24.507   7
   6   3  -2 677.014  27.965   6
   6   3  -2 653.438  28.287   5
  -6   3   2 675.725  25.106   1
   6   3  -2 722.681  26.485   7
  -5  -3   2 366.124  18.053   1
  -5  -3   2 405.822  18.013   7
   5  -3  -2 372.061  17.452   6
   5  -3  -2 399.379  16.899   7
   5   3  -2 352.101  20.009   5
  -5   3   2 370.806  16.610   7
   5   3  -2 382.898  18.400   7
   5   3  -2 347.729  20.528   6
   4  -3  -2 217.050  13.137   7
  -4  -3   2 206.431  13.505   7
  -4  -3   2 210.974  14.625   1
   4  -3  -2 227.592  13.553   6
  -4   3   2 192.780  12.253   7
   4   3  -2 203.222  15.502   6
   4   3  -2 222.035  13.672   7
  -4   3   2 231.023  13.460   1
   4   3  -2 220.395  12.570   3
   4   3  -2 203.680  15.457   5
   3  -3  -2 1214.67   30.61   7
   3  -3  -2 1281.78   32.08   6
  -3   3   2 1240.83   30.35   7
   3   3  -2 1297.97   29.48   3
   3   3  -2 1285.83   30.48   7
   3   3  -2 1320.23   34.10   6
  -3   3   2 1264.94   31.73   1
   2  -3  -2 1363.65   32.52   6
   2  -3  -2 1278.99   30.34   7
   2  -3  -2 1287.22   31.02   4
   2   3  -2 1327.00   29.37   7
  -2   3   2 1276.60   30.99   1
  -2   3   2 1303.89   30.43   7
   2   3  -2 1261.99   32.92   5
   2   3  -2 1300.35   32.50   6
   2   3  -2 1305.47   28.59   3
   1  -3  -2 607.392  18.237   7
   1  -3  -2 614.588  16.051   3
   1  -3  -2 578.759  18.343   4
   1  -3  -2 604.993  19.247   6
  -1   3   2 614.756  18.085   7
   1   3  -2 605.072  15.522   3
  -1   3   2 551.214  17.945   1
   1   3  -2 607.822  16.342   7
   0  -3  -2 806.094  21.357   7
   0  -3   2 799.305  20.234   6
   0  -3  -2 782.250  22.798   6
   0   3   2 755.202  20.574   1
   0   3   2 826.152  21.495   7
   0   3  -2 784.032  18.992   7
   0   3  -2 782.798  22.296   1
   1  -3   2 2206.72   43.41   6
  -1  -3  -2 2190.32   47.67   6
  -1  -3  -2 2173.24   45.63   7
  -1   3  -2 2105.98   42.74   7
   1   3   2 2133.03   45.25   7
  -1   3  -2 2112.37   45.57   1
  -2  -3  -2 1022.11   27.00   7
   2  -3   2 1014.01   22.46   4
   2  -3   2 987.250  23.055   6
  -2   3  -2 1003.22   26.20   1
  -2   3  -2 1043.53   23.67   7
   2   3   2 953.281  26.305   7
   3  -3   2 338.389  12.617   6
  -3  -3  -2 341.889  16.194   7
   3  -3   2 352.809  12.136   4
   3   3   2 340.351  16.349   7
  -3   3  -2 349.145  13.130   7
  -3   3  -2 381.759  15.249   1
  -4  -3  -2 1064.57   29.66   7
   4  -3   2 1071.88   27.87   7
  -4  -3  -2 1089.15   27.66   1
   4  -3   2 1081.12   26.50   6
   4   3   2 1042.38   30.18   5
   4   3   2 1051.04   32.57   6
  -4   3  -2 1050.71   28.37   1
  -4   3  -2 1047.07   26.86   7
   4   3   2 1067.13   30.68   7
   5  -3   2 1253.62   31.96   7
  -5  -3  -2 1193.14   32.82   7
  -5  -3  -2 1256.12   31.21   1
   5  -3   2 1179.47   30.66   6
   5   3   2 1169.04   34.66   7
  -5   3  -2 1181.23   32.02   1
  -5   3  -2 1221.36   30.97   7
   5   3   2 1231.35   37.20   6
   5   3   2 1168.91   33.89   5
  -6  -3  -2 423.778  18.570   1
   6  -3   2 459.413  18.315   6
   6  -3   2 453.105  18.950   7
  -6  -3  -2 453.807  19.984   7
  -6   3  -2 412.295  18.262   7
  -6   3  -2 450.076  19.894   1
   6   3   2 442.665  23.670   6
   6   3   2 455.634  21.244   5
   6   3   2 429.882  21.771   7
   7  -3   2 113.697  12.917   6
  -7  -3  -2 109.992  13.211   7
  -7  -3  -2 103.611  12.226   1
   7   3   2 117.719  15.240   7
   7   3   2 134.906  17.538   6
  -7   3  -2 111.995  13.251   1
   7   3   2 102.133  14.144   5
  -7   3  -2 114.341  12.091   7
   8  -3   2 706.504  26.724   6
  -8  -3  -2 643.725  26.849   7
  -8  -3  -2 641.685  24.683   1
  -8   3  -2 642.606  26.375   1
  -8   3  -2 681.491  25.921   7
   8   3   2 633.879  28.509   5
   8   3   2 662.957  31.070   6
   8   3   2 636.829  29.539   7
  -9  -3  -2 430.295  23.918   7
   9  -3   2 422.949  23.717   6
  -9   3  -2 399.831  22.392   7
   9   3   2 433.138  28.547   6
   9   3   2 437.656  26.829   7
  -9   3  -2 456.926  24.083   1
  10  -3   2 199.980  19.782   6
 -10  -3  -2 231.755  20.226   7
 -10   3  -2 209.026  18.725   7
 -10   3  -2 188.754  19.421   1
  10   3   2 228.284  23.062   7
  10   3   2 207.478  23.624   6
 -11  -3  -2 27.7569 13.8545   7
 -11   3  -2 58.0777 16.1913   1
  11   3   2 27.7552 16.1414   7
 -11   3  -2 35.2652 13.2271   7
 -12  -3  -2 245.997  23.339   7
 -12   3  -2 267.985  22.826   7
  12   3   2 205.793  25.005   7
  12  -4  -2 67.9458 16.6203   7
 -12  -4   2 15.0081 16.4905   1
  12   4  -2 36.2534 16.7377   7
 -12   4   2 70.3571 18.2391   1
 -12   4   2 52.4995 15.8508   7
  11  -4  -2 21.4498 13.7243   7
 -11  -4   2 16.7655 14.5720   1
  11   4  -2 -7.0800 13.6198   7
 -11   4   2 13.8811 15.2588   1
 -11   4   2 21.0361 13.1823   7
 -10  -4   2 43.6374 14.1710   1
  10  -4  -2 13.6777 12.3777   7
  10  -4  -2 13.7050 13.6935   6
 -10   4   2 23.9530 12.9494   7
  10   4  -2  7.3930 16.7479   6
 -10   4   2 23.4265 14.2886   1
  10   4  -2 -4.1103 12.5673   7
   9  -4  -2 -2.7839 10.5183   7
  -9  -4   2  8.8256 12.2665   1
   9  -4  -2 -12.501  11.034   6
  -9   4   2  0.1605 12.2911   1
   9   4  -2 -10.357  11.654   7
   9   4  -2 -11.900  12.690   5
   9   4  -2  0.6423 15.4151   6
  -9   4   2  5.9187 10.8417   7
   8  -4  -2 71.3545 14.1576   6
  -8  -4   2 109.118  15.137   1
   8  -4  -2 95.9891 13.5438   7
  -8   4   2 94.4921 14.7092   1
   8   4  -2 69.8250 16.3612   6
  -8   4   2 78.6624 12.9376   7
   8   4  -2 73.5000 14.6420   7
   8   4  -2 81.9481 16.4201   5
  -7  -4   2 41.5387 12.0912   1
   7  -4  -2 28.4545 10.3292   7
   7  -4  -2 26.0770 10.8232   6
   7   4  -2 26.6096 14.2456   6
  -7   4   2 5.73783 8.65796   7
   7   4  -2 19.3569 11.0710   7
  -7   4   2 17.4424 10.7327   1
   7   4  -2 29.2985 13.0446   5
   6  -4  -2 86.2575 12.2473   6
   6  -4  -2 81.5748 11.1491   7
  -6  -4   2 98.9362 12.5690   1
  -6   4   2 64.1344 11.9484   1
   6   4  -2 102.369  15.646   6
   6   4  -2 97.9424 12.1954   3
   6   4  -2 63.8905 11.7383   7
  -6   4   2 72.1765 10.8394   7
   6   4  -2 78.9601 14.4044   5
   5  -4  -2 -8.9283  8.7433   6
  -5  -4   2 4.79983 8.77911   1
   5  -4  -2 9.77414 7.89050   7
   5   4  -2 2.07458 9.58576   5
  -5   4   2 6.51436 7.19829   7
   5   4  -2 -4.5403  7.9193   7
  -5   4   2 6.36031 8.38577   1
   5   4  -2 -10.693   7.405   3
   5   4  -2 17.1717 11.6614   6
   4  -4  -2 118.116  11.259   7
   4  -4  -2 86.0061 11.5892   6
   4  -4  -2 84.1840 10.4880   4
  -4  -4   2 99.0271 11.1004   7
   4   4  -2 109.803  10.798   7
   4   4  -2 101.388   9.520   3
  -4   4   2 113.872  10.814   7
   4   4  -2 107.558  13.240   5
   4   4  -2 112.804  14.202   6
  -4   4   2 75.3324 10.6974   1
   3  -4  -2 58.5260  9.2448   4
   3  -4  -2 41.4331  7.6148   7
  -3  -4   2 33.6677  8.3240   7
   3  -4  -2 34.3867  8.8969   6
   3   4  -2 44.6212  6.4384   3
   3   4  -2 30.1688  7.0970   7
  -3   4   2 40.2883  7.3810   7
  -3   4   2 31.9509  8.4368   1
   3   4  -2 18.5354  8.9974   5
   3   4  -2 18.1725 10.4004   6
   2  -4  -2 220.042  13.120   4
   2  -4  -2 243.710  13.266   7
   2  -4  -2 229.424  13.553   6
  -2   4   2 237.928  13.365   1
   2   4  -2 217.849  15.211   6
   2   4  -2 233.737   9.630   3
   2   4  -2 242.826  12.147   7
  -2   4   2 225.364  12.688   7
   2   4  -2 214.032  14.491   5
   1  -4  -2 108.390  10.312   4
   1  -4  -2 123.471  10.120   7
   1  -4  -2 106.863   7.856   3
   1  -4  -2 113.559  11.331   6
   1   4  -2 119.162   9.056   7
   1   4  -2 116.512  10.862   5
  -1   4   2 116.418   9.892   7
   1   4  -2 102.181   7.251   3
  -1   4   2 120.785  10.165   1
   0  -4  -2 182.281  13.422   6
   0  -4   2 212.587  12.251   6
   0  -4  -2 188.006  12.452   7
   0   4   2 192.604  12.493   7
   0   4   2 210.175  11.946   1
   0   4  -2 190.612  10.352   7
   0   4  -2 169.204  13.026   1
   1  -4   2 49.6614  7.5044   6
  -1  -4  -2 58.4575 10.0200   6
  -1  -4  -2 58.2128  8.7753   7
  -1  -4  -2 61.2961  8.7550   7
  -1   4  -2 51.9963  6.8833   7
   1   4   2 55.9809  8.2389   1
  -1   4  -2 52.8576  8.7316   1
   1   4   2 57.2115  8.3765   7
   2  -4   2 210.013  10.877   6
  -2  -4  -2 193.611  13.802   7
  -2   4  -2 206.480  13.018   1
   2   4   2 167.972  12.667   5
   2   4   2 194.688  13.423   7
   2   4   2 234.453  12.863   1
  -2   4  -2 199.769  10.748   7
   3  -4   2 283.707  11.946   4
  -3  -4  -2 276.889  15.940   7
   3  -4   2 260.332  12.301   6
  -3   4  -2 264.841  12.503   7
  -3   4  -2 261.324  15.087   1
   3   4   2 274.100  15.526   5
   3   4   2 239.112  15.207   7
   4  -4   2 253.869  13.419   6
  -4  -4  -2 266.701  16.720   7
   4  -4   2 236.278  12.562   4
   4  -4   2 261.681  14.413   7
  -4   4  -2 240.316  12.943   7
   4   4   2 259.646  16.509   5
   4   4   2 262.264  18.132   6
  -4   4  -2 252.101  15.440   1
   4   4   2 229.525  16.068   7
   5  -4   2 69.7256  9.2509   6
  -5  -4  -2 76.6821 10.7253   1
  -5  -4  -2 58.6065 10.5468   7
   5  -4   2 86.8316  9.2532   4
   5   4   2 56.6919 11.5048   7
  -5   4  -2 67.4302  9.2034   7
   5   4   2 69.8930 11.6073   5
  -5   4  -2 86.2454 11.6480   1
   5   4   2 81.5086 13.9266   6
  -6  -4  -2 51.8999 11.0994   7
   6  -4   2 66.5200 10.0151   6
  -6  -4  -2 72.1256 10.6848   1
   6   4   2 87.8907 13.0647   5
   6   4   2 41.9937 13.8726   6
   6   4   2 60.0472 12.6676   7
  -6   4  -2 77.8174 12.2125   1
  -6   4  -2 45.0641  9.1060   7
  -7  -4  -2 165.655  15.916   7
   7  -4   2 152.572  14.171   6
  -7  -4  -2 183.823  15.250   1
  -7   4  -2 148.970  14.175   7
  -7   4  -2 164.327  16.171   1
   7   4   2 170.551  17.414   5
   7   4   2 179.042  17.801   7
   7   4   2 147.870  18.702   6
  -8  -4  -2 165.274  16.648   7
   8  -4   2 167.887  16.294   6
   8   4   2 149.258  20.094   6
  -8   4  -2 159.002  15.237   7
   8   4   2 180.405  18.931   5
  -8   4  -2 164.027  16.932   1
   8   4   2 152.649  18.273   7
  -9  -4  -2 57.7896 13.6726   7
   9   4   2 73.1735 15.9029   5
  -9   4  -2 54.3138 12.8903   7
  -9   4  -2 53.9820 14.2301   1
   9   4   2 42.4373 18.3911   6
   9   4   2 76.8874 16.4298   7
 -10  -4  -2 20.9133 12.8056   7
  10   4   2 -10.013  13.249   7
 -10   4  -2 17.2361 11.6378   7
 -10   4  -2  4.9539 12.8294   1
  10   4   2 -8.5218 16.6576   6
 -11  -4  -2 48.7587 15.0244   7
  11   4   2 44.3391 17.3150   7
 -11   4  -2 38.0603 15.6058   1
 -11   4  -2 36.0042 13.5265   7
 -12  -4  -2 66.5926 16.5003   7
  12   4   2 68.3152 19.4646   7
 -12   4  -2 44.7539 14.9842   7
 -12  -5   2 22.6326 16.0629   1
  12  -5  -2  5.1602 14.8751   7
  12   5  -2 56.1067 16.9507   7
 -12   5   2 32.3169 17.1145   1
 -12   5   2 -5.8530 13.2839   7
  11  -5  -2 34.2301 14.4519   7
 -11  -5   2  5.7661 13.5291   1
  11   5  -2  2.3201 13.8365   7
 -11   5   2 -1.2354 12.9758   7
 -11   5   2  2.2300 14.6944   1
 -10  -5   2 152.308  19.721   1
  10  -5  -2 150.132  20.094   6
  10  -5  -2 112.306  17.114   7
 -10   5   2 146.892  18.349   7
  10   5  -2 111.586  20.311   5
  10   5  -2 160.072  19.464   7
 -10   5   2 109.546  18.938   1
  -9  -5   2 200.881  20.234   1
   9  -5  -2 208.893  19.202   7
   9  -5  -2 257.606  21.817   6
  -9   5   2 220.042  21.415   1
  -9   5   2 218.559  20.024   7
   9   5  -2 193.126  19.984   7
   9   5  -2 199.289  24.666   6
   9   5  -2 227.219  23.825   5
  -8  -5   2 129.141  16.874   1
   8  -5  -2 157.569  16.995   7
   8  -5  -2 116.930  16.155   6
   8   5  -2 139.966  20.342   6
   8   5  -2 121.332  16.736   7
  -8   5   2 136.130  17.067   1
   8   5  -2 96.8921 18.7579   5
  -8   5   2 135.169  15.853   7
   7  -5  -2 71.6185 12.8028   7
   7  -5  -2 72.5251 13.2676   6
  -7  -5   2 56.5272 13.1256   1
  -7   5   2 64.4333 13.5490   1
   7   5  -2 32.2235 14.1308   5
   7   5  -2 54.8494 12.7366   7
   7   5  -2 53.9800 16.2768   6
  -7   5   2 49.7859 11.4565   7
   6  -5  -2 746.946  27.575   7
  -6  -5   2 752.630  29.060   1
   6  -5  -2 710.154  27.549   6
   6  -5  -2 747.141  26.897   4
   6   5  -2 666.756  31.093   5
   6   5  -2 746.656  28.056   7
  -6   5   2 742.871  28.611   1
   6   5  -2 685.709  31.419   6
  -6   5   2 799.966  27.576   7
   5  -5  -2 327.643  18.658   4
   5  -5  -2 339.039  18.782   7
   5  -5  -2 339.195  18.632   6
   5   5  -2 342.938  18.527   7
   5   5  -2 356.851  22.244   5
  -5   5   2 363.391  18.450   7
  -5   5   2 342.024  19.741   1
   5   5  -2 312.068  21.736   6
   4  -5  -2 540.053  21.181   4
   4  -5  -2 541.213  21.512   7
   4  -5  -2 551.235  22.854   6
   4   5  -2 554.061  24.827   5
  -4   5   2 584.932  21.545   7
   4   5  -2 549.944  21.042   7
   4   5  -2 549.040  25.802   6
  -4   5   2 500.191  21.817   1
   3  -5  -2 275.399  15.998   6
   3  -5  -2 277.996  15.511   4
   3  -5  -2 251.503  15.169   7
   3   5  -2 272.586  18.526   6
  -3   5   2 252.698  14.778   7
   3   5  -2 275.153  17.754   5
  -3   5   2 242.821  15.978   1
   3   5  -2 266.677  14.434   7
   2  -5  -2 1867.18   43.89   7
   2  -5  -2 1819.14   43.40   4
   2  -5  -2 1820.75   44.78   6
   2   5  -2 1768.01   45.96   5
  -2   5   2 1887.42   43.84   7
   2   5  -2 1906.47   42.03   7
  -2   5   2 1852.33   44.74   1
   1  -5  -2 411.178  18.702   6
   1  -5  -2 432.867  18.339   7
  -1  -5   2 443.583  18.165   7
  -1   5   2 431.890  17.891   1
   1   5  -2 393.375  18.716   5
   1   5  -2 406.708  15.640   7
  -1   5   2 447.590  17.638   7
   1   5  -2 396.648  18.814   1
   0  -5   2 1174.17   30.31   6
   0  -5  -2 1141.81   31.59   7
   0  -5  -2 1139.86   32.45   6
   0  -5   2 1141.29   30.43   7
   0  -5   2 1158.95   30.73   7
   0   5   2 1121.19   30.70   1
   0   5  -2 1144.11   28.51   7
   0   5   2 1135.92   30.52   7
   0   5  -2 1090.05   32.06   5
   0   5  -2 1154.72   32.04   1
   1  -5   2 743.505  22.724   6
  -1  -5  -2 753.073  25.213   7
   1  -5   2 770.742  23.777   7
  -1  -5  -2 693.402  24.874   7
  -1  -5  -2 787.085  26.347   6
   1   5   2 761.292  24.769   5
  -1   5  -2 754.539  21.713   7
   1   5   2 758.632  24.088   7
  -1   5  -2 769.969  24.943   1
   1   5   2 769.988  23.873   1
  -2  -5  -2 1952.83   46.27   7
   2  -5   2 1825.94   41.99   6
   2   5   2 1860.96   44.57   7
  -2   5  -2 1861.36   45.18   1
  -2   5  -2 1845.21   41.53   7
   2   5   2 1811.58   45.15   5
   2   5   2 1794.55   43.49   1
  -3  -5  -2 279.101  17.338   7
   3  -5   2 295.261  13.942   4
   3  -5   2 290.267  14.295   6
  -3   5  -2 284.705  13.963   7
  -3   5  -2 257.470  16.012   1
   3   5   2 277.718  16.864   5
   3   5   2 300.325  16.880   7
   4  -5   2 1104.38   29.33   6
  -4  -5  -2 1045.09   33.53   7
   4  -5   2 1131.34   28.81   4
   4   5   2 1087.02   33.18   5
  -4   5  -2 1108.66   29.63   7
  -4   5  -2 1034.85   32.27   1
   4   5   2 1080.35   33.31   7
   5  -5   2 826.032  24.911   4
   5  -5   2 831.825  25.883   6
  -5  -5  -2 884.810  30.538   7
   5   5   2 810.263  32.491   6
   5   5   2 819.518  30.219   5
   5   5   2 851.135  30.429   7
  -5   5  -2 795.878  28.456   1
  -5   5  -2 843.514  26.031   7
  -6  -5  -2 731.368  28.548   7
  -6  -5  -2 705.904  26.312   1
   6  -5   2 711.497  24.729   6
  -6   5  -2 719.337  25.294   7
  -6   5  -2 689.910  27.222   1
   6   5   2 723.551  29.656   5
   6   5   2 717.713  29.150   7
   6   5   2 675.525  31.316   6
  -7  -5  -2 120.072  14.988   7
  -7  -5  -2 110.293  14.048   1
   7   5   2 95.6098 17.7738   6
   7   5   2 119.648  16.456   7
  -7   5  -2 89.4463 12.3904   7
  -7   5  -2 116.014  15.408   1
   7   5   2 87.8544 15.4590   5
  -8  -5  -2 627.631  28.321   7
   8   5   2 648.718  30.178   7
  -8   5  -2 657.451  29.041   1
  -8   5  -2 584.497  25.771   7
   8   5   2 588.153  30.100   5
   8   5   2 606.700  33.500   6
  -9  -5  -2 418.872  25.571   7
  -9   5  -2 439.271  26.172   1
   9   5   2 441.799  27.438   5
   9   5   2 409.780  27.731   7
  -9   5  -2 388.924  22.648   7
   9   5   2 512.486  32.351   6
 -10  -5  -2 150.797  19.099   7
 -10   5  -2 185.135  18.789   7
 -10   5  -2 134.806  18.954   1
  10   5   2 144.182  20.220   7
  10   5   2 189.048  21.959   5
 -11  -5  -2 25.7270 14.7432   7
  11   5   2  4.2555 15.4482   7
 -11   5  -2 37.0922 13.3322   7
 -11   5  -2 20.4938 14.9193   1
 -12  -5  -2 270.853  25.480   7
  12   5   2 276.280  26.976   7
 -12   5  -2 240.824  22.489   7
  11  -6  -2  2.6170 14.0676   7
 -11  -6   2 25.3813 15.1779   1
 -11   6   2 34.2464 16.8118   1
  11   6  -2 22.8612 14.9286   7
 -11   6   2 44.5301 15.3948   7
  11   6  -2 17.2413 16.8100   5
 -10  -6   2 81.6454 17.2533   1
  10  -6  -2 73.5321 16.4108   7
 -10   6   2 60.7057 15.4902   7
  10   6  -2 39.3428 17.9476   5
  10   6  -2 55.2477 16.0496   7
 -10   6   2 71.6837 17.4508   1
   9  -6  -2 474.000  28.864   6
   9  -6  -2 522.350  28.229   7
  -9  -6   2 535.439  28.147   1
  -9   6   2 513.612  26.755   7
   9   6  -2 507.857  27.722   7
  -9   6   2 474.755  28.934   1
   9   6  -2 480.601  31.195   5
   9   6  -2 452.060  32.159   6
   8  -6  -2 99.3807 15.2860   7
   8  -6  -2 117.742  16.235   4
  -8  -6   2 103.706  17.244   1
   8  -6  -2 93.4749 16.6886   6
  -8   6   2 93.3639 14.7548   7
  -8   6   2 106.652  17.516   1
   8   6  -2 98.7332 15.8904   7
   8   6  -2 137.644  19.869   5
   8   6  -2 113.656  21.045   6
   7  -6  -2 108.717  15.799   4
   7  -6  -2 103.207  14.856   7
  -7  -6   2 75.9630 15.0030   1
   7  -6  -2 80.3912 15.4198   6
  -7   6   2 110.950  14.455   7
   7   6  -2 98.6095 14.9069   7
   7   6  -2 105.476  20.949   6
   7   6  -2 79.6892 17.0833   5
  -7   6   2 62.5397 14.8218   1
   6  -6  -2 358.732  20.787   6
  -6  -6   2 352.741  22.844   1
   6  -6  -2 346.040  20.839   4
   6  -6  -2 305.142  20.874   7
   6   6  -2 334.576  25.085   5
  -6   6   2 348.994  20.338   7
   6   6  -2 396.718  25.999   6
  -6   6   2 300.366  21.711   1
   6   6  -2 346.695  20.915   7
   5  -6  -2 719.697  26.566   4
   5  -6  -2 712.274  27.944   6
   5  -6  -2 691.031  26.951   7
   5   6  -2 686.239  26.441   7
   5   6  -2 707.446  30.761   6
   5   6  -2 668.732  30.077   5
  -5   6   2 706.205  28.698   1
  -5   6   2 688.328  26.549   7
   4  -6  -2 354.018  19.370   7
   4  -6  -2 285.096  18.167   6
   4  -6  -2 304.051  17.967   4
   4   6  -2 325.695  22.507   6
   4   6  -2 322.478  17.945   7
  -4   6   2 353.438  19.033   7
  -4   6   2 374.096  20.187   1
   4   6  -2 296.551  21.114   5
   3  -6  -2 185.929  15.899   6
   3  -6  -2 164.395  14.302   4
   3  -6  -2 178.773  14.804   7
   3   6  -2 161.733  17.196   6
  -3   6   2 183.364  15.656   1
  -3   6   2 190.055  14.936   7
   3   6  -2 153.351  12.654   7
   3   6  -2 171.886  16.431   5
   2  -6  -2 764.955  26.207   7
   2  -6  -2 710.152  26.299   6
  -2   6   2 722.352  25.912   1
   2   6  -2 724.408  27.451   5
  -2   6   2 755.681  25.540   7
   2   6  -2 727.399  23.325   7
   1  -6  -2 245.677  17.548   6
   1  -6  -2 236.652  16.021   7
  -1   6   2 224.425  14.821   7
  -1   6   2 227.851  15.695   1
   1   6  -2 224.088  13.533   7
   1   6  -2 246.505  17.519   1
   1   6  -2 255.366  17.308   5
   0  -6  -2 395.930  20.401   6
   0  -6  -2 439.813  20.445   7
   0   6   2 376.284  18.610   1
   0   6  -2 428.837  16.984   7
   0   6  -2 414.324  20.335   1
   0   6   2 431.816  18.826   7
   0   6  -2 417.031  20.231   5
   1  -6   2 126.875  12.686   6
  -1  -6  -2 102.417  13.701   6
  -1  -6  -2 142.942  14.018   7
   1   6   2 109.775  12.318   1
   1   6   2 102.677  11.930   7
  -1   6  -2 131.211  10.921   7
  -1   6  -2 139.300  13.675   1
   1   6   2 128.384  13.128   5
  -2  -6  -2 526.945  23.229   7
   2  -6   2 550.301  19.985   6
  -2  -6  -2 534.886  23.619   7
   2   6   2 552.135  22.232   7
  -2   6  -2 517.630  19.501   7
   2   6   2 511.729  22.843   5
  -2   6  -2 520.994  22.394   1
   2   6   2 509.781  21.495   1
   3  -6   2 5.84342 8.66842   6
  -3  -6  -2 -11.428   9.173   7
   3   6   2 7.57063 9.20860   5
   3   6   2 -5.2521  8.5786   7
  -3   6  -2 8.68088 7.14373   7
  -3   6  -2 7.15364 9.02695   1
   4  -6   2 323.091  17.216   6
  -4  -6  -2 351.268  20.994   7
  -4   6  -2 265.872  16.018   7
   4   6   2 323.770  19.816   7
   4   6   2 299.935  19.682   5
  -4   6  -2 309.914  19.811   1
  -5  -6  -2 30.4797 11.8995   7
  -5   6  -2 21.4407 11.2507   1
   5   6   2 11.2186 10.8635   7
   5   6   2 28.8920 11.8609   5
  -5   6  -2 33.3948  9.5181   7
   5   6   2  9.5822 13.1427   6
  -6  -6  -2 97.4073 14.0965   1
  -6  -6  -2 116.138  15.665   7
   6   6   2 126.004  17.143   5
  -6   6  -2 84.0044 14.6001   1
   6   6   2 90.8745 17.1903   6
  -6   6  -2 98.9434 12.4772   7
   6   6   2 90.2323 15.3041   7
  -7  -6  -2 49.3780 12.5213   1
  -7  -6  -2 36.6969 12.2586   7
  -7   6  -2 33.5673 10.9986   7
   7   6   2 52.6977 14.5481   7
   7   6   2 37.7875 16.1763   6
  -7   6  -2 25.8686 12.6875   1
   7   6   2 33.9656 14.3450   5
  -8  -6  -2 229.411  20.556   7
   8   6   2 235.881  22.068   7
  -8   6  -2 250.843  18.954   7
   8   6   2 184.628  20.685   5
   8   6   2 167.367  22.379   6
  -8   6  -2 209.317  20.587   1
  -9  -6  -2 -5.0518 12.3721   7
  -9   6  -2 18.7223 11.1741   7
  -9   6  -2  2.7241 13.5241   1
   9   6   2 -17.996  13.100   7
   9   6   2 -10.924  13.659   5
 -10  -6  -2 12.8940 13.9375   7
  10   6   2  6.2084 15.2028   5
 -10   6  -2 -6.4533 11.2203   7
 -10   6  -2 -6.4783 13.3541   1
  10   6   2 -17.529  13.909   7
 -11  -6  -2  5.6735 14.2922   7
  11   6   2 -14.564  14.523   5
 -11   6  -2  6.9825 15.3383   1
  11   6   2 39.3220 16.4208   7
 -11   6  -2 10.9514 12.9524   7
 -10  -7   2 352.898  26.956   1
  10   7  -2 312.057  24.882   7
  10   7  -2 304.697  29.120   5
 -10   7   2 283.192  26.624   1
 -10   7   2 330.235  24.957   7
  -9  -7   2 38.4045 15.8514   1
   9   7  -2 47.4348 18.4833   5
  -9   7   2 39.0923 16.4630   1
  -9   7   2 47.1088 14.3134   7
   9   7  -2 55.4741 14.9755   7
   8  -7  -2 209.510  20.876   6
  -8  -7   2 174.610  20.784   1
   8  -7  -2 161.921  18.842   7
   8   7  -2 166.836  22.360   5
  -8   7   2 186.684  21.224   1
   8   7  -2 197.478  19.904   7
  -8   7   2 169.366  18.561   7
   8   7  -2 205.017  24.976   6
   7  -7  -2  3.0141 12.2548   4
   7  -7  -2 -16.056  10.779   7
  -7  -7   2 -9.1809 12.8632   1
   7  -7  -2  3.4444 13.0479   6
   7   7  -2 19.4393 12.5047   7
   7   7  -2  2.6135 18.1084   6
  -7   7   2 14.0241 13.0308   1
   7   7  -2 -1.5818 14.0443   5
  -7   7   2 15.8968 11.1382   7
  -6  -7   2 386.394  24.655   1
   6  -7  -2 365.792  22.173   4
   6  -7  -2 394.513  22.791   6
   6  -7  -2 355.008  22.865   7
   6   7  -2 410.876  23.246   7
   6   7  -2 328.093  27.152   6
  -6   7   2 350.209  21.844   7
   6   7  -2 357.580  26.816   5
  -6   7   2 382.689  24.157   1
   5  -7  -2 129.538  15.898   6
   5  -7  -2 117.819  15.420   4
   5  -7  -2 90.3215 15.0444   7
   5   7  -2 107.136  14.039   7
   5   7  -2 103.401  17.025   5
   5   7  -2 111.419  18.235   6
  -5   7   2 86.5859 14.1102   7
  -5   7   2 98.8162 15.2822   1
   4  -7  -2 253.968  19.739   6
   4  -7  -2 273.855  18.333   4
   4  -7  -2 262.126  18.510   7
   4   7  -2 214.128  16.472   7
  -4   7   2 264.992  18.504   7
   4   7  -2 270.284  22.301   5
  -4   7   2 231.671  19.855   1
   4   7  -2 249.890  21.260   6
   3  -7  -2 26.6779 11.9384   6
   3  -7  -2 23.2744 10.5575   7
  -3   7   2 16.5564 10.3393   1
   3   7  -2 -0.8316  8.3961   7
  -3   7   2 8.64254 9.49284   7
   3   7  -2  2.2514 13.1277   6
   3   7  -2 -7.6648 10.2608   5
   2  -7  -2 234.782  17.965   7
   2  -7  -2 222.970  18.241   6
   2   7  -2 210.598  14.967   7
  -2   7   2 236.095  17.028   7
   2   7  -2 237.206  19.519   5
  -2   7   2 231.354  18.307   1
   1  -7  -2 158.042  15.517   7
   1  -7  -2 147.388  16.157   6
   1   7  -2 155.015  16.714   5
  -1   7   2 164.992  14.660   7
   1   7  -2 162.838  13.143   7
  -1   7   2 149.684  15.294   1
   0  -7  -2 371.726  21.509   7
   0  -7  -2 401.525  21.744   6
   0   7   2 374.862  19.695   7
   0   7   2 373.514  20.417   1
   0   7  -2 348.232  21.191   1
   0   7  -2 349.309  20.912   5
   0   7  -2 360.399  17.484   7
  -1  -7  -2  6.3817 12.2718   6
  -1  -7  -2 -1.8770 10.0415   7
   1  -7   2 -12.000   9.720   6
   1   7   2 -8.2450  8.3996   1
   1   7   2 -0.2284  9.0448   5
   1   7   2 0.33299 8.29283   7
  -1   7  -2 2.80744 7.27657   7
  -1   7  -2 -0.8717  9.6473   1
  -2  -7  -2 143.894  16.542   7
  -2  -7  -2 126.590  15.983   7
  -2   7  -2 96.6081 11.8184   7
  -2   7  -2 128.125  14.799   1
   2   7   2 156.379  15.904   5
   2   7   2 124.794  14.644   1
   2   7   2 109.331  13.528   7
  -3  -7  -2 126.143  16.366   7
  -3  -7  -2 89.0834 14.8972   7
  -3   7  -2 115.934  12.441   7
   3   7   2 104.603  14.055   7
  -3   7  -2 107.087  14.816   1
   3   7   2 116.442  15.014   5
  -4  -7  -2 484.534  25.856   7
  -4   7  -2 457.236  20.911   7
  -4   7  -2 463.337  24.348   1
   4   7   2 464.621  24.648   5
   4   7   2 422.449  24.145   7
  -5  -7  -2 55.9843 14.0917   7
  -5   7  -2 30.6339 12.7367   1
   5   7   2 33.3437 13.4594   5
   5   7   2 52.7726 15.8506   6
  -5   7  -2 54.4806 10.9584   7
   5   7   2 49.7743 13.4084   7
  -6  -7  -2 237.610  20.995   7
   6   7   2 250.773  22.016   5
   6   7   2 205.399  19.910   7
   6   7   2 176.385  22.245   6
  -6   7  -2 160.905  15.222   7
  -6   7  -2 197.701  19.640   1
  -7  -7  -2 28.8939 13.4201   7
  -7   7  -2 24.5234 11.0617   7
  -7   7  -2 -6.5574 12.8483   1
   7   7   2  9.8521 14.1732   5
   7   7   2 15.0334 16.4316   6
   7   7   2 12.2942 13.2357   7
  -8  -7  -2 362.277  24.597   7
   8   7   2 312.424  25.221   7
  -8   7  -2 305.838  21.391   7
   8   7   2 369.783  27.252   5
  -8   7  -2 381.543  25.663   1
  -9  -7  -2 85.5949 16.8826   7
  -9   7  -2 62.5484 13.9862   7
  -9   7  -2 48.7662 17.0564   1
   9   7   2 46.9540 17.5949   5
   9   7   2 42.5937 16.2014   7
 -10  -7  -2 313.757  26.434   7
  10   7   2 300.111  27.730   5
 -10   7  -2 304.914  22.680   7
 -10   7  -2 313.124  26.948   1
  10   7   2 315.598  26.897   7
  -9  -8   2 51.7300 17.4673   1
   9   8  -2 34.2816 14.9347   7
  -9   8   2 71.9003 17.7563   1
  -9   8   2 75.0446 16.5317   7
   9   8  -2 55.4302 18.9644   5
  -8  -8   2 -1.2383 13.8016   1
  -8   8   2 26.5325 15.1459   1
  -8   8   2 20.3067 13.2363   7
   8   8  -2  3.5858 15.6571   5
   8   8  -2 11.4862 12.9381   7
  -7  -8   2 96.7222 18.6100   1
   7   8  -2 64.0310 14.9804   7
   7   8  -2 66.0516 19.8654   6
   7   8  -2 68.1708 18.4979   5
  -7   8   2 81.4440 17.6320   1
  -7   8   2 53.6552 14.1361   7
   6  -8  -2 306.871  22.105   4
   6  -8  -2 351.150  24.598   6
   6  -8  -2 366.609  24.707   7
   6   8  -2 318.206  22.263   7
   6   8  -2 391.745  28.251   5
  -6   8   2 359.966  23.241   7
  -6   8   2 339.684  24.634   1
   6   8  -2 376.360  27.700   6
   5  -8  -2 73.4945 14.3723   7
   5  -8  -2 83.2011 15.2689   4
   5  -8  -2 58.3391 15.2721   6
  -5   8   2 68.2603 15.5165   1
  -5   8   2 61.8773 14.0448   7
   5   8  -2 76.9392 13.7752   7
   5   8  -2 41.7262 17.7428   6
   5   8  -2 45.1633 15.4033   5
   4  -8  -2 51.4882 12.9920   7
   4  -8  -2 63.1611 14.6396   6
  -4   8   2 54.0516 12.8154   7
   4   8  -2 36.3993 11.6513   7
  -4   8   2 44.9462 13.9394   1
   4   8  -2 69.4006 17.5173   6
   4   8  -2 48.1509 15.1203   5
   3  -8  -2 38.6126 12.5681   7
   3  -8  -2 37.5717 14.1465   6
  -3   8   2 35.6402 12.6663   1
   3   8  -2 47.6768 14.1531   5
  -3   8   2 56.0404 12.4051   7
   3   8  -2 42.6908 15.7000   6
   3   8  -2 41.8711 10.8463   7
   2  -8  -2 295.942  20.888   7
   2  -8  -2 331.109  22.406   6
   2   8  -2 309.898  22.848   5
   2   8  -2 304.621  18.244   7
  -2   8   2 341.989  22.713   1
  -2   8   2 313.900  20.083   7
   1  -8  -2 89.4047 14.7534   7
   1  -8  -2 90.1831 16.2562   6
   1   8  -2 83.3095 11.8171   7
   1   8  -2 78.3383 14.9292   5
  -1   8   2 97.8914 14.6718   1
  -1   8   2 79.3387 12.9831   7
   0  -8  -2 104.553  16.991   6
   0  -8  -2 165.396  17.911   7
   0   8  -2 121.713  16.296   1
   0   8   2 134.781  15.868   1
   0   8   2 120.595  14.429   7
   0   8   2 97.5484 15.6376   5
   0   8  -2 83.3158 11.9897   7
   0   8  -2 97.8811 14.9456   5
  -1  -8  -2 51.6748 13.6672   7
  -1  -8  -2 27.2987 13.6800   6
  -1   8  -2 38.0069  9.9089   7
  -1   8  -2 29.5185 12.8230   5
   1   8   2 29.5429 12.3432   5
   1   8   2 48.8686 12.5289   1
   1   8   2 46.2709 11.5199   7
  -1   8  -2 25.9071 12.0009   1
  -2  -8  -2 304.320  22.833   7
   2   8   2 258.396  19.759   7
   2   8   2 238.542  20.416   5
  -2   8  -2 286.950  22.022   1
  -2   8  -2 297.383  17.626   7
  -3  -8  -2 51.4417 15.0477   7
  -3  -8  -2 52.2238 15.1811   7
   3   8   2 79.6993 14.1024   7
  -3   8  -2 66.3693 11.4350   7
   3   8   2 50.6567 14.4957   5
  -3   8  -2 58.4696 14.5221   1
  -4  -8  -2 93.5866 17.1673   7
  -4  -8  -2 113.386  17.743   7
   4   8   2 137.296  17.450   7
  -4   8  -2 117.296  13.884   7
   4   8   2 174.839  19.415   5
  -4   8  -2 145.117  18.476   1
  -5  -8  -2 20.6427 14.0638   7
   5   8   2 33.6038 13.6680   7
  -5   8  -2  6.6915 13.3204   1
  -5   8  -2 27.4506 10.2633   7
   5   8   2 25.3350 14.7732   5
   5   8   2 35.7830 16.3142   6
  -6  -8  -2 197.108  20.836   7
   6   8   2 189.316  20.555   7
  -6   8  -2 161.562  16.275   7
   6   8   2 197.577  21.924   5
   6   8   2 175.518  23.523   6
  -6   8  -2 154.791  19.484   1
  -7  -8  -2 27.8652 14.8325   7
  -7   8  -2 37.0142 12.0965   7
   7   8   2 18.0641 14.3256   7
  -7   8  -2 28.7788 14.9380   1
   7   8   2 51.5377 16.6067   5
   8   8   2 101.537  19.938   5
  -8   8  -2 112.259  15.399   7
   8   8   2 120.030  19.537   7
  -8   8  -2 103.751  18.959   1
  -9   8  -2 -12.697  14.621   1
   9   8   2 -12.487  15.284   5
  -9   8  -2 15.7821 12.5687   7
   9   8   2 21.2694 14.8012   7
  -8  -9   2 28.9907 16.3830   1
   8   9  -2 17.4034 16.8289   5
  -8   9   2 37.4476 17.1796   1
  -8   9   2 48.7930 14.4660   7
   8   9  -2 12.0578 13.8827   7
  -7  -9   2 267.824  25.804   1
   7   9  -2 329.990  23.668   7
  -7   9   2 256.021  25.379   1
  -7   9   2 322.868  23.623   7
   7   9  -2 265.275  27.043   5
   6   9  -2 121.859  23.044   6
  -6   9   2 125.955  19.430   1
   6   9  -2 127.510  17.082   7
   6   9  -2 115.126  20.864   5
  -6   9   2 136.400  17.639   7
   5   9  -2 44.8609 18.8060   6
   5   9  -2 35.6322 12.7462   7
  -5   9   2 19.9137 13.8149   1
   5   9  -2 28.5962 15.7823   5
  -5   9   2 11.2769 12.3143   7
   4  -9  -2 54.8757 15.4199   6
  -4   9   2 43.9805 13.4216   7
   4   9  -2 38.5136 15.9875   5
   4   9  -2 39.0570 17.5444   6
  -4   9   2 43.0841 15.4446   1
   4   9  -2 40.7164 12.2009   7
   3  -9  -2 278.532  22.615   6
   3   9  -2 287.647  24.768   5
  -3   9   2 263.421  22.901   1
  -3   9   2 275.933  20.757   7
   3   9  -2 248.642  19.239   7
   2  -9  -2 150.805  18.859   6
  -2   9   2 93.1096 14.5722   7
   2   9  -2 131.084  14.812   7
  -2   9   2 141.723  17.945   1
   2   9  -2 142.795  19.201   5
   1  -9  -2 41.3355 15.0321   6
   1   9  -2 41.8271 10.7447   7
  -1   9   2 30.4060 13.4770   1
  -1   9   2 37.6491 12.0815   7
   1   9  -2 56.8385 15.0169   5
   0  -9  -2 118.443  18.593   6
   0   9   2 116.314  16.538   1
   0   9  -2 111.730  18.107   5
   0   9  -2 128.552  18.005   1
   0   9   2 110.640  15.281   7
   0   9  -2 138.542  14.116   7
   0   9   2 142.061  17.817   5
   1   9   2 207.886  20.425   1
   1   9   2 249.753  22.538   5
  -1   9  -2 210.763  16.852   7
  -1   9  -2 222.308  21.158   5
   1   9   2 229.798  19.266   7
  -1   9  -2 221.997  21.289   1
   2   9   2 109.883  17.348   5
   2   9   2 116.727  16.045   7
  -2   9  -2 78.0238 12.6697   7
  -2   9  -2 73.9138 16.2272   1
  -3   9  -2 76.4636 16.4468   1
   3   9   2 47.8304 13.8976   7
   3   9   2 47.3216 15.1654   5
  -3   9  -2 64.4638 12.2007   7
  -4   9  -2 172.626  16.531   7
  -4   9  -2 187.074  21.264   1
   4   9   2 171.484  19.389   7
   4   9   2 185.122  21.094   5
   5   9   2 183.957  20.312   7
  -5   9  -2 184.032  21.619   1
   5   9   2 210.267  23.764   5
  -5   9  -2 216.496  17.501   7
   5   9   2 255.035  26.760   6
   6   9   2 63.9135 15.9037   7
  -6   9  -2 39.7452 16.1821   1
   6   9   2 25.2237 15.9230   5
  -6   9  -2 45.2801 12.0499   7
   7   9   2 20.1358 14.8973   7
  -7   9  -2 38.0408 17.5334   1
  -7   9  -2  8.1004 11.2998   7
   7   9   2 43.4796 17.1678   5
   8   9   2 140.163  21.994   5
   8   9   2 130.396  20.839   7
  -8   9  -2 133.442  17.396   7
  -8   9  -2 134.689  21.292   1
   6  10  -2 188.052  19.630   7
  -6  10   2 217.663  24.099   1
  -6  10   2 184.911  20.458   7
   6  10  -2 212.942  25.622   5
   5  10  -2 109.844  20.452   5
  -5  10   2 95.7695 18.4541   1
  -5  10   2 92.9114 16.1325   7
   5  10  -2 49.6950 13.8219   7
   4  10  -2  3.6416 15.1084   5
  -4  10   2 -19.052  10.593   7
  -4  10   2 11.4014 13.7404   1
   4  10  -2 -17.121  10.384   7
  -3  10   2 -24.345  12.207   1
  -3  10   2 10.6098 11.7886   7
   3  10  -2 -1.7132 14.5281   5
   3  10  -2 -5.3892 10.1862   7
   2 -10  -2 318.750  26.184   6
   2  10  -2 320.955  21.020   7
  -2  10   2 311.721  22.240   7
   2  10  -2 300.164  26.853   5
  -2  10   2 311.390  25.787   1
   1 -10  -2 33.7594 17.4173   6
  -1  10   2 73.2538 16.9950   5
  -1  10   2 25.6077 13.1464   7
   1  10  -2 43.3158 11.9743   7
   1  10  -2 53.2368 16.8693   5
  -1  10   2 63.1665 16.3486   1
   0  10  -2 22.9566 10.7416   7
   0  10   2  3.0802 11.7071   7
   0  10   2 11.4343 13.5183   5
   0  10  -2 26.7984 15.2978   5
   0  10   2 11.7315 13.6155   1
   1  10   2 19.9716 14.2747   5
   1  10   2 16.0342 14.2939   1
   1  10   2  3.2455 11.8722   7
  -1  10  -2 -20.677  12.457   1
  -1  10  -2 13.2718 10.4323   7
  -1  10  -2 -1.2291 13.4938   5
  -2  10  -2 252.240  23.645   1
   2  10   2 238.466  21.827   7
  -2  10  -2 195.114  22.280   5
  -2  10  -2 221.204  18.249   7
   2  10   2 277.544  24.691   5
  -3  10  -2 22.4182 10.8761   7
  -3  10  -2  9.3629 14.8342   1
   3  10   2 32.6975 15.6800   5
   3  10   2 -10.310  11.719   7
  -4  10  -2 56.2814 13.2885   7
  -4  10  -2 59.2917 17.9920   1
   4  10   2 71.9974 18.3393   5
   4  10   2 42.7792 15.2891   7
  -5  10  -2 37.1876 16.1913   1
   5  10   2 33.9334 15.2320   7
   5  10   2 16.5523 16.6385   5
  -5  10  -2 22.9712 11.1201   7
   6  10   2 90.7095 18.2907   7
   6  10   2 84.3347 19.9026   5
  -6  10  -2 96.6230 14.3353   7
  -6  10  -2 140.551  21.826   1
   3  11  -2 942.901  35.283   7
  -3  11   2 931.792  37.732   7
  -3  11   2 923.136  41.012   1
   2  11  -2 11.3309 11.9080   7
  -2  11   2 28.6376 15.7436   1
  -2  11   2 18.5327 16.1285   5
   2  11  -2 48.1352 17.8881   5
  -2  11   2  9.2797 12.8462   7
   1  11  -2  3.1735 10.7608   7
  -1  11   2 -6.6085 13.7806   5
   1  11  -2  4.0102 15.3135   5
  -1  11   2 24.5420 15.3804   1
  -1  11   2 11.6651 12.4949   7
   0  11   2 36.0251 16.9766   5
   0  11   2 33.0798 16.0744   1
   0  11   2 25.0256 13.5499   7
   0  11  -2 31.6400 12.0515   7
   0  11  -2 16.0246 16.2876   5
  -1  11  -2 967.144  42.924   1
   1  11   2 987.068  39.282   7
  -1  11  -2 967.463  35.028   7
  -1  11  -2 1084.02   44.15   5
   1  11   2 1076.17   43.26   5
  -2  11  -2 38.2451 12.1762   7
  -2  11  -2 17.1488 15.8793   5
   2  11   2 37.7147 15.0713   7
  -2  11  -2 18.7304 15.2836   1
   2  11   2 14.3839 15.8867   5
   3  11   2 -4.0811 12.6669   7
  -3  11  -2  9.0277 10.6234   7
  -3  11  -2 13.0880 16.1319   5
  -3  11  -2 -0.0496 14.7877   1
   3  11   2 -3.3396 15.0213   5
  13   0  -3 -20.172  14.308   7
 -13   0   3  7.9018 15.7833   1
  12   0  -3 -9.4775 12.9615   7
 -12   0   3 -14.958  14.450   1
  11   0  -3 -24.137  14.176   6
 -11   0   3 -13.540  13.529   1
  11   0  -3 21.9427 13.5014   7
 -10   0   3 -6.4394 12.2618   1
  10   0  -3 11.3141 12.1602   7
  10   0  -3 -23.073  12.247   6
   9   0  -3 -8.8448 11.2976   6
  -9   0   3  9.0078 12.0390   1
   9   0  -3  4.9869 10.2721   7
   8   0  -3  2.6110 10.5798   6
   8   0  -3 -0.6840  9.2381   7
  -8   0   3 -6.4271  9.7573   1
  -7   0   3 -4.6942  7.6968   7
   7   0  -3 0.83175 9.10611   6
   7   0  -3 12.8690  8.3653   7
  -7   0   3 12.4078  9.5285   1
   6   0  -3 -1.7638  8.5838   6
  -6   0   3 -6.7315  7.6450   1
  -6   0   3 1.49514 7.01978   7
   6   0  -3 -3.4869  6.8000   7
   5   0  -3 -17.605   5.544   7
   5   0  -3 -12.561   7.385   6
  -5   0   3 1.32479 6.15069   7
  -5   0   3 -0.1122  7.2527   1
   4   0  -3 6.06378 6.14600   7
  -4   0   3 5.49403 7.00306   1
   4   0  -3 -1.0869  7.4867   6
  -3   0   3 9.80309 6.57419   1
   3   0  -3 5.08237 7.03805   6
   3   0  -3 4.43536 5.46581   7
   2   0  -3 2.30897 6.21188   6
   2   0  -3 -2.3355  6.0679   3
   2   0  -3 -2.6205  4.3599   7
   1   0  -3 -2.5675  5.2506   6
   1   0  -3 2.62873 5.32339   3
   0   0  -3 -8.1984  4.8408   3
   0   0  -3 -5.9470  4.2225   6
  -1   0  -3 5.45284 5.48282   3
  -1   0  -3 -1.4905  4.8889   6
  -2   0  -3 -6.1056  4.5036   7
   2   0   3 -1.7013  6.3629   6
  -3   0  -3 0.09129 5.52593   7
   3   0   3 -13.661   6.555   6
  -4   0  -3 -3.9503  5.7423   7
   4   0   3 -5.0267  7.3167   6
   5   0   3 2.59347 6.34004   7
  -5   0  -3 -1.4256  5.6041   1
   5   0   3 -1.2465  7.9153   6
  -5   0  -3 -5.5661  5.8123   7
   6   0   3 -9.5552  6.6844   7
  -6   0  -3 -3.3946  6.7545   1
   6   0   3 -9.7593  8.6481   6
  -6   0  -3 5.93009 6.76797   7
   7   0   3 -6.6510  7.9517   7
  -7   0  -3 7.00114 7.85595   7
   7   0   3 0.46737 9.95060   6
  -7   0  -3 1.88613 7.84399   1
  -8   0  -3 3.88370 8.61621   7
  -8   0  -3 0.57806 8.68931   1
   8   0   3 -10.137  10.768   6
  -9   0  -3 -0.5697  9.0645   7
   9   0   3 -4.2404 12.5557   6
 -10   0  -3  4.5499 10.4217   7
  10   0   3 -15.299  13.024   6
 -11   0  -3 -2.4892 11.0480   7
  11   0   3 -7.8331 14.9175   6
 -12   0  -3 21.2827 13.4087   7
 -13   0  -3 10.4020 13.6733   7
  13  -1  -3 38.1599 16.9236   7
 -13  -1   3 42.0479 17.3878   1
 -13   1   3 56.3635 18.7503   1
  13   1  -3 53.0973 18.2598   7
  12  -1  -3 1175.63   43.86   7
 -12  -1   3 1190.20   45.00   1
 -12   1   3 1232.31   46.26   1
  12   1  -3 1208.94   45.70   7
 -11  -1   3 10.1747 14.1305   1
  11  -1  -3 13.2205 15.1197   6
  11  -1  -3 17.2241 12.8650   7
 -11   1   3 15.7043 14.3357   1
  11   1  -3  8.6924 13.7309   7
  11   1  -3 -2.8790 15.2000   6
  10  -1  -3 88.9913 14.9565   7
 -10  -1   3 78.8401 16.1698   1
  10  -1  -3 53.7737 14.8631   6
  10   1  -3 80.8703 15.5058   7
 -10   1   3 94.4808 16.7165   1
  10   1  -3 62.3297 16.0450   6
   9  -1  -3 23.3680 12.4493   6
  -9  -1   3 -1.9459 11.3457   1
   9  -1  -3 12.5941 10.8892   7
  -9   1   3 16.0220 11.5184   1
   9   1  -3 -0.9595 12.5647   6
   9   1  -3 -5.4703 10.3850   7
   8  -1  -3 2285.49   58.58   6
  -8  -1   3 2328.73   58.66   1
   8  -1  -3 2348.13   55.91   7
   8   1  -3 2343.98   57.09   7
   8   1  -3 2139.94   58.19   6
  -8   1   3 2421.36   56.74   7
  -8   1   3 2293.86   57.53   1
   7  -1  -3 2.85472 9.23112   6
  -7  -1   3 12.3967  9.7195   1
   7  -1  -3 3.30716 8.23426   7
  -7   1   3 11.2727  9.0780   1
   7   1  -3 16.4062 10.4602   6
  -7   1   3 -1.7303  7.7823   7
   7   1  -3 -6.9870  8.3395   7
  -6  -1   3 418.075  19.673   1
   6  -1  -3 448.080  19.786   6
  -6  -1   3 470.525  18.519   7
   6  -1  -3 430.904  18.396   7
  -6   1   3 427.180  18.974   1
   6   1  -3 395.654  19.653   6
   6   1  -3 427.610  18.920   7
  -6   1   3 428.261  18.266   7
  -5  -1   3 62.1936  8.5215   7
   5  -1  -3 48.6275  9.4249   6
  -5  -1   3 47.8092  9.0962   1
   5  -1  -3 35.5045  7.7095   7
   5   1  -3 49.3052  8.4877   7
  -5   1   3 52.0626  9.0262   1
   5   1  -3 50.2080  9.7245   5
   5   1  -3 43.1414  9.5066   6
  -5   1   3 45.9711  7.9212   7
   4  -1  -3 3704.57   76.10   6
   4  -1  -3 3822.23   73.38   7
  -4   1   3 3698.86   75.28   1
   4   1  -3 3725.95   77.10   5
  -4   1   3 3814.12   73.51   7
   4   1  -3 3789.51   74.11   7
   4   1  -3 3679.68   76.11   6
   3  -1  -3 4.31661 7.06967   6
   3  -1  -3 2.23611 5.45932   7
  -3  -1   3 -2.8527  6.6482   1
   3   1  -3 2.99543 6.85447   6
   3   1  -3 -13.128   5.878   7
   3   1  -3 4.59006 6.68861   3
   3   1  -3 10.3444  6.3381   2
  -3   1   3 -12.282   6.079   1
   2  -1  -3 1524.20   34.59   3
   2  -1  -3 1521.27   31.45   7
   2  -1  -3 1498.44   33.90   6
   2   1  -3 1517.26   30.46   7
   2   1  -3 1536.42   33.04   6
   2   1  -3 1538.56   34.14   3
   1  -1  -3 12.6131  6.6082   6
   1  -1  -3 1.15175 5.57414   3
   1  -1  -3 0.40845 3.81763   7
   1   1  -3 -2.3835  5.3973   3
   1   1  -3 -1.1511  4.7787   6
   0  -1  -3 4988.07   88.66   7
   0  -1  -3 4860.87   93.49   3
   0  -1  -3 4940.30   92.67   6
   0  -1  -3 4795.10   89.67   4
   0   1  -3 4996.40   94.04   3
   0   1  -3 4959.23   89.11   6
   1  -1   3 33.0560  2.4149   6
  -1  -1  -3 30.3253  5.9712   3
  -1  -1  -3 34.7041  4.9051   7
  -1  -1  -3 29.5916  6.8668   6
  -1  -1  -3 31.8934  4.8540   7
   2  -1   3 1525.44   30.79   6
  -2  -1  -3 1542.17   32.83   7
  -2   1  -3 1592.71   30.68   7
   3  -1   3 256.342  10.617   6
  -3  -1  -3 270.854  12.378   7
  -3   1  -3 257.858  10.763   7
   3   1   3 294.728  14.824   6
   4  -1   3 3702.16   74.06   6
  -4  -1  -3 3673.14   74.26   7
   4   1   3 3813.41   74.72   7
   4   1   3 3800.43   78.15   6
  -4   1  -3 3869.53   73.12   7
   5  -1   3 9.29507 6.64740   7
  -5  -1  -3 20.0032  7.2048   7
  -5  -1  -3 13.5955  6.3664   1
   5  -1   3 7.30284 7.21262   6
   5   1   3 18.8509  9.2387   6
  -5   1  -3 16.3724  6.4266   7
   5   1   3 27.2534  8.0231   7
  -5   1  -3 18.8739  6.6595   1
  -6  -1  -3 398.907  16.095   1
   6  -1   3 395.916  17.742   6
  -6  -1  -3 402.246  17.566   7
   6  -1   3 406.216  17.801   7
   6   1   3 415.982  19.953   6
   6   1   3 399.003  18.477   7
  -6   1  -3 349.678  16.494   7
  -6   1  -3 413.998  16.425   1
  -7  -1  -3 314.188  17.434   7
  -7  -1  -3 296.315  16.215   1
   7  -1   3 316.052  17.553   6
   7   1   3 268.582  18.659   6
  -7   1  -3 319.345  16.417   1
   7   1   3 289.868  17.912   7
  -7   1  -3 328.432  16.955   7
  -8  -1  -3 2423.63   58.08   7
   8  -1   3 2469.17   59.23   6
  -8   1  -3 2428.21   56.43   1
   8   1   3 2422.69   61.63   6
  -8   1  -3 2402.24   56.89   7
   9  -1   3  0.8347 12.1488   6
  -9  -1  -3 0.85641 9.58042   7
  -9   1  -3 -8.4838  9.0494   7
   9   1   3 -9.9979 13.2242   6
  10  -1   3 53.4386 15.7457   6
 -10  -1  -3 43.8409 12.7468   7
  10   1   3 40.9108 16.4912   6
 -10   1  -3 60.6557 13.0251   7
  11  -1   3 103.648  19.665   6
 -11  -1  -3 127.728  16.944   7
 -11   1  -3 156.709  17.825   7
  11   1   3 123.750  21.112   6
 -12  -1  -3 1121.01   40.85   7
 -12   1  -3 1129.07   40.02   7
 -13  -1  -3 11.1507 14.0613   7
 -13   1  -3 20.4928 13.9661   7
  13  -2  -3 16.5894 15.7319   7
 -13  -2   3 -9.6422 14.9959   1
 -13   2   3 -22.790  14.234   1
  13   2  -3 21.2802 15.7312   7
  12  -2  -3 78.3311 17.0926   7
 -12  -2   3 116.373  19.551   1
  12   2  -3 103.308  18.872   7
 -12   2   3 140.921  20.563   1
 -11  -2   3 151.999  20.249   1
  11  -2  -3 123.393  19.220   6
  11  -2  -3 147.902  19.012   7
  11   2  -3 160.745  20.432   7
  11   2  -3 104.870  20.985   6
 -11   2   3 91.2074 17.2395   1
  10  -2  -3 95.5029 17.2555   6
 -10  -2   3 132.648  18.377   1
  10  -2  -3 101.464  15.908   7
  10   2  -3 137.439  20.146   6
 -10   2   3 151.358  18.813   1
  10   2  -3 118.336  17.773   7
   9  -2  -3 14.5206 12.4304   6
  -9  -2   3 18.7775 12.3855   1
   9  -2  -3 23.1368 11.1434   7
  -9   2   3 13.9768 12.2739   1
   9   2  -3 18.8525 13.6310   6
   9   2  -3 25.7882 12.5844   7
  -9   2   3 -1.0524 10.6745   7
   8  -2  -3 79.4399 12.4384   7
   8  -2  -3 63.3944 13.1117   6
  -8  -2   3 69.4199 13.1147   1
   8   2  -3 62.7507 13.3325   7
  -8   2   3 50.4799 12.4208   1
   8   2  -3 66.5823 14.5131   6
  -8   2   3 62.9725 11.8965   7
  -7  -2   3 127.584  14.344   1
   7  -2  -3 137.406  14.737   6
   7  -2  -3 120.798  12.616   7
  -7   2   3 154.063  14.887   1
  -7   2   3 153.290  13.764   7
   7   2  -3 147.690  16.369   5
   7   2  -3 152.176  16.078   6
   7   2  -3 137.198  14.805   7
  -6  -2   3 104.360  12.295   1
   6  -2  -3 93.9280 10.6001   7
   6  -2  -3 93.4732 12.2817   6
   6   2  -3 88.6554 12.4518   5
  -6   2   3 94.0899 10.5190   7
   6   2  -3 82.4997 12.7757   6
  -6   2   3 95.7170 11.7387   1
   6   2  -3 86.5838 11.6821   7
  -5  -2   3 68.4516 10.4307   1
   5  -2  -3 75.6868  8.9533   7
  -5  -2   3 81.8644  9.6208   7
   5  -2  -3 68.9477 10.2616   6
   5   2  -3 83.0216 11.3460   5
   5   2  -3 79.3521 11.0830   6
  -5   2   3 78.6557 10.1631   1
   5   2  -3 65.3216  9.9058   7
  -5   2   3 62.5668  8.7032   7
   4  -2  -3 39.7956  8.9638   6
  -4  -2   3 45.7757  8.8622   1
   4  -2  -3 49.8219  7.5342   7
   4   2  -3 44.7858  8.2345   7
  -4   2   3 34.6621  8.0682   1
   4   2  -3 47.2416  9.1778   6
   4   2  -3 34.6526  9.0158   5
   4   2  -3 38.6329  8.1371   3
  -4   2   3 36.5122  6.8743   7
   3  -2  -3 238.200  13.231   6
  -3  -2   3 192.333  14.028   1
   3  -2  -3 224.602  11.336   7
   3   2  -3 216.889  13.102   6
   3   2  -3 227.872  15.224   5
  -3   2   3 223.621  11.670   7
   3   2  -3 225.208  11.475   7
   3   2  -3 225.215  12.232   3
  -3   2   3 220.157  12.718   1
   2  -2  -3 9.17732 5.50027   7
   2  -2  -3 16.7680  6.5687   3
   2  -2  -3 11.6091  7.4259   6
  -2   2   3 0.92824 6.12884   1
   2   2  -3 5.18363 6.68733   2
   2   2  -3 4.61623 5.82369   3
   2   2  -3 6.96251 4.51335   7
   2   2  -3 -8.6924  6.5427   6
   1  -2  -3 348.539  12.921   3
   1  -2  -3 377.440  12.380   7
   1  -2  -3 372.498  13.483   4
   1  -2  -3 335.068  14.270   6
   1   2  -3 381.726   9.277   7
   1   2  -3 380.719  12.306   6
   1   2  -3 365.739  14.005   2
   1   2  -3 346.946  12.922   3
   0  -2  -3 517.356  17.114   6
   0  -2  -3 501.381  14.794   7
   0  -2  -3 511.528  15.673   4
   0   2  -3 527.477  10.466   7
   0   2  -3 530.651  12.959   6
   0   2  -3 526.219  15.680   3
  -1  -2  -3 333.390  12.634   7
  -1  -2  -3 351.285  14.705   6
  -1  -2  -3 335.267  11.734   3
  -1  -2  -3 331.621  12.774   7
   1  -2   3 333.136   8.406   6
  -1   2  -3 332.780   8.683   7
  -1   2  -3 334.931   8.631   4
   2  -2   3 26.1608  3.8163   4
  -2  -2  -3 31.2413  6.9202   7
   2  -2   3 28.2493  4.4606   6
  -2   2  -3 17.8456  4.5222   7
  -3  -2  -3 600.014  19.940   7
   3  -2   3 599.561  15.959   6
  -3   2  -3 595.220  16.349   7
   3   2   3 613.341  20.755   7
  -3   2  -3 648.499  18.330   1
   4  -2   3 256.429  11.641   6
  -4  -2  -3 262.653  14.022   7
   4   2   3 267.460  15.179   7
  -4   2  -3 285.676  13.134   1
   4   2   3 271.381  16.536   6
  -4   2  -3 277.098  11.956   7
  -5  -2  -3 158.119  11.374   1
  -5  -2  -3 174.469  12.585   7
   5  -2   3 176.036  12.166   7
   5  -2   3 147.262  10.935   6
   5   2   3 201.031  14.603   7
   5   2   3 181.007  13.140   5
  -5   2  -3 164.722  12.279   1
  -5   2  -3 170.836  11.043   7
   5   2   3 159.340  15.521   6
  -6  -2  -3 18.9647  8.0810   7
  -6  -2  -3 25.6961  7.5755   1
   6  -2   3 28.9399  8.8554   6
   6   2   3 20.3342  8.6874   5
   6   2   3  5.8443 10.8988   6
  -6   2  -3 13.5825  7.8534   1
  -6   2  -3 14.7003  7.2923   7
   6   2   3 26.9958  9.6244   7
  -7  -2  -3 526.991  22.255   7
  -7  -2  -3 528.077  20.693   1
   7  -2   3 507.163  21.480   6
  -7   2  -3 519.016  20.642   7
   7   2   3 527.407  24.341   7
  -7   2  -3 514.117  21.067   1
   7   2   3 506.803  25.071   6
   8  -2   3 37.5184 11.8255   6
  -8  -2  -3 21.7298  9.9751   7
   8   2   3 48.2408 14.3420   6
   8   2   3 36.4235 12.3997   7
  -8   2  -3 32.3282 10.8145   1
  -8   2  -3 28.0982  9.5186   7
  -9  -2  -3 47.2587 12.1320   7
   9  -2   3 40.9217 13.6770   6
  -9   2  -3 55.2382 11.9446   7
   9   2   3 32.6644 15.0180   6
  -9   2  -3 50.2030 12.8006   1
  10  -2   3 -14.317  13.207   6
 -10  -2  -3 10.7039 11.1353   7
  10   2   3 -23.254  13.787   6
 -10   2  -3 -19.116   9.836   7
 -11  -2  -3 336.945  23.445   7
 -11   2  -3 322.054  22.108   7
  11   2   3 332.680  28.494   6
 -12  -2  -3  1.3381 12.3632   7
 -12   2  -3 19.7383 12.7952   7
 -13  -2  -3 19.9496 14.0973   7
 -13   2  -3  5.6286 13.0034   7
  12  -3  -3 315.631  25.455   7
 -12  -3   3 398.334  28.308   1
  12   3  -3 283.478  25.816   7
 -12   3   3 246.636  25.520   1
  11  -3  -3 42.8535 14.3461   7
 -11  -3   3 45.3323 16.1207   1
  11   3  -3 68.6508 16.7974   7
 -11   3   3 46.6903 15.5868   1
 -10  -3   3 144.126  18.569   1
  10  -3  -3 148.423  19.288   6
  10  -3  -3 149.425  17.809   7
  10   3  -3 135.166  18.419   7
 -10   3   3 146.732  18.359   1
  10   3  -3 134.305  20.770   6
 -10   3   3 138.599  17.619   7
   9  -3  -3 216.008  18.608   7
   9  -3  -3 211.972  20.042   6
  -9  -3   3 220.734  20.078   1
  -9   3   3 224.797  20.109   1
  -9   3   3 232.949  19.171   7
   9   3  -3 219.310  19.710   7
   9   3  -3 256.654  23.136   6
  -8  -3   3 700.093  29.272   1
   8  -3  -3 705.899  29.274   6
   8  -3  -3 773.036  28.094   7
   8   3  -3 729.625  31.635   6
   8   3  -3 748.666  32.158   5
  -8   3   3 710.300  28.103   7
  -8   3   3 693.582  28.816   1
   8   3  -3 722.198  29.426   7
   7  -3  -3 204.885  17.032   6
   7  -3  -3 182.055  15.158   7
  -7  -3   3 184.930  16.774   1
   7   3  -3 196.507  18.589   5
  -7   3   3 198.313  15.629   7
  -7   3   3 156.140  15.344   1
   7   3  -3 204.388  17.224   7
   7   3  -3 174.023  18.163   6
   6  -3  -3 305.551  17.731   6
  -6  -3   3 305.919  18.586   1
   6  -3  -3 290.689  16.826   7
   6   3  -3 306.481  20.481   5
   6   3  -3 292.330  18.166   3
   6   3  -3 283.926  17.900   7
   6   3  -3 299.113  19.038   6
  -6   3   3 269.523  15.757   7
  -6   3   3 263.964  17.055   1
   5  -3  -3 433.709  18.054   7
   5  -3  -3 477.895  19.758   6
  -5  -3   3 454.396  20.448   1
   5   3  -3 441.289  19.064   3
   5   3  -3 476.521  20.933   6
   5   3  -3 462.278  19.182   7
   5   3  -3 446.106  21.582   5
  -5   3   3 477.600  18.730   7
  -5   3   3 502.034  20.069   1
   4  -3  -3 1678.83   40.74   6
   4  -3  -3 1631.03   38.97   7
  -4  -3   3 1694.71   39.20   7
  -4  -3   3 1621.80   41.52   1
  -4   3   3 1699.96   40.76   1
   4   3  -3 1628.20   43.18   5
   4   3  -3 1698.63   41.90   6
  -4   3   3 1663.38   38.94   7
   4   3  -3 1666.69   39.09   3
   4   3  -3 1645.23   38.60   7
   3  -3  -3 292.300  13.649   7
   3  -3  -3 316.440  15.181   6
   3   3  -3 326.600  15.537   6
  -3   3   3 306.731  13.666   7
   3   3  -3 294.807  12.340   7
  -3   3   3 290.242  14.356   1
   3   3  -3 305.442  13.464   3
   3   3  -3 295.912  17.003   5
   2  -3  -3 454.809  17.474   6
   2  -3  -3 467.749  15.961   3
   2  -3  -3 457.822  15.719   7
   2  -3  -3 447.927  16.998   4
   2   3  -3 453.646  13.931   7
  -2   3   3 441.989  16.622   1
  -2   3   3 420.645  15.627   7
   2   3  -3 439.447  17.028   6
   2   3  -3 424.202  14.467   3
   2   3  -3 439.699  18.471   5
   1  -3  -3 245.692  11.875   7
   1  -3  -3 237.770  10.806   3
   1  -3  -3 233.835  12.998   4
   1  -3  -3 256.155  13.659   6
   1   3  -3 243.339  12.710   6
  -1   3   3 245.787  12.098   1
  -1   3   3 262.948  12.185   7
   1   3  -3 251.835   9.564   7
   1   3  -3 218.782  10.849   3
   0  -3  -3 2679.34   52.94   7
   0  -3  -3 2619.20   53.84   4
   0  -3  -3 2557.96   55.28   6
   0  -3  -3 2597.81   51.10   3
   0   3   3 2527.44   52.62   7
   0   3  -3 2503.80   54.04   1
   0   3  -3 2662.79   49.10   7
   0   3  -3 2577.46   52.81   3
   1  -3   3 170.664   8.156   6
  -1  -3  -3 175.988  13.293   6
  -1  -3  -3 179.436  11.815   7
  -1  -3  -3 160.275  11.698   7
  -1  -3  -3 165.833   8.293   3
   1   3   3 182.694  11.346   7
  -1   3  -3 149.057  10.909   1
  -1   3  -3 161.477   7.798   7
  -2  -3  -3 478.121  16.990   7
  -2   3  -3 467.619  16.622   1
  -2   3  -3 448.295  13.461   7
   2   3   3 443.845  17.758   7
  -3  -3  -3 -8.4421  6.5789   7
   3  -3   3 0.96072 5.11379   6
   3  -3   3 3.92465 4.64723   4
  -3   3  -3 2.53204 6.41274   1
  -3   3  -3 10.0710  4.9649   7
   3   3   3 5.81661 7.46754   7
  -4  -3  -3 1507.54   34.35   1
   4  -3   3 1492.80   33.32   6
  -4  -3  -3 1483.33   37.89   7
   4   3   3 1485.77   37.34   5
   4   3   3 1450.88   38.43   7
  -4   3  -3 1457.59   33.71   7
  -4   3  -3 1543.29   36.08   1
   4   3   3 1474.70   40.31   6
  -5  -3  -3 22.7086  8.7962   7
   5  -3   3 44.6073  8.3152   6
  -5  -3  -3 45.2967  8.1895   1
  -5   3  -3 48.1144  9.2089   1
   5   3   3 15.7978  8.7456   5
  -5   3  -3 35.1069  7.0525   7
   5   3   3 21.4338  9.5276   7
   5   3   3 35.8408 11.1611   6
  -6  -3  -3 364.010  18.793   7
  -6  -3  -3 363.161  16.819   1
   6  -3   3 367.654  16.236   6
  -6   3  -3 390.754  16.871   7
   6   3   3 376.035  19.919   5
   6   3   3 360.386  22.022   6
   6   3   3 407.987  21.051   7
  -6   3  -3 389.125  18.772   1
   7  -3   3 19.1663 10.0022   6
  -7  -3  -3 16.4319  9.4922   7
  -7   3  -3 30.5798  8.8497   7
   7   3   3 24.4285 11.5865   7
   7   3   3 25.4272 11.0445   5
   7   3   3 15.3834 13.3775   6
  -7   3  -3 36.6124 10.2592   1
  -8  -3  -3 545.788  24.647   7
   8  -3   3 550.080  23.922   6
   8   3   3 576.536  29.451   6
   8   3   3 602.142  28.334   7
  -8   3  -3 570.091  23.483   7
  -8   3  -3 558.245  24.376   1
   8   3   3 523.417  25.916   5
  -9  -3  -3 13.7568 11.0804   7
  -9   3  -3 9.61441 9.97184   7
   9   3   3 21.1539 14.5491   7
   9   3   3 25.3196 15.7229   6
  -9   3  -3 12.7143 11.8991   1
 -10  -3  -3 247.004  20.291   7
  10   3   3 255.811  25.001   6
 -10   3  -3 190.042  18.309   7
 -11  -3  -3  8.7379 12.5695   7
 -11   3  -3 -3.5969 11.6432   7
 -12  -3  -3 180.105  20.466   7
 -12   3  -3 210.072  20.191   7
 -12  -4   3 20.4742 16.1021   1
  12  -4  -3 -20.383  12.664   7
 -12   4   3  5.7874 15.8792   1
  12   4  -3 11.0852 14.6795   7
 -11  -4   3 618.457  32.233   1
  11  -4  -3 611.995  31.100   7
 -11   4   3 644.484  33.544   1
 -11   4   3 637.075  31.064   7
  11   4  -3 598.688  31.890   7
 -10  -4   3 35.7185 14.5527   1
  10  -4  -3 33.3720 12.9743   7
  10  -4  -3 36.0815 15.0515   6
  10   4  -3 46.0113 19.9896   6
 -10   4   3 44.4414 15.1735   1
  10   4  -3 38.2588 14.6550   7
 -10   4   3 53.7601 13.9371   7
   9  -4  -3 188.200  19.747   6
   9  -4  -3 209.531  18.540   7
  -9  -4   3 234.565  21.423   1
   9   4  -3 221.981  23.749   6
   9   4  -3 216.430  22.968   5
  -9   4   3 203.955  18.867   7
   9   4  -3 256.869  21.129   7
  -9   4   3 239.431  21.137   1
  -8  -4   3 60.5733 13.8506   1
   8  -4  -3 52.5558 13.2859   6
   8  -4  -3 67.3517 12.4022   7
   8   4  -3 23.4896 15.2935   6
  -8   4   3 48.6236 12.0972   7
   8   4  -3 35.0502 12.6006   7
   8   4  -3 59.0917 15.6663   5
  -8   4   3 52.3259 13.2360   1
   7  -4  -3 835.317  30.429   6
  -7  -4   3 819.026  31.424   1
   7  -4  -3 844.853  29.722   7
   7   4  -3 871.939  30.878   3
   7   4  -3 868.565  30.813   7
   7   4  -3 845.620  33.741   6
   7   4  -3 895.842  35.720   5
  -7   4   3 940.900  30.302   7
  -7   4   3 812.931  30.510   1
  -6  -4   3 20.0571 10.5297   1
   6  -4  -3 2.14942 8.12780   7
   6  -4  -3 27.5570 10.0771   6
  -6   4   3 13.4515  9.5858   1
   6   4  -3  4.2346 11.1623   5
   6   4  -3 22.1320 10.0225   7
  -6   4   3 13.5347  8.6647   7
   6   4  -3 8.00482 9.67283   3
   6   4  -3 -1.6261 12.1255   6
   5  -4  -3 294.449  16.745   7
  -5  -4   3 333.877  19.476   1
   5  -4  -3 320.844  18.586   6
   5   4  -3 309.496  16.372   3
  -5   4   3 306.313  16.326   7
  -5   4   3 280.812  17.600   1
   5   4  -3 299.522  16.971   7
   5   4  -3 337.629  20.771   5
   5   4  -3 285.708  20.253   6
   4  -4  -3 330.754  17.490   6
   4  -4  -3 324.681  16.306   4
   4  -4  -3 320.175  15.841   7
   4   4  -3 313.631  14.692   3
   4   4  -3 309.523  15.040   7
   4   4  -3 284.352  18.909   5
   4   4  -3 304.678  18.606   6
  -4   4   3 297.006  15.664   7
  -4   4   3 327.056  17.125   1
   3  -4  -3 549.878  20.871   6
   3  -4  -3 574.057  20.764   4
   3  -4  -3 561.297  17.566   2
   3  -4  -3 539.466  19.661   7
   3   4  -3 553.011  17.514   3
  -3   4   3 549.907  19.456   7
  -3   4   3 552.479  20.583   1
   3   4  -3 540.914  21.179   6
   3   4  -3 561.456  22.683   5
   3   4  -3 561.208  18.015   7
   2  -4  -3 36.7591  9.2353   6
   2  -4  -3 38.3119  8.1309   4
   2  -4  -3 26.5175  7.2424   7
   2  -4  -3 47.3078  7.4540   3
   2   4  -3 39.9246  6.4369   7
   2   4  -3 32.4337  9.6028   6
   2   4  -3 45.9570  6.7584   3
  -2   4   3 39.0964  7.8360   1
  -2   4   3 44.9163  7.8165   7
   2   4  -3 37.9251  8.8094   5
   1  -4  -3 364.303  15.113   4
   1  -4  -3 329.528  11.970   3
   1  -4  -3 350.991  16.467   6
   1  -4  -3 327.125  14.814   7
   1   4  -3 326.209  12.291   3
  -1   4   3 347.909  14.785   1
  -1   4   3 316.919  14.727   7
   1   4  -3 310.292  11.852   7
   1   4  -3 321.440  16.237   5
   0  -4  -3 260.017  14.330   7
   0  -4  -3 285.284  15.794   6
   0  -4  -3 296.194   9.963   3
   0   4  -3 275.612  14.540   5
   0   4   3 277.270  13.639   7
   0   4  -3 282.319  15.196   1
   0   4  -3 291.213  11.098   7
   0   4   3 281.815  13.443   1
  -1  -4  -3 134.355  11.184   7
   1  -4   3 130.990   9.435   6
  -1  -4  -3 168.898  13.510   6
  -1   4  -3 141.372  11.513   1
   1   4   3 141.034  11.110   7
   1   4   3 134.820  10.138   1
  -1   4  -3 130.730   8.496   7
  -2  -4  -3 74.2607  9.9784   7
  -2  -4  -3 64.5256 11.1457   6
   2  -4   3 81.0302  7.5428   6
   2   4   3 90.3921 10.0755   7
  -2   4  -3 89.4760  7.5149   7
   2   4   3 69.3609  9.2572   5
  -2   4  -3 82.4160  9.8249   1
   2   4   3 84.3254  8.8946   1
  -3  -4  -3 444.755  19.230   7
   3  -4   3 454.758  14.690   4
   3   4   3 459.865  18.609   5
   3   4   3 478.114  19.622   7
  -3   4  -3 493.842  19.042   1
  -3   4  -3 441.791  15.470   7
   4  -4   3 0.41269 6.69947   6
  -4  -4  -3 -1.8988  7.8820   7
   4  -4   3 1.24386 6.16935   4
   4   4   3 -0.4739  7.7974   5
  -4   4  -3 3.81664 5.79698   7
  -4   4  -3 -5.5277  7.4856   1
   4   4   3 9.57637 8.46067   7
   5  -4   3 20.8940  7.6095   6
   5  -4   3 12.1779  6.6231   4
  -5  -4  -3 10.2492  8.0895   1
  -5  -4  -3 5.58125 8.86266   7
   5   4   3 -2.8962  9.4593   7
   5   4   3 17.0785 11.6677   6
  -5   4  -3 26.4754  7.2769   7
  -5   4  -3 28.1988  9.2593   1
   5   4   3 30.3420 10.0258   5
   6  -4   3 2.92948 7.91646   6
  -6  -4  -3 21.9610  9.6431   7
  -6  -4  -3 0.97829 8.18583   1
  -6   4  -3 18.4361  7.8600   7
  -6   4  -3 11.6336  9.4645   1
   6   4   3 33.6940 10.8971   5
   6   4   3  1.9056 12.0753   6
   6   4   3 10.3724 10.8637   7
  -7  -4  -3 591.170  25.832   7
  -7   4  -3 602.117  23.261   7
   7   4   3 612.375  29.745   6
   7   4   3 622.750  28.533   7
  -7   4  -3 688.844  26.159   1
   7   4   3 607.051  27.186   5
  -8  -4  -3 135.453  15.795   7
   8   4   3 138.935  17.069   5
   8   4   3 156.642  20.464   6
  -8   4  -3 151.494  16.718   1
   8   4   3 100.306  16.914   7
  -8   4  -3 138.698  14.168   7
  -9  -4  -3 32.9527 12.2323   7
   9   4   3  8.9824 13.6923   7
   9   4   3 38.2470 17.5938   6
   9   4   3 14.0777 13.2533   5
  -9   4  -3  9.1033 10.3203   7
  -9   4  -3 14.9731 12.4857   1
 -10  -4  -3 43.0736 13.4263   7
  10   4   3 45.3873 18.0986   6
 -10   4  -3 46.3545 14.8856   1
 -10   4  -3 33.9465 12.1915   7
 -11  -4  -3 528.375  28.349   7
 -11   4  -3 544.423  27.661   7
 -12  -4  -3 135.485  19.114   7
 -12   4  -3 158.753  19.142   7
 -11  -5   3 127.967  18.932   1
  11  -5  -3 123.342  18.355   7
  11   5  -3 96.0568 17.9675   7
 -11   5   3 89.6005 19.2308   1
 -11   5   3 65.6783 16.7242   7
 -10  -5   3 178.823  20.978   1
  10  -5  -3 223.634  22.351   6
  10  -5  -3 185.766  19.876   7
 -10   5   3 223.274  21.245   7
  10   5  -3 182.179  20.101   7
 -10   5   3 168.753  21.278   1
  10   5  -3 191.950  23.422   5
   9  -5  -3 39.5374 13.0699   7
   9  -5  -3 15.2678 14.4956   6
  -9  -5   3 11.1765 13.3789   1
  -9   5   3 28.9482 13.0214   7
  -9   5   3 37.5677 14.2186   1
   9   5  -3 26.1576 12.7976   7
   9   5  -3 28.2027 16.1438   5
   9   5  -3 18.4846 17.3427   6
  -8  -5   3 27.4813 13.0109   1
   8  -5  -3 23.2209 12.7456   6
   8  -5  -3 -10.367  10.057   7
  -8   5   3 -10.786  11.714   1
  -8   5   3 11.4437 10.4556   7
   8   5  -3 11.2154 11.6808   7
   8   5  -3 -16.212  14.241   6
   8   5  -3 -3.4196 13.5015   5
   7  -5  -3 172.543  16.004   7
   7  -5  -3 165.994  17.293   6
  -7  -5   3 158.768  17.724   1
   7   5  -3 160.588  16.432   7
   7   5  -3 164.235  19.428   5
   7   5  -3 176.177  20.332   6
  -7   5   3 169.097  17.774   1
  -7   5   3 155.106  15.837   7
   6  -5  -3 444.868  21.308   7
  -6  -5   3 413.452  23.510   1
   6  -5  -3 410.075  22.979   6
   6  -5  -3 416.354  20.718   4
   6   5  -3 429.764  25.482   5
  -6   5   3 441.189  21.137   7
   6   5  -3 427.367  25.124   6
  -6   5   3 422.703  22.740   1
   6   5  -3 417.359  20.664   7
   5  -5  -3 55.2919 10.3593   7
  -5  -5   3 62.0296 12.2870   1
   5  -5  -3 54.6557 11.8780   6
   5  -5  -3 53.4801 11.3691   4
   5   5  -3 36.1033 12.2760   5
  -5   5   3 64.0361 11.8724   1
   5   5  -3 63.3697 14.3807   6
  -5   5   3 60.5849 10.7455   7
   5   5  -3 71.2195 10.6069   7
   4  -5  -3 22.7787 10.1165   6
   4  -5  -3 19.8733  9.4096   4
   4  -5  -3 16.7655  8.6989   7
  -4   5   3 18.4756  9.0622   1
   4   5  -3 25.6041  8.2464   7
   4   5  -3 39.2178 12.2411   6
  -4   5   3 24.6240  8.6045   7
   4   5  -3  7.0022 10.3260   5
   3  -5  -3 233.920  14.473   7
   3  -5  -3 213.450  15.386   6
   3  -5  -3 225.912  15.174   4
   3   5  -3 207.494  16.994   5
   3   5  -3 223.628  13.263   7
  -3   5   3 267.970  15.063   7
  -3   5   3 221.970  15.603   1
   3   5  -3 250.200  18.169   6
   2  -5  -3 623.551  23.077   6
   2  -5  -3 609.662  21.833   7
   2  -5  -3 613.506  22.091   4
   2  -5  -3 615.146  18.666   3
  -2   5   3 618.955  22.213   1
   2   5  -3 604.940  23.389   6
   2   5  -3 608.725  24.275   5
  -2   5   3 649.209  22.209   7
   2   5  -3 620.934  19.265   7
   1  -5  -3 315.764  16.343   7
   1  -5  -3 305.286  16.962   6
  -1   5   3 281.238  15.036   1
   1   5  -3 296.448  13.010   7
  -1   5   3 306.724  15.707   7
   1   5  -3 299.927  16.916   5
   0  -5  -3 50.6448  9.4483   7
   0  -5  -3 59.5808 10.6927   6
   0   5  -3 54.3489 10.0596   1
   0   5  -3 44.3273  9.3374   5
   0   5   3 66.0986  9.3488   7
   0   5   3 60.0738  9.3024   1
   0   5  -3 47.1307  7.1546   7
  -1  -5  -3 239.966  16.771   6
  -1  -5  -3 298.718  16.449   7
   1  -5   3 267.105  13.177   6
   1   5   3 279.649  14.547   1
   1   5   3 263.936  15.026   7
  -1   5  -3 263.696  12.403   7
  -1   5  -3 263.638  16.096   1
  -2  -5  -3 477.667  22.031   6
   2  -5   3 453.760  16.527   6
  -2  -5  -3 460.257  19.893   7
  -2  -5  -3 452.496  20.165   7
   2   5   3 464.413  19.852   7
  -2   5  -3 457.676  19.789   1
  -2   5  -3 446.287  15.979   7
   2   5   3 481.186  18.694   1
   2   5   3 488.493  19.909   5
  -3  -5  -3 581.367  23.577   7
   3  -5   3 577.947  18.907   6
  -3   5  -3 566.949  18.897   7
   3   5   3 569.667  22.355   5
   3   5   3 568.218  22.751   7
  -3   5  -3 575.874  22.614   1
  -4  -5  -3 30.6719 10.6376   7
   4  -5   3 12.1628  7.7943   6
   4   5   3 31.4431  9.8272   5
  -4   5  -3 20.1864  9.2827   1
  -4   5  -3 7.53767 6.50120   7
   4   5   3 19.3684  9.7995   7
  -5  -5  -3 208.106  16.925   7
  -5   5  -3 209.311  13.837   7
   5   5   3 233.907  18.187   7
   5   5   3 187.574  18.665   6
   5   5   3 216.233  17.338   5
  -5   5  -3 201.397  16.440   1
  -6  -5  -3 193.775  17.015   7
  -6  -5  -3 193.379  15.731   1
   6   5   3 199.430  19.888   6
   6   5   3 191.465  17.776   5
  -6   5  -3 218.230  17.786   1
   6   5   3 189.007  18.300   7
  -6   5  -3 206.533  14.855   7
  -7  -5  -3 496.663  25.020   7
  -7   5  -3 457.357  24.100   1
   7   5   3 498.341  26.221   5
   7   5   3 444.315  25.370   7
   7   5   3 484.460  28.037   6
  -7   5  -3 495.655  21.861   7
  -8  -5  -3 -6.5887 10.9534   7
   8   5   3  5.1413 12.5064   7
   8   5   3 25.1974 15.4974   6
  -8   5  -3 1.89924 9.32047   7
   8   5   3 43.9835 14.3930   5
  -8   5  -3  2.7899 11.9393   1
  -9  -5  -3 132.606  17.410   7
  -9   5  -3 117.882  15.203   7
  -9   5  -3 150.063  18.904   1
   9   5   3 130.299  19.463   7
   9   5   3 111.822  21.175   6
   9   5   3 127.715  19.151   5
 -10  -5  -3 68.3084 15.2801   7
 -10   5  -3 84.6729 17.4569   1
  10   5   3 77.8936 17.8966   7
 -10   5  -3 62.9319 13.9731   7
  10   5   3 89.3781 18.4249   5
 -11  -5  -3 175.659  20.342   7
 -11   5  -3 121.732  16.851   7
 -11  -6   3 156.903  21.089   1
  11  -6  -3 146.644  20.122   7
 -11   6   3 171.926  21.168   7
  11   6  -3 145.690  19.815   7
  11   6  -3 133.210  22.401   5
 -11   6   3 181.784  23.284   1
 -10  -6   3  9.2563 14.8995   1
  10  -6  -3 17.1157 13.7196   7
  10   6  -3 29.6205 17.5849   5
 -10   6   3 61.9820 17.0034   1
 -10   6   3 32.9284 14.2126   7
  10   6  -3 23.2353 13.9448   7
   9  -6  -3  9.6899 13.1580   4
  -9  -6   3 -24.831  11.984   1
   9  -6  -3 -0.3485 14.1219   6
   9  -6  -3  7.4029 12.1572   7
   9   6  -3 -6.7099 18.3654   6
  -9   6   3 21.1548 13.1410   7
   9   6  -3 -4.1139 14.7530   5
  -9   6   3 -6.0765 13.3609   1
   9   6  -3  6.1601 12.6109   7
   8  -6  -3 86.7891 17.2173   6
   8  -6  -3 100.281  15.933   4
  -8  -6   3 73.5564 16.3326   1
   8  -6  -3 83.7115 14.7176   7
   8   6  -3 84.4296 18.3727   5
   8   6  -3 62.8762 18.4665   6
  -8   6   3 86.3451 16.7527   1
   8   6  -3 63.6550 14.1076   7
  -8   6   3 94.2071 15.0326   7
  -7  -6   3 106.363  16.451   1
   7  -6  -3 83.4303 14.0914   7
   7  -6  -3 88.2965 14.9787   4
   7  -6  -3 91.9927 15.5780   6
  -7   6   3 78.5226 13.5435   7
   7   6  -3 102.049  18.402   5
  -7   6   3 126.694  16.974   1
   7   6  -3 85.1956 14.1046   7
   7   6  -3 69.1703 18.9554   6
  -6  -6   3 40.0384 13.3450   1
   6  -6  -3 46.5455 12.8923   6
   6  -6  -3 20.3890 11.3664   4
   6  -6  -3 19.6642 10.5987   7
   6   6  -3 29.9894 15.6923   6
  -6   6   3 23.8076 10.3011   7
   6   6  -3 22.4199 13.4423   5
  -6   6   3 34.8801 12.2723   1
   6   6  -3 10.9135 10.2798   7
   5  -6  -3 30.8751 11.4838   6
   5  -6  -3 18.5287 10.8024   4
   5  -6  -3 23.3694 10.6471   7
   5   6  -3 11.3037 14.2200   6
   5   6  -3 13.7851 12.3550   5
  -5   6   3 33.7773 11.5162   1
  -5   6   3 0.13606 9.21367   7
   5   6  -3 43.8154 10.6869   7
   4  -6  -3 36.6375 10.5640   7
   4  -6  -3 36.2828 12.1609   6
   4  -6  -3 41.5787 11.2510   4
   4   6  -3 16.6494 12.4993   6
   4   6  -3 32.4226 12.1215   5
  -4   6   3 18.7075 10.1592   1
  -4   6   3 29.5541  9.5158   7
   4   6  -3 24.4580  8.8145   7
   3  -6  -3 5.93856 8.47205   7
   3  -6  -3 19.2716 10.4646   6
   3  -6  -3 8.89777 9.48469   4
   3   6  -3 18.0961 10.9464   5
   3   6  -3 4.14558 7.17491   7
  -3   6   3 7.83663 8.38507   7
  -3   6   3 22.3601  9.6708   1
   3   6  -3 17.2874 11.8147   6
   2  -6  -3 4.72453 9.33350   4
   2  -6  -3 32.9825 11.1290   6
   2  -6  -3 15.1304  8.8703   7
  -2   6   3 21.9242  8.7793   7
  -2   6   3 18.5024  9.2987   1
   2   6  -3 42.4700  8.1174   7
   2   6  -3 37.5407 11.7412   6
   2   6  -3 46.7989 11.4294   5
   1  -6  -3 64.5571 10.8016   7
   1  -6  -3 65.0551 12.0785   6
  -1   6   3 72.3059 10.4451   7
  -1   6   3 70.6653 10.6206   1
   1   6  -3 71.4475 12.1094   5
   1   6  -3 63.5795  8.5201   7
   0  -6  -3 6.28321 9.70377   6
   0  -6  -3 25.1032  9.0804   7
   0   6   3 13.4897  8.2506   7
   0   6  -3 18.4942  6.8460   7
   0   6  -3 8.05963 9.12335   5
   0   6  -3 -6.4247  8.2782   1
   0   6   3 13.1711  8.2108   1
  -1  -6  -3  2.3381 10.2882   6
   1  -6   3 -0.5271  8.3651   6
  -1  -6  -3 -7.6405  8.5174   7
   1   6   3 -11.859   7.528   7
   1   6   3 1.49355 7.52550   1
   1   6   3 17.6296  8.7813   5
  -1   6  -3 3.29585 6.22136   7
  -1   6  -3 -3.3063  8.3442   1
  -2  -6  -3 60.9714 11.9542   7
  -2  -6  -3 38.4507 11.2281   7
  -2   6  -3 46.1329 10.6780   1
   2   6   3 55.4690 10.7798   5
  -2   6  -3 41.4981  7.8925   7
   2   6   3 52.4662 10.7186   7
   2   6   3 41.2126  9.7722   1
  -3  -6  -3 212.534  17.577   7
  -3   6  -3 235.256  17.907   1
  -3   6  -3 215.447  13.898   7
   3   6   3 249.124  17.870   5
   3   6   3 230.987  17.465   7
  -4  -6  -3 66.6027 12.9485   7
  -4   6  -3 86.9659 13.0739   1
   4   6   3 90.4854 13.5948   7
   4   6   3 68.5541 12.8657   5
  -4   6  -3 76.4551 10.1217   7
  -5  -6  -3 -0.7643 10.7121   7
  -5   6  -3 -12.572   9.702   1
   5   6   3 -0.7328 10.6038   5
   5   6   3 -2.2531 10.1257   7
  -5   6  -3 -3.6414  7.5319   7
   5   6   3 -4.8787 12.5863   6
  -6  -6  -3 34.8182 11.9464   7
   6   6   3 18.4287 12.4307   5
   6   6   3 41.7953 13.4932   7
  -6   6  -3 27.1966  9.3309   7
   6   6   3 27.0416 14.2440   6
  -6   6  -3 13.1950 11.9578   1
  -7  -6  -3 362.299  23.176   7
  -7   6  -3 342.928  19.703   7
  -7   6  -3 377.109  24.055   1
   7   6   3 251.870  24.532   6
   7   6   3 406.289  25.040   7
   7   6   3 333.362  24.410   5
  -8  -6  -3 78.6843 15.5911   7
   8   6   3 61.3599 16.1904   7
  -8   6  -3 74.3631 12.8468   7
   8   6   3 62.6999 18.6590   6
  -8   6  -3 82.4031 15.7121   1
   8   6   3 76.5567 16.2390   5
  -9  -6  -3  2.0412 12.8063   7
  -9   6  -3 12.5398 13.7472   1
  -9   6  -3 -0.5743 10.4057   7
   9   6   3  5.9745 14.7249   7
   9   6   3 14.1526 14.4281   5
 -10  -6  -3 18.0800 13.4960   7
 -10   6  -3  8.1549 11.4799   7
 -10   6  -3  7.8723 14.2588   1
  10   6   3  7.9315 14.9287   7
 -11  -6  -3 265.619  24.369   7
  11   6   3 282.897  27.334   7
 -11   6  -3 308.113  23.085   7
 -10  -7   3 43.7622 16.6876   1
  10  -7  -3 32.7970 14.5865   7
 -10   7   3 33.9546 16.3599   1
  10   7  -3 31.0973 14.2476   7
  10   7  -3  9.5815 16.9090   5
 -10   7   3 35.6129 14.8506   7
   9  -7  -3 64.4565 15.5493   7
  -9  -7   3 74.0599 17.5745   1
  -9   7   3 82.9760 16.3454   7
   9   7  -3 67.3919 19.3233   5
   9   7  -3 63.2301 14.8428   7
  -9   7   3 33.9843 15.9648   1
   8  -7  -3 278.091  22.887   4
  -8  -7   3 255.107  23.849   1
   8  -7  -3 252.262  21.890   7
   8  -7  -3 263.887  23.705   6
   8   7  -3 272.286  28.194   6
  -8   7   3 211.390  20.412   7
   8   7  -3 255.551  25.771   5
  -8   7   3 274.589  24.410   1
   8   7  -3 242.532  20.783   7
   7  -7  -3 154.690  17.944   7
  -7  -7   3 157.153  20.279   1
   7  -7  -3 198.213  20.232   6
   7  -7  -3 162.122  18.744   4
   7   7  -3 169.192  21.213   5
   7   7  -3 185.187  17.994   7
   7   7  -3 189.998  23.334   6
  -7   7   3 233.631  22.011   1
  -7   7   3 191.034  18.774   7
  -6  -7   3 32.4618 14.1992   1
   6  -7  -3 34.6960 13.6115   4
   6  -7  -3  0.1102 10.6135   7
   6  -7  -3 10.2951 12.2665   6
   6   7  -3 10.3098 10.7672   7
   6   7  -3 70.3343 18.6254   6
  -6   7   3 14.2236 12.4347   1
  -6   7   3  2.7741 10.4146   7
   6   7  -3 50.8112 15.4485   5
   5  -7  -3 153.058  17.359   6
   5  -7  -3 136.858  15.913   7
   5  -7  -3 130.371  16.050   4
  -5   7   3 96.6012 15.5871   1
   5   7  -3 126.328  18.162   5
   5   7  -3 100.618  18.863   6
   5   7  -3 119.836  13.862   7
  -5   7   3 101.126  14.557   7
   4  -7  -3 454.830  23.611   7
   4  -7  -3 456.527  22.880   4
   4  -7  -3 446.067  23.644   6
  -4   7   3 520.869  23.938   7
   4   7  -3 458.636  21.383   7
  -4   7   3 480.732  24.982   1
   4   7  -3 503.249  27.401   5
   4   7  -3 477.349  26.849   6
   3  -7  -3 382.256  21.400   4
   3  -7  -3 419.126  21.733   7
   3  -7  -3 421.924  22.568   6
  -3   7   3 361.031  20.611   7
   3   7  -3 442.476  24.242   6
   3   7  -3 406.534  24.253   5
  -3   7   3 402.609  22.798   1
   3   7  -3 381.183  18.311   7
   2  -7  -3 27.4692 10.4233   7
   2  -7  -3  7.7805 11.0781   6
  -2   7   3 29.7038 10.1029   7
   2   7  -3 39.2991 12.5859   5
   2   7  -3 31.2514 12.7519   6
  -2   7   3 23.1392 10.3207   1
   2   7  -3 26.8494  8.4058   7
   1  -7  -3 186.288  16.412   7
   1  -7  -3 162.270  16.400   6
  -1   7   3 172.204  15.131   7
   1   7  -3 157.826  12.519   7
  -1   7   3 148.776  15.188   1
   1   7  -3 159.789  16.430   5
   0  -7  -3 564.462  26.126   6
   0  -7  -3 570.053  25.872   7
   0   7  -3 591.809  25.635   5
   0   7  -3 555.193  25.529   1
   0   7   3 555.411  24.071   1
   0   7   3 583.391  24.459   7
   0   7  -3 571.502  20.790   7
  -1  -7  -3 620.725  27.737   6
  -1  -7  -3 594.049  26.819   7
  -1   7  -3 551.181  26.065   5
   1   7   3 603.461  24.310   1
  -1   7  -3 594.958  21.090   7
  -1   7  -3 557.084  25.590   1
   1   7   3 601.156  25.129   5
   1   7   3 591.383  24.706   7
  -2  -7  -3 103.334  14.648   7
   2   7   3 83.8164 12.9962   1
  -2   7  -3 81.3732 10.4025   7
   2   7   3 57.5148 11.8600   7
  -2   7  -3 46.8708 12.3541   1
   2   7   3 72.1148 12.9841   5
  -3  -7  -3 239.674  19.754   7
  -3  -7  -3 227.711  19.749   7
   3   7   3 210.253  17.971   7
   3   7   3 207.179  18.238   5
  -3   7  -3 219.165  18.778   1
  -3   7  -3 197.052  14.588   7
  -4  -7  -3 441.509  24.846   7
   4   7   3 462.396  24.866   5
   4   7   3 443.748  24.822   7
  -4   7  -3 460.823  19.810   7
  -4   7  -3 433.034  23.812   1
  -5  -7  -3 480.654  26.649   7
   5   7   3 550.352  29.380   6
   5   7   3 458.946  26.562   5
  -5   7  -3 474.445  25.563   1
  -5   7  -3 495.451  21.412   7
   5   7   3 494.916  26.354   7
  -6  -7  -3 121.395  17.209   7
   6   7   3 111.790  19.532   6
  -6   7  -3 131.173  14.222   7
   6   7   3 134.741  18.055   5
  -6   7  -3 145.407  18.280   1
   6   7   3 194.948  19.906   7
  -7  -7  -3 148.461  18.467   7
   7   7   3 162.871  22.677   6
   7   7   3 152.971  19.840   5
  -7   7  -3 187.139  16.637   7
  -7   7  -3 193.946  20.520   1
   7   7   3 165.931  19.748   7
  -8  -7  -3 267.027  23.009   7
  -8   7  -3 276.028  24.472   1
   8   7   3 265.596  24.913   5
   8   7   3 280.553  24.563   7
  -8   7  -3 294.607  20.320   7
  -9  -7  -3 230.881  22.412   7
   9   7   3 217.819  23.257   7
  -9   7  -3 221.110  19.220   7
   9   7   3 217.407  24.423   5
  -9   7  -3 241.540  23.786   1
 -10  -7  -3 135.790  19.714   7
 -10   7  -3 118.033  20.759   1
 -10   7  -3 138.488  17.598   7
  10   7   3 153.619  21.931   7
   9  -8  -3 -6.7931 13.2628   7
  -9  -8   3  8.1955 15.7802   1
  -9   8   3 -18.925  13.908   1
   9   8  -3 -21.222  11.417   7
   9   8  -3  9.5048 16.4410   5
  -9   8   3 -21.080  12.053   7
  -8  -8   3 54.4058 16.4418   1
   8  -8  -3 26.4653 14.0031   7
   8   8  -3 29.7460 17.8137   5
  -8   8   3 11.2196 12.5497   7
   8   8  -3 21.8637 13.0129   7
  -8   8   3 52.7663 16.4388   1
   7  -8  -3 20.1995 15.4581   6
   7  -8  -3 11.8035 12.9545   7
  -7  -8   3 18.7927 15.6249   1
   7  -8  -3 43.8531 15.2603   4
   7   8  -3 30.6133 18.6025   6
  -7   8   3 28.6764 13.6718   7
   7   8  -3 19.2700 13.1983   7
   7   8  -3 37.0483 16.8860   5
  -7   8   3 42.4560 15.1749   1
   6  -8  -3 33.4103 14.4081   6
   6  -8  -3 23.4535 13.8752   4
   6  -8  -3 16.5704 12.9869   7
   6   8  -3 22.0874 16.8690   6
   6   8  -3 30.5351 11.8909   7
  -6   8   3 28.9536 14.0492   1
   6   8  -3 17.4405 15.5055   5
  -6   8   3 10.1570 11.6673   7
   5  -8  -3 16.0778 12.9411   6
   5  -8  -3 -11.591  11.480   7
   5  -8  -3 -23.948  11.317   4
   5   8  -3 -17.064   9.186   7
   5   8  -3  7.3760 13.4649   5
   5   8  -3 -23.030  13.780   6
  -5   8   3 -15.328  10.029   7
  -5   8   3  4.9226 12.3253   1
   4  -8  -3 16.2810 13.5944   6
   4  -8  -3 15.0464 11.6022   7
  -4   8   3  6.7165 10.7068   7
   4   8  -3 26.0242 14.4412   5
   4   8  -3  4.5470 14.9741   6
   4   8  -3 -0.5093  9.0470   7
  -4   8   3 14.4951 12.1517   1
   3  -8  -3 34.1589 12.0363   7
   3  -8  -3 13.3392 13.3715   6
   3   8  -3 14.4629 14.3224   6
  -3   8   3 22.0683 11.2345   7
   3   8  -3 16.8741  9.4084   7
   3   8  -3 25.4218 13.4905   5
  -3   8   3  7.5256 11.6976   1
   2  -8  -3 -6.5402 10.6386   7
   2  -8  -3 -15.529  12.092   6
   2   8  -3 5.40527 8.61397   7
   2   8  -3  0.5403 12.2691   5
  -2   8   3  3.4539 10.8543   1
  -2   8   3 15.8073 10.7373   7
   1  -8  -3 -19.815  10.519   7
   1  -8  -3 -1.7685 11.9928   6
  -1   8   3 -11.928   9.255   7
   1   8  -3 -3.5575  8.1788   7
  -1   8   3 12.0511 10.9057   1
   1   8  -3 19.1552 11.8752   5
   0  -8  -3 17.9491 13.7725   6
   0  -8  -3  9.1528 11.8808   7
   0   8  -3  9.5395 12.1829   1
   0   8   3 28.7055 11.4837   1
   0   8  -3 2.61137 8.12300   7
   0   8   3 -0.7281  9.8649   7
   0   8  -3 -2.2971 11.6070   5
  -1  -8  -3 24.2219 13.1216   6
  -1  -8  -3 21.1292 12.8304   7
   1   8   3  3.5687 10.2245   7
  -1   8  -3 17.0884  8.7568   7
  -1   8  -3 28.7404 11.8741   5
   1   8   3  4.6247 10.8751   5
  -1   8  -3 24.6434 12.1956   1
   1   8   3 10.3206 10.4211   1
  -2  -8  -3 17.4333 12.9538   7
   2   8   3 15.6184 12.1110   5
   2   8   3 12.4393 10.8798   7
  -2   8  -3  6.4631 11.5668   1
   2   8   3 20.4279 11.7892   1
  -2   8  -3 10.7408  8.5594   7
  -3  -8  -3 -14.738  11.630   7
  -3   8  -3  0.2490 11.3900   1
   3   8   3 -14.817  10.380   7
  -3   8  -3 -1.1688  8.3918   7
   3   8   3  0.7852 11.6662   5
  -4  -8  -3 -1.3407 12.2276   7
  -4  -8  -3 -28.282  11.616   7
  -4   8  -3 -13.193   7.864   7
   4   8   3 -17.012  10.745   7
   4   8   3 10.9249 12.6016   5
  -4   8  -3  2.6275 12.0854   1
  -5  -8  -3  8.7627 13.1663   7
  -5   8  -3 30.2909 13.8167   1
   5   8   3 16.9298 13.4577   7
   5   8   3 15.7778 16.1322   6
   5   8   3 17.3976 14.3959   5
  -5   8  -3 -1.6142  8.8718   7
  -6  -8  -3 -13.520  12.425   7
   6   8   3 -13.211  16.683   6
  -6   8  -3 -14.524   8.794   7
   6   8   3 -0.6731 13.4979   7
   6   8   3 -9.7257 12.9491   5
  -6   8  -3 -5.0642 13.4400   1
  -7  -8  -3 -9.0568 12.2876   7
  -7   8  -3 12.2677 13.6966   1
  -7   8  -3  7.8070 10.3958   7
   7   8   3 11.7723 13.7944   7
   7   8   3  8.8797 14.9014   5
  -8  -8  -3 48.6849 15.6039   7
   8   8   3 44.7863 16.6890   5
  -8   8  -3 -9.1566 10.6476   7
  -8   8  -3 16.0672 15.0333   1
   8   8   3 26.3896 15.6947   7
  -9  -8  -3 51.2849 16.4260   7
  -9   8  -3 38.4488 12.9431   7
   9   8   3 44.2085 17.5135   5
  -9   8  -3 15.5477 15.7307   1
   9   8   3 27.6213 15.9049   7
  -8  -9   3 488.810  31.411   1
   8   9  -3 367.681  31.699   5
   8   9  -3 397.095  25.259   7
  -8   9   3 386.467  31.255   1
  -8   9   3 403.955  27.619   7
   7  -9  -3 115.578  18.448   7
  -7  -9   3 74.8488 19.7961   1
  -7   9   3 104.587  19.350   1
   7   9  -3 110.513  21.255   5
   7   9  -3 109.953  16.504   7
  -7   9   3 128.883  17.987   7
   6  -9  -3 -26.173  11.968   7
   6   9  -3 -21.900  10.253   7
  -6   9   3 12.6033 13.9900   1
   6   9  -3 -12.299  15.360   5
  -6   9   3  0.0590 11.8374   7
   5  -9  -3 385.578  27.404   6
   5  -9  -3 398.233  27.164   7
  -5   9   3 412.853  25.444   7
  -5   9   3 422.676  27.523   1
   5   9  -3 392.485  22.307   7
   5   9  -3 414.922  29.790   5
   4  -9  -3 354.785  24.435   7
   4  -9  -3 379.557  26.963   6
   4   9  -3 330.358  20.749   7
   4   9  -3 395.880  29.074   5
  -4   9   3 373.228  25.753   1
  -4   9   3 364.780  24.315   7
   3  -9  -3 199.402  20.287   7
   3  -9  -3 208.564  21.151   6
  -3   9   3 184.298  19.766   1
  -3   9   3 180.761  18.653   7
   3   9  -3 182.229  21.617   5
   3   9  -3 178.974  16.066   7
   2  -9  -3 24.9595 13.1893   7
   2  -9  -3 48.4171 15.3222   6
  -2   9   3 25.7712 12.1944   7
  -2   9   3 41.2601 14.1297   1
   2   9  -3 64.2836 16.6140   5
   2   9  -3 17.0922 10.2207   7
   1  -9  -3 259.374  23.630   6
   1  -9  -3 270.355  22.109   7
  -1   9   3 245.712  20.384   7
   1   9  -3 255.909  16.995   7
   1   9  -3 226.006  22.456   5
  -1   9   3 234.466  21.241   1
   0  -9  -3 259.135  23.519   6
   0  -9  -3 266.454  23.058   7
   0   9  -3 252.718  23.377   5
   0   9   3 260.702  22.190   5
   0   9  -3 291.379  17.713   7
   0   9   3 295.553  21.686   7
   0   9   3 321.989  22.716   1
  -1  -9  -3 203.685  21.652   7
  -1   9  -3 217.900  21.569   5
  -1   9  -3 214.929  16.310   7
   1   9   3 247.422  21.540   5
   1   9   3 161.403  18.491   7
  -1   9  -3 204.182  21.341   1
   1   9   3 234.163  21.151   1
  -2  -9  -3 49.1175 16.0495   7
  -2   9  -3 66.7530 15.6828   1
  -2   9  -3 55.3648 11.5117   7
   2   9   3 72.9700 15.5017   5
  -2   9  -3 65.0385 15.9545   5
   2   9   3 62.2961 14.1519   7
  -3  -9  -3 11.6638 14.2991   7
   3   9   3 23.7752 13.0204   7
  -3   9  -3 20.0758 10.1435   7
   3   9   3  9.6003 13.4804   5
  -3   9  -3  9.2114 13.5581   1
  -4  -9  -3 299.064  26.048   7
  -4  -9  -3 332.003  26.798   7
  -4   9  -3 281.263  24.937   1
  -4   9  -3 331.681  19.130   7
   4   9   3 330.649  25.593   5
   4   9   3 337.237  24.898   7
  -5  -9  -3 107.439  19.061   7
  -5  -9  -3 149.376  20.065   7
   5   9   3 132.816  19.629   7
  -5   9  -3 151.795  15.171   7
  -5   9  -3 153.898  21.139   1
   5   9   3 159.820  21.178   5
  -6  -9  -3  7.5461 14.5799   7
  -6  -9  -3 -13.508  13.371   7
  -6   9  -3 15.4198 10.4320   7
  -6   9  -3  8.7158 14.1431   1
   6   9   3 10.6840 14.6000   5
   6   9   3  0.1031 14.3178   7
  -7  -9  -3 -11.753  13.787   7
  -7   9  -3 -13.610  14.560   1
   7   9   3  7.7986 14.7924   7
  -7   9  -3 -0.3469 10.4856   7
   7   9   3 -5.2177 15.1444   5
  -8  -9  -3 337.085  27.969   7
  -8   9  -3 378.240  23.227   7
  -8   9  -3 349.049  29.841   1
   8   9   3 334.283  28.364   7
   8   9   3 374.532  30.647   5
  -6  10   3 20.3517 15.1353   1
   6  10  -3 13.7761 12.1680   7
   6  10  -3 45.2575 19.2585   5
  -6  10   3 -1.7287 12.8584   7
  -5  10   3 29.0295 14.3248   7
   5  10  -3 46.9459 18.1148   5
   5  10  -3 10.6893 11.8173   7
  -5  10   3 10.0785 15.7953   1
  -4  10   3 54.9830 15.2704   7
   4  10  -3 59.9542 12.9431   7
  -4  10   3 63.8881 16.8815   1
   4  10  -3 63.1680 18.4859   5
   3  10  -3 134.043  21.097   5
   3  10  -3 154.280  16.100   7
  -3  10   3 155.935  20.708   1
  -3  10   3 171.189  19.113   7
   2 -10  -3 13.3793 17.0630   6
  -2  10   3  8.2417 12.4554   7
   2  10  -3 13.0270 15.2229   5
  -2  10   3  0.8194 13.6791   1
   2  10  -3  8.0433 10.0737   7
   1 -10  -3 100.561  20.335   6
   1 -10  -3 136.167  19.405   7
   1  10  -3 95.8804 18.6739   5
   1  10  -3 91.3690 13.1807   7
  -1  10   3 106.415  18.797   5
  -1  10   3 94.3327 17.8561   1
  -1  10   3 96.3132 16.2328   7
   0 -10  -3 132.901  20.211   7
   0 -10  -3 103.699  21.025   6
   0  10   3 149.926  18.418   7
   0  10   3 152.650  19.285   1
   0  10  -3 135.306  14.217   7
   0  10   3 122.500  18.845   5
   0  10  -3 161.638  20.963   5
  -1 -10  -3 142.698  21.131   7
  -1  10  -3 165.139  15.691   7
  -1  10  -3 180.907  22.303   1
  -1  10  -3 183.710  21.723   5
   1  10   3 179.556  20.907   1
   1  10   3 167.849  21.316   5
   1  10   3 163.125  19.126   7
  -2 -10  -3 48.6704 17.0865   7
   2  10   3 22.5817 15.1168   5
  -2  10  -3 24.4184 15.2813   5
   2  10   3 39.1080 14.6083   7
  -2  10  -3 25.0524 10.4418   7
  -2  10  -3 23.7999 14.9455   1
  -3  10  -3 171.829  22.051   5
  -3  10  -3 139.105  20.991   1
   3  10   3 156.846  20.963   5
  -3  10  -3 154.230  15.689   7
   3  10   3 175.678  20.137   7
  -4  10  -3 75.9712 18.7974   1
   4  10   3 108.889  19.612   5
  -4  10  -3 60.5213 11.9940   7
   4  10   3 95.6560 17.9109   7
   5  10   3 155.769  21.465   7
   5  10   3 119.587  21.037   5
  -5  10  -3 113.290  14.456   7
  -5  10  -3 131.251  21.680   1
  -6  10  -3 14.1356 16.6616   1
  -6  10  -3 52.3524 12.6906   7
   6  10   3 36.4418 15.7698   7
   6  10   3 32.8298 17.0412   5
   3  11  -3  9.2092 16.9501   5
  -3  11   3  4.7981 15.1331   1
   3  11  -3 -0.1069 10.5509   7
  -3  11   3  5.2671 13.2830   7
  -2  11   3 63.2856 17.8083   1
  -2  11   3 49.3716 15.0142   7
  -2  11   3 90.0319 19.0700   5
   2  11  -3 61.6080 19.1069   5
   2  11  -3 69.7958 13.6876   7
  -1  11   3 14.2063 14.7999   5
  -1  11   3  4.8668 13.9495   1
  -1  11   3  5.3386 12.3292   7
   1  11  -3 19.8505 16.1776   5
   1  11  -3 -2.8890 10.2201   7
   0  11  -3 142.859  15.718   7
   0  11   3 115.333  19.431   1
   0  11   3 137.375  21.526   5
   0  11  -3 135.725  21.853   5
   0  11   3 155.775  19.625   7
   1  11   3 -0.5014 13.0716   7
  -1  11  -3 24.0101 16.7566   5
  -1  11  -3 -0.2993 10.0546   7
   1  11   3 15.2466 15.0917   5
  -2  11  -3 60.3750 18.5038   5
  -2  11  -3 111.453  21.099   1
   2  11   3 107.799  18.497   7
   2  11   3 88.6950 19.5619   5
  -2  11  -3 113.647  14.337   7
  -3  11  -3 39.5102 17.4119   1
   3  11   3 35.9188 15.7190   7
   3  11   3 29.2563 15.9231   5
  -3  11  -3 20.1528 10.8808   7
  -3  11  -3 37.8870 17.3129   5
  13   0  -4 -14.143  14.398   7
 -13   0   4 -0.5926 14.8908   1
  12   0  -4 81.0826 17.4149   7
 -12   0   4 83.8629 18.5043   1
  11   0  -4 290.002  24.107   7
 -11   0   4 308.796  25.121   1
  11   0  -4 305.119  25.828   6
 -10   0   4 130.650  18.762   1
  10   0  -4 70.7252 16.2126   6
  10   0  -4 114.177  16.400   7
  -9   0   4  8.3496 12.3477   1
   9   0  -4 29.4063 12.8579   6
   9   0  -4 21.3976 11.1389   7
  -8   0   4 192.568  17.983   1
   8   0  -4 230.919  17.213   7
   8   0  -4 184.591  17.771   6
   7   0  -4 631.779  23.561   7
  -7   0   4 645.187  25.615   1
   7   0  -4 626.448  25.594   6
   6   0  -4 1143.36   33.59   6
  -6   0   4 1171.94   33.97   1
   6   0  -4 1134.96   31.10   7
   5   0  -4 1.76299 5.94271   2
  -5   0   4 14.1817  7.9823   1
   5   0  -4 16.0001  8.8831   6
  -5   0   4 19.7870  6.9241   7
   5   0  -4 21.2271  6.8513   7
   4   0  -4 250.367  15.018   3
   4   0  -4 265.925  14.205   6
   4   0  -4 267.751  11.697   2
  -4   0   4 270.516  14.564   1
   4   0  -4 262.361  12.384   7
   3   0  -4 371.935  14.047   2
   3   0  -4 370.367  12.797   7
  -3   0   4 367.058  15.435   1
   3   0  -4 374.622  14.755   6
   3   0  -4 400.760  16.065   3
   2   0  -4 4780.19   86.09   7
   2   0  -4 4682.51   90.75   6
   2   0  -4 4774.27   93.43   3
   1   0  -4 29.2202  6.0648   6
   1   0  -4 17.5809  6.8012   3
   0   0  -4 86.1059  8.0834   3
   0   0  -4 101.277   7.384   6
  -1   0  -4 51.9250  6.2249   6
  -1   0  -4 46.8174  7.5541   3
  -2   0  -4 5388.87   96.71   7
  -3   0  -4 124.607   9.000   7
   3   0   4 124.211  10.202   6
  -4   0  -4 8.38977 6.77299   2
  -4   0  -4 -0.2046  5.6791   7
   4   0   4 1.93035 7.39528   6
   5   0   4 446.429  16.903   7
  -5   0  -4 427.742  16.423   7
   5   0   4 433.908  18.292   6
  -5   0  -4 455.848  15.382   2
  -6   0  -4 2186.09   46.71   1
  -6   0  -4 2159.47   48.99   7
   6   0   4 2197.54   51.29   6
   7   0   4 229.063  17.269   6
  -7   0  -4 196.061  14.473   7
  -8   0  -4 18.8392  9.2493   7
   8   0   4  7.7505 11.9889   6
  -9   0  -4 313.603  19.625   7
   9   0   4 298.333  22.397   6
  10   0   4 779.961  34.278   6
 -10   0  -4 757.983  30.229   7
  11   0   4 116.859  21.054   6
 -11   0  -4 145.215  16.829   7
 -12   0  -4 12.4742 11.9223   7
 -13   0  -4 50.5712 15.0676   7
 -13  -1   4 24.6645 16.7433   1
  13  -1  -4 13.6857 14.8412   7
 -13   1   4  0.4813 16.0352   1
  13   1  -4 -30.391  14.337   7
 -12  -1   4 11.9670 15.6731   1
  12  -1  -4  9.5815 14.1650   7
  12   1  -4 -4.4460 13.8789   7
 -12   1   4  1.6304 14.6284   1
  11  -1  -4  5.9025 12.6097   7
 -11  -1   4  8.4842 15.3271   1
  11  -1  -4 -16.786  13.294   6
  11   1  -4 -2.5987 13.7189   7
 -11   1   4 -7.5781 12.9621   1
  11   1  -4 10.5347 16.9316   6
 -10  -1   4  9.2294 13.5139   1
  10  -1  -4 -9.8296 10.8596   7
  10  -1  -4 -0.1969 12.9371   6
  10   1  -4  3.1074 14.2612   6
 -10   1   4  8.7546 13.0658   1
  10   1  -4  2.5380 12.7844   7
   9  -1  -4 39.9688 12.0908   7
   9  -1  -4 45.3525 13.1381   6
  -9  -1   4 40.5767 14.0147   1
   9   1  -4 70.6373 15.2015   6
  -9   1   4 62.7621 14.0258   1
   9   1  -4 82.2312 14.1319   7
  -8  -1   4 128.328  15.992   1
   8  -1  -4 77.6142 12.4982   7
   8  -1  -4 108.976  14.989   6
  -8   1   4 135.960  15.605   1
   8   1  -4 129.486  16.080   6
   8   1  -4 105.290  14.121   7
  -7  -1   4 59.9324 11.8170   1
   7  -1  -4 13.9730  8.7435   7
   7  -1  -4 8.46439 9.85721   6
   7   1  -4 47.9957 12.1426   6
  -7   1   4 52.1387 11.1848   1
   7   1  -4 27.7374  9.9246   7
  -6  -1   4 5.42230 7.94116   1
   6  -1  -4 5.28973 8.78987   6
   6  -1  -4 -1.0437  7.0913   7
   6   1  -4 -0.8255  9.0992   6
   6   1  -4 8.94815 8.32801   7
  -6   1   4 6.99997 7.57865   7
  -6   1   4 0.63606 7.94263   1
   5  -1  -4 226.882  12.954   7
  -5  -1   4 186.332  14.206   1
  -5  -1   4 205.125  12.929   7
   5  -1  -4 221.306  14.360   6
  -5   1   4 194.147  13.845   1
  -5   1   4 210.185  13.008   7
   5   1  -4 175.819  13.017   7
   5   1  -4 204.911  14.021   6
   5   1  -4 198.088  14.799   3
   4  -1  -4 752.578  23.359   6
  -4  -1   4 713.906  23.248   1
   4  -1  -4 754.560  21.122   7
   4   1  -4 767.223  21.875   7
   4   1  -4 769.433  24.584   3
   4   1  -4 761.283  21.694   2
   4   1  -4 790.474  24.172   5
   4   1  -4 764.026  23.317   6
   3  -1  -4 -1.6686  5.1583   7
  -3  -1   4 -9.6502  6.5647   1
   3  -1  -4 3.61385 7.53620   6
   3  -1  -4 -4.0778  6.9909   3
  -3   1   4 -6.6555  6.3361   1
   3   1  -4 -5.0033  6.5686   2
   3   1  -4 2.41555 5.64172   7
   3   1  -4 -2.0909  6.7910   6
   3   1  -4 2.61715 6.82077   3
   2  -1  -4 42.7742  7.7175   6
  -2  -1   4 21.8632  7.3328   1
   2  -1  -4 40.6292  5.5681   7
   2  -1  -4 32.1520  7.5053   3
   2   1  -4 34.4749  3.3300   7
  -2   1   4 45.0436  7.1701   1
   2   1  -4 43.6585  7.6854   3
   2   1  -4 39.4561  7.0070   6
   2   1  -4 33.4028  7.4722   2
   1  -1  -4 594.491  17.882   6
   1  -1  -4 632.308  14.405   7
   1  -1  -4 620.731  18.491   3
   1   1  -4 620.838  15.516   6
   1   1  -4 637.711  18.189   2
   1   1  -4 593.422  18.200   3
   0  -1  -4 1651.64   30.91   7
   0  -1  -4 1653.65   34.08   4
   0  -1  -4 1584.89   36.06   3
   0  -1  -4 1583.86   35.10   6
   0   1  -4 1650.12   31.14   6
   0   1  -4 1673.56   36.50   3
   1  -1   4 334.630   8.198   6
  -1  -1  -4 336.792  12.874   6
  -1  -1  -4 336.572   9.952   7
  -1  -1  -4 344.718  13.540   3
  -1   1  -4 375.551  14.669   3
  -2  -1  -4 154.887  11.007   2
   2  -1   4 157.655   6.935   6
  -2  -1  -4 163.896   8.742   7
  -3  -1  -4 440.601  15.638   7
  -3  -1  -4 473.883  16.498   2
   3  -1   4 457.014  13.614   6
  -3   1  -4 447.780  13.436   7
   3   1   4 453.587  18.048   6
  -4  -1  -4 383.389  15.789   2
  -4  -1  -4 381.841  15.107   7
   4  -1   4 378.002  14.103   6
   4   1   4 365.210  18.097   6
  -4   1  -4 384.746  13.543   7
  -5  -1  -4 517.323  18.545   2
  -5  -1  -4 538.022  18.915   7
   5  -1   4 531.521  18.145   6
   5   1   4 530.450  21.564   6
  -5   1  -4 502.098  17.494   7
   5   1   4 525.406  19.655   7
  -5   1  -4 570.393  17.210   1
   6  -1   4 156.521  12.499   6
  -6  -1  -4 144.425  11.788   2
  -6  -1  -4 119.848  11.232   7
   6   1   4 135.809  14.812   6
  -6   1  -4 141.070  10.791   1
  -6   1  -4 113.358  10.396   7
  -7  -1  -4 116.683  12.251   7
   7  -1   4 116.222  13.197   6
  -7   1  -4 117.693  11.817   7
  -7   1  -4 123.448  11.870   1
   7   1   4 98.5368 15.0637   6
   8  -1   4 -11.796  10.050   6
  -8  -1  -4 -13.150   8.559   7
   8   1   4  8.3803 12.5274   6
  -8   1  -4 -2.2890  8.1323   7
   9  -1   4 247.938  20.359   6
  -9  -1  -4 248.463  18.641   7
  -9   1  -4 233.852  17.740   7
   9   1   4 233.538  21.254   6
  10  -1   4 45.8668 15.7121   6
 -10  -1  -4 43.4035 12.3590   7
  10   1   4 56.0367 17.7787   6
 -10   1  -4 24.1948 11.1649   7
 -11  -1  -4  8.9236 11.7067   7
  11   1   4  6.6790 17.3170   6
 -11   1  -4 -15.397   9.956   7
 -12  -1  -4 12.7669 12.8092   7
 -12   1  -4 15.8139 12.8940   7
 -13  -1  -4 16.5226 13.8684   7
 -13   1  -4 38.4509 14.5393   7
  12  -2  -4  7.5530 13.9327   7
 -12  -2   4 -4.6455 14.6279   1
  12   2  -4  9.6711 14.7646   7
  12   2  -4 18.2365 18.5400   3
 -12   2   4 16.0062 15.5457   1
  11  -2  -4 35.1484 13.8776   7
 -11  -2   4 54.7301 16.7045   1
 -11   2   4 27.9640 15.2148   1
  11   2  -4  8.5893 13.9020   7
 -10  -2   4 183.342  20.905   1
  10  -2  -4 150.236  17.305   7
  10  -2  -4 160.658  19.306   6
  10   2  -4 163.709  19.126   7
 -10   2   4 177.911  20.243   1
  10   2  -4 179.330  22.233   6
   9  -2  -4 -7.0528 11.2141   6
   9  -2  -4 -9.2097  9.9881   7
  -9  -2   4  1.6356 12.0539   1
  -9   2   4 11.3738 12.3070   1
   9   2  -4 -11.545  11.236   7
   9   2  -4 -4.9387 12.6731   6
   8  -2  -4  2.9461 10.7476   6
   8  -2  -4 -2.2045  9.2622   7
  -8  -2   4  0.3240 10.7487   1
   8   2  -4 11.0969 10.3855   7
  -8   2   4 -14.731   9.398   1
   8   2  -4 12.8849 12.6193   6
   7  -2  -4 -5.9445  8.0196   7
  -7  -2   4 10.8907 10.1598   1
   7  -2  -4 10.3377  9.9777   6
   7   2  -4 14.1618 11.0474   6
  -7   2   4 13.5346  9.8061   1
   7   2  -4 25.8373 11.5674   5
   7   2  -4 14.1363  9.6316   7
  -6  -2   4 363.622  19.484   1
   6  -2  -4 425.714  18.309   7
   6  -2  -4 454.901  20.638   6
  -6   2   4 431.458  18.793   7
   6   2  -4 415.525  21.431   5
  -6   2   4 438.162  19.737   1
   6   2  -4 394.238  18.847   7
   6   2  -4 370.596  20.657   6
   6   2  -4 397.773  20.501   3
  -5  -2   4 33.0620  9.3959   1
   5  -2  -4 14.7196  9.0866   6
   5  -2  -4 40.4704  8.1206   7
   5   2  -4 38.5550  8.7021   7
  -5   2   4 42.4341  8.6843   1
   5   2  -4 20.2740  9.6183   5
   5   2  -4 34.8121 10.2654   6
  -5   2   4 42.2808  8.0170   7
   5   2  -4 34.8740  9.4238   3
   4  -2  -4 21.8592  6.6323   7
  -4  -2   4 30.8180  8.5564   1
   4  -2  -4 15.4532  8.1447   6
   4   2  -4 28.8186  9.3232   5
  -4   2   4 13.0439  7.1681   1
   4   2  -4 27.7879  8.5366   6
   4   2  -4 14.9974  6.8706   7
   4   2  -4 28.3649  8.0170   3
  -4   2   4 30.8483  7.0455   7
   3  -2  -4 12.8177  7.0484   3
   3  -2  -4 2.39920 5.29702   7
   3  -2  -4 -3.6944  7.1707   6
  -3  -2   4 -7.0329  7.1303   1
   3   2  -4 5.85269 6.84269   6
   3   2  -4 7.97490 8.04938   5
   3   2  -4 5.19089 6.90594   3
  -3   2   4 8.30105 6.63755   1
   3   2  -4 1.30158 5.04912   7
   3   2  -4 12.9622  7.4375   2
   2  -2  -4 921.316  25.196   3
   2  -2  -4 909.391  25.373   6
   2  -2  -4 932.603  22.954   7
   2   2  -4 915.423  23.290   6
   2   2  -4 931.369  24.741   3
   2   2  -4 924.620  24.826   2
  -2   2   4 932.866  24.123   1
   2   2  -4 978.938  19.138   7
   1  -2  -4 65.8365  8.7237   2
   1  -2  -4 51.9533  8.5665   6
   1  -2  -4 66.9378  7.8687   3
   1  -2  -4 64.2008  8.6820   4
   1  -2  -4 86.8704  6.9137   7
   1   2  -4 63.7977  6.5429   6
   1   2  -4 75.4046  8.2771   2
   1   2  -4 65.1993  7.8241   3
   0  -2  -4 58.5191  7.0877   3
   0  -2  -4 54.2398  8.7677   2
   0  -2  -4 47.4620  8.6729   6
   0  -2  -4 37.4848  7.7095   4
   0  -2  -4 60.9646  6.1538   7
   0   2  -4 49.0517  7.6075   3
   0   2  -4 43.5215  7.6521   2
   0   2  -4 49.6256  4.1765   6
  -1  -2  -4 -2.4551  4.9518   7
  -1  -2  -4 -3.8989  6.7858   2
  -1  -2  -4 -14.167   7.373   6
  -1  -2  -4 9.49971 5.90779   3
  -1   2  -4 -6.4726  5.8879   2
  -2  -2  -4 1152.65   27.39   7
   2  -2   4 1128.05   22.44   6
  -2  -2  -4 1145.02   29.95   6
  -2   2  -4 1181.69   22.68   7
   3  -2   4 12.2176  4.5553   6
  -3  -2  -4 12.7119  6.5041   7
  -3   2  -4 14.0447  6.4141   1
  -3   2  -4 11.1096  4.7193   7
   4  -2   4 3.07889 5.58726   6
  -4  -2  -4 -3.1596  6.6702   7
   4   2   4 7.77796 7.83307   7
  -4   2  -4 1.51981 5.98579   1
  -4   2  -4 -0.7199  5.0459   7
   4   2   4 7.83126 9.48612   6
  -5  -2  -4 5.53262 7.19157   7
   5  -2   4 23.8668  7.4467   6
   5   2   4  5.8424 10.1621   6
   5   2   4 20.4594  8.9867   7
  -5   2  -4 8.91325 6.11116   7
  -5   2  -4 20.1894  7.3391   1
   5   2   4 7.19302 7.43793   5
   6  -2   4 775.309  23.725   6
  -6  -2  -4 780.380  25.554   7
   6   2   4 764.626  27.270   7
  -6   2  -4 790.071  24.104   1
  -6   2  -4 795.753  23.830   7
   6   2   4 785.790  30.307   6
   6   2   4 773.439  25.472   5
   7  -2   4 -8.9223  9.0568   6
  -7  -2  -4 3.22444 8.51386   7
   7   2   4  2.0134 12.1996   6
  -7   2  -4 14.8617  8.2269   7
  -7   2  -4 -12.742   8.388   1
  -8  -2  -4 28.2192 10.4189   7
   8  -2   4  2.5886 10.5016   6
  -8   2  -4 32.0497  9.5214   7
  -8   2  -4 34.4267 10.7615   1
   8   2   4  7.8873 14.3029   6
  -9  -2  -4 23.3144 10.7759   7
   9   2   4 -0.8382 14.9136   6
  -9   2  -4 15.5978  9.7342   7
 -10  -2  -4 394.651  23.276   7
  10   2   4 509.986  30.053   6
 -10   2  -4 383.760  22.305   7
 -11  -2  -4  0.3441 11.3978   7
  11   2   4 15.3639 17.5549   6
 -11   2  -4 31.2814 12.0630   7
 -12  -2  -4 40.1763 14.1674   7
 -12   2  -4 28.5469 13.0972   7
 -12  -3   4 324.334  28.180   1
  12  -3  -4 305.732  25.632   7
  12   3  -4 306.699  26.189   7
  12   3  -4 377.384  31.900   3
 -12   3   4 357.576  28.809   1
 -11  -3   4 30.0371 15.9764   1
  11  -3  -4 30.9925 14.0150   7
 -11   3   4 34.5696 15.2428   1
  11   3  -4 18.9040 17.5738   3
  11   3  -4 54.5574 16.2030   7
 -10  -3   4 175.846  20.306   1
  10  -3  -4 191.557  21.027   6
  10  -3  -4 180.028  18.827   7
 -10   3   4 166.399  19.778   1
  10   3  -4 151.675  19.019   7
  10   3  -4 196.292  22.959   6
  10   3  -4 211.947  22.980   3
  -9  -3   4 383.244  23.968   1
   9  -3  -4 349.316  21.867   7
   9  -3  -4 303.916  22.363   6
   9   3  -4 356.511  24.992   3
   9   3  -4 321.330  22.547   7
  -9   3   4 339.232  22.998   1
   9   3  -4 331.771  24.593   6
  -8  -3   4 729.494  30.083   1
   8  -3  -4 712.420  27.410   7
   8  -3  -4 685.707  29.945   6
   8   3  -4 742.976  32.682   5
   8   3  -4 633.791  30.068   3
   8   3  -4 746.260  29.365   7
  -8   3   4 715.581  29.233   1
   8   3  -4 693.666  30.885   6
   7  -3  -4 99.5030 13.8981   6
  -7  -3   4 104.660  14.439   1
   7  -3  -4 94.8707 12.3786   7
  -7   3   4 89.4005 13.2893   1
   7   3  -4 94.1195 15.3751   6
  -7   3   4 100.714  12.745   7
   7   3  -4 114.588  16.445   5
   7   3  -4 94.8210 14.6675   3
   7   3  -4 91.3904 13.2642   7
  -6  -3   4 307.151  19.053   1
   6  -3  -4 352.871  19.081   6
   6  -3  -4 340.822  17.469   7
  -6   3   4 354.078  19.080   1
   6   3  -4 313.743  20.929   5
  -6   3   4 379.437  18.286   7
   6   3  -4 311.423  19.387   6
   6   3  -4 323.171  18.276   7
   6   3  -4 360.887  19.777   3
  -5  -3   4 740.061  26.825   1
   5  -3  -4 726.327  23.446   7
   5  -3  -4 740.614  25.667   6
  -5   3   4 722.424  23.590   7
   5   3  -4 753.252  23.650   7
   5   3  -4 740.830  25.815   6
  -5   3   4 727.542  25.244   1
   5   3  -4 687.232  27.334   5
   5   3  -4 771.574  24.959   3
   4  -3  -4 1063.35   29.19   7
   4  -3  -4 1133.60   26.29   2
  -4  -3   4 1111.65   32.82   1
   4  -3  -4 1150.05   32.02   6
   4   3  -4 1191.08   30.76   3
   4   3  -4 1105.29   30.99   6
  -4   3   4 1133.31   29.91   7
   4   3  -4 1081.33   33.92   5
  -4   3   4 1131.71   31.04   1
   4   3  -4 1137.61   28.06   7
   3  -3  -4 306.266  15.137   3
   3  -3  -4 353.493  14.341   7
   3  -3  -4 299.043  16.155   6
   3  -3  -4 322.562  13.333   2
   3   3  -4 304.382  17.817   5
   3   3  -4 332.832  14.664   3
  -3   3   4 301.983  14.116   7
   3   3  -4 289.400  15.139   6
  -3   3   4 307.145  14.776   1
   3   3  -4 327.847  12.075   7
   2  -3  -4 635.457  20.425   4
   2  -3  -4 631.633  19.279   7
   2  -3  -4 676.036  19.883   2
   2  -3  -4 655.371  20.191   3
   2  -3  -4 642.064  21.525   6
   2   3  -4 616.902  22.090   5
   2   3  -4 665.017  15.832   7
  -2   3   4 627.748  19.656   7
  -2   3   4 622.060  19.695   1
   2   3  -4 634.292  19.516   6
   2   3  -4 634.784  19.212   3
   1  -3  -4 1064.17   28.88   6
   1  -3  -4 1039.64   26.38   7
   1  -3  -4 1064.93   27.94   4
   1  -3  -4 1036.43   26.15   3
   1  -3  -4 1084.26   28.14   2
   1   3  -4 1126.43   25.70   6
   1   3  -4 1115.60   28.55   2
  -1   3   4 1092.71   26.93   7
  -1   3   4 1034.13   26.31   1
   1   3  -4 1106.13   21.63   7
   1   3  -4 1054.85   26.72   3
   0  -3  -4 1106.32   26.16   3
   0  -3  -4 1098.48   29.61   6
   0  -3  -4 1167.33   27.28   7
   0  -3  -4 1080.76   28.13   4
   0   3   4 1072.40   26.08   1
   0   3  -4 1118.33   21.34   7
   0   3  -4 1136.76   28.15   2
   0   3  -4 1103.41   27.56   3
   0   3  -4 1133.51   24.54   6
  -1  -3  -4 492.474  16.885   7
  -1  -3  -4 502.085  15.364   3
  -1  -3  -4 521.313  19.502   6
   1   3   4 453.601  17.006   7
  -1   3  -4 495.874  17.739   1
  -1   3  -4 540.996  17.312   2
  -1   3  -4 512.284  11.713   7
  -2  -3  -4 732.515  21.738   7
  -2  -3  -4 743.976  22.126   7
   2  -3   4 722.294  16.597   6
  -2  -3  -4 699.453  24.004   6
  -2   3  -4 711.901  20.042   2
  -2   3  -4 749.463  17.112   7
   2   3   4 760.629  23.160   7
  -2   3  -4 760.882  21.909   1
   3  -3   4 608.945  15.515   6
  -3  -3  -4 648.545  21.119   7
   3  -3   4 632.526  14.735   4
  -3   3  -4 607.970  16.275   7
  -3   3  -4 607.676  19.784   1
   3   3   4 611.324  21.673   7
  -3   3  -4 588.776  17.286   2
   4  -3   4 500.857  13.944   4
   4  -3   4 522.591  15.364   6
  -4  -3  -4 495.148  16.556   1
  -4  -3  -4 449.588  19.225   7
   4   3   4 516.988  21.239   7
  -4   3  -4 535.223  19.065   1
   4   3   4 515.414  19.645   5
  -4   3  -4 514.299  16.129   7
  -5  -3  -4 365.834  18.236   7
   5  -3   4 335.401  14.624   6
  -5  -3  -4 392.410  15.161   1
   5   3   4 364.418  21.431   6
   5   3   4 396.480  19.772   7
  -5   3  -4 351.144  16.565   1
  -5   3  -4 376.606  15.130   7
   5   3   4 381.279  18.183   5
  -6  -3  -4 416.338  19.661   7
   6  -3   4 403.294  16.808   6
  -6   3  -4 388.281  16.931   7
   6   3   4 378.880  22.584   6
   6   3   4 370.049  19.540   5
  -6   3  -4 416.974  18.885   1
   6   3   4 376.532  21.553   7
  -7  -3  -4 195.667  16.149   7
   7   3   4 190.327  16.364   5
  -7   3  -4 209.229  14.278   7
  -7   3  -4 182.596  15.398   1
   7   3   4 196.534  19.910   6
  -8  -3  -4 196.062  16.936   7
   8   3   4 215.333  19.086   5
   8   3   4 201.848  21.301   6
  -8   3  -4 248.842  18.501   1
  -8   3  -4 209.862  16.055   7
  -9  -3  -4 212.030  18.175   7
  -9   3  -4 203.718  17.046   7
   9   3   4 122.171  21.294   6
 -10  -3  -4 117.314  16.004   7
  10   3   4 109.566  20.339   6
 -10   3  -4 120.513  15.199   7
 -11  -3  -4 27.8820 13.3471   7
 -11   3  -4 46.4676 12.9142   7
 -12  -3  -4 82.5966 16.2299   7
 -12   3  -4 65.4306 14.7700   7
  12  -4  -4 33.8945 15.2496   7
 -12  -4   4 50.0008 18.1233   1
  12   4  -4 48.6832 15.8959   7
 -12   4   4 72.4520 18.9247   1
 -11  -4   4 -8.5117 13.6216   1
  11  -4  -4 13.7757 13.1429   7
 -11   4   4 -1.1571 13.8440   1
  11   4  -4  5.7219 13.1443   7
 -10  -4   4 -6.9932 12.8595   1
  10  -4  -4 -3.3845 11.2809   7
  10  -4  -4 -32.436  13.135   6
  10   4  -4  2.9534 12.6741   7
  10   4  -4 16.8605 17.5880   6
 -10   4   4 12.5986 13.5562   1
   9  -4  -4  6.1395 12.4890   6
  -9  -4   4  1.1586 12.6499   1
   9  -4  -4  8.5139 10.8758   7
   9   4  -4 -27.634  14.560   6
   9   4  -4  7.8596 14.6261   5
   9   4  -4  8.8876 11.7319   7
  -9   4   4  4.1362 12.0144   1
  -8  -4   4 58.3205 14.2203   1
   8  -4  -4 62.2135 14.0935   6
   8  -4  -4 60.5948 12.7615   7
   8   4  -4 80.5979 13.8148   7
   8   4  -4 52.2583 15.7920   5
  -8   4   4 65.3518 12.9355   7
   8   4  -4 51.2005 14.0613   3
  -8   4   4 47.2692 13.6389   1
   8   4  -4 64.2103 17.5549   6
  -7  -4   4  4.9247 11.1282   1
   7  -4  -4 -0.0452  9.1454   7
   7  -4  -4  3.4235 10.8197   6
  -7   4   4  7.1017 10.1493   1
   7   4  -4 -2.1482 11.9947   5
   7   4  -4 -7.0321  9.5822   7
   7   4  -4 -16.467  12.429   6
  -7   4   4 -10.912   8.642   7
   7   4  -4 15.3894 10.8663   3
  -6  -4   4 -2.5660 10.1001   1
   6  -4  -4 -15.164   7.423   7
   6  -4  -4 -1.5512  9.6622   6
   6   4  -4  6.9541 12.3214   6
  -6   4   4 13.1601  8.8955   7
   6   4  -4 -9.0768  9.1777   3
   6   4  -4 -3.2045  8.7736   7
   6   4  -4  1.7990 11.5063   5
  -6   4   4 -1.2012  9.1390   1
   5  -4  -4 -4.4779  7.3031   7
   5  -4  -4 -1.9791  9.3149   6
  -5  -4   4 -4.4193  8.8825   1
   5   4  -4 0.51636 7.23454   7
  -5   4   4 -14.028   7.686   1
   5   4  -4 -31.102   9.047   5
   5   4  -4 16.9518  8.7400   3
  -5   4   4 -3.6594  7.6070   7
   5   4  -4  5.0383 10.5158   6
   4  -4  -4 47.6954  8.6014   7
   4  -4  -4 36.1295  9.5610   4
   4  -4  -4 48.3695  7.8498   2
   4  -4  -4 43.5075 10.4749   6
  -4  -4   4 55.9300 11.1327   1
   4   4  -4 28.3079  8.0907   3
   4   4  -4 36.6710 11.3866   5
   4   4  -4 27.3151  7.2623   7
  -4   4   4 40.0672  8.5500   7
  -4   4   4 60.3589 10.3147   1
   4   4  -4 43.6875 10.6577   6
   3  -4  -4 23.0237  7.3290   7
   3  -4  -4 12.1811  8.8222   6
   3  -4  -4 11.7556  7.4576   2
   3  -4  -4 10.4387  7.7490   4
   3  -4  -4 13.4602  7.4942   3
  -3   4   4 11.0239  6.8874   7
   3   4  -4 15.7234  5.9980   7
   3   4  -4 22.4937  9.5665   5
  -3   4   4 11.5524  7.7268   1
   3   4  -4 8.89230 6.59278   3
   3   4  -4 17.4549  9.2607   6
   2  -4  -4 -5.1345  7.5883   4
   2  -4  -4 -3.4611  5.9094   3
   2  -4  -4 -1.1408  5.8250   7
   2  -4  -4 2.44555 8.26466   6
   2  -4  -4 -6.9506  7.0990   2
   2   4  -4 7.70243 6.12760   3
  -2   4   4 -0.4716  6.6179   1
  -2   4   4 2.71395 6.46777   7
   2   4  -4 5.40893 4.63434   7
   2   4  -4 3.60801 8.00201   5
   2   4  -4 -14.874   7.954   6
   1  -4  -4 14.3701  8.4990   6
   1  -4  -4 4.58415 5.50211   3
   1  -4  -4 3.94940 6.25029   7
   1  -4  -4 12.1044  8.1370   4
  -1   4   4 3.74247 6.36966   7
   1   4  -4 6.54064 4.26446   7
  -1   4   4 -0.1275  5.9851   1
   1   4  -4 0.42024 7.35206   5
   1   4  -4 5.33885 7.41374   6
   1   4  -4 5.43144 5.93521   3
   0  -4  -4 15.1184  6.8456   7
   0  -4  -4 9.07931 5.19225   3
   0  -4  -4 5.65811 7.69006   6
   0   4  -4 10.2915  7.4352   5
   0   4  -4 9.80194 4.22719   7
   0   4   4 9.55055 6.33991   7
   0   4   4 3.46422 6.12296   1
   0   4  -4 8.54811 7.83885   1
  -1  -4  -4 20.4904  9.3409   6
  -1  -4  -4 39.6207  5.7326   3
  -1  -4  -4 27.8156  7.6083   7
   1   4   4 21.3366  7.5111   7
  -1   4  -4 23.3235  8.1866   1
   1   4   4 30.0716  6.8962   1
  -1   4  -4 30.7077  4.9142   7
   2  -4   4 22.5780  5.7958   6
  -2  -4  -4 21.2684 10.2780   6
  -2  -4  -4 20.0168  7.6091   7
  -2  -4  -4 24.5459  7.7309   7
  -2   4  -4 24.1795  4.8593   7
   2   4   4 17.3219  6.5213   1
  -2   4  -4 18.3610  7.7517   1
   2   4   4 29.8169  7.7779   5
   2   4   4 22.7158  7.8296   7
  -3  -4  -4 11.1265  7.9554   7
   3  -4   4 7.22179 5.61808   6
  -3   4  -4 14.7568  5.5277   7
   3   4   4 -5.2286  7.8505   7
   3   4   4 10.8560  7.5429   5
  -3   4  -4 10.6457  7.8478   1
  -4  -4  -4 10.3993  8.4103   7
   4   4   4 10.0340  8.1802   5
  -4   4  -4 17.1482  8.2817   1
   4   4   4 14.9046  9.1210   7
  -4   4  -4 14.9639  5.9363   7
  -5  -4  -4 3.84971 8.68860   7
  -5   4  -4 17.5983  8.8017   1
  -5   4  -4 15.7706  6.7991   7
   5   4   4 24.7989 10.5845   7
   5   4   4 23.1348  9.4834   5
   5   4   4 21.7622 11.8159   6
  -6  -4  -4 48.3942 11.2047   7
  -6   4  -4 34.6020  8.5937   7
   6   4   4 53.0729 13.4646   6
  -6   4  -4 38.9698 10.4229   1
   6   4   4 43.7561 12.4134   7
   6   4   4 33.6145 11.0087   5
  -7  -4  -4 43.3091 11.4681   7
   7   4   4 56.7834 15.1042   6
  -7   4  -4 40.3779  9.7056   7
   7   4   4 57.6213 12.8466   5
  -7   4  -4 54.5193 12.1089   1
   7   4   4 45.2126 13.6439   7
  -8  -4  -4 37.8420 12.0122   7
   8   4   4 33.8713 13.1484   5
  -8   4  -4 33.9940 12.6309   1
   8   4   4 20.6684 15.3857   6
  -8   4  -4 36.9231 10.4358   7
  -9  -4  -4 -6.4438 10.5339   7
  -9   4  -4 10.0628  9.8548   7
   9   4   4 18.8363 16.1744   6
  -9   4  -4 17.1097 12.4660   1
 -10  -4  -4 33.9739 13.0415   7
  10   4   4 18.2177 17.9154   6
 -10   4  -4  8.9123 10.7380   7
 -11  -4  -4 30.9807 13.3492   7
 -11   4  -4 41.6185 13.3434   7
 -12  -4  -4 33.2946 14.6420   7
 -12   4  -4 50.5635 14.1201   7
  11  -5  -4 66.9065 15.8356   7
 -11  -5   4 92.1371 17.7554   1
  11   5  -4 63.7585 15.5666   7
 -11   5   4 76.7020 18.1023   1
 -10  -5   4 284.306  25.036   1
  10  -5  -4 262.747  22.268   7
 -10   5   4 275.438  24.702   1
  10   5  -4 297.830  27.902   5
  10   5  -4 331.262  23.273   7
  -9  -5   4 102.339  17.910   1
   9  -5  -4 145.881  17.310   7
   9  -5  -4 154.963  19.572   6
   9   5  -4 128.894  21.866   6
  -9   5   4 144.958  19.114   1
   9   5  -4 141.297  20.809   5
   9   5  -4 128.272  17.091   7
   8  -5  -4 1084.54   38.69   6
  -8  -5   4 1161.91   40.34   1
   8  -5  -4 1126.04   37.23   7
   8   5  -4 1189.21   43.56   6
  -8   5   4 1083.76   39.54   1
   8   5  -4 1099.78   36.59   7
  -8   5   4 1124.72   38.00   7
   8   5  -4 1158.08   43.79   5
  -7  -5   4 297.537  22.788   1
   7  -5  -4 346.064  22.675   6
   7  -5  -4 353.435  20.522   4
   7  -5  -4 327.931  19.574   7
   7   5  -4 291.158  19.052   7
   7   5  -4 324.144  25.197   5
  -7   5   4 318.985  20.257   7
  -7   5   4 331.941  22.444   1
   7   5  -4 286.509  23.941   6
   6  -5  -4 536.726  23.670   4
   6  -5  -4 485.085  24.227   6
  -6  -5   4 513.102  25.466   1
   6  -5  -4 520.893  22.911   7
   6   5  -4 495.947  21.749   7
  -6   5   4 526.623  23.479   7
   6   5  -4 487.229  27.366   6
   6   5  -4 522.104  28.507   5
  -6   5   4 544.993  25.177   1
   5  -5  -4 373.937  19.374   7
  -5  -5   4 366.369  21.831   1
   5  -5  -4 360.903  19.820   4
   5  -5  -4 352.833  20.752   6
   5   5  -4 348.522  23.448   5
   5   5  -4 361.145  17.735   7
   5   5  -4 365.034  21.864   6
  -5   5   4 383.206  21.018   1
  -5   5   4 403.450  19.736   7
   4  -5  -4 1099.01   32.93   4
   4  -5  -4 1074.69   31.27   3
   4  -5  -4 1142.99   34.28   6
   4  -5  -4 1051.54   32.19   7
   4   5  -4 1124.22   35.26   6
  -4   5   4 1081.82   32.19   7
   4   5  -4 1101.41   29.17   7
   4   5  -4 1077.59   36.44   5
  -4   5   4 1024.12   32.66   1
   3  -5  -4 618.419  23.018   4
   3  -5  -4 579.164  21.788   7
   3  -5  -4 564.659  20.128   3
   3  -5  -4 555.276  23.230   6
   3  -5  -4 585.265  20.726   2
   3   5  -4 557.300  18.410   7
   3   5  -4 556.135  24.963   5
  -3   5   4 555.617  21.637   7
   3   5  -4 570.147  23.659   6
  -3   5   4 547.220  22.037   1
   2  -5  -4 809.909  26.287   4
   2  -5  -4 783.561  27.004   6
   2  -5  -4 781.076  25.101   7
   2  -5  -4 800.762  22.571   3
   2   5  -4 800.072  27.900   5
  -2   5   4 812.011  25.886   7
   2   5  -4 777.498  26.461   6
  -2   5   4 755.346  25.347   1
   2   5  -4 794.892  21.560   7
   1  -5  -4 578.436  22.372   6
   1  -5  -4 535.309  21.643   4
   1  -5  -4 551.690  20.183   7
  -1   5   4 581.425  21.236   7
  -1   5   4 516.734  20.167   1
   1   5  -4 534.128  20.300   6
   1   5  -4 493.505  21.646   5
   1   5  -4 542.037  16.382   7
   0  -5  -4 588.589  23.292   6
   0  -5  -4 602.334  21.955   7
   0   5   4 574.147  21.733   7
   0   5   4 565.397  20.107   1
   0   5  -4 591.949  23.076   1
   0   5  -4 612.847  16.997   7
   0   5  -4 603.456  22.775   5
  -1  -5  -4 414.424  20.634   6
  -1  -5  -4 407.009  18.608   7
  -1   5  -4 418.050  13.915   7
   1   5   4 375.774  16.746   1
   1   5   4 363.586  18.138   7
  -1   5  -4 405.518  19.020   1
  -2  -5  -4 744.087  27.939   6
  -2  -5  -4 792.678  26.811   7
  -2  -5  -4 767.533  26.520   7
   2   5   4 743.114  23.270   1
  -2   5  -4 747.326  20.352   7
   2   5   4 745.654  25.635   7
  -2   5  -4 760.019  26.116   1
   2   5   4 738.837  24.920   5
  -3  -5  -4 347.609  19.086   7
   3   5   4 352.250  19.027   7
   3   5   4 331.669  17.667   5
  -3   5  -4 341.271  13.891   7
  -3   5  -4 305.463  17.475   1
  -4  -5  -4 288.784  18.913   7
  -4   5  -4 316.284  18.112   1
  -4   5  -4 325.430  14.535   7
   4   5   4 322.047  19.482   7
   4   5   4 335.784  18.623   5
  -5  -5  -4 116.575  14.462   7
   5   5   4 180.989  18.879   6
  -5   5  -4 156.372  14.996   1
   5   5   4 156.844  16.600   7
   5   5   4 159.610  15.765   5
  -5   5  -4 151.716  12.035   7
  -6  -5  -4 462.306  23.456   7
   6   5   4 423.361  25.529   6
   6   5   4 445.281  23.740   5
   6   5   4 443.399  25.022   7
  -6   5  -4 456.403  19.224   7
  -6   5  -4 483.785  23.409   1
  -7  -5  -4 77.9511 13.6526   7
   7   5   4 87.1630 15.7501   7
  -7   5  -4 88.1630 11.2718   7
   7   5   4 79.6014 14.4969   5
  -7   5  -4 72.2897 13.5049   1
   7   5   4 77.5035 17.3672   6
  -8  -5  -4 273.408  20.393   7
   8   5   4 272.060  25.133   6
  -8   5  -4 266.329  20.981   1
  -8   5  -4 224.216  17.379   7
   8   5   4 263.548  22.206   5
  -9  -5  -4 127.280  16.446   7
  -9   5  -4 68.5367 13.0470   7
  -9   5  -4 84.0481 16.1968   1
   9   5   4 125.210  21.984   6
 -10  -5  -4 184.305  19.600   7
 -10   5  -4 199.675  18.044   7
 -11  -5  -4  6.6164 13.5573   7
 -11   5  -4 11.1211 11.9916   7
 -11  -6   4 24.2710 15.9654   1
  11  -6  -4 -4.2222 12.9280   7
 -11   6   4 25.7444 16.0518   1
  11   6  -4  1.3169 16.9142   5
  11   6  -4  6.7604 13.5151   7
 -10  -6   4 49.6750 16.8864   1
  10  -6  -4 60.3916 15.4102   7
 -10   6   4 79.7367 18.0325   1
  10   6  -4 60.5070 14.3045   7
  10   6  -4 73.6015 19.2838   5
  -9  -6   4 31.9881 14.7475   1
   9  -6  -4 38.2191 16.7402   6
   9  -6  -4 25.2499 12.6415   7
   9   6  -4 36.7831 20.2380   6
   9   6  -4 20.0710 12.3485   7
   9   6  -4 32.0575 16.1084   5
  -9   6   4 35.1734 15.0760   1
  -9   6   4 21.3899 13.9640   7
   8  -6  -4 66.5026 15.7598   6
   8  -6  -4 84.8766 15.3006   7
   8  -6  -4 78.2989 15.7555   4
  -8  -6   4 76.2618 16.6265   1
   8   6  -4 86.3292 19.1819   5
  -8   6   4 59.0198 14.1958   7
  -8   6   4 106.714  16.842   1
   8   6  -4 52.9115 19.5105   6
   8   6  -4 65.2341 13.3321   7
  -7  -6   4  9.5212 12.5200   1
   7  -6  -4 45.2994 13.6059   4
   7  -6  -4 21.1765 11.3360   7
   7  -6  -4 51.8415 14.5402   6
  -7   6   4 30.7266 13.3287   1
  -7   6   4 16.3340 11.8501   7
   7   6  -4 61.8017 16.9081   5
   7   6  -4 66.0039 18.3167   6
   7   6  -4 41.5871 11.7317   7
  -6  -6   4 86.3673 15.9893   1
   6  -6  -4 81.8703 14.2657   4
   6  -6  -4 66.1201 14.1054   6
   6  -6  -4 70.5859 13.1738   7
   6   6  -4 32.2323 14.3991   5
  -6   6   4 91.8542 15.0610   1
  -6   6   4 73.1776 12.7939   7
   6   6  -4 48.4121 11.2278   7
   6   6  -4 45.4314 16.5710   6
   5  -6  -4 178.677  17.389   6
   5  -6  -4 157.144  16.231   4
   5  -6  -4 166.454  15.954   7
   5   6  -4 162.167  19.001   6
   5   6  -4 181.192  14.341   7
  -5   6   4 178.664  17.079   1
  -5   6   4 188.556  16.683   7
   5   6  -4 155.683  19.140   5
   4  -6  -4 167.437  15.353   7
   4  -6  -4 141.415  15.180   4
   4  -6  -4 178.922  17.036   6
  -4   6   4 166.406  15.168   7
   4   6  -4 162.550  17.483   5
   4   6  -4 156.235  12.387   7
  -4   6   4 157.086  15.821   1
   4   6  -4 148.234  17.660   6
   3  -6  -4 47.6613 11.2375   4
   3  -6  -4 53.9446 12.3549   6
   3  -6  -4 34.2318  9.7173   7
   3   6  -4 42.3612 13.0077   6
   3   6  -4 30.7915 12.0041   5
   3   6  -4 33.9767  7.8030   7
  -3   6   4 44.5390 10.2510   7
  -3   6   4 54.9798 10.9510   1
   2  -6  -4 102.990  12.434   7
   2  -6  -4 100.778  13.820   6
   2  -6  -4 90.4435 12.9075   4
   2   6  -4 117.904  14.632   6
  -2   6   4 98.2825 12.4222   1
  -2   6   4 116.947  12.894   7
   2   6  -4 98.2571  9.5036   7
   2   6  -4 98.0398 13.9378   5
   1  -6  -4 271.808  19.295   6
   1  -6  -4 308.901  17.231   7
   1   6  -4 293.053  18.740   5
   1   6  -4 275.219  17.451   6
  -1   6   4 265.172  16.843   7
   1   6  -4 278.056  13.327   7
  -1   6   4 261.903  16.492   1
   0  -6  -4 319.210  18.086   7
   0  -6  -4 280.908  18.712   6
   0   6   4 315.379  17.672   7
   0   6  -4 277.514  18.595   1
   0   6  -4 277.092  18.221   5
   0   6  -4 307.924  13.622   7
   0   6   4 293.605  16.325   1
  -1  -6  -4 33.6619 10.1509   7
  -1  -6  -4 37.9287 11.7252   6
  -1   6  -4 12.3651  9.3340   1
   1   6   4 18.7680  8.9711   5
   1   6   4 9.09715 8.74711   7
  -1   6  -4 22.2362  9.9543   5
   1   6   4 19.9796  8.4193   1
  -1   6  -4 13.9165  6.6511   7
  -2  -6  -4 249.560  19.330   6
  -2  -6  -4 223.253  17.323   7
   2   6   4 223.808  17.103   7
  -2   6  -4 236.936  12.892   7
  -2   6  -4 206.905  16.758   1
   2   6   4 207.924  15.426   1
   2   6   4 228.375  16.388   5
  -3  -6  -4 120.688  14.329   7
  -3  -6  -4 144.589  15.571   7
  -3   6  -4 118.868  10.356   7
  -3   6  -4 137.271  14.728   1
   3   6   4 130.256  14.586   7
   3   6   4 120.661  14.092   5
  -4  -6  -4 220.840  18.706   7
   4   6   4 207.472  18.221   7
  -4   6  -4 252.729  14.248   7
  -4   6  -4 225.184  17.974   1
   4   6   4 236.132  18.283   5
  -5  -6  -4 -7.2759  9.9917   7
   5   6   4 20.1053 11.5825   7
  -5   6  -4 16.7322 10.4866   1
  -5   6  -4 3.73855 7.39876   7
   5   6   4 14.1411 11.2874   5
  -6  -6  -4 287.874  21.056   7
   6   6   4 322.681  23.171   7
   6   6   4 288.753  24.468   6
  -6   6  -4 305.589  21.290   1
   6   6   4 271.276  21.642   5
  -6   6  -4 319.723  17.652   7
  -7  -6  -4 19.3317 11.9148   7
  -7   6  -4 7.59611 9.07586   7
  -7   6  -4 13.2051 12.5224   1
   7   6   4 22.7158 13.6160   7
   7   6   4 11.9072 14.8510   6
   7   6   4 37.6945 14.1010   5
  -8  -6  -4 30.7829 13.1074   7
   8   6   4 59.8836 15.5337   5
  -8   6  -4 35.5910 11.0120   7
   8   6   4 37.2128 17.0867   6
  -8   6  -4 56.4620 15.5765   1
  -9  -6  -4 -24.489  11.235   7
  -9   6  -4 44.0290 15.5945   1
  -9   6  -4 18.7033 10.8929   7
 -10   6  -4 248.668  20.140   7
 -11  -6  -4 25.0722 14.3017   7
 -11   6  -4 12.9080 12.4033   7
  10  -7  -4 123.382  18.760   7
 -10  -7   4 119.965  20.353   1
  10   7  -4 119.485  17.578   7
 -10   7   4 133.457  19.411   7
 -10   7   4 94.1541 19.3196   1
  10   7  -4 106.926  21.984   5
   9  -7  -4 23.2473 14.4806   7
  -9  -7   4 18.1951 14.7942   1
   9   7  -4 27.6691 12.8210   7
  -9   7   4 31.4756 13.6985   7
   9   7  -4  9.0335 16.3877   5
  -9   7   4 60.6188 17.2950   1
   8  -7  -4 400.260  26.310   6
   8  -7  -4 447.960  25.963   7
  -8  -7   4 387.319  27.566   1
   8   7  -4 393.146  30.112   5
   8   7  -4 427.344  24.230   7
  -8   7   4 389.236  25.065   7
  -8   7   4 400.124  26.572   1
   8   7  -4 419.538  30.060   6
   7  -7  -4  1.2193 12.6035   4
   7  -7  -4 -3.3877 12.8227   6
  -7  -7   4 30.4492 14.9154   1
   7  -7  -4  4.6685 11.2166   7
  -7   7   4 -14.517  10.789   7
  -7   7   4 -2.1802 13.1320   1
   7   7  -4 -9.2848 13.8618   5
   7   7  -4 15.8495 11.2487   7
   7   7  -4 44.0757 19.0467   6
   6  -7  -4 196.555  20.580   6
  -6  -7   4 181.805  20.588   1
   6  -7  -4 218.916  19.986   4
   6  -7  -4 200.393  19.128   7
   6   7  -4 220.248  23.462   6
   6   7  -4 214.473  17.532   7
   6   7  -4 210.267  23.320   5
  -6   7   4 172.677  19.402   1
  -6   7   4 247.389  19.958   7
   5  -7  -4  9.1168 12.7906   6
   5  -7  -4 -1.9331 10.6539   7
   5  -7  -4 -6.9713 11.2308   4
   5   7  -4 -1.7942  8.5695   7
  -5   7   4 -3.3733 11.0167   1
  -5   7   4 -2.4780  9.8157   7
   5   7  -4  3.7004 13.0042   5
   5   7  -4 10.7509 15.6894   6
   4  -7  -4 1054.64   36.07   7
   4  -7  -4 1141.10   38.47   6
   4  -7  -4 1070.12   36.07   4
  -4   7   4 1158.20   37.45   1
   4   7  -4 1136.52   39.42   6
   4   7  -4 1087.84   31.64   7
   4   7  -4 1107.22   40.63   5
  -4   7   4 1084.46   35.92   7
   3  -7  -4 61.7283 13.2166   4
   3  -7  -4 39.3783 10.9889   7
   3  -7  -4 56.2190 13.4334   6
   3   7  -4 57.7939  9.7768   7
  -3   7   4 69.0835 13.0957   1
   3   7  -4 49.9486 14.0980   5
   3   7  -4 54.5607 14.6861   6
  -3   7   4 59.3732 11.7158   7
   2  -7  -4 400.949  21.429   7
   2  -7  -4 367.989  22.216   6
  -2   7   4 407.500  21.447   7
  -2   7   4 380.212  21.516   1
   2   7  -4 406.572  17.266   7
   2   7  -4 400.274  23.607   5
   1  -7  -4 26.9011 11.7395   6
   1  -7  -4 -2.4671  9.1587   7
   1   7  -4 15.7519 11.4683   5
  -1   7   4 -4.4430  8.6899   7
   1   7  -4 5.29229 7.17407   7
  -1   7   4 9.85400 9.78992   1
   0  -7  -4 1419.41   40.90   7
   0  -7  -4 1361.09   42.40   6
   0   7  -4 1343.46   33.83   7
   0   7  -4 1321.74   41.36   1
   0   7   4 1380.17   39.46   7
   0   7   4 1348.48   38.63   1
   0   7  -4 1285.49   40.85   5
  -1  -7  -4 382.632  23.168   6
  -1  -7  -4 299.951  21.498   7
  -1   7  -4 331.746  20.985   1
   1   7   4 325.331  20.161   7
   1   7   4 347.114  19.553   1
  -1   7  -4 325.504  20.938   5
  -1   7  -4 329.543  15.420   7
   1   7   4 353.525  20.459   5
  -2  -7  -4 571.808  27.282   7
   2   7   4 554.489  24.089   1
  -2   7  -4 597.469  20.617   7
   2   7   4 597.289  25.906   7
  -2   7  -4 540.431  26.381   1
   2   7   4 582.903  25.719   5
  -3  -7  -4 -5.6094 11.3063   7
  -3  -7  -4 29.1750 12.1035   7
   3   7   4 -4.5412 10.2306   7
   3   7   4  2.5510 10.4148   5
  -3   7  -4 -4.2255  6.8832   7
  -3   7  -4  1.1557 10.8332   1
  -4  -7  -4 637.477  29.201   7
  -4  -7  -4 657.847  29.295   7
   4   7   4 619.060  28.872   7
   4   7   4 554.546  27.119   5
  -4   7  -4 653.748  22.489   7
  -4   7  -4 576.349  27.485   1
  -5  -7  -4 418.311  25.851   7
  -5   7  -4 520.551  21.412   7
   5   7   4 522.879  27.419   7
   5   7   4 473.322  25.890   5
  -5   7  -4 550.946  27.426   1
  -6  -7  -4 510.875  27.308   7
  -6   7  -4 509.986  22.059   7
  -6   7  -4 442.966  26.590   1
   6   7   4 521.260  28.132   5
   6   7   4 490.799  31.671   6
   6   7   4 504.760  27.827   7
  -7  -7  -4 21.1689 13.1948   7
   7   7   4 11.7067 16.7544   6
   7   7   4 -3.8745 13.6275   5
  -7   7  -4  3.6768 13.2265   1
   7   7   4 12.2051 13.9382   7
  -7   7  -4 -7.9060  9.1703   7
  -8  -7  -4 114.351  17.586   7
  -8   7  -4 99.2235 13.5844   7
   8   7   4 90.0571 18.2882   7
  -8   7  -4 104.145  18.405   1
  -9  -7  -4 226.672  22.334   7
  -9   7  -4 274.613  24.947   1
  -9   7  -4 277.113  20.203   7
 -10  -7  -4 229.786  22.729   7
 -10   7  -4 239.442  20.127   7
 -10   7  -4 258.169  25.490   1
   9  -8  -4 49.3536 16.3625   7
  -9  -8   4 10.5652 16.3644   1
   9   8  -4 15.4224 13.1046   7
  -9   8   4 20.9043 15.3845   1
  -9   8   4 29.9224 14.4304   7
   9   8  -4 35.1744 18.4009   5
   8  -8  -4 174.042  20.223   7
  -8  -8   4 182.589  22.242   1
  -8   8   4 126.997  20.126   1
   8   8  -4 136.359  22.688   5
  -8   8   4 160.102  19.569   7
   8   8  -4 153.420  17.885   7
  -7  -8   4 66.2221 18.1220   1
   7  -8  -4 129.875  18.077   7
   7   8  -4 100.405  20.363   5
   7   8  -4 104.880  20.801   6
   7   8  -4 122.471  15.168   7
  -7   8   4 98.5790 17.7457   1
  -7   8   4 87.0937 16.6838   7
   6  -8  -4 205.213  19.957   7
  -6  -8   4 179.248  22.143   1
   6  -8  -4 216.293  21.094   4
   6  -8  -4 205.214  21.684   6
  -6   8   4 184.607  20.118   1
   6   8  -4 154.115  22.005   5
  -6   8   4 216.665  20.011   7
   6   8  -4 198.537  17.024   7
   5  -8  -4 85.3610 16.0058   4
   5  -8  -4 65.0378 14.9510   7
   5  -8  -4 74.2863 16.9370   6
   5   8  -4 82.9059 12.6627   7
   5   8  -4 80.3812 17.3833   5
  -5   8   4 68.3765 15.5068   1
  -5   8   4 80.9769 15.1676   7
   4  -8  -4 238.652  20.477   7
   4  -8  -4 198.355  19.582   4
   4  -8  -4 192.809  20.472   6
  -4   8   4 197.178  19.168   7
   4   8  -4 198.020  21.937   5
   4   8  -4 200.292  15.743   7
  -4   8   4 191.311  19.818   1
   3  -8  -4 -9.2861 12.9274   6
   3  -8  -4 33.5795 11.9641   7
  -3   8   4 35.0177 11.9093   7
  -3   8   4 23.5112 12.7634   1
   3   8  -4 17.7618  9.0013   7
   3   8  -4 -4.4108 13.1326   5
   2  -8  -4 676.182  30.189   6
   2  -8  -4 671.445  29.196   7
   2   8  -4 646.201  30.859   5
  -2   8   4 646.791  28.092   7
   2   8  -4 670.813  23.502   7
  -2   8   4 637.939  29.096   1
   1  -8  -4 134.692  15.708   7
   1  -8  -4 135.652  17.579   6
  -1   8   4 160.803  17.169   1
   1   8  -4 115.783  16.932   5
  -1   8   4 114.351  15.389   7
   1   8  -4 133.659  12.358   7
   0  -8  -4 140.263  17.071   7
   0  -8  -4 129.268  18.724   6
   0   8   4 158.248  16.496   1
   0   8  -4 159.169  12.818   7
   0   8  -4 163.973  18.869   5
   0   8   4 131.494  16.115   7
  -1  -8  -4 76.5669 16.2785   6
  -1  -8  -4 60.6217 14.6208   7
  -1   8  -4 68.6260 14.2021   5
   1   8   4 56.1070 12.7164   1
   1   8   4 40.4534 12.7142   5
  -1   8  -4 59.8632 14.3940   1
  -1   8  -4 49.4407  9.5297   7
   1   8   4 62.5068 13.3416   7
  -2  -8  -4 936.057  36.487   7
  -2   8  -4 956.027  35.682   1
   2   8   4 930.421  35.128   5
   2   8   4 958.750  35.238   7
  -2   8  -4 992.350  36.141   5
  -2   8  -4 909.485  28.229   7
   2   8   4 956.621  33.806   1
  -3  -8  -4 153.741  19.074   7
   3   8   4 173.407  18.250   7
  -3   8  -4 159.467  18.970   1
  -3   8  -4 168.623  13.806   7
   3   8   4 184.837  19.219   5
  -4  -8  -4 43.9880 14.8320   7
  -4  -8  -4 47.5913 15.1760   7
  -4   8  -4 60.5576 10.6285   7
   4   8   4 56.5696 14.7187   7
   4   8   4 48.5950 14.3471   5
  -4   8  -4 57.3731 15.2239   1
  -5  -8  -4 190.201  20.470   7
  -5  -8  -4 165.556  19.514   7
   5   8   4 200.369  21.307   7
  -5   8  -4 203.536  21.588   1
   5   8   4 198.183  21.388   5
  -5   8  -4 200.373  15.938   7
  -6  -8  -4 697.811  32.405   7
  -6   8  -4 707.768  33.535   1
   6   8   4 710.068  33.833   5
   6   8   4 672.958  36.407   6
  -6   8  -4 666.439  26.453   7
   6   8   4 712.405  34.230   7
  -7  -8  -4 140.713  19.187   7
   7   8   4 160.043  21.079   7
  -7   8  -4 139.037  15.077   7
  -7   8  -4 137.442  20.559   1
   7   8   4 104.774  19.676   5
  -8  -8  -4 13.1028 14.1178   7
  -8   8  -4 14.8562 15.5626   1
  -8   8  -4 16.2283 11.0136   7
   8   8   4 -6.1968 14.6489   7
  -9  -8  -4 184.890  21.538   7
   9   8   4 162.633  22.188   7
  -9   8  -4 158.584  22.000   1
  -9   8  -4 152.406  17.015   7
  -7  -9   4 75.8965 19.2245   1
   7  -9  -4 51.0503 15.7929   7
   7   9  -4 27.5945 12.7833   7
  -7   9   4 49.7931 15.3129   7
  -7   9   4 56.1743 17.3905   1
   7   9  -4 53.2152 19.1471   5
   6  -9  -4 192.743  21.005   7
  -6  -9   4 170.360  22.623   1
  -6   9   4 173.456  21.547   1
   6   9  -4 148.656  15.983   7
  -6   9   4 190.488  20.138   7
   6   9  -4 199.523  24.425   5
   5  -9  -4 461.840  28.180   6
   5  -9  -4 435.889  27.227   7
  -5   9   4 392.861  27.260   1
   5   9  -4 419.527  30.911   5
  -5   9   4 465.511  26.401   7
   5   9  -4 383.855  21.730   7
   4  -9  -4 61.1697 17.7943   6
   4  -9  -4 40.4643 14.4653   7
   4   9  -4 47.6021 11.0112   7
  -4   9   4 36.1363 13.5931   7
  -4   9   4 24.7885 13.8934   1
   4   9  -4 49.3318 17.5806   5
   3  -9  -4 56.0666 14.1299   7
   3  -9  -4 84.4141 17.8392   6
  -3   9   4 58.8197 15.3883   1
   3   9  -4 57.7230 11.4971   7
   3   9  -4 29.2945 15.8106   5
  -3   9   4 62.7303 14.2991   7
   2  -9  -4 200.665  21.656   6
   2  -9  -4 206.285  20.690   7
  -2   9   4 223.016  20.490   7
   2   9  -4 216.610  23.254   5
  -2   9   4 221.315  20.806   1
   2   9  -4 193.786  15.508   7
   1  -9  -4 607.764  30.014   7
   1  -9  -4 693.064  32.709   6
   1   9  -4 673.898  33.277   5
  -1   9   4 673.258  30.065   1
   1   9  -4 646.443  24.184   7
  -1   9   4 647.176  29.687   7
   0  -9  -4 60.6296 17.2077   6
   0  -9  -4 65.8364 15.4011   7
   0   9  -4 85.5250 11.6332   7
   0   9   4 63.7031 14.9759   5
   0   9   4 72.1740 14.5821   7
   0   9  -4 34.5175 14.8591   5
   0   9   4 66.0241 14.9896   1
  -1  -9  -4 46.8421 16.6890   6
  -1  -9  -4 45.7538 15.3996   7
   1   9   4 42.9176 13.4877   7
  -1   9  -4 25.7877 14.5132   1
  -1   9  -4 34.4618 14.8186   5
  -1   9  -4 42.0625 10.1855   7
   1   9   4 45.9411 14.0157   1
   1   9   4 39.4824 14.0916   5
  -2  -9  -4 211.397  22.967   7
  -2   9  -4 248.115  22.970   5
  -2   9  -4 237.345  16.322   7
   2   9   4 293.492  22.812   7
  -2   9  -4 230.138  22.608   1
   2   9   4 199.748  20.408   5
  -3  -9  -4 609.956  32.083   7
  -3   9  -4 615.574  23.776   7
   3   9   4 686.011  32.072   7
  -3   9  -4 631.957  32.685   1
   3   9   4 613.074  31.178   5
  -4  -9  -4 72.0434 17.2469   7
   4   9   4 112.410  18.190   5
   4   9   4 131.630  18.623   7
  -4   9  -4 89.8200 12.2771   7
  -4   9  -4 104.126  18.759   1
  -5  -9  -4 12.4659 14.7449   7
  -5  -9  -4 21.8129 15.1920   7
  -5   9  -4 10.6798  9.9602   7
  -5   9  -4 18.7346 15.0502   1
   5   9   4  5.1617 14.3257   7
   5   9   4 32.2525 15.6979   5
  -6  -9  -4 181.009  21.918   7
  -6  -9  -4 194.206  22.200   7
  -6   9  -4 200.851  23.298   1
   6   9   4 190.321  22.514   7
  -6   9  -4 206.124  17.080   7
   6   9   4 236.199  23.892   5
  -7  -9  -4 405.850  28.344   7
  -7  -9  -4 436.440  29.232   7
   7   9   4 360.751  29.606   7
   7   9   4 455.009  30.668   5
  -7   9  -4 387.336  22.219   7
  -7   9  -4 401.309  29.498   1
   6 -10  -4 119.464  20.144   7
   6  10  -4 106.360  22.801   5
  -6  10   4 122.099  20.157   1
  -6  10   4 128.800  18.622   7
   6  10  -4 134.903  15.825   7
   5 -10  -4 -19.606  13.470   7
  -5  10   4 -3.0087 13.9699   1
   5  10  -4 -20.643  14.930   5
   5  10  -4  3.1934 10.6923   7
  -5  10   4 -2.6022 12.7522   7
   4 -10  -4 30.8489 15.0001   7
  -4  10   4 15.1859 14.3786   1
   4  10  -4  7.9070 10.7756   7
   4  10  -4 -10.319  15.971   5
  -4  10   4 -8.0281 12.4858   7
   3 -10  -4 -6.7788 12.4126   7
  -3  10   4 -18.415  11.169   7
   3  10  -4 5.05522 9.78532   7
  -3  10   4  3.0256 14.1921   1
   3  10  -4  3.7185 15.3168   5
   2 -10  -4 245.015  23.628   7
  -2  10   4 258.781  24.096   1
  -2  10   4 224.082  21.257   7
   2  10  -4 254.769  17.726   7
   2  10  -4 240.560  25.525   5
   1 -10  -4  1.4494 13.6662   7
   1  10  -4 31.6403  9.9472   7
  -1  10   4 -3.6884 12.1265   7
  -1  10   4  0.0646 12.9990   1
  -1  10   4  4.2135 13.7638   5
   1  10  -4 -10.655  14.651   5
   0 -10  -4 -18.613  12.934   7
   0  10   4 -22.212  11.421   1
   0  10   4 24.2649 13.3652   7
   0  10  -4 -1.9014 13.9851   5
   0  10   4 -23.714  12.130   5
   0  10  -4 2.80274 8.81026   7
  -1 -10  -4 19.2853 15.7318   7
   1  10   4 36.0588 15.4470   1
   1  10   4 17.2942 14.8898   5
   1  10   4 55.0052 14.8958   7
  -1  10  -4 47.1009 16.5375   5
  -1  10  -4 31.2243 10.5671   7
  -2 -10  -4 150.332  22.237   7
   2  10   4 210.214  22.244   5
   2  10   4 201.136  21.679   7
  -2  10  -4 220.806  22.824   5
  -2  10  -4 179.740  15.735   7
  -2  10  -4 197.120  22.792   1
  -3 -10  -4 -2.2948 14.8459   7
   3  10   4  5.0412 13.2162   7
   3  10   4 -25.879  12.908   5
  -3  10  -4 -13.589  13.458   1
  -3  10  -4  2.7984 15.3259   5
  -3  10  -4 0.57716 8.87424   7
  -4 -10  -4 40.7125 16.7175   7
   4  10   4 -12.954  13.289   7
   4  10   4 27.7689 15.9375   5
  -4  10  -4  4.3017 15.2939   1
  -4  10  -4 -4.5670  8.9770   7
  -5 -10  -4 100.277  19.572   7
   5  10   4 86.6244 18.3095   7
  -5  10  -4 57.6205 18.1604   1
  -5  10  -4 77.2752 12.8521   7
   5  10   4 43.7300 17.5600   5
  -6 -10  -4 75.9831 18.7019   7
   6  10   4 88.1586 19.7547   5
   6  10   4 93.7701 18.9956   7
  -6  10  -4 102.178  14.027   7
  -6  10  -4 81.6975 19.9706   1
   2 -11  -4 25.9584 16.3965   7
   2  11  -4 20.7504 10.8328   7
   2  11  -4  1.5740 16.1104   5
  -2  11   4  5.1454 15.5552   1
  -2  11   4 24.9733 14.3816   7
   1 -11  -4 706.008  36.818   7
  -1  11   4 743.988  35.090   1
  -1  11   4 723.610  35.837   5
  -1  11   4 694.738  34.078   7
   1  11  -4 690.023  37.818   5
   1  11  -4 702.363  27.304   7
   0 -11  -4 20.7249 15.7343   7
   0  11   4 22.4120 15.5998   1
   0  11   4 -22.342  12.099   7
   0  11  -4 -2.6979  9.7289   7
   0  11   4 23.6587 16.3249   5
   0  11  -4 -20.878  14.548   5
  -1 -11  -4 29.7050 17.1284   7
   1  11   4 36.6015 14.9410   7
  -1  11  -4 -3.1971  9.8647   7
   1  11   4 24.9972 15.9714   5
  -1  11  -4 -4.4350 15.2529   5
  -2 -11  -4 -9.4328 16.1920   7
   2  11   4 34.1687 16.6881   5
  -2  11  -4 11.4884 16.7393   5
   2  11   4 58.5302 16.5479   7
  -2  11  -4 25.9105 17.4140   1
  -2  11  -4 10.2494  9.7050   7
  12   0  -5 14.6187 14.3645   7
  12   0  -5 -12.044  16.635   3
 -12   0   5  1.4388 14.9933   1
 -11   0   5 -28.787  12.645   1
  11   0  -5  3.3460 13.1457   7
 -10   0   5 -15.139  12.073   1
  10   0  -5 -5.8840 13.5438   6
  10   0  -5 -12.615  11.036   7
   9   0  -5 -11.043  12.171   6
   9   0  -5 19.9018 11.3978   7
  -9   0   5 -2.3239 12.1062   1
  -8   0   5 16.2143 11.0341   1
   8   0  -5 12.2042 10.0217   7
   8   0  -5 15.0223 11.7486   6
  -7   0   5 -3.6573  9.3136   1
   7   0  -5  9.7343 11.2865   6
   7   0  -5 -3.2357  8.0651   7
   6   0  -5 5.52811 9.34866   3
   6   0  -5 1.32825 7.35282   7
  -6   0   5 2.85197 8.63093   1
   6   0  -5 -4.2980  7.0409   2
   6   0  -5 -15.842   8.737   6
   5   0  -5 8.64949 8.65317   3
   5   0  -5 -6.2435  8.8346   6
  -5   0   5 -0.8675  7.9153   1
   5   0  -5 -5.9273  6.3342   2
   5   0  -5 7.72648 6.78796   7
  -4   0   5 -8.7253  6.4690   1
   4   0  -5 1.08689 5.66225   7
   4   0  -5 14.0851  6.8566   2
   4   0  -5 -11.638   6.628   6
   4   0  -5 1.76308 7.34551   3
   3   0  -5 -10.320   7.142   6
  -3   0   5 -4.5420  6.3720   1
   3   0  -5 -4.7470  6.7184   3
   3   0  -5 -1.2052  6.8084   2
   3   0  -5 3.62992 5.14746   7
   2   0  -5 -5.1309  6.4810   3
  -2   0   5 -5.0141  5.7202   1
   2   0  -5 -7.8815  6.0566   6
   2   0  -5 4.50521 6.81622   2
   1   0  -5 -2.7940  5.6733   6
   1   0  -5 -2.2204  6.3257   3
   1   0  -5 -1.1377  6.7843   2
   0   0  -5 -9.2155  4.9109   4
   0   0  -5 -4.8600  6.9053   2
   0   0  -5 -0.4956  6.6068   3
   0   0  -5 1.23762 5.51146   6
  -1   0  -5 -4.7164  5.5352   6
  -1   0  -5 0.80860 5.03661   4
  -1   0  -5 -12.633   6.630   2
  -1   0  -5 -0.5933  6.4678   3
  -2   0  -5 -2.7967  6.6529   2
   3   0   5 -6.4971  6.8882   6
  -3   0  -5 -7.7531  4.4679   7
  -3   0  -5 -3.0378  6.8747   2
   4   0   5 -4.5598  7.0121   6
  -4   0  -5 -0.3118  5.4350   7
  -4   0  -5 -5.1870  6.7325   2
  -5   0  -5 7.44048 6.49496   7
  -5   0  -5 10.3595  7.4873   2
   5   0   5 1.01347 8.67724   6
   6   0   5 5.77116 9.32891   6
  -6   0  -5 7.99947 7.10713   7
   7   0   5 -3.4374  9.5864   6
  -7   0  -5 3.87403 7.79189   7
  -8   0  -5 3.42111 8.48168   7
   8   0   5 16.7782 12.1798   6
  -9   0  -5 -7.5140  9.1635   7
   9   0   5 -7.2001 12.0316   6
 -10   0  -5  8.4490 10.2714   7
  10   0   5 15.8682 14.5502   6
 -11   0  -5 -22.484   9.373   7
 -12   0  -5 -3.1738 11.4416   7
 -12  -1   5 12.2389 15.5523   1
  12  -1  -5 34.7247 14.7954   7
  12   1  -5 -4.8926 16.2634   3
  12   1  -5 10.2498 13.9611   7
 -12   1   5 19.6526 15.7096   1
  11  -1  -5  0.6695 12.7619   7
 -11  -1   5 13.2098 15.2921   1
  11   1  -5 30.7641 14.1484   7
 -11   1   5 -0.3066 13.4494   1
  11   1  -5  2.3051 16.7456   3
  10  -1  -5 1058.51   36.94   7
 -10  -1   5 1097.92   40.76   1
  10  -1  -5 1039.59   39.48   6
  10   1  -5 981.125  39.858   6
  10   1  -5 1091.39   38.50   7
 -10   1   5 1093.82   39.87   1
  10   1  -5 1047.53   43.41   3
   9  -1  -5 28.2910 11.0952   7
  -9  -1   5 19.7154 13.3475   1
   9  -1  -5 38.4127 13.8975   6
   9   1  -5 30.5786 13.8649   6
   9   1  -5 19.9140 14.5431   3
  -9   1   5 16.2151 12.7425   1
   9   1  -5 14.0233 11.9518   7
  -8  -1   5 38.5114 12.6432   1
   8  -1  -5 35.4699 12.2473   6
   8  -1  -5 22.2531 10.1898   7
   8   1  -5 37.5399 12.9533   6
   8   1  -5 32.7699 14.3291   3
  -8   1   5 28.6333 11.8346   1
   8   1  -5 33.5635 11.4268   7
   7  -1  -5 12.9005 10.7894   6
  -7  -1   5 29.8963 10.8124   1
   7  -1  -5 14.3865  8.9505   7
   7   1  -5  2.5029 10.3613   6
  -7   1   5 12.2953  9.6870   1
   7   1  -5 10.2120  9.8802   7
   7   1  -5  5.4592 11.2550   3
   6  -1  -5 2153.45   49.27   7
   6  -1  -5 2218.46   53.46   6
  -6  -1   5 2147.28   52.67   1
   6   1  -5 2154.73   52.67   6
   6   1  -5 2240.83   55.52   3
  -6   1   5 2134.00   52.34   1
   6   1  -5 2166.27   50.06   7
   5  -1  -5 5.41378 8.84396   3
   5  -1  -5 -2.6225  6.1544   2
   5  -1  -5 9.98371 8.97944   6
  -5  -1   5 -12.411   6.999   1
   5  -1  -5 -2.1542  6.2717   7
   5   1  -5 -1.9986  7.3765   7
   5   1  -5 -3.5174  7.2615   2
   5   1  -5 -1.4739  8.0183   6
  -5   1   5 14.1573  8.0551   1
   5   1  -5 0.21273 8.12081   3
  -4  -1   5 92.4449 10.5956   1
   4  -1  -5 136.960  10.472   2
   4  -1  -5 130.312   9.300   7
   4  -1  -5 106.119  11.082   6
   4  -1  -5 100.547  11.506   3
   4   1  -5 119.743  10.881   6
   4   1  -5 133.339   9.608   7
   4   1  -5 110.308  11.484   3
  -4   1   5 109.181  10.994   1
   4   1  -5 118.119  10.326   2
   4   1  -5 131.655  12.052   5
  -3  -1   5 67.6105  8.8820   1
   3  -1  -5 57.9008  6.6242   7
   3  -1  -5 72.2233  8.4426   2
   3  -1  -5 67.3779  9.2141   6
   3  -1  -5 52.2056  9.2407   3
   3   1  -5 55.1554  8.6975   5
   3   1  -5 67.7007  5.5494   7
  -3   1   5 58.0452  8.2205   1
   3   1  -5 58.0210  8.7296   6
   3   1  -5 51.0316  9.0210   3
   3   1  -5 45.8511  8.5813   2
  -2  -1   5 3504.64   71.14   1
   2  -1  -5 3622.60   70.74   2
   2  -1  -5 3547.64   71.95   6
   2  -1  -5 3600.78   73.90   3
   2  -1  -5 3668.60   66.88   7
   2   1  -5 3555.55   70.32   6
  -2   1   5 3562.52   70.30   1
   2   1  -5 3701.63   73.99   3
   2   1  -5 3599.03   71.39   2
   1  -1  -5 37.5906  3.9297   7
   1  -1  -5 28.2737  7.2536   6
   1  -1  -5 35.1876  7.3986   3
   1  -1  -5 33.2394  7.6951   2
   1   1  -5 42.6238  6.0455   6
   1   1  -5 39.3551  8.0040   2
   1   1  -5 36.4207  7.7881   3
   0  -1  -5 232.050  10.953   4
   0  -1  -5 231.674  11.746   2
   0  -1  -5 239.112  12.611   3
   0  -1  -5 229.440  11.711   6
   0   1  -5 226.591  11.224   2
   0   1  -5 238.778  12.844   3
   0   1  -5 247.499   8.049   6
  -1  -1  -5 166.296   6.103   7
  -1  -1  -5 164.750  10.779   6
  -1  -1  -5 157.890  11.361   3
  -1  -1  -5 164.752  11.715   2
  -1   1  -5 167.522   5.488   4
  -1   1  -5 175.957  11.773   3
  -1   1  -5 154.227  10.560   2
   2  -1   5 2960.22   56.13   6
  -2  -1  -5 3058.52   61.02   2
  -2  -1  -5 2993.78   56.01   7
  -2   1  -5 2906.18   59.16   2
  -3  -1  -5 62.9102  6.9620   7
   3  -1   5 64.6264  6.7570   6
  -3  -1  -5 62.8037  9.1337   2
  -3   1  -5 75.7129  8.0897   2
  -3   1  -5 59.2304  5.1581   7
   4  -1   5 55.6523  7.6137   6
  -4  -1  -5 62.3813  8.3782   7
  -4  -1  -5 51.2573  9.1230   2
  -4   1  -5 59.3848  6.6651   7
   4   1   5 35.8556 10.0785   6
  -4   1  -5 59.5498  7.5854   2
  -5  -1  -5 229.596  13.388   7
  -5  -1  -5 232.116  14.092   2
   5  -1   5 229.933  13.111   6
  -5   1  -5 241.924  12.105   1
  -5   1  -5 207.173  11.931   7
   5   1   5 191.168  15.683   6
  -5   1  -5 235.469  11.265   2
  -6  -1  -5 1110.82   30.63   7
   6  -1   5 1138.68   31.07   6
  -6   1  -5 1116.15   29.58   7
   6   1   5 1148.04   35.13   6
   7  -1   5 69.3951 11.3398   6
  -7  -1  -5 51.9836  9.9314   7
   7   1   5 70.7179 13.7487   6
  -7   1  -5 64.6802  9.8283   7
  -8  -1  -5 25.3698  9.8541   7
   8  -1   5 -1.5943 10.8432   6
   8   1   5 -7.7805 11.7506   6
  -8   1  -5 2.32468 8.29978   7
  -9  -1  -5 238.034  17.665   7
   9   1   5 226.426  22.284   6
  -9   1  -5 209.968  16.558   7
 -10  -1  -5 357.137  21.528   7
  10   1   5 418.525  28.156   6
 -10   1  -5 359.217  21.457   7
 -11  -1  -5 66.6658 14.1915   7
 -11   1  -5 70.9727 13.5896   7
  11   1   5 66.6894 20.0626   6
 -12  -1  -5 39.4499 13.2693   7
 -12   1  -5 87.3044 15.0234   7
 -12  -2   5 10.8546 15.9674   1
  12  -2  -5 11.9789 13.7294   7
  12   2  -5 -11.724  16.342   3
 -12   2   5 16.2845 15.6343   1
  12   2  -5 23.1161 14.6840   7
  11  -2  -5 116.889  17.397   7
 -11  -2   5 112.092  19.713   1
  11   2  -5 101.374  21.224   3
 -11   2   5 148.146  20.855   1
  11   2  -5 98.1372 17.4167   7
 -10  -2   5 111.390  18.235   1
  10  -2  -5 74.9070 16.7823   6
  10  -2  -5 102.435  15.936   7
  10   2  -5 98.9067 18.7641   6
  10   2  -5 65.0278 18.6561   3
  10   2  -5 93.2199 15.8807   7
 -10   2   5 99.6695 17.6223   1
   9  -2  -5 272.862  22.851   6
   9  -2  -5 362.964  21.513   7
  -9  -2   5 345.046  23.598   1
   9   2  -5 310.327  25.742   3
   9   2  -5 322.867  22.185   7
   9   2  -5 330.510  23.750   6
  -9   2   5 315.214  22.574   1
   8  -2  -5 140.444  14.665   7
  -8  -2   5 156.235  17.082   1
   8  -2  -5 118.932  15.940   6
   8   2  -5 121.599  17.469   3
   8   2  -5 134.911  17.098   6
  -8   2   5 144.984  16.279   1
   8   2  -5 141.692  15.359   7
   7  -2  -5 114.899  14.625   6
   7  -2  -5 111.547  12.658   7
  -7  -2   5 109.145  13.974   1
  -7   2   5 87.3613 13.0853   1
   7   2  -5 108.175  13.469   7
   7   2  -5 96.2785 15.3591   3
   7   2  -5 119.727  15.551   6
   6  -2  -5 145.151  14.723   6
   6  -2  -5 130.712  11.948   7
  -6  -2   5 167.797  15.057   1
   6   2  -5 158.562  15.046   6
   6   2  -5 155.851  13.513   7
  -6   2   5 159.330  14.295   1
   6   2  -5 134.980  14.665   5
   6   2  -5 150.845  14.930   3
  -5  -2   5 339.132  18.441   1
   5  -2  -5 343.953  13.723   2
   5  -2  -5 332.278  18.559   3
   5  -2  -5 348.055  18.003   6
   5  -2  -5 322.181  15.343   7
   5   2  -5 352.343  19.312   5
  -5   2   5 373.149  17.585   1
   5   2  -5 312.726  17.495   3
   5   2  -5 317.816  17.101   6
   5   2  -5 342.717  15.703   7
  -4  -2   5 270.393  15.948   1
   4  -2  -5 253.629  15.938   3
   4  -2  -5 255.887  11.899   2
   4  -2  -5 245.118  15.109   6
   4  -2  -5 289.724  13.661   7
   4   2  -5 266.025  11.894   7
  -4   2   5 290.487  13.786   7
   4   2  -5 298.454  17.095   5
  -4   2   5 278.020  14.642   1
   4   2  -5 278.111  14.090   6
   4   2  -5 286.898  15.285   3
   4   2  -5 284.937  14.686   2
   3  -2  -5 132.269  11.613   6
   3  -2  -5 150.837  10.546   2
   3  -2  -5 144.628   9.792   7
  -3  -2   5 143.279  11.899   1
   3  -2  -5 130.690  11.518   3
   3   2  -5 137.964  11.480   3
   3   2  -5 147.938  11.665   2
   3   2  -5 138.400   6.933   7
   3   2  -5 128.626  11.639   5
  -3   2   5 147.465  11.097   1
   3   2  -5 133.012  10.195   6
   2  -2  -5 320.737  14.024   2
   2  -2  -5 306.456  11.931   7
   2  -2  -5 323.982  14.630   3
   2  -2  -5 313.758  15.146   6
   2   2  -5 316.773  12.562   6
   2   2  -5 361.883  14.656   3
   2   2  -5 296.057  13.767   2
  -2   2   5 305.028  13.580   1
   1  -2  -5 114.289  10.309   4
   1  -2  -5 114.564   9.671   3
   1  -2  -5 111.189   8.129   7
   1  -2  -5 112.197  10.321   6
   1  -2  -5 106.993  10.310   2
   1   2  -5 123.722   7.804   6
   1   2  -5 118.882  10.095   3
   1   2  -5 114.912  10.204   2
   0  -2  -5 185.783  12.325   4
   0  -2  -5 205.168  12.741   6
   0  -2  -5 203.718  13.188   2
   0  -2  -5 208.330  12.280   3
   0  -2  -5 172.147   9.082   7
   0   2  -5 177.325  11.686   2
   0   2  -5 202.495   6.255   6
   0   2  -5 190.788  12.180   3
  -1  -2  -5 471.698  14.221   7
  -1  -2  -5 462.742  16.403   3
  -1  -2  -5 480.192  17.620   6
  -1  -2  -5 462.861  18.058   2
  -1   2  -5 484.455  16.212   2
  -1   2  -5 470.434  17.648   3
  -2  -2  -5 586.429  20.304   2
  -2  -2  -5 596.696  17.309   7
  -2  -2  -5 575.569  20.694   6
  -2  -2  -5 558.913  17.027   7
  -2   2  -5 579.290  17.449   2
  -3  -2  -5 4.04812 8.21761   2
   3  -2   5 4.49981 3.95256   6
  -3  -2  -5 -1.7633  5.7833   7
  -3   2  -5 1.12539 6.19380   2
  -3   2  -5 10.5665  6.1097   1
  -3   2  -5 0.30092 3.69897   7
  -3   2  -5 -1.8332  3.3486   7
  -3   2  -5 1.74179 3.37298   7
  -4  -2  -5 78.3757  9.4252   7
   4  -2   5 94.4947  7.4685   6
   4   2   5 85.0314 10.4989   7
   4   2   5 102.480  12.249   6
  -4   2  -5 93.9189  8.3388   2
  -4   2  -5 94.1507  7.3022   7
  -4   2  -5 104.248   9.118   1
  -5  -2  -5 840.953  25.934   7
   5  -2   5 829.480  22.767   6
  -5   2  -5 849.401  23.553   1
  -5   2  -5 820.786  22.465   7
   5   2   5 863.387  29.677   6
   6  -2   5 431.370  17.476   6
  -6  -2  -5 460.322  19.820   7
   6   2   5 426.311  22.660   6
  -6   2  -5 456.645  17.242   7
  -6   2  -5 459.317  18.369   1
  -7  -2  -5 9.15251 8.67625   7
  -7  -2  -5 -3.4304 10.2714   2
   7   2   5 -3.9150 12.7150   6
  -7   2  -5 0.95505 7.32374   7
  -8  -2  -5 96.1064 12.9613   7
   8   2   5 84.6651 16.6526   6
  -8   2  -5 89.9500 11.5525   7
  -9  -2  -5 597.196  25.832   7
  -9   2  -5 605.905  24.239   7
   9   2   5 623.220  31.995   6
 -10  -2  -5 197.746  17.842   7
  10   2   5 195.992  23.187   6
 -10   2  -5 190.770  16.744   7
 -11  -2  -5 10.2450 11.2126   7
  11   2   5 -4.0168 16.7248   6
 -11   2  -5  6.3320 10.4208   7
 -12  -2  -5 77.3766 15.1467   7
 -12   2  -5 113.532  16.357   7
  12  -3  -5 82.4474 16.8325   7
 -12  -3   5 110.220  20.742   1
  12   3  -5 98.6337 22.2085   3
  12   3  -5 84.6822 17.5364   7
 -12   3   5 78.2648 18.5269   1
  11  -3  -5  9.7682 12.3693   7
 -11  -3   5 -27.141  13.604   1
  11   3  -5 12.3597 17.5441   3
  11   3  -5 21.9828 13.7394   7
 -11   3   5  9.7581 14.4962   1
  10  -3  -5 556.789  29.737   6
  10  -3  -5 611.996  28.596   7
 -10  -3   5 593.519  30.810   1
  10   3  -5 542.479  28.585   7
 -10   3   5 577.183  30.603   1
  10   3  -5 571.059  33.342   6
  10   3  -5 575.419  33.437   3
   9  -3  -5 61.5834 13.6355   7
   9  -3  -5 67.9472 16.0240   6
  -9  -3   5 74.3675 15.4092   1
   9   3  -5 88.5390 17.8204   3
  -9   3   5 79.1310 15.3603   1
   9   3  -5 80.9307 18.4078   6
   9   3  -5 83.7520 14.9445   7
  -8  -3   5 279.958  21.904   1
   8  -3  -5 293.728  20.438   6
   8  -3  -5 262.770  18.359   7
   8   3  -5 237.592  21.353   6
  -8   3   5 268.050  20.614   1
   8   3  -5 259.528  21.865   3
   8   3  -5 210.624  21.803   5
   8   3  -5 245.423  18.705   7
   7  -3  -5 17.0130 11.2777   6
   7  -3  -5 25.7443  9.6253   7
  -7  -3   5 35.4947 11.9396   1
   7   3  -5  7.4664 12.1303   6
   7   3  -5 24.8823 12.6256   5
   7   3  -5 13.6433  9.6930   7
   7   3  -5 27.3485 11.7628   3
  -7   3   5 12.6986 10.5688   1
  -6  -3   5 346.209  20.394   1
   6  -3  -5 327.161  17.830   7
   6  -3  -5 346.901  19.336   6
   6   3  -5 346.661  22.131   5
   6   3  -5 333.401  19.677   6
   6   3  -5 338.264  17.825   7
  -6   3   5 323.246  19.111   1
   6   3  -5 324.118  19.873   3
   5  -3  -5 73.6193  9.7194   7
   5  -3  -5 53.4263 11.0548   6
  -5  -3   5 59.3573 11.4305   1
   5  -3  -5 85.9113 11.8056   3
   5   3  -5 84.8353 13.1860   5
   5   3  -5 72.1646  9.1896   7
   5   3  -5 81.6337 11.2550   3
   5   3  -5 55.5917 11.7632   6
  -5   3   5 69.6298 10.7992   1
   4  -3  -5 408.837  19.196   3
   4  -3  -5 464.511  19.985   6
  -4  -3   5 413.099  20.429   1
   4  -3  -5 461.025  17.284   7
   4  -3  -5 429.978  15.723   2
   4   3  -5 432.275  22.084   5
   4   3  -5 438.454  18.864   3
   4   3  -5 461.846  14.779   7
  -4   3   5 440.731  19.083   1
   4   3  -5 458.270  18.184   6
  -4   3   5 461.348  17.873   7
   3  -3  -5 9.37660 7.25861   4
   3  -3  -5 5.50753 5.99100   7
  -3  -3   5 9.21222 8.44357   1
   3  -3  -5 -5.5555  8.2019   6
   3  -3  -5 -3.9733  6.4437   2
   3  -3  -5 9.10611 7.23956   3
  -3   3   5 4.29208 6.91997   1
   3   3  -5 7.62077 7.23594   6
   3   3  -5 18.3628  7.4763   3
   3   3  -5 1.65020 3.95186   7
   3   3  -5 -6.7157  8.2570   5
  -3   3   5 0.70053 6.17906   7
   2  -3  -5 47.1094  7.0811   7
   2  -3  -5 30.3715  7.7383   2
   2  -3  -5 56.4249  8.4152   3
   2  -3  -5 31.7856  9.1263   6
   2  -3  -5 40.1903  8.4194   4
  -2   3   5 47.1366  7.7273   1
   2   3  -5 34.0849  8.8084   2
   2   3  -5 39.1335  7.0879   6
   2   3  -5 45.3351  9.5672   5
  -2   3   5 35.9899  7.0390   7
   2   3  -5 46.4813  7.9435   3
   1  -3  -5 4.29774 6.25731   3
   1  -3  -5 13.5164  7.8976   4
   1  -3  -5 16.0981  7.8278   2
   1  -3  -5 4.66516 5.21094   7
   1  -3  -5 0.62067 7.72030   6
   1   3  -5 5.37071 6.58258   3
   1   3  -5 8.85838 7.37268   2
  -1   3   5 3.76452 5.98136   1
   1   3  -5 26.1692  8.2331   5
   1   3  -5 11.1844  5.5373   6
   0  -3  -5 261.996  11.692   7
   0  -3  -5 238.875  13.967   4
   0  -3  -5 257.640  14.759   6
   0  -3  -5 279.911  12.698   3
   0  -3  -5 254.297  14.814   2
   0   3  -5 284.204   8.548   6
   0   3   5 275.607  11.560   1
   0   3  -5 288.417  14.013   2
   0   3  -5 265.502  13.408   3
  -1  -3  -5 402.606  17.720   6
  -1  -3  -5 382.088  14.628   3
  -1  -3  -5 368.705  14.524   7
  -1   3  -5 411.896  16.516   1
  -1   3  -5 399.092  15.379   2
  -2  -3  -5 34.5266  7.2599   7
  -2  -3  -5 31.6408  7.3756   7
  -2  -3  -5 27.1865  9.5224   6
   2   3   5 31.2849  8.0365   7
  -2   3  -5 23.0241  7.3924   1
  -2   3  -5 29.2686  6.9295   2
  -3  -3  -5 5.55620 6.76738   7
   3  -3   5 -2.7164  3.8653   6
  -3   3  -5 0.72589 4.02219   7
   3   3   5 -10.349   7.326   7
  -3   3  -5 11.4668  7.0178   1
  -3   3  -5 11.5888  6.1776   2
  -3   3  -5 0.67962 4.04673   7
  -4  -3  -5 33.1085  8.6054   7
  -4   3  -5 52.3872  8.7472   1
  -4   3  -5 38.8770  6.6901   2
   4   3   5 37.9116 10.0335   7
  -4   3  -5 40.4311  6.0354   7
  -5  -3  -5 685.597  24.013   7
  -5   3  -5 656.961  19.450   7
   5   3   5 616.794  22.740   5
   5   3   5 655.589  27.616   6
  -5   3  -5 655.247  22.276   1
  -6  -3  -5 224.380  16.532   7
  -6   3  -5 249.138  13.737   7
   6   3   5 211.042  19.318   6
  -6   3  -5 214.480  14.985   1
  -7  -3  -5 13.5093  9.5521   7
  -7   3  -5 7.40206 7.72442   7
   7   3   5 13.5860 13.1942   6
  -7   3  -5 14.6892 10.0171   1
  -8  -3  -5 -0.6515  9.4429   7
   8   3   5  0.4107 14.0196   6
  -8   3  -5 -2.9830  8.2294   7
  -9  -3  -5 316.630  21.524   7
  -9   3  -5 361.938  19.451   7
   9   3   5 373.392  26.633   6
 -10  -3  -5 422.360  24.031   7
 -10   3  -5 409.629  22.172   7
  10   3   5 413.040  29.046   6
 -11  -3  -5 30.9986 13.2133   7
 -11   3  -5 50.8851 12.9362   7
 -12  -3  -5 -12.806  11.589   7
 -12   3  -5 -13.002  10.544   7
 -12  -4   5 58.8336 18.9087   1
  12  -4  -5 33.8477 15.1033   7
 -12   4   5 19.1074 16.7001   1
  12   4  -5 18.9719 14.0963   7
  11  -4  -5 103.024  17.634   7
 -11  -4   5 87.8807 18.4913   1
  11   4  -5 85.1875 15.8273   7
 -11   4   5 75.4604 17.7127   1
  10  -4  -5 112.779  16.700   7
 -10  -4   5 98.1397 17.9399   1
  10   4  -5 114.852  16.638   7
 -10   4   5 119.807  18.393   1
  10   4  -5 61.5678 21.7536   6
   9  -4  -5 83.7765 16.7344   6
   9  -4  -5 58.9276 13.3003   7
  -9  -4   5 60.7288 16.5092   1
   9   4  -5 75.2963 14.0475   7
  -9   4   5 52.1772 14.9194   1
   9   4  -5 53.8102 16.7177   5
   9   4  -5 74.4743 19.3739   6
   8  -4  -5 143.202  15.588   7
  -8  -4   5 127.727  17.623   1
   8  -4  -5 136.441  16.931   6
   8   4  -5 117.085  19.084   5
   8   4  -5 133.687  17.796   3
   8   4  -5 136.746  19.903   6
   8   4  -5 143.263  15.923   7
  -8   4   5 126.173  16.925   1
   7  -4  -5 443.539  21.653   7
   7  -4  -5 443.432  23.377   6
  -7  -4   5 419.973  24.149   1
  -7   4   5 408.897  23.207   1
   7   4  -5 410.142  23.603   3
   7   4  -5 428.820  21.072   7
   7   4  -5 423.811  26.551   5
   7   4  -5 479.864  25.545   6
   6  -4  -5 455.461  20.998   7
   6  -4  -5 410.380  22.068   6
  -6  -4   5 469.289  23.692   1
   6   4  -5 462.042  24.160   6
  -6   4   5 426.307  21.856   1
   6   4  -5 462.508  19.740   7
   6   4  -5 414.860  21.529   3
   6   4  -5 427.648  25.242   5
  -5  -4   5 18.8184 10.0025   1
   5  -4  -5 27.7994 10.5237   6
   5  -4  -5 19.2315  9.6853   3
   5  -4  -5 27.7009  8.7815   7
   5   4  -5 15.0067 10.8426   6
   5   4  -5 15.5099 11.4931   5
   5   4  -5 17.2115  7.3541   7
  -5   4   5 31.3560  9.7739   1
   5   4  -5 2.48883 8.87358   3
   4  -4  -5 455.039  18.676   7
   4  -4  -5 457.259  21.029   6
  -4  -4   5 463.909  22.414   1
   4  -4  -5 446.188  16.635   2
   4  -4  -5 422.631  19.785   4
   4  -4  -5 404.041  19.643   3
  -4   4   5 453.488  20.288   1
   4   4  -5 436.989  15.468   7
  -4   4   5 435.948  19.161   7
   4   4  -5 431.828  23.113   5
   4   4  -5 477.277  20.502   6
   4   4  -5 462.578  19.248   3
   3  -4  -5 841.122  27.624   6
   3  -4  -5 826.862  25.720   3
   3  -4  -5 839.923  25.383   7
   3  -4  -5 863.122  24.250   2
   3  -4  -5 795.133  26.893   4
   3   4  -5 848.737  25.829   6
  -3   4   5 832.623  25.676   7
   3   4  -5 838.105  24.840   3
   3   4  -5 845.567  29.566   5
   3   4  -5 825.762  20.368   7
  -3   4   5 778.730  26.007   1
   2  -4  -5 1201.39   31.65   2
   2  -4  -5 1144.35   32.52   4
   2  -4  -5 1158.46   30.44   7
   2  -4  -5 1148.37   33.51   6
   2  -4  -5 1218.84   30.61   3
  -2   4   5 1145.83   31.18   1
   2   4  -5 1232.47   25.08   7
   2   4  -5 1149.42   34.09   5
   2   4  -5 1239.16   30.56   6
  -2   4   5 1227.86   31.66   7
   2   4  -5 1168.36   30.62   3
   1  -4  -5 4.84009 7.18717   4
   1  -4  -5 19.9896  6.2510   3
   1  -4  -5 17.2683  8.6832   2
   1  -4  -5 8.87257 6.49095   7
   1  -4  -5 16.1221  9.0956   6
   1   4  -5 4.43529 6.72044   3
  -1   4   5 12.3824  6.6561   1
  -1   4   5 0.02928 6.51837   7
   1   4  -5 8.78427 3.25040   7
   1   4  -5 17.4957  3.1818   7
   1   4  -5 11.6890  6.7505   6
   1   4  -5 4.76344 8.17425   5
   0  -4  -5 751.271  25.645   6
   0  -4  -5 768.813  20.982   3
   0  -4  -5 760.988  22.698   7
   0   4  -5 755.473  15.108   7
   0   4   5 720.913  22.967   7
   0   4  -5 769.729  24.273   5
   0   4  -5 768.543  19.468   6
   0   4  -5 759.456  23.084   3
   0   4   5 706.197  21.455   1
  -1  -4  -5 682.828  22.477   7
  -1  -4  -5 743.245  25.515   6
  -1  -4  -5 719.017  19.910   3
   1   4   5 707.476  22.718   7
  -1   4  -5 695.803  22.023   2
  -1   4  -5 703.190  22.509   5
  -1   4  -5 714.814  14.906   7
  -1   4  -5 718.041  23.943   1
   1   4   5 696.682  20.261   1
  -2  -4  -5 1549.24   38.11   7
  -2  -4  -5 1568.26   41.85   6
  -2   4  -5 1490.35   36.19   2
  -2   4  -5 1581.93   38.46   1
  -2   4  -5 1563.43   30.63   7
   2   4   5 1520.20   34.81   1
   2   4   5 1522.26   37.07   5
   2   4   5 1538.92   38.46   7
  -3  -4  -5 87.9050 10.6956   7
  -3  -4  -5 76.2211 10.7299   7
  -3   4  -5 68.2570  9.2303   2
  -3   4  -5 74.9274  6.3522   7
   3   4   5 77.5523  9.6011   5
   3   4   5 94.6526 11.7087   7
  -3   4  -5 64.2865 10.0638   1
  -4  -4  -5 427.300  19.956   7
   4   4   5 489.958  19.814   5
   4   4   5 456.313  21.255   7
  -4   4  -5 484.044  19.615   1
  -4   4  -5 443.730  14.943   7
  -5  -4  -5 329.944  18.971   7
   5   4   5 338.250  18.615   5
   5   4   5 359.047  21.750   6
  -5   4  -5 326.167  14.488   7
  -5   4  -5 390.623  18.553   1
  -6  -4  -5 1094.32   34.48   7
  -6   4  -5 1163.39   33.84   1
  -6   4  -5 1119.20   29.79   7
   6   4   5 1085.70   38.85   6
  -7  -4  -5 152.702  15.752   7
   7   4   5 186.864  20.594   6
  -7   4  -5 166.244  13.190   7
  -7   4  -5 164.379  15.634   1
  -8  -4  -5 170.737  16.998   7
  -8   4  -5 157.170  14.224   7
   8   4   5 160.646  20.382   6
  -9  -4  -5 229.829  19.975   7
   9   4   5 225.369  24.550   6
  -9   4  -5 246.609  17.705   7
 -10  -4  -5 434.037  25.328   7
  10   4   5 527.316  34.007   6
 -10   4  -5 488.791  23.588   7
 -11  -4  -5 171.497  19.151   7
 -11   4  -5 120.222  15.875   7
 -12  -4  -5 49.5741 14.9764   7
 -12   4  -5 62.9805 14.4649   7
  11  -5  -5 74.5238 16.4082   7
 -11  -5   5 67.6296 17.7360   1
  11   5  -5 109.471  17.274   7
 -11   5   5 95.9298 19.1430   1
 -10  -5   5  4.4831 14.7525   1
  10  -5  -5 10.8104 12.1520   7
 -10   5   5 30.1149 15.3089   1
  10   5  -5 44.7873 18.3700   5
  10   5  -5 31.6496 13.3528   7
  -9  -5   5 85.9214 17.5042   1
   9  -5  -5 70.3771 14.0727   7
   9  -5  -5 84.5449 17.3766   6
   9   5  -5 47.8454 17.3808   5
  -9   5   5 64.9727 15.8007   1
   9   5  -5 88.5487 14.9920   7
   9   5  -5 76.5845 20.5110   6
   8  -5  -5 15.7606 13.2776   6
  -8  -5   5 38.3440 14.5964   1
   8  -5  -5 44.5115 12.2011   7
   8   5  -5 29.5910 11.5314   7
   8   5  -5 16.4826 15.6375   5
  -8   5   5 26.8717 13.3644   1
   8   5  -5 46.5192 18.2606   6
   7  -5  -5 192.347  17.838   4
   7  -5  -5 160.627  18.887   6
   7  -5  -5 158.996  16.287   7
  -7  -5   5 159.331  18.753   1
   7   5  -5 189.576  21.683   5
   7   5  -5 179.576  20.357   6
   7   5  -5 154.744  14.767   7
  -7   5   5 207.942  18.666   1
   6  -5  -5 19.6685 11.7197   6
   6  -5  -5 -6.8602  9.6775   3
   6  -5  -5 -10.165   8.660   7
   6  -5  -5 -1.8077 10.2777   4
  -6  -5   5 -0.8354 10.7005   1
  -6   5   5 -17.702   9.488   1
   6   5  -5 -7.2607 12.3084   5
   6   5  -5  7.7344 13.1517   6
   6   5  -5 -10.661   8.070   7
   5  -5  -5 156.704  16.346   6
   5  -5  -5 142.098  14.110   7
  -5  -5   5 151.084  16.817   1
   5  -5  -5 152.384  14.996   3
   5  -5  -5 149.997  15.557   4
   5   5  -5 154.026  11.882   7
  -5   5   5 159.834  15.823   1
   5   5  -5 186.666  17.563   6
   5   5  -5 152.696  18.077   5
   4  -5  -5 101.854  12.192   7
   4  -5  -5 132.374  13.103   3
   4  -5  -5 94.1947 13.5593   6
   4  -5  -5 84.2877 12.7962   4
   4   5  -5 104.053  15.451   5
   4   5  -5 85.1440  8.7978   7
  -4   5   5 90.6694 11.7812   7
  -4   5   5 77.7831 12.1398   1
   4   5  -5 92.0470 13.6795   6
   3  -5  -5 129.428  12.739   2
   3  -5  -5 113.973  11.726   3
   3  -5  -5 123.390  12.076   7
   3  -5  -5 86.3527 13.0987   6
   3  -5  -5 119.184  13.287   4
  -3   5   5 103.411  11.858   7
   3   5  -5 109.130  14.814   5
  -3   5   5 110.171  12.482   1
   3   5  -5 125.798  13.757   6
   3   5  -5 90.2681  8.1302   7
   2  -5  -5 52.3910 10.4945   4
   2  -5  -5 72.2431  9.0113   3
   2  -5  -5 42.2860 11.0456   6
   2  -5  -5 65.3857  9.5435   7
   2  -5  -5 49.4695 10.0076   2
  -2   5   5 46.3365  9.5636   7
  -2   5   5 49.4110  9.5956   1
   2   5  -5 61.6892  6.5055   7
   2   5  -5 54.2009 10.7298   6
   2   5  -5 68.0065 11.9412   5
   1  -5  -5 264.796  15.398   7
   1  -5  -5 262.691  16.977   6
   1  -5  -5 284.256  16.934   4
   1   5  -5 280.053  17.491   5
  -1   5   5 260.307  15.092   1
   1   5  -5 281.927  14.415   3
   1   5  -5 278.385  10.190   7
   1   5  -5 258.383  14.360   6
  -1   5   5 285.416  16.042   7
   0  -5  -5 239.866  15.353   7
   0  -5  -5 268.118  17.397   6
   0   5   5 237.110  13.764   1
   0   5   5 237.174  15.326   7
   0   5  -5 271.406  17.140   5
   0   5  -5 255.633   9.462   7
  -1  -5  -5  3.1851 10.4739   6
  -1  -5  -5 0.80726 7.78945   7
  -1   5  -5 -2.0196  8.1718   1
  -1   5  -5 8.38489 4.45111   7
  -1   5  -5 12.5751  8.2632   5
   1   5   5 0.36730 6.69263   1
   1   5   5 8.38990 7.98733   7
  -2  -5  -5 48.0283 12.3178   6
  -2  -5  -5 61.3524 10.4025   7
   2   5   5 52.8398 10.3718   7
  -2   5  -5 68.8784  6.5768   7
  -2   5  -5 54.2830 10.7399   1
   2   5   5 57.7992  9.7853   5
   2   5   5 68.5228  9.2098   1
  -3  -5  -5 256.298  17.748   7
  -3  -5  -5 270.940  17.335   7
  -3   5  -5 256.439  11.530   7
   3   5   5 278.883  17.320   7
   3   5   5 256.079  16.092   5
  -3   5  -5 264.660  17.335   1
  -4  -5  -5 353.015  20.541   7
   4   5   5 345.727  20.807   7
  -4   5  -5 371.811  14.576   7
  -4   5  -5 410.510  19.947   1
   4   5   5 367.170  19.276   5
  -5  -5  -5 16.3113 10.2113   7
   5   5   5 -1.4087  9.2188   5
  -5   5  -5 5.37856 6.66466   7
  -5   5  -5 9.19805 9.64797   1
  -6  -5  -5 0.15251 9.98915   7
   6   5   5  5.5203 10.7240   5
  -6   5  -5 -4.2498  9.7462   1
  -6   5  -5 -2.0313  7.3394   7
   6   5   5  8.7239 13.3259   6
  -7  -5  -5 112.572  15.216   7
   7   5   5 103.775  18.567   6
  -7   5  -5 109.702  15.539   1
  -7   5  -5 109.253  12.348   7
  -8  -5  -5 273.571  20.878   7
  -8   5  -5 262.115  17.343   7
   8   5   5 270.933  25.873   6
  -8   5  -5 294.159  22.175   1
  -9  -5  -5 12.8676 11.6430   7
   9   5   5 -0.5233 15.9778   6
  -9   5  -5 11.6824 10.4379   7
 -10  -5  -5 -1.7230 11.7253   7
 -10   5  -5 19.1947 11.8522   7
 -11  -5  -5 14.0713 12.9881   7
 -11   5  -5 24.4387 11.9569   7
  10  -6  -5 194.141  19.911   7
 -10  -6   5 177.803  22.418   1
  10  -6  -5 155.930  21.573   3
  10   6  -5 115.431  16.315   7
  10   6  -5 149.361  23.591   5
 -10   6   5 177.383  21.999   1
  -9  -6   5 163.821  21.194   1
   9  -6  -5 191.855  19.711   7
   9  -6  -5 202.349  22.033   3
   9   6  -5 190.298  24.503   5
   9   6  -5 163.081  17.496   7
   9   6  -5 197.606  25.289   6
  -9   6   5 197.429  21.269   1
   8  -6  -5 132.042  18.647   6
   8  -6  -5 149.049  19.043   4
   8  -6  -5 178.585  18.427   7
  -8  -6   5 141.237  20.069   1
   8  -6  -5 167.795  19.382   3
   8   6  -5 132.891  21.354   6
  -8   6   5 110.676  17.551   1
   8   6  -5 108.122  20.960   5
   8   6  -5 134.952  15.678   7
   7  -6  -5 79.2813 15.0005   3
   7  -6  -5 44.1382 15.0708   6
   7  -6  -5 40.2195 14.2863   4
   7  -6  -5 88.5174 14.1333   7
  -7  -6   5 83.8212 16.3449   1
   7   6  -5 74.0885 17.4996   6
   7   6  -5 86.1352 18.0431   5
  -7   6   5 70.3586 15.2492   1
   7   6  -5 57.6667 12.1474   7
   6  -6  -5 200.220  20.011   6
   6  -6  -5 240.716  19.886   4
  -6  -6   5 182.930  20.213   1
   6  -6  -5 254.541  19.342   3
   6  -6  -5 223.963  18.357   7
   6   6  -5 219.717  21.998   6
   6   6  -5 230.001  22.957   5
  -6   6   5 245.254  20.342   1
   6   6  -5 237.628  16.100   7
   5  -6  -5 181.666  18.043   6
  -5  -6   5 175.594  18.914   1
   5  -6  -5 153.030  15.683   7
   5  -6  -5 199.368  17.976   4
   5   6  -5 174.248  13.138   7
   5   6  -5 179.745  19.886   5
   5   6  -5 162.356  18.975   6
  -5   6   5 173.564  17.075   1
   4  -6  -5 379.042  19.915   7
   4  -6  -5 366.368  21.693   6
   4  -6  -5 356.474  20.824   4
   4   6  -5 375.880  24.590   5
  -4   6   5 337.847  20.370   7
   4   6  -5 344.697  22.556   6
   4   6  -5 368.734  15.891   7
  -4   6   5 343.794  21.054   1
   3  -6  -5 118.191  13.646   2
   3  -6  -5 83.9613 12.4095   4
   3  -6  -5 104.355  12.806   7
   3  -6  -5 81.0166 13.6346   6
  -3   6   5 110.051  13.335   1
  -3   6   5 91.2781 12.5894   7
   3   6  -5 79.2529 14.3893   6
   3   6  -5 79.6722  8.5361   7
   3   6  -5 93.4014 15.2966   5
   2  -6  -5 403.977  19.743   7
   2  -6  -5 427.297  22.112   6
   2  -6  -5 386.515  19.803   4
   2   6  -5 435.749  15.246   7
   2   6  -5 404.624  22.948   5
  -2   6   5 391.353  19.980   7
  -2   6   5 379.664  20.002   1
   1  -6  -5 109.810  12.578   7
   1  -6  -5 116.791  14.877   6
   1   6  -5 114.583   8.583   7
   1   6  -5 121.223  14.844   5
  -1   6   5 103.204  11.962   1
  -1   6   5 121.860  13.104   7
   0  -6  -5 535.644  24.541   6
   0  -6  -5 534.374  22.827   7
   0   6  -5 546.845  16.391   7
   0   6  -5 560.410  24.157   5
   0   6   5 517.512  22.615   7
   0   6   5 535.004  21.206   1
  -1  -6  -5 119.061  13.245   7
  -1  -6  -5 106.762  15.067   6
   1   6   5 127.902  13.202   7
  -1   6  -5 115.133   8.503   7
  -1   6  -5 108.267  13.274   5
  -1   6  -5 94.5393 13.2725   1
   1   6   5 81.3998 10.9496   1
  -2  -6  -5 641.423  27.929   6
  -2  -6  -5 632.465  25.341   7
  -2   6  -5 588.956  25.399   1
   2   6   5 625.791  25.392   7
  -2   6  -5 612.737  18.109   7
   2   6   5 611.850  22.317   1
   2   6   5 553.000  23.669   5
  -3  -6  -5 40.1029 11.9912   7
  -3  -6  -5 46.5290 12.3064   7
  -3   6  -5 37.7879  7.3796   7
  -3   6  -5 43.1101 11.6808   1
   3   6   5 34.6826 11.5708   7
   3   6   5 63.6695 11.7490   5
  -4  -6  -5 489.292  24.643   7
  -4  -6  -5 493.884  24.520   7
  -4   6  -5 445.027  23.481   1
  -4   6  -5 486.796  17.790   7
   4   6   5 493.354  23.487   5
  -5  -6  -5 113.863  15.625   7
  -5   6  -5 124.854  15.439   1
  -5   6  -5 113.576  10.963   7
   5   6   5 129.941  15.701   5
  -6  -6  -5 544.530  26.445   7
   6   6   5 513.412  26.478   5
   6   6   5 556.166  30.029   6
  -6   6  -5 553.310  20.965   7
  -6   6  -5 522.388  26.016   1
  -7  -6  -5  5.8723 11.7532   7
  -7   6  -5 31.0375  9.7546   7
  -7   6  -5 40.1356 13.7108   1
   7   6   5 16.2134 15.3612   6
  -8  -6  -5 339.212  23.116   7
  -8   6  -5 378.919  24.717   1
  -8   6  -5 294.621  18.741   7
   8   6   5 293.309  26.896   6
  -9  -6  -5 95.6107 16.3164   7
  -9   6  -5 100.047  13.903   7
 -10  -6  -5 309.046  23.640   7
 -10   6  -5 311.557  20.975   7
 -10  -7   5 385.424  29.414   1
  10  -7  -5 372.668  27.261   7
 -10   7   5 345.640  29.162   1
  10   7  -5 364.751  24.147   7
  10   7  -5 373.950  32.022   5
   9  -7  -5 157.865  19.290   7
  -9  -7   5 167.591  22.402   1
   9   7  -5 157.048  22.970   5
  -9   7   5 131.074  20.064   1
   9   7  -5 115.147  16.413   7
   8  -7  -5 78.7296 15.2409   7
  -8  -7   5 83.7907 17.7705   1
   8   7  -5 44.9698 12.8230   7
   8   7  -5 49.1991 18.3665   5
   8   7  -5 28.5544 19.2815   6
  -8   7   5 86.3109 16.4238   1
   7  -7  -5 97.8251 16.9153   4
   7  -7  -5 153.306  16.893   7
  -7  -7   5 97.3689 17.9451   1
   7  -7  -5 112.081  17.896   6
   7   7  -5 116.255  20.699   5
   7   7  -5 113.619  21.256   6
  -7   7   5 99.5060 16.9734   1
   7   7  -5 100.680  14.036   7
   6  -7  -5 312.696  23.012   6
   6  -7  -5 304.397  21.510   7
   6  -7  -5 319.110  22.937   4
  -6  -7   5 314.313  25.548   1
  -6   7   5 328.211  23.585   1
   6   7  -5 337.259  27.781   5
   6   7  -5 281.338  25.842   6
   6   7  -5 351.808  18.996   7
   5  -7  -5 192.122  18.283   7
   5  -7  -5 187.646  19.841   6
   5  -7  -5 170.639  18.142   4
  -5   7   5 179.875  18.986   1
  -5   7   5 188.766  18.377   7
   5   7  -5 185.010  14.233   7
   5   7  -5 175.369  21.635   5
   4  -7  -5 135.682  17.383   6
   4  -7  -5 112.577  15.106   7
   4  -7  -5 125.071  16.282   4
  -4   7   5 121.792  15.518   7
   4   7  -5 143.358  18.698   5
  -4   7   5 132.605  16.124   1
   4   7  -5 110.663  11.260   7
   3  -7  -5 134.552  14.951   7
   3  -7  -5 144.335  16.517   4
   3  -7  -5 139.413  17.852   6
  -3   7   5 138.221  15.622   7
   3   7  -5 133.488  18.013   5
  -3   7   5 166.231  16.877   1
   3   7  -5 148.625  11.685   7
   2  -7  -5 198.128  19.069   6
   2  -7  -5 196.344  16.833   7
   2   7  -5 203.962  12.402   7
   2   7  -5 199.781  19.166   5
  -2   7   5 216.249  17.699   1
  -2   7   5 190.441  16.967   7
   1  -7  -5 217.690  19.461   6
   1  -7  -5 218.626  17.646   7
   1   7  -5 243.784  12.814   7
  -1   7   5 227.110  17.808   1
  -1   7   5 274.108  18.401   7
   1   7  -5 236.856  19.994   5
   0  -7  -5 220.217  18.127   7
   0  -7  -5 233.802  19.987   6
   0   7  -5 228.234  12.335   7
   0   7   5 220.971  17.029   1
   0   7  -5 196.282  18.585   5
   0   7   5 216.691  17.504   7
  -1  -7  -5 55.0350 14.5386   6
  -1  -7  -5 94.5291 14.3724   7
   1   7   5 28.7512 10.6733   5
  -1   7  -5 38.9999 12.1384   5
  -1   7  -5 59.8043 13.3368   1
   1   7   5 66.2748 12.7145   7
   1   7   5 52.6120 11.3652   1
  -1   7  -5 43.3010  7.7974   7
  -2  -7  -5 97.6594 14.6749   7
  -2  -7  -5 140.135  18.648   6
   2   7   5 115.342  14.490   5
   2   7   5 117.921  15.447   7
  -2   7  -5 119.188  15.558   5
   2   7   5 109.513  13.836   1
  -2   7  -5 112.670  15.267   1
  -2   7  -5 113.101   9.866   7
  -3  -7  -5 151.858  17.455   7
   3   7   5 191.514  18.373   7
  -3   7  -5 149.483  17.338   1
   3   7   5 179.271  17.028   5
  -3   7  -5 166.014  12.589   7
  -4  -7  -5 318.796  23.011   7
  -4  -7  -5 276.551  21.948   7
   4   7   5 288.185  20.791   5
  -4   7  -5 297.761  15.184   7
  -4   7  -5 294.877  22.271   1
  -5  -7  -5 -5.5463 11.4397   7
  -5  -7  -5  3.6339 11.6670   7
  -5   7  -5 4.78092 8.01508   7
   5   7   5 -6.0704 11.4170   5
  -5   7  -5  4.9058 11.7050   1
  -6  -7  -5 81.2785 15.9137   7
   6   7   5 89.6272 16.2931   5
  -6   7  -5 121.086  17.631   1
   6   7   5 109.476  19.478   6
  -6   7  -5 120.374  12.536   7
  -7  -7  -5 32.5187 13.3972   7
   7   7   5 44.0823 17.8647   6
  -7   7  -5 32.8013 10.1220   7
  -7   7  -5 29.0300 14.5044   1
  -8  -7  -5 287.383  23.063   7
  -8   7  -5 300.837  24.836   1
  -8   7  -5 279.944  18.742   7
  -9  -7  -5 -2.7944 12.3598   7
  -9   7  -5  0.6573 10.5290   7
 -10  -7  -5 82.4072 16.9886   7
 -10   7  -5 58.6406 13.4930   7
   8  -8  -5 260.509  23.159   7
  -8  -8   5 266.460  26.619   1
  -8   8   5 247.685  24.428   1
   8   8  -5 285.147  28.271   5
   8   8  -5 230.190  18.893   7
   7  -8  -5 225.971  21.934   7
  -7  -8   5 186.696  22.779   1
   7   8  -5 188.687  16.927   7
  -7   8   5 207.097  21.900   1
   7   8  -5 187.538  24.225   5
   6  -8  -5 80.0817 18.1384   6
   6  -8  -5 51.8235 14.3774   7
  -6  -8   5 46.4383 16.8570   1
   6   8  -5 23.5434 10.9810   7
  -6   8   5 63.8889 15.8820   1
   6   8  -5 48.0991 18.1078   5
   5  -8  -5 38.5220 13.5815   7
   5  -8  -5 70.5210 15.6059   4
   5  -8  -5 30.0354 15.7623   6
   5   8  -5 25.8887 16.1093   5
   5   8  -5 43.0168 10.3878   7
  -5   8   5 36.1271 14.5303   1
  -5   8   5 59.7712 14.6565   7
   4  -8  -5 302.314  23.283   6
   4  -8  -5 290.611  23.207   4
   4  -8  -5 291.254  21.705   7
  -4   8   5 320.244  22.580   7
   4   8  -5 280.944  25.065   5
   4   8  -5 268.855  16.229   7
  -4   8   5 269.491  22.377   1
   3  -8  -5 381.108  22.852   7
   3  -8  -5 410.784  26.500   6
   3   8  -5 382.318  17.654   7
  -3   8   5 427.556  23.639   7
  -3   8   5 405.304  23.951   1
   3   8  -5 437.068  27.883   5
   2  -8  -5 134.843  16.569   7
   2  -8  -5 121.612  18.130   6
  -2   8   5 85.8216 14.7185   7
   2   8  -5 137.390  18.480   5
   2   8  -5 112.502  11.081   7
  -2   8   5 130.685  16.479   1
   1  -8  -5 -6.7755 10.2485   7
   1  -8  -5 19.5129 14.3229   6
  -1   8   5 11.2378 11.0524   1
   1   8  -5 10.9757  7.4202   7
   1   8  -5 -0.9668 12.3796   5
  -1   8   5  3.7195 10.7652   7
   0  -8  -5 148.821  16.979   7
   0  -8  -5 100.445  18.375   6
   0   8   5 133.830  15.962   1
   0   8  -5 136.848  17.518   5
   0   8   5 141.325  16.412   7
   0   8  -5 130.759  11.291   7
  -1  -8  -5 257.455  21.558   7
  -1  -8  -5 227.636  22.290   6
   1   8   5 236.021  19.570   5
  -1   8  -5 261.742  22.723   1
   1   8   5 235.219  18.737   1
  -1   8  -5 229.046  20.731   5
   1   8   5 250.054  20.186   7
  -1   8  -5 220.364  13.705   7
  -2  -8  -5 192.258  20.046   7
  -2   8  -5 231.151  21.496   1
   2   8   5 211.200  19.927   7
  -2   8  -5 198.716  13.078   7
  -2   8  -5 201.563  19.594   5
   2   8   5 193.503  18.246   1
   2   8   5 187.484  18.507   5
  -3  -8  -5 -18.070  11.558   7
   3   8   5 10.8263 12.3139   7
  -3   8  -5 -2.2060  7.3555   7
  -3   8  -5  5.0212 13.0138   1
   3   8   5  8.1330 12.1461   5
  -4  -8  -5 25.1375 14.0399   7
   4   8   5 44.5092 14.7634   7
   4   8   5 42.8676 14.0090   5
  -4   8  -5 48.9342  9.8341   7
  -4   8  -5 41.5764 14.9350   1
  -5  -8  -5 46.0106 15.2722   7
  -5  -8  -5 40.9950 14.6792   7
  -5   8  -5 46.4133 15.3312   1
   5   8   5 29.8452 14.2042   5
  -5   8  -5 31.8577  9.7987   7
  -6  -8  -5 166.752  20.104   7
  -6  -8  -5 208.608  21.204   7
  -6   8  -5 196.715  22.088   1
  -6   8  -5 175.442  15.207   7
  -7  -8  -5 10.5661 13.2641   7
  -7   8  -5 3.75636 9.54104   7
  -7   8  -5 -0.3731 14.4928   1
  -8  -8  -5 34.3210 15.2908   7
  -8   8  -5 43.7514 17.0847   1
  -8   8  -5 19.5635 10.8445   7
   7  -9  -5  4.2340 13.0912   7
  -7  -9   5 24.1480 17.1583   1
  -7   9   5 16.2956 14.9550   1
   7   9  -5 19.7623 11.5240   7
   7   9  -5 14.5296 17.5087   5
   6  -9  -5 324.929  26.000   7
  -6  -9   5 322.475  28.428   1
  -6   9   5 357.085  27.080   1
   6   9  -5 350.648  20.159   7
   6   9  -5 333.369  29.853   5
  -6   9   5 301.583  25.512   7
   5  -9  -5 86.3485 17.4189   7
   5   9  -5 76.8461 19.2771   5
  -5   9   5 116.939  17.744   7
  -5   9   5 84.3648 16.7705   1
   5   9  -5 73.6490 12.1108   7
   4  -9  -5 26.7769 16.5718   6
   4  -9  -5  6.2795 12.6842   7
   4   9  -5 -40.334  12.956   5
   4   9  -5 12.5125  9.3712   7
  -4   9   5 -8.7373 11.3888   7
  -4   9   5 -3.7733 13.1461   1
   3  -9  -5 13.7403 12.1375   7
   3  -9  -5 12.0940 16.2980   6
   3   9  -5 16.8396  9.2453   7
  -3   9   5 26.6983 14.1734   1
   3   9  -5  8.3232 14.6653   5
  -3   9   5 29.8255 13.0814   7
   2  -9  -5 531.586  29.973   6
   2  -9  -5 542.726  28.563   7
   2   9  -5 517.930  30.319   5
  -2   9   5 554.568  28.053   1
  -2   9   5 516.193  27.872   7
   2   9  -5 524.151  20.887   7
   1  -9  -5 34.4060 17.0343   6
   1  -9  -5 39.9721 13.6117   7
  -1   9   5 55.9020 14.7636   1
  -1   9   5 38.0173 13.6739   7
   1   9  -5 39.8820 16.2498   5
   1   9  -5 39.5054  9.5437   7
   0  -9  -5 -10.756  11.174   7
   0  -9  -5 34.0393 15.9561   6
   0   9  -5 29.7110 14.7339   5
   0   9   5 -15.245  11.305   1
   0   9  -5 10.0276  8.2137   7
   0   9   5 -11.075  11.596   5
   0   9   5 -4.0271 11.4185   7
  -1  -9  -5 14.3339 13.1311   7
  -1  -9  -5  1.7746 14.6583   6
   1   9   5  5.7069 12.7338   5
  -1   9  -5 20.6571  8.5884   7
   1   9   5  9.9856 12.6399   7
  -1   9  -5 -4.3842 13.5364   5
   1   9   5 23.3889 12.8781   1
  -2  -9  -5 347.542  26.577   7
  -2   9  -5 454.172  28.443   1
  -2   9  -5 381.126  17.622   7
   2   9   5 396.349  25.779   7
   2   9   5 427.688  25.879   5
  -2   9  -5 371.494  25.556   5
  -3  -9  -5 13.5784 14.5106   7
  -3   9  -5 11.0146 14.0277   5
  -3   9  -5 9.10204 8.33597   7
  -3   9  -5  5.4635 13.8136   1
   3   9   5 16.5270 14.0955   7
   3   9   5 12.9137 13.6252   5
  -4  -9  -5  0.5158 14.1412   7
   4   9   5 -3.3348 13.3108   5
  -4   9  -5 -0.2699 14.3647   1
   4   9   5 -26.644  12.401   7
  -4   9  -5 21.8135  9.3011   7
  -5  -9  -5 19.4823 14.6945   7
  -5   9  -5 32.8099 16.1365   1
   5   9   5 28.1819 15.2849   5
  -5   9  -5 -12.232   8.706   7
  -6  -9  -5 122.181  19.687   7
  -6  -9  -5 162.895  21.115   7
  -6   9  -5 108.076  13.380   7
  -6   9  -5 143.609  21.577   1
  -7  -9  -5 -17.109  13.100   7
  -7  -9  -5  0.3923 14.0168   7
  -7   9  -5 12.0194 16.6043   1
  -7   9  -5  6.3266 10.1709   7
   5 -10  -5  4.4319 14.4879   7
   5  10  -5  0.2363 10.0525   7
  -5  10   5 27.6403 15.6178   1
   5  10  -5 24.3741 17.2040   5
  -5  10   5 11.2179 13.8485   7
   4 -10  -5 55.4201 15.8309   7
  -4  10   5 64.6823 17.2011   1
   4  10  -5 33.6044 11.2931   7
  -4  10   5 38.1813 15.0003   7
   4  10  -5 60.1796 19.4255   5
   3 -10  -5 341.623  24.797   7
  -3  10   5 263.582  24.077   7
   3  10  -5 244.605  26.393   5
  -3  10   5 296.958  25.627   1
   3  10  -5 292.503  17.587   7
   2 -10  -5  9.0594 13.9786   7
   2  10  -5 25.9386 16.5062   5
   2  10  -5 31.6084  9.6884   7
  -2  10   5 21.9236 14.9564   1
  -2  10   5  2.0438 12.7031   7
   1 -10  -5 11.1237 13.7693   7
   1  10  -5 1.30386 8.74639   7
  -1  10   5 -4.9736 12.6140   7
  -1  10   5 -9.4939 12.9557   1
   1  10  -5 -2.7790 14.7341   5
   0 -10  -5 57.2187 16.2988   7
   0  10   5 72.9091 16.1471   1
   0  10   5 76.2326 16.7318   5
   0  10  -5 43.9584 17.2624   5
   0  10  -5 67.8525 11.1285   7
   0  10   5 70.7096 16.3637   7
  -1 -10  -5 460.628  30.537   7
  -1  10  -5 496.173  20.779   7
   1  10   5 528.784  30.248   5
   1  10   5 507.553  29.364   7
  -1  10  -5 468.067  30.926   5
  -2 -10  -5 -7.3984 14.2692   7
   2  10   5 17.8453 14.5377   5
  -2  10  -5  9.9854 15.3773   5
   2  10   5  3.6377 13.5208   7
  -2  10  -5 -3.8642 14.8589   1
  -2  10  -5 12.8197  8.6939   7
  -3 -10  -5 15.0126 15.6558   7
  -3  10  -5 22.7442 15.3767   5
  -3  10  -5 22.7540  9.2580   7
   3  10   5 34.2342 15.7347   7
  -3  10  -5 27.2219 15.8129   1
   3  10   5 25.3920 15.2388   5
  -4 -10  -5 39.9604 16.8286   7
  -4  10  -5 54.5100 11.2757   7
   4  10   5 40.0324 17.0219   5
   4  10   5 66.1499 17.9176   7
  -4  10  -5 68.4146 17.9597   1
  -4  10  -5 71.3498 18.4388   5
  -5 -10  -5 685.103  36.047   7
  -5  10  -5 627.942  35.770   1
   5  10   5 646.252  35.334   7
   5  10   5 625.624  35.270   5
  -5  10  -5 652.795  25.200   7
   2 -11  -5 16.5663 15.1789   7
   2  11  -5 -8.0375 15.7286   5
  -2  11   5 -12.390  13.115   7
  -2  11   5 -13.273  14.540   1
   2  11  -5 22.7432 10.0505   7
   1 -11  -5 14.4201 14.8905   7
  -1  11   5  0.5151 13.3305   7
   1  11  -5 -0.7899 15.5599   5
   1  11  -5 0.37938 9.53784   7
  -1  11   5 22.8701 15.1215   1
  -1  11   5 12.4657 14.9586   5
   0 -11  -5 63.2185 17.9550   7
   0  11   5 91.7019 19.1550   5
   0  11  -5 39.6664 10.9868   7
   0  11  -5 55.5029 19.0265   5
   0  11   5 45.1702 17.1943   1
   0  11   5 51.3498 16.4812   7
  -1 -11  -5 17.2321 15.9444   7
  -1  11  -5 18.3663 16.7628   5
   1  11   5 -0.6967 15.4568   5
   1  11   5 23.1336 15.2197   7
  -1  11  -5 18.5667  9.6415   7
  -2 -11  -5 -1.2075 15.3082   7
  -2  11  -5 -11.683   8.241   7
   2  11   5  4.5640 14.2540   7
  12   0  -6 987.283  47.479   3
  12   0  -6 1052.34   41.09   7
 -12   0   6 1079.92   43.85   1
  11   0  -6 -18.387  16.268   3
 -11   0   6 25.9003 15.7511   1
  11   0  -6 15.3570 13.7252   7
  10   0  -6 364.915  25.899   6
  10   0  -6 343.617  23.268   7
 -10   0   6 356.514  25.634   1
  10   0  -6 312.633  27.984   3
   9   0  -6 107.106  16.166   6
   9   0  -6 137.305  20.207   3
  -9   0   6 112.524  17.079   1
   9   0  -6 104.779  14.615   7
   8   0  -6 2229.47   54.38   7
  -8   0   6 2184.00   57.76   1
   8   0  -6 2185.84   57.30   6
   8   0  -6 2230.95   61.94   3
   7   0  -6 33.6594 12.7354   3
  -7   0   6 42.6556 11.7673   1
   7   0  -6 36.2905 11.6337   6
   7   0  -6 21.6575  9.4843   7
   6   0  -6 382.602  16.850   2
   6   0  -6 393.861  17.766   7
  -6   0   6 344.513  19.622   1
   6   0  -6 398.059  21.797   3
   6   0  -6 360.935  19.107   6
   5   0  -6 202.823  14.296   6
  -5   0   6 159.543  13.693   1
   5   0  -6 209.049  12.691   2
   5   0  -6 178.276  14.900   3
   5   0  -6 177.542  12.020   7
   4   0  -6 4050.15   84.93   3
  -4   0   6 3863.74   81.32   1
   4   0  -6 4061.96   79.63   2
   4   0  -6 3988.76   82.08   6
   4   0  -6 3983.00   76.42   7
   3   0  -6 79.0990  9.6178   6
   3   0  -6 90.2221  5.7564   7
   3   0  -6 84.2214 10.1612   3
   3   0  -6 90.0791  6.5507   7
   3   0  -6 90.1458  9.6836   2
  -3   0   6 84.0009  9.6429   1
   2   0  -6 71.1129  9.0806   2
  -2   0   6 81.7502  8.3929   1
   2   0  -6 73.0631  9.7339   3
   2   0  -6 54.0891  7.9897   6
   1   0  -6 113.277  10.531   3
   1   0  -6 85.6698  7.9041   6
   1   0  -6 93.2988  9.8639   2
   0   0  -6 5382.71   99.80   6
   0   0  -6 5211.69   96.80   4
   0   0  -6 5379.54  101.90   2
   0   0  -6 5200.94  105.04   3
  -1   0  -6 6.26736 7.45802   2
  -1   0  -6 11.1987  7.4055   3
  -1   0  -6 8.92318 5.47426   4
  -1   0  -6 5.32543 5.89888   6
  -2   0  -6 2.63786 7.78127   2
   3   0   6 -2.2119  7.3694   6
  -3   0  -6 -2.4968  2.9804   7
  -3   0  -6 5.30015 3.01157   7
  -3   0  -6 3.38738 2.76938   7
  -3   0  -6 -4.2015  6.4866   2
   4   0   6 3400.14   69.83   6
  -4   0  -6 3405.10   68.90   2
  -4   0  -6 3352.91   65.02   7
   5   0   6 23.2715  9.0641   6
  -5   0  -6 10.1995  7.7297   2
  -5   0  -6 9.14171 6.47817   7
   6   0   6 128.476  13.919   6
  -6   0  -6 122.605  10.665   7
  -6   0  -6 119.745  11.234   2
  -7   0  -6 22.0337  8.1289   7
   7   0   6 21.3562 11.2508   6
   8   0   6 1702.24   46.53   6
  -8   0  -6 1594.57   41.73   7
  -9   0  -6 17.4666  9.8063   7
 -10   0  -6 258.643  18.743   7
 -11   0  -6  4.0472 10.4684   7
 -12   0  -6 679.086  29.319   7
  12  -1  -6 -9.6243 12.6866   7
  12  -1  -6 18.7224 18.4351   3
 -12  -1   6 -5.1210 15.3340   1
  12   1  -6 -4.9600 17.7448   3
  12   1  -6  2.5115 13.6607   7
 -12   1   6 13.0912 15.7120   1
 -11  -1   6 124.430  19.898   1
  11  -1  -6 88.6124 21.1873   3
  11  -1  -6 87.7487 16.3544   7
 -11   1   6 98.7037 18.4111   1
  11   1  -6 97.8127 17.0532   7
  11   1  -6 131.687  22.874   3
 -10  -1   6 13.1799 14.1608   1
  10  -1  -6 16.8263 14.1055   6
  10  -1  -6 12.2176 15.6543   3
  10  -1  -6 43.2575 13.2470   7
  10   1  -6 23.7199 16.8017   3
  10   1  -6 20.1865 13.0721   7
 -10   1   6 18.2402 13.7952   1
  10   1  -6 41.7126 15.8803   6
   9  -1  -6 156.302  19.439   6
   9  -1  -6 199.247  17.429   7
   9  -1  -6 157.217  20.711   3
  -9  -1   6 168.174  19.638   1
   9   1  -6 126.558  15.817   7
   9   1  -6 147.043  18.455   6
   9   1  -6 179.785  21.766   3
  -9   1   6 176.847  19.076   1
   8  -1  -6 10.8083  9.5077   7
   8  -1  -6 -5.6671 11.8438   3
   8  -1  -6 -6.9586 10.8976   6
  -8  -1   6  3.0987 11.5416   1
   8   1  -6  3.7582 10.1021   7
  -8   1   6 -9.3123 10.2694   1
   8   1  -6  8.8946 11.9096   6
   8   1  -6  0.3672 13.2821   3
   7  -1  -6 44.8388 12.9561   3
   7  -1  -6 51.4813 12.1361   6
  -7  -1   6 67.5777 13.1303   1
   7  -1  -6 42.6222  9.7705   7
   7   1  -6 66.2354 13.3706   6
   7   1  -6 37.9697 10.6282   7
  -7   1   6 63.7183 12.1640   1
   7   1  -6 58.3422 13.5800   3
   6  -1  -6 2.70708 7.19269   7
   6  -1  -6 18.1051  9.7195   6
  -6  -1   6 -8.2063  8.6387   1
   6  -1  -6 -5.0098 10.3029   3
  -6   1   6 0.23980 9.07896   1
   6   1  -6 10.0573 10.3418   6
   6   1  -6 10.6778  8.3253   7
   6   1  -6 -9.7579  9.0598   3
   6   1  -6 2.28857 7.63655   2
   5  -1  -6 355.954  19.467   3
   5  -1  -6 402.274  15.853   7
  -5  -1   6 402.492  19.071   1
   5  -1  -6 354.129  19.589   6
   5  -1  -6 398.796  15.802   2
   5   1  -6 427.144  18.961   6
   5   1  -6 430.849  16.054   7
   5   1  -6 403.919  17.577   2
   5   1  -6 413.030  20.074   3
  -5   1   6 414.219  19.025   1
   4  -1  -6 87.5009  8.1115   7
   4  -1  -6 71.8837 10.8575   3
   4  -1  -6 93.4815  9.5542   2
   4  -1  -6 80.7109 10.5126   6
  -4  -1   6 82.8990 10.6843   1
   4   1  -6 91.5123 10.2388   2
  -4   1   6 94.5879 10.5021   1
   4   1  -6 69.9189 10.0816   6
   4   1  -6 74.2770 10.7647   3
   4   1  -6 74.3183  7.0549   7
   3  -1  -6 -1.7995  6.9132   2
   3  -1  -6 3.42330 7.53586   3
   3  -1  -6 2.95967 4.67836   7
  -3  -1   6 0.05562 6.84937   1
   3  -1  -6 4.39715 7.24837   6
  -3   1   6 2.08664 6.51047   1
   3   1  -6 -0.1050  6.6992   5
   3   1  -6 -2.5510  6.9505   2
   3   1  -6 11.3129  7.1293   6
   3   1  -6 -13.058   6.551   3
   2  -1  -6 15.0920  7.3925   2
   2  -1  -6 21.0660  7.6425   3
   2  -1  -6 13.8979  3.9752   7
  -2  -1   6 16.0402  7.2008   1
   2  -1  -6 8.08887 7.59194   6
   2   1  -6 4.52767 6.15475   6
   2   1  -6 17.9383  7.4594   3
  -2   1   6 20.4816  6.7624   1
   2   1  -6 27.7166  7.8934   2
   1  -1  -6 231.159  13.328   2
   1  -1  -6 233.922  13.637   3
  -1  -1   6 248.923  12.735   1
   1  -1  -6 221.224  11.860   6
   1   1  -6 244.672  13.182   2
   1   1  -6 239.892   9.674   6
   1   1  -6 264.745  14.546   3
   0  -1  -6 97.6585  8.8502   4
   0  -1  -6 106.037   9.455   6
   0  -1  -6 84.9611  9.5808   3
   0  -1  -6 94.0471 10.2598   2
   0   1  -6 101.135  10.338   3
   0   1  -6 113.169   7.077   6
   0   1  -6 111.068  10.244   2
  -1  -1  -6 8.89731 7.15733   6
  -1  -1  -6 1.99858 6.96781   3
  -1  -1  -6 13.1223  7.7715   2
  -1   1  -6 1.69031 6.91927   2
  -1   1  -6 -2.0661  3.5143   4
  -1   1  -6 1.04820 4.18157   6
  -1   1  -6 3.27214 7.21503   3
  -2  -1  -6 -15.469   6.674   6
   2  -1   6 -0.3760  4.7292   6
  -2  -1  -6 7.71661 8.07357   2
  -2  -1  -6 8.05053 3.39246   7
  -2   1  -6 5.58850 6.70819   2
  -3  -1  -6 -1.7522  4.5436   7
   3  -1   6 11.3526  5.3316   6
  -3  -1  -6 -1.2591  7.2658   2
  -3  -1  -6 6.50032 4.64750   7
  -3   1  -6 -2.2689  6.4592   2
   4  -1   6 -3.3915  6.0460   6
  -4  -1  -6 -1.0575  5.7988   7
  -4  -1  -6 -2.5108  7.3394   2
  -4   1  -6 4.74114 4.50858   7
   4   1   6 8.15592 9.09231   6
  -4   1  -6 -1.3354  6.6593   2
  -5  -1  -6 13.5464  7.1147   7
   5  -1   6 -6.2561  7.2403   6
  -5  -1  -6 5.02273 7.71881   2
  -5   1  -6 -1.1463  7.1375   2
   5   1   6 17.7941  9.6397   6
  -5   1  -6 10.5996  5.9913   7
   6  -1   6 6.60255 8.46176   6
  -6  -1  -6 17.6977  9.0585   2
  -6  -1  -6 3.21698 7.55096   7
  -6   1  -6 -0.3305  6.4820   7
   6   1   6  6.6427 11.3560   6
  -7  -1  -6 2.35135 8.05246   7
  -7   1  -6 2.76652 7.38409   7
   7   1   6 15.4534 12.3335   6
  -8  -1  -6 19.7903  9.3869   7
  -8   1  -6 25.5099  9.1345   7
   8   1   6 43.0285 14.5327   6
  -9  -1  -6 22.6288 10.0556   7
   9   1   6 25.8346 15.9474   6
  -9   1  -6 15.6119  9.8786   7
 -10  -1  -6 -12.435   9.410   7
 -10   1  -6 17.8050  9.9753   7
  10   1   6 -4.4279 14.0267   6
 -11  -1  -6  6.7011 10.5004   7
 -11   1  -6 23.7494 10.7941   7
 -12  -1  -6 46.3389 13.2709   7
 -12   1  -6 61.9584 13.9316   7
  12  -2  -6 268.714  23.726   7
  12  -2  -6 276.865  29.596   3
 -12  -2   6 271.229  26.798   1
  12   2  -6 277.330  29.877   3
 -12   2   6 293.061  27.009   1
  12   2  -6 282.120  24.521   7
  11  -2  -6 25.2584 13.0700   7
 -11  -2   6 10.6138 14.9992   1
  11  -2  -6  9.4787 15.6284   3
  11   2  -6  5.4554 12.8121   7
  11   2  -6  2.0884 16.5958   3
 -11   2   6 -11.155  13.345   1
  10  -2  -6 111.117  18.860   6
  10  -2  -6 92.8044 19.4277   3
 -10  -2   6 130.311  19.693   1
  10  -2  -6 119.441  16.242   7
 -10   2   6 129.708  18.657   1
  10   2  -6 107.929  19.488   6
  10   2  -6 115.687  16.345   7
  10   2  -6 94.0108 20.4159   3
   9  -2  -6 108.282  14.723   7
  -9  -2   6 134.252  18.142   1
   9  -2  -6 132.553  17.800   6
   9  -2  -6 114.590  18.592   3
  -9   2   6 100.750  16.425   1
   9   2  -6 135.225  16.181   7
   9   2  -6 100.683  17.990   3
   9   2  -6 93.5994 17.3891   6
   8  -2  -6 962.780  31.957   7
   8  -2  -6 995.493  37.822   3
   8  -2  -6 898.256  34.624   6
  -8  -2   6 946.494  35.155   1
   8   2  -6 943.326  31.770   7
   8   2  -6 935.685  36.817   3
   8   2  -6 936.904  34.970   6
  -8   2   6 931.604  33.901   1
   7  -2  -6 31.5017 12.1527   3
   7  -2  -6 19.5816  9.2659   7
  -7  -2   6 19.7828 10.9323   1
   7  -2  -6 12.0184 11.4312   6
   7   2  -6 25.7589  9.7533   7
  -7   2   6  8.5838 10.0353   1
   7   2  -6 11.6434 11.3473   3
   7   2  -6 19.2178 11.9715   6
  -6  -2   6 274.788  18.699   1
   6  -2  -6 273.618  15.710   7
   6  -2  -6 291.301  18.370   6
   6  -2  -6 264.762  19.864   3
  -6   2   6 239.636  17.826   1
   6   2  -6 262.932  19.251   3
   6   2  -6 279.228  15.520   7
   6   2  -6 240.567  18.242   6
   6   2  -6 306.972  20.151   5
  -5  -2   6 155.395  14.435   1
   5  -2  -6 140.249  10.574   2
   5  -2  -6 128.433  10.985   7
   5  -2  -6 131.193  13.391   6
   5  -2  -6 148.118  14.353   3
   5   2  -6 150.691  14.531   5
   5   2  -6 137.188  13.192   6
   5   2  -6 123.714  13.256   2
  -5   2   6 139.280  12.961   1
   5   2  -6 145.569  11.054   7
   5   2  -6 160.073  14.532   3
  -4  -2   6 2550.70   59.22   1
   4  -2  -6 2699.85   54.63   7
   4  -2  -6 2659.41   60.79   3
   4  -2  -6 2656.07   59.31   6
   4  -2  -6 2671.84   55.13   2
   4   2  -6 2625.38   60.01   3
  -4   2   6 2521.84   57.53   1
   4   2  -6 2670.15   50.39   7
   4   2  -6 2682.45   57.87   6
   4   2  -6 2596.98   60.10   5
   4   2  -6 2561.86   57.28   2
  -3  -2   6 31.2934  8.8222   1
   3  -2  -6 43.5154  9.0733   6
   3  -2  -6 55.4909  8.3988   2
   3  -2  -6 31.8548  8.8275   3
   3  -2  -6 38.6510  6.5375   7
  -3   2   6 32.6084  7.6615   1
   3   2  -6 55.2854  9.6782   5
   3   2  -6 34.4309  7.9723   2
   3   2  -6 52.8357  9.1869   3
   3   2  -6 30.2695  7.7288   6
   2  -2  -6 520.583  18.391   2
  -2  -2   6 570.472  20.360   1
   2  -2  -6 552.800  20.227   3
   2  -2  -6 531.900  19.681   6
   2  -2  -6 564.821  15.617   7
   2   2  -6 561.348  16.712   6
  -2   2   6 535.096  17.916   1
   2   2  -6 568.133  19.914   5
   2   2  -6 548.921  19.810   3
   2   2  -6 550.947  19.416   2
   1  -2  -6 134.491  11.374   2
   1  -2  -6 117.158  10.298   3
   1  -2  -6 108.015   7.605   7
   1  -2  -6 129.610  11.144   6
   1  -2  -6 135.489  10.982   4
  -1   2   6 114.806   8.908   1
   1   2  -6 119.755  10.665   2
   1   2  -6 127.687   7.429   6
   1   2  -6 101.226  10.214   3
   0  -2  -6 4424.75   89.50   6
   0  -2  -6 4425.91   86.67   4
   0  -2  -6 4553.90   82.89   7
   0  -2  -6 4421.00   89.14   2
   0  -2  -6 4465.00   90.08   3
   0   2  -6 4515.10   88.18   2
   0   2  -6 4654.12   82.13   6
   0   2  -6 4463.50   91.34   3
  -1  -2  -6 1.54353 4.23426   7
  -1  -2  -6 17.4220  8.3733   2
  -1  -2  -6 3.04396 7.98505   6
  -1  -2  -6 3.41797 6.83629   3
  -1   2  -6 16.1530  7.1838   2
  -1   2  -6 3.92270 7.01911   3
  -2  -2  -6 583.367  21.177   2
  -2  -2  -6 568.403  20.286   6
  -2  -2  -6 593.801  16.427   7
  -2   2  -6 559.242  18.471   2
   3  -2   6 66.2449  5.0212   6
  -3  -2  -6 58.8853  7.3827   7
  -3  -2  -6 63.9158 10.6995   2
  -3  -2  -6 63.7074  7.6422   7
  -3   2  -6 54.8918  8.4294   2
  -3   2  -6 67.6890  7.8830   1
  -4  -2  -6 3022.15   63.29   7
  -4  -2  -6 3151.27   67.21   2
  -4   2  -6 3103.47   62.01   1
  -4   2  -6 3084.08   57.90   7
  -4   2  -6 3093.82   62.40   2
  -5  -2  -6 -11.530   8.710   2
  -5  -2  -6 -9.3249  7.0243   7
   5   2   6 20.1130 11.2964   6
  -5   2  -6 15.0424  5.8394   7
  -6  -2  -6 246.403  17.069   2
  -6  -2  -6 271.341  16.381   7
   6   2   6 279.535  19.457   6
  -6   2  -6 249.235  13.186   7
  -7  -2  -6 42.0972 11.9662   2
  -7  -2  -6 40.2631  9.8885   7
  -7   2  -6 52.1521  9.1492   7
   7   2   6 61.1889 14.6006   6
  -8  -2  -6 1343.93   37.52   7
   8   2   6 1228.64   42.88   6
  -8   2  -6 1259.61   34.81   7
  -9  -2  -6 28.2323 10.9243   7
  -9   2  -6 38.2974 10.2182   7
   9   2   6  9.9929 15.8060   6
 -10  -2  -6 67.8776 13.1373   7
  10   2   6 69.1890 19.2697   6
 -10   2  -6 54.1802 12.1284   7
 -11  -2  -6 47.3049 12.8682   7
  11   2   6 25.6411 18.1459   6
 -11   2  -6  8.5055 11.0555   7
 -12  -2  -6 432.338  25.369   7
 -12   2  -6 411.872  23.894   7
  12  -3  -6 14.7233 18.2355   3
 -12  -3   6 34.5179 17.3685   1
  12  -3  -6 -5.4127 13.4039   7
 -12   3   6  4.2506 15.7368   1
  12   3  -6 31.8211 18.4109   3
  12   3  -6 20.7149 13.9002   7
 -11  -3   6 147.677  22.052   1
  11  -3  -6 165.663  19.440   7
  11  -3  -6 111.149  22.030   3
  11   3  -6 117.429  21.939   3
 -11   3   6 131.907  19.916   1
  11   3  -6 172.888  19.063   7
  10  -3  -6 203.788  21.695   6
  10  -3  -6 217.549  23.953   3
 -10  -3   6 246.763  23.326   1
  10  -3  -6 237.301  20.289   7
  10   3  -6 214.034  23.756   3
  10   3  -6 221.706  19.688   7
  10   3  -6 236.480  25.396   6
 -10   3   6 235.351  22.868   1
   9  -3  -6 56.2956 12.9334   7
  -9  -3   6 41.9229 13.9437   1
   9  -3  -6 34.9199 14.3060   6
   9  -3  -6 42.0790 15.3640   3
   9   3  -6 25.1952 16.5956   6
   9   3  -6 16.4124 11.7574   7
   9   3  -6 44.9385 15.5155   3
  -9   3   6 36.2451 13.7946   1
   8  -3  -6  9.8128 12.0925   6
   8  -3  -6 -15.094  11.503   3
  -8  -3   6  9.0992 12.2372   1
   8  -3  -6 -6.9628  9.6374   7
   8   3  -6 10.4613 10.3669   7
   8   3  -6 -5.3471 12.7273   6
   8   3  -6 -13.872  12.705   5
   8   3  -6 -16.591  11.950   3
  -8   3   6 -9.5608 10.3304   1
  -7  -3   6 294.740  21.604   1
   7  -3  -6 284.156  19.625   6
   7  -3  -6 276.291  17.489   7
   7  -3  -6 263.686  21.517   3
   7   3  -6 290.255  21.019   3
   7   3  -6 283.530  22.921   5
  -7   3   6 328.583  20.933   1
   7   3  -6 275.712  17.286   7
   7   3  -6 289.610  21.210   6
  -6  -3   6 426.233  22.324   1
   6  -3  -6 388.948  18.849   7
   6  -3  -6 359.069  21.715   3
   6  -3  -6 369.400  20.680   6
  -6   3   6 383.044  20.496   1
   6   3  -6 396.954  20.590   6
   6   3  -6 382.021  23.796   5
   6   3  -6 404.289  17.591   7
   6   3  -6 365.877  21.298   3
   5  -3  -6 270.174  17.480   6
   5  -3  -6 284.510  17.822   3
   5  -3  -6 271.970  14.844   7
  -5  -3   6 250.346  18.227   1
   5   3  -6 244.487  16.877   3
  -5   3   6 246.833  16.583   1
   5   3  -6 263.716  15.910   6
   5   3  -6 250.049  12.218   7
   5   3  -6 223.733  18.666   5
   4  -3  -6 8.07979 6.56222   7
  -4  -3   6 14.5372  8.8371   1
   4  -3  -6 11.6907  7.5865   2
   4  -3  -6 17.8807  9.4087   6
   4  -3  -6 -2.0977  8.0488   3
  -4   3   6 15.9364  8.2014   1
   4   3  -6 11.1366  9.3239   5
   4   3  -6 -5.8682  8.0719   3
   4   3  -6 17.3331  4.7175   7
   4   3  -6 10.8799  8.2509   6
   3  -3  -6 514.867  17.287   7
   3  -3  -6 484.794  20.086   4
   3  -3  -6 485.560  20.661   6
   3  -3  -6 504.357  18.303   2
   3  -3  -6 454.838  19.796   3
  -3  -3   6 477.830  21.548   1
   3   3  -6 474.500  19.167   3
   3   3  -6 496.202  21.632   5
   3   3  -6 472.449  19.791   2
  -3   3   6 479.523  18.617   1
   3   3  -6 504.047  17.680   6
   2  -3  -6 293.001  16.088   4
   2  -3  -6 299.585  15.532   2
   2  -3  -6 310.742  13.168   7
   2  -3  -6 294.619  14.901   3
   2  -3  -6 303.832  16.284   6
   2   3  -6 307.775  12.870   6
   2   3  -6 287.394  15.306   3
   2   3  -6 312.616  17.274   5
  -2   3   6 282.150  13.760   1
   2   3  -6 296.869  14.591   2
   1  -3  -6 880.646  22.793   7
   1  -3  -6 846.219  25.568   2
   1  -3  -6 897.061  26.039   4
   1  -3  -6 899.383  26.845   6
   1  -3  -6 831.637  24.567   3
   1   3  -6 896.539  26.472   5
  -1   3   6 831.710  23.402   1
   1   3  -6 913.291  20.642   6
   1   3  -6 870.065  25.784   3
   1   3  -6 891.786  26.037   2
   0  -3  -6 22.3351  5.9870   7
   0  -3  -6 32.0237  9.2086   2
   0  -3  -6 25.6945  7.3091   3
   0  -3  -6 40.3610  9.1448   6
   0  -3  -6 19.1361  8.3088   4
   0   3   6 34.3534  6.4586   1
   0   3  -6 31.6465  8.0174   3
   0   3  -6 36.9245  3.9159   6
   0   3  -6 32.1559  8.4359   2
  -1  -3  -6 429.025  15.017   7
  -1  -3  -6 421.945  16.463   3
  -1  -3  -6 384.290  17.702   2
  -1  -3  -6 410.273  18.477   6
  -1   3  -6 442.641  16.937   2
  -2  -3  -6 25.0612  9.8462   6
  -2  -3  -6 35.6749  6.9984   7
  -2  -3  -6 41.3192 10.1988   2
  -2   3  -6 28.5974  7.9031   2
  -2   3  -6 45.6629  8.3985   1
  -3  -3  -6 1111.61   29.85   7
  -3  -3  -6 1139.09   29.62   7
  -3  -3  -6 1174.24   33.72   2
  -3   3  -6 1089.64   28.54   2
  -3   3  -6 1217.48   30.17   1
  -4  -3  -6 20.4388  7.9544   7
  -4   3  -6 44.5957  7.8289   2
  -4   3  -6 37.0627  8.1909   1
  -4   3  -6 31.7037  5.1121   7
  -5  -3  -6 142.256  12.948   7
  -5   3  -6 131.448   9.375   7
  -5   3  -6 138.788  12.310   1
   5   3   6 151.578  16.535   6
  -6  -3  -6 11.2432  9.0098   7
   6   3   6 11.0582 12.1372   6
  -6   3  -6 17.2134  6.9033   7
  -7  -3  -6 766.596  30.001   2
  -7  -3  -6 789.323  28.392   7
  -7   3  -6 750.852  23.883   7
   7   3   6 838.802  33.076   6
  -8  -3  -6  9.3641 10.2293   7
   8   3   6 29.8940 15.4112   6
  -8   3  -6 20.7499  8.9529   7
  -9  -3  -6 13.7178 10.9296   7
  -9   3  -6 18.2359  9.5488   7
   9   3   6  4.4649 16.1780   6
 -10  -3  -6 27.3031 11.8324   7
  10   3   6 13.9528 16.7634   6
 -10   3  -6 29.3004 10.6637   7
 -11  -3  -6 404.351  24.316   7
 -11   3  -6 408.343  22.367   7
 -12  -3  -6 25.5408 12.9878   7
 -12   3  -6 43.5932 12.8427   7
  11  -4  -6 55.0633 15.2757   7
  11  -4  -6 30.0842 18.1779   3
 -11  -4   6 43.2405 17.3361   1
 -11   4   6 33.8280 15.6953   1
  11   4  -6 32.4303 13.9053   7
  10  -4  -6 55.9910 17.7595   3
 -10  -4   6 77.9519 16.8464   1
  10  -4  -6 78.9215 15.2148   7
  10   4  -6 53.5068 13.7624   7
 -10   4   6 84.7843 17.3359   1
   9  -4  -6 31.5159 12.1574   7
  -9  -4   6 30.1857 14.9803   1
   9  -4  -6 43.7808 15.3997   3
   9  -4  -6 28.5044 14.4803   6
  -9   4   6 58.2714 14.8449   1
   9   4  -6 44.5209 12.5753   7
   9   4  -6 69.0155 19.1015   6
   9   4  -6 66.0890 18.2651   5
   8  -4  -6 121.831  16.848   6
  -8  -4   6 111.822  17.671   1
   8  -4  -6 107.731  14.309   7
   8  -4  -6 67.8367 15.5579   3
   8   4  -6 144.306  14.750   7
   8   4  -6 108.974  18.921   5
  -8   4   6 130.316  16.880   1
   8   4  -6 130.920  17.736   3
   8   4  -6 58.8669 17.5999   6
   7  -4  -6 57.8385 13.9981   6
  -7  -4   6 44.4224 13.7487   1
   7  -4  -6 136.873  16.580   3
   7  -4  -6 86.9223 12.6739   7
  -7   4   6 105.640  15.239   1
   7   4  -6 66.4926 14.1523   3
   7   4  -6 92.4317 15.7035   6
   7   4  -6 85.3053 11.9135   7
   7   4  -6 91.5953 17.2386   5
   6  -4  -6 193.035  17.717   6
  -6  -4   6 167.048  17.812   1
   6  -4  -6 181.291  17.506   3
   6  -4  -6 170.152  14.886   7
   6   4  -6 148.530  18.758   5
  -6   4   6 169.853  16.734   1
   6   4  -6 170.176  12.928   7
   6   4  -6 158.120  16.416   3
   6   4  -6 196.506  18.173   6
  -5  -4   6 67.0125 12.8536   1
   5  -4  -6 68.2465 13.0784   6
   5  -4  -6 66.3648 12.0237   3
   5  -4  -6 83.6838 10.8249   7
   5   4  -6 59.6309  8.0049   7
   5   4  -6 73.5850 12.8579   6
  -5   4   6 66.7830 11.6010   1
   5   4  -6 78.3380 14.3620   5
   5   4  -6 78.3903 12.1481   3
   4  -4  -6 262.018  15.357   7
   4  -4  -6 282.725  17.278   4
  -4  -4   6 271.396  19.548   1
   4  -4  -6 270.351  17.120   3
   4  -4  -6 267.865  14.386   2
   4  -4  -6 276.152  18.343   6
  -4   4   6 261.332  17.017   1
   4   4  -6 291.644  21.126   5
   4   4  -6 272.159  16.165   6
   4   4  -6 276.182  16.076   3
   4   4  -6 302.430  11.154   7
   3  -4  -6 215.671  16.389   6
   3  -4  -6 201.291  16.201   4
   3  -4  -6 221.564  13.662   7
   3  -4  -6 241.928  14.599   2
   3  -4  -6 209.921  14.873   3
   3   4  -6 231.386  13.834   6
   3   4  -6 196.268  17.241   5
   3   4  -6 240.365   7.620   7
  -3   4   6 222.783  15.155   1
   3   4  -6 194.699  14.041   3
   2  -4  -6 460.299  18.901   2
   2  -4  -6 468.765  20.445   4
   2  -4  -6 473.973  21.060   6
   2  -4  -6 506.050  18.120   7
   2  -4  -6 475.065  18.716   3
   2   4  -6 478.911  16.710   6
  -2   4   6 474.026  18.643   1
   2   4  -6 468.634  21.438   5
   2   4  -6 473.390  18.757   3
   1  -4  -6 111.252  12.731   6
   1  -4  -6 115.077   9.937   3
   1  -4  -6 111.790  12.314   2
   1  -4  -6 129.787  10.244   7
   1  -4  -6 127.606  12.468   4
   1   4  -6 112.166  12.517   5
   1   4  -6 104.403   8.449   6
   1   4  -6 118.143  12.442   2
  -1   4   6 127.903  10.675   1
   1   4  -6 118.446  11.289   3
   0  -4  -6 362.776  15.504   7
   0  -4  -6 430.122  15.888   3
   0  -4  -6 350.183  18.731   6
   0  -4  -6 344.485  18.250   2
   0   4  -6 353.907  17.469   5
   0   4  -6 355.332  16.795   3
   0   4   6 347.149  14.757   1
   0   4  -6 415.299  17.690   2
  -1  -4  -6 305.772  14.029   3
  -1  -4  -6 295.923  17.585   6
  -1  -4  -6 266.162  16.425   2
  -1  -4  -6 279.032  14.536   7
   1   4   6 283.066  12.676   1
  -1   4  -6 273.387  14.895   2
  -1   4  -6 337.220  15.912   5
  -2  -4  -6 664.995  25.852   6
  -2  -4  -6 618.785  21.210   7
  -2   4  -6 621.818  22.465   1
   2   4   6 646.022  20.859   5
  -2   4  -6 639.625  20.772   2
  -3  -4  -6 144.527  12.566   7
  -3  -4  -6 134.299  12.333   7
  -3   4  -6 151.117  13.066   1
  -3   4  -6 145.130  11.386   2
   3   4   6 157.539  12.012   5
  -4  -4  -6 243.523  16.374   7
  -4   4  -6 283.781  16.226   1
  -4   4  -6 264.705  10.407   7
  -5  -4  -6 184.695  15.188   7
  -5   4  -6 173.401  14.746   1
  -5   4  -6 176.436  10.925   7
  -6  -4  -6 345.964  20.167   7
  -6   4  -6 364.743  15.353   7
   6   4   6 362.101  23.246   6
  -6   4  -6 392.034  20.195   1
  -7  -4  -6 113.661  14.436   7
  -7   4  -6 109.563  10.802   7
   7   4   6 130.115  18.715   6
  -8  -4  -6 92.6906 14.2869   7
  -8   4  -6 96.8791 11.3091   7
   8   4   6 74.2232 18.6534   6
  -9  -4  -6 47.3830 12.6122   7
  -9   4  -6 71.8078 12.0597   7
   9   4   6 105.007  21.093   6
 -10  -4  -6 139.492  16.822   7
 -10   4  -6 151.741  15.283   7
 -11  -4  -6 50.8065 13.8869   7
 -11   4  -6 41.2696 11.9376   7
  11  -5  -6 95.9000 20.0747   3
 -11  -5   6 48.0894 17.0303   1
  11  -5  -6 28.6090 14.1522   7
  11   5  -6 105.649  16.161   7
 -11   5   6 60.7960 18.3006   1
  10  -5  -6 229.197  24.665   3
  10  -5  -6 220.383  20.461   7
 -10  -5   6 207.586  23.531   1
  10   5  -6 173.084  24.649   5
 -10   5   6 214.194  23.069   1
  10   5  -6 247.377  19.788   7
  -9  -5   6 42.3451 15.9640   1
   9  -5  -6  6.8285 11.5962   7
   9  -5  -6  2.3034 13.6813   3
   9   5  -6  1.0049 10.7543   7
   9   5  -6 24.4476 16.5452   6
   9   5  -6 -0.1440 15.5076   5
  -9   5   6  2.6064 12.9805   1
   8  -5  -6 -7.3991 10.5035   7
   8  -5  -6  3.5550 14.2518   6
  -8  -5   6  6.5968 13.4286   1
   8  -5  -6 -6.0307 12.5500   3
  -8   5   6 -0.2036 11.9485   1
   8   5  -6 -12.441  14.717   6
   8   5  -6 -3.3783  9.3787   7
   8   5  -6  6.3132 14.8124   5
   7  -5  -6 265.531  22.020   6
   7  -5  -6 217.995  19.641   4
   7  -5  -6 273.675  21.505   3
   7  -5  -6 229.227  18.556   7
  -7  -5   6 276.488  23.074   1
  -7   5   6 287.894  21.282   1
   7   5  -6 228.868  16.293   7
   7   5  -6 277.260  25.040   5
   7   5  -6 253.087  22.353   6
  -6  -5   6 394.724  24.002   1
   6  -5  -6 369.363  22.008   3
   6  -5  -6 420.081  23.644   6
   6  -5  -6 346.191  19.924   7
   6  -5  -6 425.508  22.416   4
  -6   5   6 372.875  22.913   1
   6   5  -6 385.739  23.908   6
   6   5  -6 404.016  26.115   5
   6   5  -6 390.745  17.442   7
   5  -5  -6 54.9918 11.6768   3
   5  -5  -6 49.6808 10.7031   7
   5  -5  -6 50.4375 12.9142   6
   5  -5  -6 43.0246 12.7795   4
  -5  -5   6  9.7104 11.8493   1
  -5   5   6 61.7670 12.6051   1
   5   5  -6 58.9961  8.2052   7
   5   5  -6 56.0161 14.9303   5
   5   5  -6 46.3797 13.0992   6
   4  -5  -6 33.3995  9.6485   7
   4  -5  -6 48.5357 10.7789   3
   4  -5  -6 50.0712 12.5097   6
   4  -5  -6 40.8277 11.2342   4
   4   5  -6 64.7887 14.2699   5
  -4   5   6 44.0995 10.9090   1
   4   5  -6 46.6164 11.4715   6
   4   5  -6 39.3717  6.4871   7
   3  -5  -6 523.452  22.400   4
   3  -5  -6 579.551  21.739   7
   3  -5  -6 525.786  24.040   6
   3  -5  -6 540.213  21.328   2
   3  -5  -6 515.178  20.850   3
   3   5  -6 494.691  25.499   5
   3   5  -6 543.138  14.640   7
  -3   5   6 548.734  22.489   1
   3   5  -6 538.860  21.648   6
   2  -5  -6 263.007  16.302   4
   2  -5  -6 241.493  14.523   3
   2  -5  -6 281.695  15.714   7
   2  -5  -6 283.863  18.541   6
   2  -5  -6 311.923  17.930   2
  -2   5   6 278.108  16.400   1
   2   5  -6 283.573  15.837   3
   2   5  -6 285.478   8.216   7
   2   5  -6 284.083  19.867   5
   1  -5  -6 543.007  20.778   7
   1  -5  -6 517.165  23.171   6
   1  -5  -6 550.578  23.327   2
   1  -5  -6 569.042  23.278   4
  -1   5   6 589.059  20.620   1
   1   5  -6 498.207  23.144   5
   1   5  -6 533.003  20.328   3
   0  -5  -6 49.3686  9.0508   7
   0  -5  -6 65.8287 12.3489   6
   0   5   6 48.4660  8.6338   1
   0   5  -6 63.2036 11.3045   5
  -1  -5  -6 409.105  21.952   6
  -1  -5  -6 381.339  18.292   7
   1   5   6 387.433  16.395   1
  -1   5  -6 369.442  18.851   5
  -1   5  -6 415.226  20.877   1
  -2  -5  -6 25.9307 12.3893   6
  -2  -5  -6 32.2207  9.4070   7
   2   5   6 15.7704  8.0666   5
  -2   5  -6 40.7061 10.1547   1
  -3  -5  -6 1277.93   36.48   7
  -3   5  -6 1267.68   26.54   7
   3   5   6 1288.69   34.95   5
  -3   5  -6 1215.55   36.14   1
  -4  -5  -6 2.48531 9.18437   7
  -4  -5  -6 -3.2058  8.9402   7
  -4   5  -6 4.54425 9.33482   1
  -4   5  -6 -4.0882  5.3842   7
  -5  -5  -6 31.7840 11.1874   7
  -5   5  -6 40.9291  7.1743   7
  -5   5  -6 22.0515 10.7099   1
  -6  -5  -6  8.5581 10.5684   7
   6   5   6 21.5342 14.1037   6
  -6   5  -6 23.9836 11.5006   1
  -6   5  -6 13.1687  7.2761   7
  -7  -5  -6 1092.11   36.24   7
  -7   5  -6 1004.21   29.08   7
   7   5   6 1037.49   40.93   6
  -8  -5  -6 -7.6653 10.4072   7
  -8   5  -6 3.03499 8.69211   7
   8   5   6 -15.305  15.397   6
  -9  -5  -6 34.2501 12.9960   7
  -9   5  -6 22.3946  9.8566   7
   9   5   6 30.0899 18.2375   6
 -10  -5  -6 10.9268 12.0407   7
 -10   5  -6 27.0702 10.9160   7
 -11  -5  -6 428.744  25.994   7
 -11   5  -6 415.003  22.895   7
  10  -6  -6 195.546  23.349   3
 -10  -6   6 227.300  25.276   1
  10  -6  -6 190.627  20.683   7
  10   6  -6 200.636  26.049   5
 -10   6   6 205.173  22.768   1
  10   6  -6 165.373  17.606   7
  -9  -6   6 48.3985 16.8405   1
   9  -6  -6 54.6513 17.0003   3
   9  -6  -6 59.9701 14.1241   7
   9   6  -6 53.6800 18.8732   5
   9   6  -6 40.9786 12.6912   7
  -9   6   6 48.4952 16.0069   1
  -8  -6   6 55.0531 16.8195   1
   8  -6  -6 65.2707 17.3594   6
   8  -6  -6 49.9638 15.7659   3
   8  -6  -6 53.2125 13.6614   7
   8   6  -6 38.0123 11.8799   7
   8   6  -6 48.3032 19.1298   6
   8   6  -6 55.4395 18.1401   5
  -8   6   6 70.4937 15.8981   1
   7  -6  -6 362.500  25.555   6
   7  -6  -6 377.849  24.662   4
   7  -6  -6 356.956  22.033   7
   7  -6  -6 398.883  24.400   3
  -7  -6   6 384.954  26.341   1
   7   6  -6 370.355  27.349   6
   7   6  -6 404.262  19.581   7
  -7   6   6 395.932  24.658   1
   7   6  -6 418.350  29.302   5
   6  -6  -6 186.926  17.040   7
   6  -6  -6 177.414  18.355   4
   6  -6  -6 155.041  18.788   6
  -6  -6   6 156.952  19.457   1
   6   6  -6 223.930  14.408   7
   6   6  -6 196.846  21.996   5
  -6   6   6 204.232  19.841   1
   6   6  -6 159.330  19.704   6
  -5  -6   6 168.785  19.201   1
   5  -6  -6 171.842  17.985   4
   5  -6  -6 178.811  16.026   7
   5  -6  -6 170.952  18.537   6
   5   6  -6 179.397  12.265   7
  -5   6   6 188.975  18.172   1
   5   6  -6 197.058  19.178   6
   5   6  -6 174.760  20.639   5
   4  -6  -6 299.022  20.767   6
   4  -6  -6 279.972  19.640   4
   4  -6  -6 254.196  18.103   7
   4   6  -6 260.307  12.326   7
   4   6  -6 258.058  22.330   5
  -4   6   6 253.258  18.708   1
   3  -6  -6 492.997  22.069   7
   3  -6  -6 510.324  24.988   6
   3  -6  -6 472.704  23.157   4
   3  -6  -6 491.603  22.347   2
   3   6  -6 448.277  25.744   5
   3   6  -6 473.196  15.045   7
  -3   6   6 458.497  22.398   1
   2  -6  -6 41.3624  9.9694   7
   2  -6  -6 40.9217 12.6631   6
   2  -6  -6 53.6430 12.3549   4
   2  -6  -6 55.9775 12.7090   2
  -2   6   6 45.7887 10.5417   1
   2   6  -6 43.6633  5.7415   7
   2   6  -6 70.4990 13.8096   5
   1  -6  -6 212.483  18.591   6
   1  -6  -6 234.284  16.563   7
   1  -6  -6 226.677  18.937   2
   1   6  -6 247.848  18.856   5
   1   6  -6 246.898   8.913   7
  -1   6   6 224.165  15.863   1
   0  -6  -6 478.710  23.972   6
   0  -6  -6 459.185  21.110   7
   0   6  -6 495.369  12.513   7
   0   6   6 486.612  20.572   1
   0   6  -6 479.598  23.237   5
  -1  -6  -6 467.270  22.160   7
  -1  -6  -6 488.621  24.902   6
   1   6   6 459.281  19.725   1
  -1   6  -6 476.516  22.846   5
  -1   6  -6 464.802  23.440   1
  -1   6  -6 473.020  12.654   7
  -2  -6  -6 7.55844 9.70418   7
  -2  -6  -6 15.9619 12.8932   6
  -2   6  -6 16.1117  5.0496   7
  -2   6  -6 14.8003 10.3474   5
  -2   6  -6  4.2914 10.1747   1
   2   6   6 17.1588  9.6773   5
  -3  -6  -6 140.233  15.168   7
  -3   6  -6 124.072   8.712   7
  -3   6  -6 130.752  15.345   1
   3   6   6 139.253  14.281   5
  -4  -6  -6 357.294  22.443   7
  -4  -6  -6 339.352  22.108   7
   4   6   6 390.615  21.492   5
  -4   6  -6 364.354  13.857   7
  -4   6  -6 358.583  21.847   1
  -5  -6  -6 336.667  21.885   7
  -5  -6  -6 292.575  21.634   7
  -5   6  -6 339.304  14.948   7
  -5   6  -6 351.868  22.043   1
  -6  -6  -6 55.3492 13.7583   7
  -6   6  -6 76.9972  9.8074   7
  -6   6  -6 91.8440 15.5051   1
   6   6   6 67.0057 17.0347   6
  -7  -6  -6 35.2843 12.8444   7
   7   6   6 87.4226 18.5054   6
  -7   6  -6 36.9712  9.6319   7
  -7   6  -6 40.5376 14.6983   1
  -8  -6  -6 134.416  17.488   7
   8   6   6 106.895  20.267   6
  -8   6  -6 109.907  12.932   7
  -9  -6  -6 159.391  18.530   7
  -9   6  -6 148.733  15.120   7
 -10  -6  -6 176.575  19.434   7
 -10   6  -6 185.203  16.313   7
   9  -7  -6 105.655  17.000   7
  -9  -7   6 65.4624 18.7097   1
  -9   7   6 79.7655 17.5045   1
   9   7  -6 68.0807 13.5637   7
   9   7  -6 57.1168 19.5740   5
  -8  -7   6 21.5239 15.4807   1
   8  -7  -6  6.8213 12.1593   7
   8   7  -6 15.9198 17.0366   5
   8   7  -6 18.1569 10.5041   7
  -8   7   6 41.4428 15.6126   1
   7  -7  -6 -6.9012 10.8378   7
  -7  -7   6 22.9672 14.3086   1
   7  -7  -6 16.9207 14.9518   6
   7   7  -6 -7.4538  9.2633   7
   7   7  -6 35.6162 17.3933   5
  -7   7   6 -2.2526 12.8118   1
   6  -7  -6 17.5614 14.3107   6
   6  -7  -6 22.0821 12.1066   7
  -6  -7   6 29.9346 15.7234   1
   6  -7  -6 21.7590 13.4786   4
   6   7  -6 29.5708  9.3583   7
   6   7  -6 48.6172 17.2727   5
  -6   7   6 40.8642 14.3139   1
  -5  -7   6 172.655  20.779   1
   5  -7  -6 206.288  19.990   4
   5  -7  -6 207.714  20.736   6
   5  -7  -6 220.081  19.058   7
   5   7  -6 207.115  13.719   7
   5   7  -6 214.355  23.230   5
  -5   7   6 184.447  19.333   1
   4  -7  -6 94.8680 16.2645   6
   4  -7  -6 57.1343 14.1018   4
   4  -7  -6 80.7310 13.4256   7
  -4   7   6 104.774  15.154   1
   4   7  -6 84.4297  9.4728   7
   4   7  -6 43.4321 15.0478   5
   3  -7  -6  4.3536 11.7170   4
   3  -7  -6 23.6563 10.4883   7
   3  -7  -6  6.8331 12.6141   6
   3   7  -6 -19.817  11.796   5
  -3   7   6 16.8560 11.3864   1
   3   7  -6 10.8434  6.6442   7
   2  -7  -6 21.9494 13.0327   6
   2  -7  -6 -1.1245  9.4102   7
   2  -7  -6  9.3005 12.5086   2
   2   7  -6 28.8420 13.2372   5
  -2   7   6 22.4259 11.1430   1
   2   7  -6 -0.0767  5.4846   7
   1  -7  -6 139.649  17.865   6
   1  -7  -6 143.802  15.223   7
   1   7  -6 146.219   9.393   7
   1   7  -6 159.592  18.108   5
  -1   7   6 158.360  15.462   1
   0  -7  -6 106.449  13.759   7
   0  -7  -6 140.301  17.611   6
   0   7  -6 117.315   8.856   7
   0   7   6 113.918  13.716   1
   0   7  -6 133.335  16.312   5
  -1  -7  -6 18.8381 13.1306   6
  -1  -7  -6 24.9058 11.5037   7
   1   7   6 32.7667 11.1619   5
  -1   7  -6 32.6476 12.3257   5
   1   7   6 23.2614  9.9142   1
  -1   7  -6 16.7994  5.5415   7
  -2  -7  -6 -7.7483 12.1827   6
  -2  -7  -6 16.5000 11.2116   7
  -2   7  -6 -13.042  10.230   5
  -2   7  -6 7.68862 5.68605   7
   2   7   6 -4.8424  9.9404   5
  -2   7  -6 -6.4591 10.7891   1
  -3  -7  -6 41.8871 12.6569   7
  -3   7  -6 29.3422  6.8809   7
   3   7   6 18.3711 11.3371   5
  -3   7  -6 13.1570 11.8588   1
  -4  -7  -6 60.4103 14.1895   7
   4   7   6 27.2472 12.6109   5
  -4   7  -6 54.0053 14.5795   1
  -4   7  -6 57.6622  8.3643   7
  -5  -7  -6 16.8601 12.8862   7
  -5  -7  -6 23.7867 12.7456   7
  -5   7  -6 9.84317 7.64018   7
  -5   7  -6 -1.2133 12.4312   1
  -6  -7  -6  6.4777 12.0388   7
  -6  -7  -6 -3.4278 11.7977   7
  -6   7  -6 13.5208 13.9057   1
   6   7   6 -2.2085 15.2534   6
  -6   7  -6 9.26975 8.43529   7
  -7  -7  -6  5.5945 12.5200   7
  -7   7  -6 -7.3222  8.4305   7
  -7   7  -6 -1.7272 13.4123   1
  -8  -7  -6 -26.862  10.759   7
  -8   7  -6 11.9214  9.5785   7
  -9  -7  -6  0.8433 12.2314   7
  -9   7  -6 11.9148 10.9078   7
  -8  -8   6 338.656  29.174   1
   8  -8  -6 366.351  25.177   7
   8   8  -6 326.958  20.040   7
   8   8  -6 307.352  29.501   5
  -8   8   6 356.852  26.895   1
  -7  -8   6 293.739  26.498   1
   7  -8  -6 283.930  23.181   7
   7   8  -6 232.510  26.923   5
   7   8  -6 267.540  17.367   7
  -7   8   6 252.965  23.937   1
  -6  -8   6 14.1239 15.3236   1
   6  -8  -6 10.1445 12.3179   7
  -6   8   6 11.9162 12.9341   1
   6   8  -6 13.0915 16.6942   5
   6   8  -6 29.7919  9.8627   7
   5  -8  -6 60.5001 17.3413   6
   5  -8  -6 61.6433 14.3930   7
   5   8  -6 56.2899  9.9856   7
   5   8  -6 65.5706 18.8904   5
  -5   8   6 60.0637 15.9966   1
   4  -8  -6 572.319  29.165   4
   4  -8  -6 582.399  27.524   7
   4  -8  -6 582.617  31.143   6
  -4   8   6 588.545  29.640   1
   4   8  -6 550.061  32.456   5
   4   8  -6 554.365  19.890   7
   3  -8  -6 284.819  21.307   7
   3  -8  -6 334.216  24.143   6
  -3   8   6 324.507  22.719   1
   3   8  -6 305.234  25.994   5
   3   8  -6 328.122  15.016   7
   2  -8  -6 54.4895 16.1711   2
   2  -8  -6 67.0099 13.2248   7
   2  -8  -6 47.2340 15.8177   6
  -2   8   6 86.2143 14.7526   1
   2   8  -6 63.4580 16.3015   5
   2   8  -6 78.6252  8.8479   7
   1  -8  -6 146.730  16.664   7
   1  -8  -6 107.673  17.824   6
   1   8  -6 123.737  18.040   5
  -1   8   6 130.767  16.410   1
   1   8  -6 119.740   9.707   7
   0  -8  -6 593.979  27.144   7
   0  -8  -6 572.167  30.122   6
   0   8   6 600.640  26.550   1
   0   8  -6 587.956  29.907   5
   0   8  -6 580.403  18.086   7
  -1  -8  -6 215.800  19.969   7
  -1  -8  -6 208.255  22.003   6
   1   8   6 225.524  19.159   5
  -1   8  -6 218.311  11.654   7
  -1   8  -6 230.150  21.432   5
  -2  -8  -6 82.3962 15.9312   7
   2   8   6 66.8284 14.3578   5
  -2   8  -6 90.7869 16.7847   1
  -2   8  -6 97.8544  9.3069   7
  -2   8  -6 110.714  16.830   5
  -3  -8  -6 182.470  19.845   7
  -3   8  -6 205.144  20.609   1
  -3   8  -6 197.340  12.543   7
   3   8   6 182.299  18.973   5
  -3   8  -6 185.880  19.770   5
  -4  -8  -6 344.049  25.600   7
  -4   8  -6 430.272  17.333   7
  -4   8  -6 415.660  27.157   1
   4   8   6 459.453  26.106   5
  -5  -8  -6 90.8259 16.9467   7
  -5   8  -6 111.704  18.820   1
  -5   8  -6 106.510  11.123   7
  -6  -8  -6 12.1188 14.0444   7
  -6  -8  -6 30.1456 14.2781   7
  -6   8  -6 17.4668  9.1005   7
  -6   8  -6 23.1535 15.3621   1
  -7  -8  -6 130.612  18.493   7
  -7  -8  -6 124.328  18.160   7
  -7   8  -6 153.923  13.795   7
  -7   8  -6 156.993  21.313   1
  -8  -8  -6 199.726  21.454   7
  -8  -8  -6 170.418  20.606   7
  -8   8  -6 208.977  16.183   7
  -8   8  -6 192.232  22.969   1
  -7  -9   6 122.534  21.720   1
   7  -9  -6 132.389  19.097   7
   7   9  -6 115.761  22.726   5
  -7   9   6 142.782  21.048   1
   7   9  -6 137.772  14.068   7
  -6  -9   6 28.5245 17.7909   1
   6  -9  -6 35.8059 14.6623   7
   6   9  -6 13.3251 17.6302   5
   6   9  -6 56.3823 11.0123   7
  -6   9   6 36.8401 16.3727   1
   5  -9  -6 13.8388 13.7374   7
   5   9  -6  2.6557 17.0086   5
   5   9  -6 3.94730 9.01976   7
  -5   9   6 -11.006  13.094   1
   4  -9  -6 20.4202 13.4596   7
  -4   9   6 41.0491 14.9320   1
   4   9  -6 14.6866  8.4155   7
   4   9  -6 34.5669 16.6832   5
   3  -9  -6 105.978  16.818   7
   3   9  -6 120.888  20.896   5
  -3   9   6 92.5982 17.1744   1
   3   9  -6 117.522  10.940   7
   2  -9  -6 90.1125 18.4894   6
   2  -9  -6 37.3319 13.5918   7
   2   9  -6 61.3670 17.5182   5
   2   9  -6 45.6067  8.7464   7
  -2   9   6 58.3058 15.5197   1
   1  -9  -6 -16.182  11.324   7
   1  -9  -6 25.1274 15.8013   6
   1   9  -6 -4.8352 14.3592   5
  -1   9   6  1.0276 12.3284   1
   1   9  -6 -0.9253  6.9590   7
   0  -9  -6 20.2595 16.0351   6
   0  -9  -6 -0.4326 11.9007   7
   0   9   6 36.6890 14.2151   5
   0   9  -6 27.7600 14.9029   5
   0   9   6 33.2409 13.5795   1
   0   9  -6 35.9653  7.9534   7
  -1  -9  -6 73.4359 18.3729   6
  -1  -9  -6 89.3565 16.6507   7
   1   9   6 73.3249 15.4300   5
  -1   9  -6 69.7257 17.0908   5
  -1   9  -6 79.7684  9.1699   7
  -2  -9  -6 21.5297 14.4427   7
  -2   9  -6 28.7263 14.9597   5
   2   9   6 26.4648 13.6005   5
  -2   9  -6 36.7345 16.1837   1
  -2   9  -6 33.6537  8.5460   7
  -3  -9  -6  5.6084 13.5603   7
  -3   9  -6  0.9543 13.9443   1
   3   9   6  0.5261 12.8801   5
  -3   9  -6  9.2153 14.0682   5
  -3   9  -6 0.19141 7.46414   7
  -4  -9  -6 17.7153 14.5535   7
  -4   9  -6 27.4380 15.3333   1
  -4   9  -6 34.8052  9.3530   7
  -4   9  -6 13.2813 15.4584   5
  -5  -9  -6 38.0280 16.1706   7
  -5   9  -6 46.1417 17.6624   1
  -5   9  -6 48.5882  9.9590   7
  -6  -9  -6  4.5653 14.4388   7
  -6   9  -6 -7.4432 14.8504   1
  -6   9  -6 -10.763   8.784   7
  -7  -9  -6 -9.6369 13.5739   7
  -7  -9  -6 -17.277  13.715   7
  -7   9  -6 10.5801 16.5679   1
  -7   9  -6 15.4563  9.8204   7
   5 -10  -6 -9.2513 13.6742   7
  -5  10   6 -18.726  13.555   1
   5  10  -6 -18.452  16.558   5
   5  10  -6 -14.298   8.340   7
   4 -10  -6 256.891  24.366   7
  -4  10   6 251.930  25.323   1
   4  10  -6 282.062  27.873   5
   4  10  -6 270.665  15.830   7
   3 -10  -6 182.990  21.562   7
  -3  10   6 257.457  24.503   1
   3  10  -6 214.173  14.832   7
   3  10  -6 272.153  27.520   5
   2 -10  -6 -10.502  12.028   7
   2  10  -6 11.4011 15.9007   5
  -2  10   6 -0.5542 13.8553   1
   2  10  -6 -6.7182  7.9099   7
   1 -10  -6 25.2567 14.6931   7
   1  10  -6  3.2096 15.8747   5
  -1  10   6 -4.5528 13.0753   1
   1  10  -6 19.8658  8.4808   7
   0 -10  -6 451.297  28.649   7
   0  10  -6 428.668  17.433   7
   0  10  -6 492.936  30.910   5
   0  10   6 416.243  28.000   5
  -1 -10  -6 150.486  20.728   7
  -1  10  -6 219.580  23.549   5
   1  10   6 173.624  21.500   5
  -1  10  -6 159.753  11.958   7
  -2 -10  -6  9.7779 14.7848   7
   2  10   6 18.2575 14.7603   5
  -2  10  -6 -7.2416 15.1730   5
  -3 -10  -6 60.5713 17.9612   7
   3  10   6 35.8937 16.1287   5
  -3  10  -6 48.0390 17.0521   5
  -3  10  -6 59.9601 18.3720   1
  -4 -10  -6 344.916  28.631   7
  -4  10  -6 409.171  29.453   5
  -4  10  -6 441.318  29.804   1
  -5 -10  -6 26.3083 16.6534   7
  -5  10  -6 93.4586 20.2281   5
  -5  10  -6 54.8615 18.0958   1
 -12   0   7 -20.339  14.530   1
  12   0  -7 -2.7631 13.0838   7
  12   0  -7 -16.645  17.006   3
  11   0  -7 -15.344  11.973   7
  11   0  -7 -21.402  15.618   3
 -11   0   7 -2.6620 14.0296   1
  10   0  -7 12.4571 15.6466   3
  10   0  -7 -15.782  11.717   7
 -10   0   7 -9.0699 13.2407   1
  10   0  -7 -10.015  13.808   6
  -9   0   7 10.1305 12.4663   1
   9   0  -7  3.4862 11.0342   7
   9   0  -7 -13.083  12.121   6
   9   0  -7  3.8072 14.2450   3
   8   0  -7 12.3639 12.8208   6
  -8   0   7 -10.099  11.009   1
   8   0  -7 4.61664 9.84792   7
   8   0  -7 -4.3814 12.3185   3
   7   0  -7 4.14675 8.75458   7
   7   0  -7 -1.2389 11.0029   3
  -7   0   7  4.1763 10.6347   1
   7   0  -7 -2.9820 11.4207   6
   6   0  -7 16.9917 10.7877   3
  -6   0   7 0.53593 9.43396   1
   6   0  -7 6.10045 7.87816   7
   6   0  -7 -1.2108  8.0780   2
   6   0  -7 -3.1732  9.5736   6
   5   0  -7 -3.3819  8.4312   6
   5   0  -7 -4.4543  6.4969   7
   5   0  -7 -0.6190  7.7787   2
   5   0  -7 4.12795 8.85476   3
  -5   0   7 8.65146 8.65575   1
  -4   0   7 7.35841 7.56731   1
   4   0  -7 -9.8276  8.0836   6
   4   0  -7 0.34988 7.71564   2
   4   0  -7 -7.7909  4.7528   7
   4   0  -7 -7.0603  7.8072   3
   3   0  -7 -7.2645  7.0723   6
   3   0  -7 -8.2748  7.1667   2
   3   0  -7 -16.692   6.847   3
  -3   0   7 9.08202 7.10769   1
   2   0  -7 -3.9094  6.3338   6
   2   0  -7 4.66166 7.24345   2
   2   0  -7 9.69561 7.23872   3
  -2   0   7 4.52673 6.29539   1
   1   0  -7 -1.4756  7.0233   3
  -1   0   7 0.44241 5.49712   1
   1   0  -7 -4.6582  6.1478   6
   1   0  -7 -10.517   6.867   2
   0   0  -7 0.75891 7.30807   2
   0   0  -7 -6.9381  6.7900   3
   0   0  -7 1.53310 5.73041   6
   0   0  -7 -7.6250  5.3923   4
  -1   0  -7 5.41891 7.31966   2
  -1   0  -7 -5.7968  4.8598   4
  -1   0  -7 -4.1952  5.7644   6
  -1   0  -7 2.58708 7.39578   3
  -2   0  -7 -14.847   6.823   3
  -2   0  -7 7.47461 7.55581   2
   3   0   7 14.2799  7.2302   6
  -3   0  -7 6.28029 7.59114   2
  -4   0  -7 -3.7928  3.6621   7
   4   0   7 -1.8190  7.7756   6
  -4   0  -7 4.17699 8.05245   2
  -5   0  -7 0.82260 5.71397   7
  -5   0  -7 17.1711  8.2185   2
   5   0   7 -11.410   7.810   6
  -6   0  -7 -0.5056  6.8129   7
   6   0   7 5.60113 9.61712   6
  -6   0  -7 7.29490 8.53603   2
  -7   0  -7 2.30728 7.52350   7
  -8   0  -7 -5.7515  8.2358   7
  -9   0  -7 -6.9800  8.8205   7
 -10   0  -7 1.79149 9.40382   7
 -11   0  -7 -20.918   9.569   7
 -12   0  -7  1.1603 10.3683   7
  12  -1  -7 195.745  26.848   3
  12  -1  -7 206.461  22.129   7
 -12  -1   7 176.914  23.570   1
 -12   1   7 186.441  23.344   1
  12   1  -7 163.200  20.052   7
  12   1  -7 257.787  28.863   3
 -11  -1   7 30.0722 16.1209   1
  11  -1  -7 19.0229 13.4866   7
  11  -1  -7 -31.735  16.042   3
  11   1  -7 21.5946 17.9537   3
 -11   1   7 26.9109 15.5123   1
  11   1  -7 28.1627 13.9611   7
  10  -1  -7 121.412  19.178   6
  10  -1  -7 117.871  16.339   7
 -10  -1   7 138.551  20.002   1
  10  -1  -7 116.297  21.498   3
 -10   1   7 126.945  18.947   1
  10   1  -7 103.262  19.488   6
  10   1  -7 177.363  18.058   7
  10   1  -7 148.670  21.635   3
   9  -1  -7  2.9772 13.0027   6
   9  -1  -7 13.8146 11.1077   7
   9  -1  -7  1.7905 14.2567   3
  -9  -1   7 -3.3433 12.5301   1
   9   1  -7  9.7202 14.2115   3
  -9   1   7 -10.842  11.135   1
   9   1  -7  3.9074 10.7995   7
   9   1  -7 -10.189  12.649   6
  -8  -1   7 144.209  18.306   1
   8  -1  -7 161.512  19.699   3
   8  -1  -7 106.271  16.089   6
   8  -1  -7 147.665  14.571   7
   8   1  -7 124.879  14.302   7
   8   1  -7 170.009  18.067   6
   8   1  -7 142.239  18.522   3
  -8   1   7 141.709  17.361   1
   7  -1  -7  3.1063 11.0708   3
   7  -1  -7 5.87435 8.50500   7
  -7  -1   7  8.4579 10.9505   1
   7  -1  -7 29.9456 12.1636   6
   7   1  -7  6.5882 11.2291   6
   7   1  -7 14.8425 11.8068   3
   7   1  -7 -1.1896  8.7826   7
  -7   1   7 -3.2099  9.8878   1
   6  -1  -7 244.916  14.195   2
  -6  -1   7 229.555  17.917   1
   6  -1  -7 290.034  19.726   3
   6  -1  -7 223.369  17.942   6
   6  -1  -7 249.827  14.841   7
  -6   1   7 281.360  18.322   1
   6   1  -7 264.870  14.767   7
   6   1  -7 281.474  19.485   3
   6   1  -7 275.406  16.145   2
   6   1  -7 286.376  17.952   6
   5  -1  -7 46.2669  7.6429   7
  -5  -1   7 20.9843  9.3209   1
   5  -1  -7 35.2855 10.4705   3
   5  -1  -7 26.6041 10.6948   6
   5  -1  -7 43.4592  9.2136   2
   5   1  -7 39.7191 10.2247   6
  -5   1   7 27.0317  9.6562   1
   5   1  -7 35.1804  6.9025   7
   5   1  -7 24.0901  9.2419   2
   5   1  -7 24.8201 10.3979   3
   4  -1  -7 19.6121  8.5352   6
  -4  -1   7 3.71485 7.96520   1
   4  -1  -7 8.09690 5.63683   7
   4  -1  -7 1.71461 8.39526   3
   4  -1  -7 -0.0779  6.9242   2
   4   1  -7 1.00981 7.92402   6
  -4   1   7 10.9750  7.5638   1
   4   1  -7 -4.7746  7.9495   3
   4   1  -7 12.2976  8.1537   2
   4   1  -7 3.66392 2.31359   7
   3  -1  -7 8.69432 4.20323   7
   3  -1  -7 9.48913 7.80322   6
  -3  -1   7 16.7272  7.7955   1
   3  -1  -7 15.3216  7.9992   3
   3  -1  -7 -1.6930  7.1933   2
   3  -1  -7 15.9841  4.7091   7
   3   1  -7 23.5338  8.5900   3
   3   1  -7 21.3643  8.0404   2
  -3   1   7 16.0876  7.2548   1
   3   1  -7 4.73246 7.32876   6
   2  -1  -7 609.956  20.394   2
   2  -1  -7 628.043  22.316   3
  -2  -1   7 609.848  19.933   1
   2  -1  -7 627.204  20.637   6
   2   1  -7 618.860  21.238   2
   2   1  -7 630.428  18.535   6
   2   1  -7 619.908  22.020   3
  -2   1   7 597.577  19.127   1
   1  -1  -7 295.947  15.086   2
   1  -1  -7 287.159  15.356   3
   1  -1  -7 302.406  13.357   4
  -1  -1   7 310.598  13.611   1
   1  -1  -7 302.003  14.030   6
   1   1  -7 291.617  14.950   2
   1   1  -7 298.023  15.791   3
  -1   1   7 294.009  12.092   1
   1   1  -7 306.147  11.342   6
   0  -1  -7 42.6229  7.7466   4
   0  -1  -7 49.0176  8.9742   3
   0  -1  -7 36.6651  8.8627   2
   0  -1  -7 59.0672  8.4675   6
   0   1  -7 61.6369  6.0293   6
   0   1  -7 44.2761  9.1130   3
   0   1  -7 47.5337  8.2649   2
  -1  -1  -7 -2.5910  6.5714   6
  -1  -1  -7 -1.3789  7.4496   2
  -1  -1  -7 3.84838 7.28560   3
  -1  -1  -7 -1.8831  6.3363   4
  -1   1  -7 -7.5107  4.2679   6
  -1   1  -7 1.29916 7.50137   3
  -1   1  -7 3.92911 7.28926   2
  -1   1  -7 10.0898  4.0221   4
   2  -1   7 1132.81   24.98   6
  -2  -1  -7 1137.97   29.50   6
  -2  -1  -7 1193.03   31.02   2
  -2  -1  -7 1082.23   31.79   3
  -2   1  -7 1159.46   29.53   2
  -3  -1  -7 503.138  20.014   2
   3  -1   7 506.741  15.055   6
  -3  -1  -7 531.268  12.918   7
  -3  -1  -7 531.903  13.159   7
  -3   1  -7 542.622  18.530   2
  -4  -1  -7 21.0356  5.7923   7
  -4  -1  -7 30.9081  9.9095   2
   4  -1   7 11.4116  6.6758   6
   4   1   7 25.7709  9.8265   6
  -4   1  -7 13.1965  8.0023   2
  -5  -1  -7 12.8630  6.7245   7
  -5  -1  -7 19.6545  9.5489   2
  -5   1  -7 4.45084 5.30461   7
  -5   1  -7 15.4569  7.8512   2
   5   1   7 0.72624 9.96279   6
  -6  -1  -7 1109.79   32.71   2
  -6  -1  -7 1110.57   30.58   7
   6   1   7 1183.30   35.93   6
  -6   1  -7 1140.25   28.21   7
  -7  -1  -7 337.261  17.662   7
  -7   1  -7 333.749  15.690   7
   7   1   7 321.655  21.511   6
  -8  -1  -7 10.4084  8.8014   7
   8   1   7 20.4487 13.4959   6
  -8   1  -7 -1.8962  8.0224   7
  -9  -1  -7 3.85019 9.46290   7
  -9   1  -7 16.1004  9.2922   7
 -10  -1  -7 699.127  27.600   7
 -10   1  -7 689.887  26.274   7
 -11  -1  -7 132.020  15.655   7
 -11   1  -7 137.602  15.007   7
 -12  -1  -7 38.5011 12.5195   7
 -12   1  -7 23.3317 11.4005   7
  12  -2  -7 272.550  23.786   7
 -12  -2   7 266.568  26.683   1
  12  -2  -7 244.297  29.658   3
  12   2  -7 318.022  23.964   7
  12   2  -7 300.272  31.047   3
 -12   2   7 320.453  28.247   1
 -11  -2   7 33.7991 16.8429   1
  11  -2  -7 54.7041 14.5478   7
  11  -2  -7 36.0196 19.1200   3
  11   2  -7 34.8741 14.0634   7
  11   2  -7 36.2563 18.5583   3
 -11   2   7 38.0617 16.2655   1
 -10  -2   7 197.778  22.582   1
  10  -2  -7 181.436  23.148   3
  10  -2  -7 167.873  22.218   6
  10  -2  -7 128.502  16.819   7
  10   2  -7 190.806  23.633   3
 -10   2   7 126.158  18.744   1
  10   2  -7 152.669  21.290   6
  10   2  -7 161.568  17.712   7
   9  -2  -7 333.846  23.880   6
   9  -2  -7 324.898  27.178   3
  -9  -2   7 319.933  24.273   1
   9  -2  -7 320.279  20.312   7
   9   2  -7 353.539  27.246   3
   9   2  -7 273.363  20.122   7
  -9   2   7 312.746  23.040   1
   9   2  -7 324.164  24.492   6
   8  -2  -7 361.497  20.554   7
  -8  -2   7 390.006  24.458   1
   8  -2  -7 395.123  26.309   3
   8  -2  -7 387.488  23.851   6
   8   2  -7 443.577  21.327   7
   8   2  -7 382.279  24.952   6
  -8   2   7 438.487  24.143   1
   8   2  -7 389.848  26.332   3
  -7  -2   7 19.4005 11.4542   1
   7  -2  -7 39.9270 10.2678   7
   7  -2  -7 25.0147 11.7451   6
   7  -2  -7 30.7610 12.5703   3
   7   2  -7 16.7038 12.6423   6
  -7   2   7 31.9310 11.4619   1
   7   2  -7 31.5589 12.4351   3
   7   2  -7 7.78058 8.82468   7
  -6  -2   7 235.392  18.826   1
   6  -2  -7 268.652  15.740   7
   6  -2  -7 255.263  18.346   6
   6  -2  -7 305.886  20.114   3
   6   2  -7 317.009  20.837   3
   6   2  -7 265.026  17.731   6
   6   2  -7 299.151  14.276   7
  -6   2   7 310.974  19.365   1
  -5  -2   7 602.852  24.920   1
   5  -2  -7 551.145  23.533   6
   5  -2  -7 596.492  25.559   3
   5  -2  -7 578.959  20.163   7
   5  -2  -7 614.319  20.515   2
   5   2  -7 632.242  23.132   2
   5   2  -7 647.583  16.560   7
  -5   2   7 601.206  23.519   1
   5   2  -7 611.686  24.748   3
   5   2  -7 616.504  23.476   6
   5   2  -7 617.099  24.819   5
   4  -2  -7 302.799  18.449   3
   4  -2  -7 327.291  17.677   6
   4  -2  -7 352.443  13.966   7
  -4  -2   7 330.864  17.930   1
   4  -2  -7 336.716  15.328   2
   4   2  -7 369.399  18.896   5
   4   2  -7 347.651  18.578   3
   4   2  -7 318.234  16.890   2
   4   2  -7 343.398  16.258   6
  -4   2   7 324.360  16.814   1
  -3  -2   7 9.54329 7.98723   1
   3  -2  -7 8.65259 8.48918   6
   3  -2  -7 8.28379 7.96323   2
   3  -2  -7 0.66461 7.92949   3
   3  -2  -7 4.41004 5.23709   7
   3   2  -7 9.15753 8.09532   5
   3   2  -7 31.3941  7.6115   6
  -3   2   7 -2.1335  6.5286   1
   3   2  -7 2.88481 7.61514   3
   3   2  -7 2.98294 7.81972   2
   2  -2  -7 276.631  15.181   2
   2  -2  -7 254.551  14.356   4
   2  -2  -7 236.097  15.149   3
  -2  -2   7 266.993  14.510   1
   2  -2  -7 266.652  10.426   7
   2  -2  -7 249.490  14.433   6
   2   2  -7 290.388  15.690   3
   2   2  -7 249.464  14.745   2
   2   2  -7 255.534  14.222   5
  -2   2   7 243.236  13.048   1
   2   2  -7 289.929  11.695   6
   1  -2  -7 446.646  12.414   7
  -1  -2   7 475.183  18.017   1
   1  -2  -7 437.922  18.421   3
   1  -2  -7 461.904  18.062   6
   1  -2  -7 486.499  18.413   4
   1  -2  -7 446.344  17.523   2
  -1   2   7 458.603  15.594   1
   1   2  -7 467.390  13.627   6
   1   2  -7 456.343  18.140   2
   1   2  -7 485.639  19.353   3
   0  -2  -7 256.404   8.380   7
   0  -2  -7 231.916  14.081   6
   0  -2  -7 230.035  13.776   3
   0  -2  -7 235.134  12.827   4
   0  -2  -7 248.346  14.975   2
   0  -2  -7 231.807   9.212   7
   0   2  -7 222.686  14.607   3
   0   2  -7 228.212  13.766   2
   0   2  -7 249.024   7.675   6
  -1  -2  -7 18.1251  4.0394   7
  -1  -2  -7 25.6290  8.1488   6
  -1  -2  -7 29.5841  8.0361   3
  -1  -2  -7 48.1555  9.7835   2
  -1   2  -7 19.2908  7.9037   2
  -1   2  -7 7.79862 7.82993   3
  -2  -2  -7 74.4520  6.3536   7
  -2  -2  -7 82.7517 10.5135   3
  -2  -2  -7 72.3067 10.9022   6
  -2  -2  -7 73.0664 10.9599   2
  -2   2  -7 94.8926 10.1440   2
  -3  -2  -7 86.5217  7.7423   7
  -3  -2  -7 88.3056 11.7955   2
  -3   2  -7 81.7921  9.9938   2
  -3   2  -7 89.7257  9.0022   1
  -4  -2  -7 240.192  16.342   2
  -4  -2  -7 243.252  13.008   7
  -4   2  -7 257.252  13.656   2
  -5  -2  -7 90.8787 13.0520   2
  -5  -2  -7 100.465  10.412   7
   5   2   7 129.905  14.991   6
  -5   2  -7 100.687   7.481   7
  -6  -2  -7  0.5642 10.0199   2
  -6  -2  -7 -7.4571  7.8556   7
  -6   2  -7 8.43272 6.25496   7
   6   2   7 30.8833 13.1399   6
  -7  -2  -7 21.9103 12.1597   2
  -7  -2  -7 6.14864 8.42600   7
  -7   2  -7 9.63187 7.29980   7
   7   2   7 -6.9139 12.8059   6
  -8  -2  -7 263.166  18.060   7
  -8   2  -7 316.023  16.163   7
   8   2   7 277.864  23.519   6
  -9  -2  -7 206.547  17.274   7
  -9   2  -7 232.502  15.837   7
   9   2   7 220.256  23.476   6
 -10  -2  -7 -6.5349  9.9895   7
 -10   2  -7 -3.9581  9.1710   7
 -11  -2  -7  2.7732 10.1220   7
 -11   2  -7 29.0517 10.9226   7
 -12  -2  -7 178.907  18.466   7
 -12   2  -7 195.355  17.626   7
 -11  -3   7 101.132  20.248   1
  11  -3  -7 74.2907 19.9967   3
  11  -3  -7 58.2699 14.5948   7
  11   3  -7 103.393  15.911   7
  11   3  -7 122.721  21.876   3
 -11   3   7 69.0755 17.9329   1
  10  -3  -7 115.733  16.032   7
  10  -3  -7 157.540  22.216   3
 -10  -3   7 145.229  20.709   1
  10   3  -7 126.218  21.053   3
 -10   3   7 99.1594 17.9097   1
  10   3  -7 144.138  15.758   7
  10   3  -7 87.4752 20.2857   6
   9  -3  -7 15.3112 13.4636   6
   9  -3  -7 -1.3001 13.4926   3
   9  -3  -7  5.2210 10.6989   7
  -9  -3   7 29.2471 13.9230   1
   9   3  -7 -24.484  12.796   3
   9   3  -7 -5.3004 10.0462   7
   9   3  -7  7.0896 14.3268   6
  -9   3   7  3.7632 12.6067   1
   8  -3  -7  7.7518 10.0058   7
  -8  -3   7 20.4425 12.9988   1
   8  -3  -7  9.8411 12.9049   6
   8  -3  -7 11.5766 13.4222   3
   8   3  -7 -3.2035 12.3659   3
   8   3  -7 12.8788 10.0028   7
  -8   3   7 10.9098 12.0454   1
   8   3  -7  2.2635 14.4539   6
   7  -3  -7 104.414  12.786   7
   7  -3  -7 81.6942 15.0039   6
   7  -3  -7 121.720  16.288   3
  -7  -3   7 98.3466 15.8084   1
   7   3  -7 122.411  17.203   5
  -7   3   7 119.228  15.398   1
   7   3  -7 101.624  11.509   7
   7   3  -7 131.360  16.569   6
   7   3  -7 97.1829 15.7062   3
   6  -3  -7 215.581  18.547   3
   6  -3  -7 252.712  18.572   6
   6  -3  -7 267.300  15.844   7
  -6  -3   7 269.073  20.037   1
   6   3  -7 252.973  19.321   3
   6   3  -7 309.608  18.637   6
   6   3  -7 246.888  20.844   5
  -6   3   7 257.447  18.968   1
   6   3  -7 270.691  12.848   7
   5  -3  -7 26.3335 10.9820   6
   5  -3  -7 7.58837 7.47290   7
  -5  -3   7  2.5272 10.3532   1
   5  -3  -7 45.6795 11.2997   3
   5   3  -7  6.6646 10.7670   5
   5   3  -7 0.30800 9.58449   3
   5   3  -7 11.0943  4.9162   7
  -5   3   7 29.9546  9.9542   1
   5   3  -7 10.2078  9.9978   6
   4  -3  -7 97.9593 10.6107   2
   4  -3  -7 115.871  13.269   3
   4  -3  -7 87.3137 13.0973   6
  -4  -3   7 77.0241 12.5393   1
   4  -3  -7 81.4442  9.2518   7
   4   3  -7 98.1184 13.6461   5
   4   3  -7 96.6050 12.5086   3
  -4   3   7 89.7754 11.2739   1
   4   3  -7 101.957  11.244   6
   4   3  -7 107.271  12.822   2
  -3  -3   7 21.3921  9.7227   1
   3  -3  -7 24.5729  9.8685   6
   3  -3  -7 10.8843  8.9398   4
   3  -3  -7 24.4694  8.3055   2
   3  -3  -7 15.9955  6.5251   7
   3  -3  -7 36.5017  9.4639   3
   3   3  -7 24.8151  9.1115   3
   3   3  -7 22.1794  8.0590   6
   3   3  -7 23.9942  9.7820   5
  -3   3   7 21.7630  7.8358   1
   3   3  -7 14.8958  8.1043   2
   2  -3  -7 199.474  14.389   3
   2  -3  -7 211.414  13.773   2
  -2  -3   7 232.419  15.979   1
   2  -3  -7 220.949  11.470   7
   2  -3  -7 187.890  15.240   6
   2  -3  -7 207.588  15.114   4
  -2   3   7 210.043  13.019   1
   2   3  -7 235.036  15.248   3
   2   3  -7 208.964  11.080   6
   2   3  -7 251.829  16.156   5
   2   3  -7 194.877  15.052   2
   1  -3  -7 29.3499  6.4063   7
   1  -3  -7 31.5250  9.4791   2
   1  -3  -7 39.6983  9.7394   6
   1  -3  -7 30.8516  8.7063   3
   1  -3  -7 27.0045  8.8542   4
   1   3  -7 38.6985  5.8551   6
   1   3  -7 32.7535  9.0350   2
  -1   3   7 33.1165  7.1696   1
   1   3  -7 26.7944  8.7875   3
   1   3  -7 43.3178  9.4978   5
   0  -3  -7 81.9191 11.2980   6
   0  -3  -7 92.2815  7.6640   7
   0  -3  -7 85.9847 11.2661   2
   0  -3  -7 91.9801 10.9878   4
   0  -3  -7 100.272  10.523   3
   0   3  -7 83.3707 10.6471   2
   0   3  -7 96.7052 11.1067   3
   0   3   7 94.4650  8.1255   1
  -1  -3  -7 48.3364  8.9162   3
  -1  -3  -7 64.3797 10.8644   6
  -1  -3  -7 26.2848 10.2089   2
  -1  -3  -7 43.2615  6.6969   7
  -1   3  -7 38.5375  8.8524   2
  -1   3  -7 62.3486 10.3525   3
  -2  -3  -7 64.8298 12.0555   6
  -2  -3  -7 63.2701 11.6882   2
  -2  -3  -7 53.3927  7.4547   7
  -2   3  -7 67.7550  9.8677   2
  -3  -3  -7 0.82240 6.36315   7
  -3  -3  -7 12.2351 10.1117   2
  -3   3  -7 -3.8029  6.8705   1
  -3   3  -7 1.85565 7.28481   2
  -4  -3  -7 13.9018  7.6546   7
  -4  -3  -7 3.85980 7.38739   7
  -4  -3  -7 -17.631   9.475   2
  -4   3  -7 10.5679  8.0826   1
  -4   3  -7 1.69866 7.09191   2
  -5  -3  -7 89.1110 11.2254   7
  -5  -3  -7 100.762  14.984   2
  -5   3  -7 120.538   7.149   7
   5   3   7 113.945  15.090   6
  -6  -3  -7 53.8748 14.5102   2
  -6  -3  -7 64.3775 10.8120   7
  -6   3  -7 47.6124  7.4383   7
   6   3   7 50.3868 13.8034   6
  -7  -3  -7 86.1341 12.6095   7
  -7  -3  -7 79.5285 14.9957   2
  -7   3  -7 73.6572  9.2940   7
   7   3   7 66.8848 15.7748   6
  -8  -3  -7 25.4323 10.3529   7
   8   3   7 21.0395 15.2017   6
  -8   3  -7 14.8595  8.2609   7
  -9  -3  -7 59.1958 12.3140   7
  -9   3  -7 35.0974 10.1894   7
   9   3   7 72.5079 18.9088   6
 -10  -3  -7 73.8046 13.7906   7
 -10   3  -7 91.1044 12.7043   7
  10   3   7 90.9571 21.1277   6
 -11  -3  -7 57.3018 13.2548   7
 -11   3  -7 48.3795 12.0301   7
  11  -4  -7 113.390  17.288   7
  11  -4  -7 123.539  22.039   3
 -11  -4   7 94.8364 19.7331   1
  11   4  -7 108.797  16.019   7
 -11   4   7 92.8830 18.9503   1
  10  -4  -7 166.201  22.994   3
 -10  -4   7 172.560  21.369   1
  10  -4  -7 154.667  17.898   7
 -10   4   7 129.099  19.714   1
  10   4  -7 171.087  17.020   7
   9  -4  -7 212.709  21.968   6
   9  -4  -7 223.099  19.453   7
  -9  -4   7 227.386  22.943   1
   9  -4  -7 236.297  23.791   3
   9   4  -7 236.715  24.157   6
  -9   4   7 203.462  21.340   1
   9   4  -7 217.174  17.376   7
   8  -4  -7 490.818  27.641   3
   8  -4  -7 469.147  23.484   7
   8  -4  -7 477.079  26.872   6
  -8  -4   7 482.759  28.254   1
   8   4  -7 474.061  26.989   3
   8   4  -7 494.217  30.731   5
  -8   4   7 490.352  27.184   1
   8   4  -7 483.126  21.027   7
   8   4  -7 537.861  29.045   6
   7  -4  -7 214.090  19.619   3
  -7  -4   7 172.169  19.291   1
   7  -4  -7 216.460  16.941   7
   7  -4  -7 194.147  19.098   6
  -7   4   7 210.471  19.487   1
   7   4  -7 199.485  21.168   5
   7   4  -7 219.924  20.142   6
   7   4  -7 177.261  18.908   3
   7   4  -7 183.805  13.686   7
   6  -4  -7 437.160  23.577   6
   6  -4  -7 433.634  22.893   3
   6  -4  -7 400.016  20.031   7
  -6  -4   7 404.543  25.078   1
   6   4  -7 434.025  26.092   5
   6   4  -7 430.705  23.337   3
   6   4  -7 448.406  22.974   6
   6   4  -7 420.072  15.732   7
  -6   4   7 373.130  22.666   1
   5  -4  -7 203.985  17.488   3
   5  -4  -7 195.172  17.947   6
   5  -4  -7 180.277  16.406   4
   5  -4  -7 194.314  14.672   7
  -5  -4   7 180.888  18.030   1
   5   4  -7 214.839  16.584   6
  -5   4   7 223.643  17.095   1
   5   4  -7 215.728  19.637   5
   5   4  -7 213.896  17.501   3
   5   4  -7 195.697   9.558   7
   4  -4  -7 1201.33   32.39   2
  -4  -4   7 1192.61   37.90   1
   4  -4  -7 1251.20   36.42   3
   4  -4  -7 1177.35   36.89   6
   4  -4  -7 1176.35   32.29   7
   4  -4  -7 1170.39   35.84   4
   4   4  -7 1212.18   38.68   5
   4   4  -7 1189.01   33.18   6
  -4   4   7 1195.07   34.80   1
   4   4  -7 1222.89   35.41   3
   3  -4  -7 282.294  18.149   6
  -3  -4   7 243.028  17.979   1
   3  -4  -7 299.538  15.060   7
   3  -4  -7 256.453  16.433   4
   3  -4  -7 283.953  16.190   2
   3  -4  -7 280.313  16.643   3
   3   4  -7 252.102  19.329   5
   3   4  -7 274.909  14.685   6
  -3   4   7 282.367  16.458   1
   3   4  -7 247.323  16.602   3
   2  -4  -7 705.225  21.879   7
   2  -4  -7 693.260  25.876   6
   2  -4  -7 696.420  23.630   3
   2  -4  -7 670.019  24.980   4
   2  -4  -7 672.488  23.886   2
   2   4  -7 702.313  24.434   3
  -2   4   7 610.199  22.134   1
   2   4  -7 649.642  25.586   5
   2   4  -7 689.786  24.411   2
   1  -4  -7 290.232  14.022   7
   1  -4  -7 259.074  16.542   2
   1  -4  -7 281.996  14.900   3
   1  -4  -7 259.838  15.419   4
   1  -4  -7 268.426  17.607   6
   1   4  -7 324.895  16.745   3
  -1   4   7 274.163  14.191   1
   1   4  -7 292.724  16.704   2
   1   4  -7 278.747  17.613   5
   0  -4  -7 1944.89   44.89   3
   0  -4  -7 1990.14   48.99   6
   0  -4  -7 1928.67   43.07   7
   0  -4  -7 1867.60   47.53   2
   0   4  -7 1930.73   46.46   5
   0   4  -7 1922.70   46.94   3
   0   4   7 1881.85   42.00   1
   0   4  -7 1855.09   45.62   2
  -1  -4  -7 295.667  18.420   6
  -1  -4  -7 293.600  19.034   2
  -1  -4  -7 288.530  14.471   7
  -1  -4  -7 339.705  15.476   3
  -1   4  -7 332.225  16.424   2
  -1   4  -7 315.231  16.441   5
  -2  -4  -7 534.233  24.478   6
  -2  -4  -7 561.796  20.208   7
  -2  -4  -7 566.805  24.701   2
  -2   4  -7 601.405  21.008   5
  -2   4  -7 576.318  21.226   2
  -2   4  -7 600.267  23.016   1
  -3  -4  -7 462.150  19.389   7
  -3  -4  -7 451.662  22.123   2
  -3   4  -7 487.921  20.042   1
  -3   4  -7 459.978  18.662   2
  -4  -4  -7 1332.35   40.75   2
  -4  -4  -7 1349.24   36.82   7
  -4  -4  -7 1315.29   36.24   7
  -4   4  -7 1318.99   36.11   1
  -5  -4  -7 329.420  22.290   2
  -5  -4  -7 268.810  17.866   7
  -5   4  -7 345.244  10.893   7
  -5   4  -7 348.335  18.675   1
  -6  -4  -7 296.095  21.964   2
  -6  -4  -7 299.891  18.399   7
   6   4   7 275.102  22.319   6
  -6   4  -7 261.040  12.303   7
  -7  -4  -7 373.242  21.674   7
  -7  -4  -7 410.804  24.755   2
   7   4   7 413.324  26.194   6
  -7   4  -7 395.787  16.189   7
  -8  -4  -7 330.995  20.876   7
  -8  -4  -7 374.843  23.985   2
  -8   4  -7 377.316  17.132   7
   8   4   7 359.675  26.466   6
  -9  -4  -7 226.886  18.858   7
   9   4   7 292.059  26.565   6
  -9   4  -7 240.346  16.003   7
 -10  -4  -7 88.4723 14.5306   7
 -10   4  -7 110.212  13.101   7
 -11  -4  -7 97.7677 15.1955   7
 -11   4  -7 140.206  15.176   7
  11  -5  -7 39.1688 14.7189   7
  10  -5  -7  6.7574 15.4741   3
 -10  -5   7 35.4541 16.3846   1
  10  -5  -7 38.9108 13.8253   7
  10   5  -7 45.2981 12.3124   7
 -10   5   7 48.5491 15.6390   1
  -9  -5   7 45.9904 16.6289   1
   9  -5  -7 60.2241 13.9386   7
   9  -5  -7 45.1562 15.7616   3
   9   5  -7 46.2072 19.3428   6
   9   5  -7 41.7799 11.7520   7
   9   5  -7 34.8093 17.5120   5
  -9   5   7 12.1797 13.9352   1
   8  -5  -7 30.6923 16.2720   6
   8  -5  -7 65.1389 13.1003   7
  -8  -5   7 56.2302 16.6347   1
   8  -5  -7 59.0342 15.7212   3
   8  -5  -7 80.5055 15.9712   4
   8   5  -7 68.5596 11.5052   7
  -8   5   7 69.9198 15.1742   1
   8   5  -7 50.5481 16.7936   6
   8   5  -7 71.1959 19.0079   5
  -7  -5   7 70.3351 16.2822   1
   7  -5  -7 34.3724 14.4277   6
   7  -5  -7 40.9598 13.6616   4
   7  -5  -7 43.5802 11.9975   7
   7  -5  -7 53.3743 14.3142   3
  -7   5   7 36.7258 13.2563   1
   7   5  -7 27.2602  8.9987   7
   7   5  -7 53.1822 16.8785   5
   7   5  -7 50.5352 16.0893   6
   6  -5  -7 126.067  14.089   7
   6  -5  -7 110.076  15.362   3
   6  -5  -7 107.168  17.092   6
  -6  -5   7 117.898  17.426   1
   6  -5  -7 140.017  16.665   4
   6   5  -7 135.193  17.342   6
   6   5  -7 116.190   9.762   7
  -6   5   7 134.572  16.575   1
   6   5  -7 139.367  19.273   5
   5  -5  -7 36.1103 11.5224   3
   5  -5  -7 21.8797  9.4944   7
   5  -5  -7 28.2546 12.0782   4
  -5  -5   7 11.2715 11.9375   1
   5  -5  -7 24.3812 12.1926   6
   5   5  -7 21.2673 13.1051   6
   5   5  -7 26.2527  5.8506   7
   5   5  -7 26.1758 14.2246   5
  -5   5   7 19.1351 11.1504   1
   4  -5  -7 239.952  17.312   3
   4  -5  -7 213.388  15.901   7
   4  -5  -7 206.454  18.568   6
   4  -5  -7 220.249  18.102   4
  -4  -5   7 206.560  19.475   1
  -4   5   7 256.172  17.460   1
   4   5  -7 226.870  20.852   5
   3  -5  -7 23.5034  9.5341   3
   3  -5  -7 12.5271 10.3649   4
   3  -5  -7 -2.9632 10.8363   6
   3  -5  -7 12.1794 10.2823   2
   3  -5  -7 5.00026 8.00354   7
  -3   5   7 29.8918  9.9835   1
   3   5  -7 3.18853 9.27215   3
   3   5  -7 21.9807 12.0351   5
   2  -5  -7 159.051  14.947   2
   2  -5  -7 161.381  12.629   3
   2  -5  -7 133.554  12.233   7
   2  -5  -7 135.395  15.587   6
   2  -5  -7 157.414  15.337   4
   2   5  -7 139.460  13.681   3
  -2   5   7 159.931  13.670   1
   2   5  -7 151.512  16.446   5
   1  -5  -7 12.8612 10.2185   2
   1  -5  -7 5.88052 7.32117   7
   1  -5  -7 -0.4838  9.4530   4
   1  -5  -7  0.6577 10.2620   6
   1   5  -7 13.5188  8.9635   3
  -1   5   7 3.54911 7.66934   1
   1   5  -7 10.9606 10.4280   5
   0  -5  -7 283.499  15.363   7
   0  -5  -7 261.429  18.544   2
   0  -5  -7 236.382  18.533   6
   0   5  -7 259.575  17.744   5
   0   5   7 283.356  14.836   1
  -1  -5  -7 14.0510  8.2352   7
  -1  -5  -7  8.9707 11.3531   2
  -1  -5  -7 -11.019  10.469   6
  -1   5  -7 29.7836 10.2120   5
  -2  -5  -7 99.1649 11.8165   7
  -2  -5  -7 89.7853 15.2844   6
  -2   5  -7 93.7058 12.0275   5
  -2   5  -7 105.709  13.440   1
  -3  -5  -7 17.1706  8.8820   7
  -3   5  -7 10.5325  9.6604   1
  -4  -5  -7 96.9024 13.6112   7
  -4  -5  -7 97.3290 12.8822   7
  -4   5  -7 101.189  13.744   1
  -5  -5  -7 78.9237 12.9971   7
  -5  -5  -7 42.7457 11.8992   7
  -5   5  -7 59.8998 12.7976   1
  -5   5  -7 56.9696  6.2753   7
  -6  -5  -7 60.9790 12.8017   7
  -6   5  -7 63.8068  7.9862   7
   6   5   7 88.4450 16.9038   6
  -7  -5  -7 40.9443 12.3995   7
   7   5   7 11.5959 14.8233   6
  -7   5  -7 23.6493  7.9617   7
  -8  -5  -7 36.0497 12.3954   7
  -8   5  -7 21.4732  8.4534   7
   8   5   7  2.9718 15.3603   6
  -9  -5  -7 62.9434 14.0896   7
  -9  -5  -7 46.8363 17.5830   2
  -9   5  -7 39.5612 10.2527   7
 -10  -5  -7 30.6817 12.7874   7
 -10   5  -7 31.0668 10.7050   7
  10  -6  -7 385.797  29.040   3
 -10  -6   7 373.488  30.749   1
  10   6  -7 365.984  32.076   5
 -10   6   7 411.812  28.806   1
  10   6  -7 400.335  22.499   7
   9  -6  -7 65.7243 14.5444   7
  -9  -6   7 45.9968 17.2072   1
   9  -6  -7 48.6882 16.5544   3
   9   6  -7 52.9027 19.1874   5
   9   6  -7 63.2885 12.4006   7
  -9   6   7 51.2123 16.0061   1
   8  -6  -7 360.347  23.087   7
   8  -6  -7 363.204  25.377   3
  -8  -6   7 357.912  26.919   1
  -8   6   7 385.212  26.120   1
   8   6  -7 332.641  29.356   5
   8   6  -7 376.672  19.025   7
  -7  -6   7 20.9844 14.0504   1
   7  -6  -7 46.2782 15.5963   4
   7  -6  -7 47.7690 16.3742   6
   7  -6  -7 58.2602 12.9879   7
   7  -6  -7 54.6158 14.3191   3
   7   6  -7 54.0180  9.8267   7
   7   6  -7 61.0935 18.4298   5
  -7   6   7 49.1617 14.6714   1
  -6  -6   7 739.870  33.512   1
   6  -6  -7 679.469  31.436   6
   6  -6  -7 762.122  31.786   4
   6  -6  -7 722.639  28.439   7
  -6   6   7 708.303  31.124   1
   6   6  -7 745.253  37.164   5
   6   6  -7 733.170  21.404   7
  -5  -6   7 10.2855 13.1704   1
   5  -6  -7 -10.242  11.379   4
   5  -6  -7 12.4224 12.5367   6
   5  -6  -7 14.8219  9.9745   7
   5   6  -7 12.9756  6.0705   7
  -5   6   7 18.8985 11.7691   1
   5   6  -7 35.7068 15.3157   5
   4  -6  -7 694.186  26.582   7
   4  -6  -7 623.167  27.198   4
   4  -6  -7 650.255  29.178   6
   4   6  -7 681.858  16.095   7
  -4   6   7 661.797  27.315   1
   4   6  -7 647.284  32.315   5
   3  -6  -7 34.2771 12.0755   4
   3  -6  -7 21.3404  9.6784   7
   3  -6  -7 31.5857 11.5944   2
   3  -6  -7 45.7269 13.3979   6
   3   6  -7 59.2160 14.6261   5
  -3   6   7 29.6302 11.0188   1
   2  -6  -7 731.473  27.977   2
   2  -6  -7 712.202  26.169   7
   2  -6  -7 726.818  29.866   6
   2  -6  -7 723.559  28.957   4
  -2   6   7 729.806  27.005   1
   2   6  -7 807.689  31.545   5
   1  -6  -7 -5.6150  8.0365   7
   1  -6  -7 -9.8647 11.2632   6
   1  -6  -7 -7.3992 11.1103   2
   1   6  -7 -13.217  10.375   5
  -1   6   7 0.23108 8.54000   1
   0  -6  -7 959.812  34.341   6
   0  -6  -7 924.956  29.717   7
   0  -6  -7 925.019  33.316   2
   0   6   7 900.288  28.859   1
   0   6  -7 947.977  32.963   5
  -1  -6  -7 88.5679 15.3427   6
  -1  -6  -7 62.1397 11.4084   7
  -1   6  -7 73.6803 13.5027   5
  -2  -6  -7 359.361  20.437   7
  -2  -6  -7 407.390  24.462   6
  -2   6  -7 316.766  20.824   1
   2   6   7 318.415  18.745   5
  -2   6  -7 339.594  20.109   5
  -3  -6  -7 12.2704 10.2900   7
  -3   6  -7 -3.3103 10.1102   1
  -4  -6  -7 827.922  31.608   7
  -4   6  -7 901.484  32.438   1
  -5  -6  -7 167.710  17.392   7
  -5  -6  -7 189.713  18.088   7
  -5   6  -7 170.213  17.833   1
  -5   6  -7 152.954   9.362   7
  -6  -6  -7 89.8394 15.2393   7
  -6  -6  -7 92.6149 14.8620   7
  -6   6  -7 83.9546 15.7583   1
   6   6   7 59.5612 17.0351   6
  -6   6  -7 106.153   9.410   7
  -7  -6  -7 13.0776 12.0151   7
  -7   6  -7 1.52344 7.42098   7
   7   6   7 -16.648  15.051   6
  -8  -6  -7 485.075  25.925   7
  -8   6  -7 450.434  18.951   7
  -9  -6  -7 251.835  21.464   7
  -9   6  -7 256.655  16.356   7
 -10  -6  -7 31.0087 13.9281   7
 -10   6  -7 44.6656 11.3724   7
   9  -7  -7 -13.502  12.253   7
  -9  -7   7 18.3733 16.2236   1
   9   7  -7  9.4726 17.5135   5
   9   7  -7 -13.135   9.398   7
  -9   7   7 -5.7022 12.9565   1
   8  -7  -7 103.681  16.459   7
  -8  -7   7 133.204  21.316   1
   8   7  -7 110.303  12.580   7
  -8   7   7 71.4351 17.2413   1
   8   7  -7 120.697  22.811   5
   7  -7  -7 26.7363 12.2545   7
  -7  -7   7  1.6300 14.7324   1
   7   7  -7 5.54512 8.14611   7
  -7   7   7  2.2099 13.0911   1
   7   7  -7 -8.7539 15.5573   5
   6  -7  -7 197.902  21.857   6
   6  -7  -7 226.223  19.275   7
  -6  -7   7 224.789  23.476   1
   6   7  -7 206.166  12.870   7
  -6   7   7 234.487  21.346   1
   6   7  -7 221.682  24.722   5
   5  -7  -7  3.7657 10.4043   7
   5  -7  -7 12.6024 13.0150   4
   5  -7  -7 17.2584 14.6493   6
  -5  -7   7 12.4433 13.7101   1
  -5   7   7 18.3733 12.9251   1
   5   7  -7 -2.6439  6.3876   7
   5   7  -7 19.3469 15.6752   5
   4  -7  -7 68.6990 13.3410   7
   4  -7  -7 88.6039 15.9985   4
   4  -7  -7 75.5761 16.4434   6
   4   7  -7 66.1660 16.7029   5
  -4   7   7 78.2288 14.9365   1
   3  -7  -7 -16.208  12.629   6
   3  -7  -7 21.0259 10.4183   7
   3  -7  -7 10.2979 12.0723   4
   3   7  -7 15.8779 13.9722   5
  -3   7   7 -8.3361 10.5454   1
   2  -7  -7 303.540  20.929   2
   2  -7  -7 265.604  22.552   6
   2  -7  -7 240.867  18.247   7
  -2   7   7 288.631  20.189   1
   2   7  -7 313.711  24.417   5
   1  -7  -7 105.687  16.546   6
   1  -7  -7 95.8966 16.8313   2
   1  -7  -7 85.1318 13.1168   7
  -1   7   7 93.6520 13.2189   1
   1   7  -7 94.6757 15.7929   5
   0  -7  -7 47.7126 15.2762   2
   0  -7  -7 39.3748 14.1147   6
   0  -7  -7 51.3785 11.9137   7
   0   7  -7 43.6851 13.3336   5
  -1  -7  -7 46.0740 14.9062   6
  -1  -7  -7 27.8102 11.6073   7
   1   7   7 13.4698 10.5814   5
  -1   7  -7 48.4657 13.2150   5
  -2  -7  -7 272.601  23.378   6
  -2  -7  -7 266.105  19.926   7
   2   7   7 258.532  19.225   5
  -2   7  -7 268.875  22.156   1
  -2   7  -7 237.149  19.584   5
  -3  -7  -7 252.653  20.722   7
  -3   7  -7 266.537  21.066   5
  -3   7  -7 227.173  20.783   1
  -4  -7  -7 22.3212 12.6994   7
  -4   7  -7 26.5869 13.1215   1
  -5  -7  -7 46.5712 13.8549   7
  -5   7  -7 29.8061 14.2130   1
  -6  -7  -7 254.865  21.842   7
  -6  -7  -7 204.392  20.832   7
  -6   7  -7 243.557  22.696   1
   6   7   7 281.164  25.708   6
  -6   7  -7 278.882  13.959   7
  -7  -7  -7 306.302  23.044   7
  -7  -7  -7 323.955  23.243   7
  -7   7  -7 306.351  15.498   7
  -8  -7  -7  9.5779 12.7647   7
  -8   7  -7 9.60912 8.85350   7
  -9  -7  -7 -15.798  11.948   7
  -9   7  -7 10.1257  9.5673   7
   8  -8  -7 186.636  20.722   7
  -8  -8   7 204.239  24.406   1
   8   8  -7 209.595  15.842   7
  -8   8   7 170.981  21.883   1
   8   8  -7 196.965  25.627   5
   7  -8  -7 51.7341 14.3737   7
  -7  -8   7 68.4122 18.0446   1
   7   8  -7 78.1776 20.9680   5
   7   8  -7 59.7063 10.1015   7
  -7   8   7 59.0339 16.4040   1
  -6  -8   7 234.789  25.189   1
   6  -8  -7 270.992  22.370   7
   6   8  -7 304.958  28.333   5
  -6   8   7 291.850  24.985   1
   5  -8  -7 27.4999 13.2733   7
  -5  -8   7 43.3690 16.3989   1
  -5   8   7 57.1460 15.3480   1
   5   8  -7 50.9142 18.3307   5
   4  -8  -7 127.228  16.537   7
   4  -8  -7 148.098  20.181   6
  -4   8   7 153.413  19.243   1
   4   8  -7 95.3031 19.5846   5
   3  -8  -7 45.6400 16.0578   6
   3  -8  -7 56.9093 13.3152   7
   3   8  -7 39.6918 16.9380   5
  -3   8   7 31.5460 13.6262   1
   2  -8  -7 300.560  20.870   7
   2  -8  -7 328.634  24.691   2
   2  -8  -7 286.110  24.774   6
  -2   8   7 318.136  21.810   1
   2   8  -7 321.573  26.143   5
   1  -8  -7 116.908  18.389   2
   1  -8  -7 103.751  15.366   7
   1  -8  -7 103.760  17.739   6
  -1   8   7 121.577  16.261   1
   1   8  -7 115.794  18.183   5
   0  -8  -7 69.5816 16.7975   6
   0  -8  -7 85.7494 14.4146   7
   0   8  -7 96.2334 17.0971   5
  -1  -8  -7 53.5835 17.5869   6
  -1  -8  -7 49.4901 13.7682   7
  -1   8  -7 43.9960 14.4045   5
   1   8   7 56.9922 13.1320   5
  -2  -8  -7 303.041  23.179   7
   2   8   7 265.074  21.314   5
  -2   8  -7 314.936  23.984   5
  -3  -8  -7 248.126  21.653   7
  -3   8  -7 258.916  22.247   5
  -3   8  -7 260.271  23.646   1
  -4  -8  -7 135.246  18.216   7
  -4   8  -7 141.013  18.905   1
  -4   8  -7 143.326  19.142   5
  -5  -8  -7 27.1448 14.1028   7
  -5   8  -7 65.1143 17.0081   1
  -6  -8  -7 186.445  20.624   7
  -6   8  -7 213.244  23.353   1
  -7  -8  -7 267.525  23.763   7
  -7  -8  -7 300.378  24.889   7
  -8  -8  -7 204.781  21.838   7
  -8  -8  -7 157.637  19.630   7
  -6  -9   7 52.4260 18.9545   1
   6  -9  -7 34.6244 14.5329   7
  -6   9   7 60.4130 17.6937   1
   6   9  -7 47.6104 19.2722   5
   5  -9  -7 42.1693 14.4315   7
  -5   9   7 32.7964 15.4165   1
   5   9  -7 15.8817 16.8772   5
   4  -9  -7 11.4120 13.0024   7
  -4   9   7 -5.7988 13.2194   1
   4   9  -7 -0.0646 15.3960   5
   3  -9  -7 36.4808 13.5685   7
  -3   9   7 40.0646 14.8812   1
   3   9  -7 33.3010 17.0058   5
   2  -9  -7 144.476  17.415   7
  -2   9   7 124.256  17.694   1
   2   9  -7 109.901  19.485   5
   1  -9  -7 170.144  22.826   2
   1  -9  -7 142.778  18.126   7
   1   9  -7 150.958  21.131   5
   0  -9  -7  2.0458 11.9590   7
   0   9   7 23.1749 13.5912   5
   0   9  -7 30.4132 15.3364   5
  -1  -9  -7 11.6180 12.0124   7
  -1   9  -7 -1.1917 14.5922   5
   1   9   7 -4.5340 12.1545   5
  -2  -9  -7 330.467  25.857   7
   2   9   7 358.938  24.299   5
  -2   9  -7 373.558  27.262   5
  -3  -9  -7 186.791  21.255   7
  -3   9  -7 169.798  22.236   1
  -3   9  -7 203.300  22.420   5
  -4  -9  -7  9.9048 14.0997   7
  -4   9  -7 35.8211 15.7909   1
  -4   9  -7 -13.481  13.582   5
  -5  -9  -7 11.7173 14.4491   7
  -5   9  -7  9.5431 14.7334   1
  -6  -9  -7 423.080  28.951   7
  -6   9  -7 428.205  30.009   1
   4 -10  -7  6.2712 14.1640   7
  -4  10   7 51.3467 17.7616   1
   4  10  -7 21.1283 17.0623   5
   3 -10  -7 76.2234 16.7038   7
  -3  10   7 85.7188 18.5526   1
   3  10  -7 54.1055 19.2662   5
   2 -10  -7 101.739  17.050   7
   2  10  -7 144.727  22.511   5
  -2  10   7 107.729  19.419   1
   1 -10  -7 652.565  32.531   7
   1  10  -7 650.385  35.426   5
   0 -10  -7 102.430  18.016   7
   0  10  -7 106.886  20.534   5
   0  10   7 72.9494 16.8511   5
  -1 -10  -7 34.5098 15.1104   7
   1  10   7 44.8215 16.6215   5
  -1  10  -7 58.5035 17.9254   5
  -2 -10  -7 168.728  21.658   7
  -2  10  -7 147.597  21.551   5
  -3 -10  -7 402.694  28.807   7
  -3  10  -7 433.699  30.288   5
  -4 -10  -7 92.4899 19.2833   7
  -4  10  -7 85.8369 19.1023   5
  -4  10  -7 136.794  21.775   1
  12   0  -8 108.777  17.902   7
 -12   0   8 118.238  21.359   1
  12   0  -8 159.012  26.014   3
  11   0  -8  4.1142 12.9726   7
 -11   0   8 -0.2499 14.9766   1
  11   0  -8 -2.0246 16.2654   3
 -10   0   8 828.464  35.767   1
  10   0  -8 836.815  37.661   6
  10   0  -8 788.601  31.504   7
  10   0  -8 770.059  39.220   3
  -9   0   8 113.715  17.565   1
   9   0  -8 77.3326 16.5550   6
   9   0  -8 94.1551 19.0377   3
   9   0  -8 114.274  15.147   7
   8   0  -8 167.014  15.092   7
   8   0  -8 152.726  17.814   6
   8   0  -8 158.682  19.875   3
  -8   0   8 145.234  17.592   1
   7   0  -8 33.5698 11.9984   6
  -7   0   8 12.2830 11.4689   1
   7   0  -8 33.1941 12.5926   3
   7   0  -8 8.65980 8.95686   7
   6   0  -8 1496.05   35.91   7
   6   0  -8 1471.78   44.58   3
   6   0  -8 1492.17   38.29   2
  -6   0   8 1521.91   42.63   1
   6   0  -8 1498.41   42.23   6
  -5   0   8 250.496  17.637   1
   5   0  -8 292.430  15.752   2
   5   0  -8 279.728  18.722   3
   5   0  -8 267.046  11.757   7
   5   0  -8 264.111  17.115   6
   4   0  -8 203.270  15.985   3
   4   0  -8 195.075  14.954   2
  -4   0   8 189.377  14.605   1
   4   0  -8 215.378  14.014   6
   3   0  -8 99.1477 12.3847   3
   3   0  -8 97.0281 11.2214   2
  -3   0   8 74.0144  9.9923   1
   3   0  -8 84.1803  9.6422   6
  -2   0   8 2502.36   52.62   1
   2   0  -8 2387.17   54.44   2
   2   0  -8 2465.99   52.74   6
   2   0  -8 2467.99   57.24   3
   1   0  -8 164.509  13.616   3
  -1   0   8 185.255  11.106   1
   1   0  -8 165.267  11.830   2
   1   0  -8 166.117  10.435   6
   0   0  -8 97.5707  8.1372   4
   0   0  -8 104.949   8.719   6
   0   0  -8 91.4667 10.8424   2
   0   0  -8 92.5218 11.1686   3
  -1   0  -8 518.571  15.291   4
  -1   0  -8 489.236  18.956   2
  -1   0  -8 481.335  20.850   3
  -1   0  -8 501.574  15.988   6
  -2   0  -8 2528.32   60.13   3
  -2   0  -8 2662.13   57.35   2
  -3   0  -8 -0.9480  8.0787   2
  -4   0  -8 4.86607 8.21201   2
   4   0   8 9.01973 8.34757   6
  -5   0  -8 809.812  18.932   7
  -5   0  -8 864.241  26.443   2
  -6   0  -8 1557.27   34.37   7
  -6   0  -8 1444.05   38.91   2
  -7   0  -8 221.598  13.979   7
  -8   0  -8 57.3538 10.3400   7
  -9   0  -8 527.817  21.880   7
 -10   0  -8 571.238  23.606   7
 -11   0  -8 286.757  18.913   7
 -12   0  -8 56.4765 12.5666   7
 -12  -1   8  7.5804 16.1047   1
  12  -1  -8 24.5939 15.2792   7
  12   1  -8  5.3340 19.1435   3
  12   1  -8 39.6862 14.5868   7
 -12   1   8 33.6837 17.1676   1
  11  -1  -8 16.7950 17.4579   3
  11  -1  -8 -14.537  12.080   7
 -11  -1   8 -11.109  15.214   1
  11   1  -8  7.0453 12.7589   7
 -11   1   8 -8.4369 14.4956   1
  11   1  -8 -12.360  16.722   3
 -10  -1   8  1.6948 14.4362   1
  10  -1  -8  1.2685 11.3887   7
  10  -1  -8 15.0127 16.1355   3
  10   1  -8  6.7339 12.0580   7
  10   1  -8  6.3709 15.3024   6
  10   1  -8 13.4201 17.0522   3
 -10   1   8 -5.1390 13.2464   1
   9  -1  -8  7.5229 13.9982   3
   9  -1  -8 -6.1072 10.0780   7
  -9  -1   8  9.4095 13.5840   1
   9  -1  -8  6.1878 14.9866   6
   9   1  -8 -20.014  12.087   6
   9   1  -8 -6.6388 13.7651   3
  -9   1   8 -13.782  11.952   1
   9   1  -8  2.3655 10.5602   7
   8  -1  -8 56.1229 14.9850   6
   8  -1  -8 39.3881 15.0952   3
  -8  -1   8 43.3956 14.5815   1
   8  -1  -8 54.5732 11.5012   7
   8   1  -8 63.6339 14.9951   6
  -8   1   8 33.3303 13.2566   1
   8   1  -8 67.8420 11.8007   7
   8   1  -8 74.6198 16.2873   3
   7  -1  -8  1.4301 11.9937   3
   7  -1  -8  8.9503 11.8841   6
   7  -1  -8 -2.2338  8.7487   7
  -7  -1   8 -12.139  10.304   1
   7   1  -8 -15.255  10.267   6
   7   1  -8 -1.7797  9.8170   2
   7   1  -8 -0.2027  8.2813   7
  -7   1   8 12.9643 10.8463   1
   7   1  -8  7.1248 11.5742   3
   6  -1  -8 172.810  17.710   3
   6  -1  -8 196.100  14.017   7
  -6  -1   8 193.620  17.270   1
   6  -1  -8 184.099  16.987   6
   6  -1  -8 192.238  14.588   2
   6   1  -8 190.206  16.058   6
   6   1  -8 209.489  11.765   7
  -6   1   8 191.645  17.057   1
   6   1  -8 207.871  18.409   3
   6   1  -8 205.797  15.959   2
  -5  -1   8 33.2935  9.7758   1
   5  -1  -8 28.2919  9.5666   2
   5  -1  -8 20.7120 10.7123   3
   5  -1  -8 38.4283 11.2305   6
   5  -1  -8 20.5558  7.0553   7
   5   1  -8 7.80189 9.25435   2
  -5   1   8 41.1394 10.4957   1
   5   1  -8 18.1134 10.5310   3
   5   1  -8 28.5026 10.2941   6
  -4  -1   8 14.2578  8.7081   1
   4  -1  -8 8.03595 8.48697   2
   4  -1  -8 8.72748 8.44948   6
   4  -1  -8 3.56681 5.27894   7
   4  -1  -8 18.1059  9.4967   3
  -4   1   8 10.5722  8.3495   1
   4   1  -8 20.2037  8.4327   6
   4   1  -8 21.3345  9.6683   2
   4   1  -8 11.3781  9.3804   3
  -3  -1   8 122.917  12.045   1
   3  -1  -8 135.507  12.531   2
   3  -1  -8 135.047  12.589   6
   3  -1  -8 126.374  13.220   3
  -3   1   8 148.828  12.002   1
   3   1  -8 122.118  12.664   3
   3   1  -8 141.697  12.816   2
   3   1  -8 113.503  10.919   6
  -2  -1   8 595.926  20.586   1
   2  -1  -8 635.033  23.305   3
   2  -1  -8 598.452  21.502   2
   2  -1  -8 606.951  21.061   6
  -2   1   8 605.938  19.821   1
   2   1  -8 634.009  22.268   2
   2   1  -8 604.579  18.711   6
   2   1  -8 605.968  23.162   3
   1  -1  -8 123.992  12.100   2
   1  -1  -8 121.871  10.810   6
  -1  -1   8 136.272  10.324   1
   1  -1  -8 118.863   9.948   4
   1  -1  -8 150.449  12.880   3
   1   1  -8 126.486  12.474   3
  -1   1   8 130.961   9.629   1
   1   1  -8 115.619  11.255   2
   1   1  -8 110.132   8.557   6
   0  -1  -8 83.1620  8.9482   4
   0  -1  -8 84.9619 10.7205   3
   0  -1  -8 70.1212 10.5221   2
   0  -1   8 93.8180  8.3323   1
   0  -1  -8 73.8372  9.6858   6
   0   1  -8 83.5422  6.9087   6
   0   1  -8 82.1972 10.4136   2
   0   1  -8 65.3387 10.3870   3
  -1  -1  -8 389.039  15.073   4
  -1  -1  -8 406.878  16.189   6
  -1  -1  -8 384.447  17.985   2
  -1  -1  -8 409.369  18.525   3
  -1   1  -8 379.659  18.636   3
  -1   1  -8 376.035  17.042   2
  -1   1  -8 406.242  11.986   6
  -1   1  -8 410.870  11.502   4
  -2  -1  -8 547.921  21.584   3
  -2  -1  -8 501.834  18.593   6
  -2  -1  -8 515.381  20.651   2
  -2   1  -8 545.158  19.705   2
  -3  -1  -8 97.2378 11.8723   2
  -3   1  -8 96.9871 11.3304   2
  -4  -1  -8 195.462   8.311   7
  -4  -1  -8 216.482  15.047   2
  -4   1  -8 208.054  13.596   2
   4   1   8 211.230  14.991   6
  -5  -1  -8 301.093  17.686   2
  -5  -1  -8 303.262  12.988   7
   5   1   8 323.161  20.094   6
  -5   1  -8 349.580  16.871   2
  -6  -1  -8 155.654  15.437   2
  -6  -1  -8 150.483  11.402   7
  -6   1  -8 147.777   9.520   7
   6   1   8 139.890  16.118   6
  -7  -1  -8 33.1973  8.7844   7
  -7   1  -8 13.7041  7.4531   7
  -8  -1  -8 81.5652 11.6370   7
  -8   1  -8 68.8354 10.1519   7
  -9  -1  -8 121.781  13.436   7
  -9   1  -8 125.899  12.604   7
 -10  -1  -8 7.41421 9.88277   7
 -10   1  -8 4.91463 9.17973   7
 -11  -1  -8  4.0720 10.3177   7
 -11   1  -8 -9.2429  9.5509   7
 -12  -1  -8  6.8631 10.6040   7
 -12   1  -8 -6.0376  9.9370   7
  11  -2  -8 19.3825 18.0720   3
  11  -2  -8 33.1244 13.7670   7
 -11  -2   8 21.6609 16.6789   1
  11   2  -8 51.2311 13.7693   7
 -11   2   8 53.1699 17.0561   1
  11   2  -8 71.2930 20.3156   3
 -10  -2   8 586.831  33.306   1
  10  -2  -8 622.794  34.947   3
  10  -2  -8 610.380  28.045   7
  10   2  -8 629.446  26.485   7
 -10   2   8 644.764  32.325   1
  10   2  -8 634.293  35.267   3
  -9  -2   8 10.4143 13.7584   1
   9  -2  -8 28.5134 14.7201   3
   9  -2  -8 15.3726 10.9298   7
   9  -2  -8 13.3191 13.8910   6
   9   2  -8  6.2371 15.6495   6
  -9   2   8  8.3609 12.8357   1
   9   2  -8 22.5483 10.4997   7
   9   2  -8  2.5856 14.4310   3
   8  -2  -8 85.2686 16.4981   3
   8  -2  -8 120.517  16.827   6
   8  -2  -8 119.390  13.641   7
  -8  -2   8 105.919  17.144   1
   8   2  -8 108.447  12.178   7
   8   2  -8 144.958  19.099   3
   8   2  -8 133.572  17.574   6
  -8   2   8 124.146  16.704   1
   7  -2  -8 252.338  19.316   6
  -7  -2   8 215.183  19.219   1
   7  -2  -8 195.134  20.137   3
   7  -2  -8 193.079  15.130   7
   7   2  -8 233.506  20.661   3
   7   2  -8 226.885  13.736   7
   7   2  -8 227.706  19.434   6
  -7   2   8 208.862  18.629   1
   6  -2  -8 1329.31   40.17   6
   6  -2  -8 1252.61   40.57   3
  -6  -2   8 1278.48   39.81   1
   6  -2  -8 1290.21   33.62   7
   6   2  -8 1283.04   38.38   6
   6   2  -8 1316.38   41.12   3
   6   2  -8 1322.34   28.33   7
   6   2  -8 1312.09   37.29   2
  -6   2   8 1276.54   38.97   1
   5  -2  -8 2.09108 6.58306   7
   5  -2  -8 -1.9170  9.5919   6
  -5  -2   8 1.99774 9.46173   1
   5  -2  -8 2.87380 9.91600   3
   5  -2  -8 -3.7917  8.2574   2
   5   2  -8 11.2198  9.9619   3
   5   2  -8 5.68779 9.31865   2
   5   2  -8 3.38445 9.58476   5
   5   2  -8 -17.173   9.000   6
  -5   2   8 8.49630 8.99646   1
   4  -2  -8 48.2311 11.0620   3
   4  -2  -8 57.1893  9.5974   2
  -4  -2   8 48.7069 10.6688   1
   4  -2  -8 35.8663  6.9742   7
   4  -2  -8 43.2790 10.7110   6
   4   2  -8 41.2129 10.8046   3
  -4   2   8 51.8758 10.1923   1
   4   2  -8 22.3669 10.1008   2
   4   2  -8 53.3594 10.4496   5
   4   2  -8 32.0855  9.2664   6
   3  -2  -8 312.102  11.584   7
   3  -2  -8 309.856  18.462   3
   3  -2  -8 338.919  18.257   6
   3  -2  -8 292.564  15.861   2
  -3  -2   8 318.848  17.720   1
   3   2  -8 318.355  16.834   5
  -3   2   8 312.376  15.620   1
   3   2  -8 326.888  14.673   6
   3   2  -8 295.052  15.922   2
   3   2  -8 347.521  18.495   3
   2  -2  -8 1906.36   48.05   3
   2  -2  -8 1910.28   46.72   6
  -2  -2   8 1959.80   46.40   1
   2  -2  -8 1948.39   46.58   2
   2  -2  -8 1965.60   38.35   7
   2  -2  -8 1996.27   46.19   4
   2   2  -8 2042.53   45.50   5
   2   2  -8 2006.03   42.52   6
  -2   2   8 1998.85   44.48   1
   2   2  -8 2028.68   49.23   3
   2   2  -8 1981.99   47.14   2
   1  -2  -8 95.7586 11.2149   6
  -1  -2   8 104.383  10.817   1
   1  -2  -8 78.1094 10.3150   4
   1  -2  -8 94.6061 11.3644   3
   1  -2  -8 92.1852 11.5083   2
   1  -2  -8 92.3522  4.6068   7
   1   2  -8 86.8113 11.5269   2
  -1   2   8 89.2231  8.5931   1
   1   2  -8 88.1185  7.2455   6
   1   2  -8 97.1482 11.9262   3
   0  -2  -8 -3.4113  7.4735   3
   0  -2  -8 6.36018 8.62445   2
   0  -2  -8 -3.9830  7.3927   4
   0  -2  -8 2.67081 8.01632   6
   0   2  -8 3.09271 7.92408   2
   0   2  -8 7.38916 8.23990   3
  -1  -2  -8 168.654  14.310   2
  -1  -2  -8 165.038  13.645   3
  -1  -2  -8 149.852  12.741   6
  -1   2  -8 152.260  13.604   3
  -1   2  -8 177.572  13.369   2
  -2  -2  -8 1505.25   39.57   3
  -2  -2  -8 1470.66   38.49   6
  -2  -2  -8 1472.27   39.39   2
  -2  -2  -8 1494.54   29.11   7
  -2   2  -8 1475.14   36.91   2
  -3  -2  -8 199.404  16.241   2
  -3  -2  -8 201.637   9.331   7
  -3   2  -8 212.727  14.257   2
  -4  -2  -8 12.5049  6.0645   7
  -4  -2  -8 11.9100 10.1802   2
  -4   2  -8 9.00327 8.21845   2
  -5  -2  -8 28.7948  8.0096   7
  -5  -2  -8 71.4097 12.6148   2
  -5  -2  -8 49.7987  8.3950   7
   5   2   8 39.2937 12.7211   6
  -6  -2  -8 535.095  24.850   2
  -6  -2  -8 538.712  20.450   7
   6   2   8 584.578  27.090   6
  -6   2  -8 564.513  14.198   7
  -7  -2  -8 150.105  13.539   7
  -7  -2  -8 157.098  17.070   2
  -7   2  -8 150.239  11.104   7
   7   2   8 159.005  19.116   6
  -8  -2  -8 39.7269 10.4895   7
  -8   2  -8 23.0019  8.4331   7
   8   2   8 68.2527 17.2608   6
  -9  -2  -8 72.2911 12.5943   7
  -9   2  -8 59.2253 10.0671   7
 -10  -2  -8 171.875  16.079   7
 -10   2  -8 143.061  13.431   7
 -11  -2  -8 67.9228 13.3002   7
 -11   2  -8 68.4726 11.9934   7
  11  -3  -8 95.4557 20.5312   3
 -11  -3   8 78.6256 19.8684   1
  11  -3  -8 93.6058 16.2737   7
 -11   3   8 86.3870 18.3775   1
  11   3  -8 90.7381 14.8964   7
  11   3  -8 62.7675 20.2979   3
  10  -3  -8 191.730  18.464   7
  10  -3  -8 205.368  24.093   3
 -10  -3   8 219.375  23.907   1
  10   3  -8 222.913  25.462   3
  10   3  -8 182.062  16.558   7
 -10   3   8 205.870  22.427   1
   9  -3  -8 67.0176 17.0565   6
   9  -3  -8 122.179  14.973   7
   9  -3  -8 100.958  18.200   3
  -9  -3   8 106.049  18.225   1
   9   3  -8 82.7020 12.7109   7
  -9   3   8 79.9986 15.9871   1
   9   3  -8 70.1170 17.9781   3
   9   3  -8 94.4562 18.5877   6
   8  -3  -8 -8.1451  9.3878   7
   8  -3  -8  4.3471 12.4898   3
   8  -3  -8 13.5570 12.9702   6
  -8  -3   8 17.7957 13.3321   1
   8   3  -8 -2.6954 12.7920   3
   8   3  -8  2.2477 13.9943   6
   8   3  -8 11.8035  8.8232   7
  -8   3   8  7.4101 12.1445   1
  -7  -3   8 334.872  23.222   1
   7  -3  -8 325.797  21.776   6
   7  -3  -8 316.808  23.093   3
   7  -3  -8 333.161  18.516   7
   7   3  -8 339.103  23.285   3
  -7   3   8 313.123  21.574   1
   7   3  -8 341.407  22.278   6
   7   3  -8 342.799  25.724   5
   7   3  -8 322.739  14.080   7
   6  -3  -8 521.816  21.316   7
   6  -3  -8 539.322  25.242   6
   6  -3  -8 523.573  25.713   3
  -6  -3   8 524.107  26.177   1
   6   3  -8 551.530  14.272   7
   6   3  -8 556.572  27.293   5
   6   3  -8 538.159  24.326   6
  -6   3   8 525.469  24.985   1
   6   3  -8 535.228  26.254   3
   5  -3  -8 152.354  12.087   7
   5  -3  -8 162.430  16.396   3
   5  -3  -8 137.765  12.765   2
   5  -3  -8 159.011  16.088   6
  -5  -3   8 119.102  15.273   1
   5   3  -8 161.841  16.657   5
   5   3  -8 122.394  14.905   2
   5   3  -8 148.997  14.297   6
  -5   3   8 156.650  15.002   1
   5   3  -8 157.484  16.095   3
   4  -3  -8 85.9732 11.7339   2
   4  -3  -8 90.4301 13.0715   3
   4  -3  -8 83.0001  9.4570   7
  -4  -3   8 97.8670 13.2876   1
   4  -3  -8 87.9741 13.2336   6
   4   3  -8 96.6759 12.8967   3
   4   3  -8 78.8623 12.6398   5
   4   3  -8 75.7735 12.9123   2
  -4   3   8 73.6945 11.2625   1
   4   3  -8 74.7697 10.9539   6
   3  -3  -8 742.054  27.418   3
  -3  -3   8 757.372  27.186   1
   3  -3  -8 782.865  27.450   6
   3  -3  -8 797.766  25.374   2
   3  -3  -8 749.132  21.662   7
   3  -3  -8 801.589  26.895   4
   3   3  -8 793.443  27.387   5
   3   3  -8 721.976  26.543   2
   3   3  -8 825.337  28.137   3
  -3   3   8 772.092  25.036   1
   3   3  -8 810.767  23.490   6
   2  -3  -8 744.912  25.719   4
  -2  -3   8 761.134  26.547   1
   2  -3  -8 735.296  25.403   3
   2  -3  -8 736.548  26.610   6
   2  -3  -8 748.645  20.363   7
   2  -3  -8 736.776  25.019   2
   2   3  -8 744.448  25.912   2
  -2   3   8 761.509  23.537   1
   2   3  -8 741.472  26.409   3
   2   3  -8 806.119  26.288   5
   1  -3  -8 196.459  14.610   3
   1  -3  -8 201.489  15.442   2
   1  -3  -8 209.688  15.099   6
   1  -3  -8 198.798  14.639   4
   1  -3  -8 195.296  10.401   7
   1   3  -8 221.827  15.553   3
   1   3  -8 210.158  15.006   5
  -1   3   8 197.254  12.170   1
   1   3  -8 219.840  14.569   2
   0  -3  -8 271.825  16.289   6
   0  -3  -8 294.265  17.257   2
   0  -3  -8 256.420  15.623   3
   0  -3  -8 283.047  16.513   4
   0  -3  -8 266.323  11.263   7
   0   3  -8 265.844  15.605   2
   0   3  -8 274.789  16.507   3
   0   3  -8 290.627  15.135   5
  -1  -3  -8 982.066  23.785   7
  -1  -3  -8 1005.54   30.64   6
  -1  -3  -8 969.687  29.512   3
  -1  -3  -8 976.590  30.857   2
  -1   3  -8 978.158  28.793   2
  -1   3  -8 1058.02   31.82   3
  -2  -3  -8 622.314  23.137   3
  -2  -3  -8 648.716  24.968   2
  -2  -3  -8 585.309  24.639   6
  -2  -3  -8 609.108  17.536   7
  -2   3  -8 607.701  21.940   2
  -3  -3  -8 111.586  14.645   2
  -3  -3  -8 117.234   9.548   7
  -3   3  -8 98.1395 11.1849   2
  -4  -3  -8 369.300  21.259   2
  -4  -3  -8 344.784  15.704   7
  -4   3  -8 337.583  16.748   2
  -5  -3  -8 594.039  26.652   2
  -5  -3  -8 620.897  22.062   7
  -5  -3  -8 600.955  21.900   7
   5   3   8 657.089  26.955   6
  -6  -3  -8 355.413  18.521   7
  -6  -3  -8 326.952  21.598   2
   6   3   8 361.089  23.789   6
  -7  -3  -8 34.5572 10.6055   7
  -7  -3  -8 29.5447 14.6442   2
  -7   3  -8 25.3789  6.6979   7
   7   3   8 36.5511 14.4478   6
  -8  -3  -8 216.011  17.223   7
   8   3   8 175.746  21.916   6
  -8   3  -8 203.468  13.033   7
  -9  -3  -8 250.984  19.037   7
   9   3   8 285.818  26.055   6
  -9   3  -8 279.059  15.434   7
 -10  -3  -8 186.049  17.364   7
 -10   3  -8 191.974  14.714   7
 -11  -3  -8 11.5078 10.5734   7
 -11   3  -8 11.4733  9.7653   7
 -11  -4   8 18.6321 17.0538   1
  11  -4  -8 51.4057 18.5536   3
  11  -4  -8 41.7882 14.4282   7
 -11   4   8 28.4611 15.7994   1
  11   4  -8 58.3396 12.6941   7
  10  -4  -8 29.7734 13.0944   7
 -10  -4   8 33.4342 16.2112   1
  10  -4  -8 23.0175 16.1686   3
 -10   4   8 19.8404 14.5381   1
  10   4  -8 38.6123 11.2628   7
   9  -4  -8 55.4000 13.2513   7
  -9  -4   8 66.9502 16.4077   1
   9  -4  -8 44.7095 16.0571   3
   9   4  -8 23.3109 10.1620   7
   9   4  -8 46.4991 18.2896   6
  -9   4   8 65.8442 15.8333   1
  -8  -4   8 178.962  20.829   1
   8  -4  -8 196.513  21.214   6
   8  -4  -8 149.522  16.061   7
   8  -4  -8 184.448  20.201   3
   8   4  -8 221.351  24.171   5
   8   4  -8 192.310  20.754   6
  -8   4   8 165.952  18.827   1
   8   4  -8 190.074  13.771   7
   8   4  -8 185.693  21.007   3
  -7  -4   8 158.686  18.954   1
   7  -4  -8 161.947  15.410   7
   7  -4  -8 197.519  19.962   3
   7  -4  -8 173.539  18.735   6
  -7   4   8 201.938  19.587   1
   7   4  -8 175.411  11.120   7
   7   4  -8 178.216  19.412   3
   7   4  -8 163.704  21.157   5
   7   4  -8 179.854  19.485   6
   6  -4  -8 148.150  17.652   6
   6  -4  -8 157.650  14.100   7
   6  -4  -8 106.222  15.763   3
  -6  -4   8 134.681  17.615   1
   6   4  -8 130.350  18.609   5
   6   4  -8 110.127  16.148   3
   6   4  -8 132.421  16.108   6
  -6   4   8 130.206  15.701   1
   5  -4  -8 99.8339 14.7788   3
  -5  -4   8 92.1656 15.1188   1
   5  -4  -8 108.452  15.711   6
   5  -4  -8 89.7247 11.1345   7
   5  -4  -8 89.1212 13.2437   4
   5   4  -8 117.583  14.761   3
   5   4  -8 87.5579 13.4972   6
  -5   4   8 93.9117 13.5545   1
   5   4  -8 84.1385 15.6808   5
   4  -4  -8 207.361  15.567   2
   4  -4  -8 173.162  16.923   6
   4  -4  -8 175.545  16.213   3
   4  -4  -8 231.278  18.292   4
  -4  -4   8 186.614  17.709   1
   4  -4  -8 190.191  13.918   7
   4   4  -8 162.745  17.316   5
  -4   4   8 202.827  15.976   1
   4   4  -8 186.837  16.720   3
   3  -4  -8 286.030  19.046   6
   3  -4  -8 239.695  16.773   2
   3  -4  -8 254.708  17.842   4
   3  -4  -8 269.692  14.088   7
  -3  -4   8 264.424  19.261   1
   3  -4  -8 269.230  17.649   3
   3   4  -8 265.112  17.696   3
   3   4  -8 257.872  19.005   5
  -3   4   8 238.821  16.170   1
   3   4  -8 232.118  16.655   2
   2  -4  -8 249.820  17.463   4
   2  -4  -8 277.878  16.537   3
   2  -4  -8 221.643  17.351   6
   2  -4  -8 250.369  13.866   7
   2  -4  -8 248.680  16.859   2
  -2   4   8 269.945  15.749   1
   2   4  -8 241.622  17.206   2
   2   4  -8 277.944  17.326   3
   2   4  -8 284.179  19.267   5
   1  -4  -8 170.472  15.927   6
   1  -4  -8 159.623  15.219   2
   1  -4  -8 163.809  13.546   3
   1  -4  -8 148.130  10.967   7
   1  -4  -8 149.165  14.350   4
   1   4  -8 192.079  15.132   3
  -1   4   8 168.723  12.405   1
   1   4  -8 152.293  14.454   2
   1   4  -8 166.550  14.833   5
   0  -4  -8 146.834  10.916   7
   0  -4  -8 120.995  14.203   2
   0  -4  -8 148.342  15.100   6
   0  -4  -8 142.887  12.851   3
   0   4  -8 170.581  14.357   5
   0   4  -8 139.722  13.623   2
   0   4  -8 161.229  14.143   3
  -1  -4  -8 118.194  10.025   7
  -1  -4  -8 110.799  14.047   6
  -1  -4  -8 88.0541 13.8678   2
  -1  -4  -8 122.873  11.879   3
  -1   4  -8 135.127  12.416   5
  -1   4  -8 125.907  13.002   2
  -2  -4  -8 217.061  18.232   6
  -2  -4  -8 185.226  16.840   2
  -2  -4  -8 221.082  13.273   7
  -2   4  -8 209.524  15.536   2
  -3  -4  -8 147.550  12.202   7
  -3  -4  -8 146.477  17.211   2
  -3   4  -8 164.546  13.964   2
  -3   4  -8 161.064  14.516   1
  -4  -4  -8 101.875  16.624   2
  -4  -4  -8 129.761  12.310   7
  -5  -4  -8 38.1296 10.1479   7
  -5  -4  -8 14.3588  9.7742   7
  -5  -4  -8 21.0827 13.6319   2
  -6  -4  -8 72.9315 12.1971   7
  -6  -4  -8 56.7907 16.2872   2
   6   4   8 68.2931 15.8558   6
  -7  -4  -8 84.3607 17.4977   2
  -7  -4  -8 88.5578 13.1333   7
   7   4   8 85.2064 18.3271   6
  -8  -4  -8 112.590  14.189   7
  -8  -4  -8 84.3695 18.5592   2
  -8   4  -8 107.547  10.074   7
   8   4   8 92.4333 19.6343   6
  -9  -4  -8 19.8040 11.2837   7
   9   4   8 16.3217 17.7812   6
  -9   4  -8 4.10560 8.30810   7
 -10  -4  -8 38.9566 12.4331   7
 -10   4  -8 21.9910  9.8378   7
 -11  -4  -8 17.5419 11.9955   7
 -11   4  -8  6.9745 10.1755   7
  10  -5  -8 301.199  26.946   3
  10  -5  -8 365.211  24.079   7
 -10  -5   8 394.377  29.486   1
  10   5  -8 333.662  19.728   7
 -10   5   8 381.993  27.514   1
   9  -5  -8 119.633  16.303   7
   9  -5  -8 150.597  20.461   3
  -9  -5   8 123.550  21.042   1
   9   5  -8 107.150  20.498   6
   9   5  -8 138.142  22.418   5
  -9   5   8 140.071  19.416   1
   9   5  -8 126.226  12.942   7
   8  -5  -8 85.0415 17.3344   3
   8  -5  -8 111.965  18.718   6
  -8  -5   8 118.843  19.201   1
   8  -5  -8 79.5245 13.5503   7
  -8   5   8 99.1040 17.1523   1
   8   5  -8 123.702  21.083   5
   8   5  -8 119.390  11.035   7
  -7  -5   8 211.589  21.724   1
   7  -5  -8 213.264  21.900   6
   7  -5  -8 180.397  19.269   3
   7  -5  -8 191.710  19.614   4
   7  -5  -8 175.227  16.785   7
  -7   5   8 165.416  18.736   1
   7   5  -8 187.535  10.963   7
   7   5  -8 145.585  21.049   5
   6  -5  -8 465.164  25.138   3
   6  -5  -8 471.081  24.685   4
  -6  -5   8 495.848  27.864   1
   6  -5  -8 494.239  26.907   6
   6  -5  -8 527.499  23.223   7
   6   5  -8 490.312  30.098   5
  -6   5   8 498.755  26.064   1
   5  -5  -8 108.074  14.873   3
   5  -5  -8 116.818  12.889   7
  -5  -5   8 66.7477 14.9826   1
   5  -5  -8 103.370  15.817   6
   5  -5  -8 80.1475 14.2376   4
  -5   5   8 93.5358 14.1156   1
   5   5  -8 93.5700 17.2662   5
   4  -5  -8 173.001  15.446   2
   4  -5  -8 155.936  16.920   4
   4  -5  -8 137.118  15.094   3
  -4  -5   8 145.925  18.187   1
   4  -5  -8 144.107  13.128   7
   4  -5  -8 158.925  17.413   6
  -4   5   8 163.180  15.907   1
   4   5  -8 176.359  19.448   5
   3  -5  -8 470.351  21.960   3
   3  -5  -8 421.951  23.463   6
   3  -5  -8 433.004  21.126   2
   3  -5  -8 435.403  23.011   4
   3  -5  -8 445.602  19.722   7
   3   5  -8 447.989  22.171   3
  -3   5   8 484.784  21.934   1
   3   5  -8 479.195  26.315   5
   2  -5  -8 525.144  23.684   2
   2  -5  -8 501.872  20.887   3
   2  -5  -8 465.105  20.117   7
   2  -5  -8 484.906  23.401   4
   2  -5  -8 508.378  24.601   6
   2   5  -8 475.138  24.796   5
   2   5  -8 470.626  22.387   3
  -2   5   8 489.370  21.109   1
   1  -5  -8 44.8819 12.7522   6
   1  -5  -8 43.5249  9.1446   7
   1  -5  -8 63.1578 12.6977   2
   1  -5  -8 56.4042 12.8410   4
   1   5  -8 61.5064 11.6785   3
   1   5  -8 57.8097 12.9138   5
  -1   5   8 56.0412 10.0096   1
   0  -5  -8 139.406  12.183   7
   0  -5  -8 143.583  16.221   2
   0  -5  -8 145.561  16.637   6
   0   5  -8 128.433  14.372   2
   0   5  -8 155.275  15.237   5
  -1  -5  -8 498.020  25.381   6
  -1  -5  -8 549.844  20.883   7
  -1  -5  -8 539.602  26.104   2
  -1   5  -8 573.669  23.945   2
  -1   5  -8 586.657  23.769   5
  -2  -5  -8 445.227  19.471   7
  -2  -5  -8 448.495  24.673   2
  -2  -5  -8 435.490  24.427   6
  -2   5  -8 430.168  20.814   2
  -3  -5  -8 12.3987 13.6255   2
  -3  -5  -8 47.4722 10.4803   7
  -3   5  -8 52.1781 11.2164   2
  -3   5  -8 42.0254 11.9670   1
  -4  -5  -8 162.654  15.174   7
  -4  -5  -8 153.466  19.583   2
  -4   5  -8 180.744  16.414   1
  -5  -5  -8 415.354  26.171   2
  -5  -5  -8 422.987  22.260   7
  -5  -5  -8 400.683  22.282   7
  -6  -5  -8 339.504  20.726   7
  -6  -5  -8 357.094  26.533   2
  -6  -5  -8 365.582  21.171   7
   6   5   8 347.668  24.902   6
  -7  -5  -8 30.3593 11.8775   7
  -7  -5  -8 23.0511 15.2885   2
   7   5   8 58.7500 18.1675   6
  -8  -5  -8 213.757  23.213   2
  -8  -5  -8 165.106  17.196   7
   8   5   8 182.552  23.826   6
  -9  -5  -8 169.815  17.539   7
 -10  -5  -8 325.564  22.039   7
   9  -6  -8 182.917  22.622   3
   9  -6  -8 184.725  18.659   7
  -9  -6   8 176.470  23.347   1
   9   6  -8 185.522  25.529   5
  -9   6   8 164.668  21.063   1
   8  -6  -8 33.9058 15.0439   3
  -8  -6   8 81.0515 18.4677   1
   8  -6  -8 52.3274 13.4657   7
  -8   6   8 63.7876 15.9484   1
   8   6  -8 95.0435 20.8314   5
   7  -6  -8  8.9865 10.8744   7
   7  -6  -8  8.8153 13.9973   6
  -7  -6   8 -0.5057 14.3790   1
   7   6  -8 20.0533 16.4740   5
  -7   6   8 26.3261 13.6400   1
   6  -6  -8 159.319  18.852   4
   6  -6  -8 134.651  19.752   6
  -6  -6   8 179.104  20.515   1
   6  -6  -8 183.818  16.484   7
   6   6  -8 175.308  22.082   5
  -6   6   8 162.296  18.539   1
   5  -6  -8 149.655  15.171   7
   5  -6  -8 178.679  19.741   6
   5  -6  -8 155.865  18.532   4
  -5  -6   8 191.187  21.013   1
  -5   6   8 148.455  17.288   1
   5   6  -8 193.789  22.567   5
   4  -6  -8 241.975  20.712   4
   4  -6  -8 312.510  22.388   6
   4  -6  -8 233.610  17.329   7
  -4  -6   8 267.265  22.695   1
  -4   6   8 260.846  20.019   1
   4   6  -8 238.075  23.116   5
   3  -6  -8  5.0602 12.5928   6
   3  -6  -8  3.9038 11.8204   4
   3  -6  -8 2.72959 9.32170   7
   3  -6  -8  6.4386 11.8354   2
   3   6  -8 -7.8460 12.4833   5
  -3   6   8 18.9538 10.9121   1
   2  -6  -8 238.478  20.421   6
   2  -6  -8 221.675  19.424   2
   2  -6  -8 210.147  15.886   7
   2  -6  -8 205.817  19.236   4
  -2   6   8 235.956  17.578   1
   2   6  -8 223.226  20.610   5
   1  -6  -8 142.031  17.466   6
   1  -6  -8 103.461  16.355   2
   1  -6  -8 125.471  12.867   7
  -1   6   8 109.485  13.195   1
   1   6  -8 132.619  16.639   5
   0  -6  -8 511.775  26.192   2
   0  -6  -8 503.800  22.063   7
   0  -6  -8 485.186  25.704   6
   0   6  -8 484.392  25.091   5
  -1  -6  -8 33.9970  9.7923   7
  -1  -6  -8 37.3162 13.9353   6
  -1  -6  -8 52.8013 14.7640   2
  -1   6  -8 63.8619 13.0583   5
  -2  -6  -8 84.2013 12.3244   7
  -2  -6  -8 100.570  17.046   6
  -2  -6  -8 82.8936 16.6880   2
  -2   6  -8 96.1226 14.7173   5
  -3  -6  -8 76.1556 13.0151   7
  -3  -6  -8 70.8175 17.3347   2
  -3   6  -8 44.0233 13.0814   1
  -4  -6  -8 379.752  22.212   7
  -4  -6  -8 412.406  27.695   2
  -4   6  -8 459.576  24.639   1
  -5  -6  -8 188.680  22.248   2
  -5  -6  -8 111.179  15.606   7
  -6  -6  -8 -12.007  15.275   2
  -6  -6  -8 -0.8298 11.2813   7
  -6  -6  -8  6.0250 11.3240   7
   6   6   8 23.6592 16.5122   6
  -7  -6  -8 61.8174 13.8717   7
  -7  -6  -8 89.1595 19.4355   2
  -7  -6  -8 58.0118 13.7266   7
   7   6   8 63.9471 19.6148   6
  -8  -6  -8 128.631  17.022   7
  -8  -6  -8 189.522  23.534   2
  -8  -6  -8 154.921  17.683   7
  -9  -6  -8 95.9583 19.3683   2
  -9  -6  -8 78.6034 15.3846   7
  -8  -7   8 31.9992 17.1224   1
   8  -7  -8  8.5308 11.9653   7
  -8   7   8  5.6611 14.2355   1
   8   7  -8 -6.6236 16.4166   5
  -7  -7   8 19.9852 16.0998   1
   7  -7  -8 22.0139 12.0856   7
  -7   7   8 35.6033 14.9915   1
   7   7  -8 28.5360 17.8917   5
   6  -7  -8 301.678  20.990   7
  -6  -7   8 250.897  24.497   1
  -6   7   8 300.226  24.256   1
   6   7  -8 299.736  28.329   5
   5  -7  -8 65.1551 17.6043   6
   5  -7  -8 38.4713 12.2362   7
  -5  -7   8 56.0214 16.5785   1
  -5   7   8 33.3824 13.9569   1
   5   7  -8 65.4791 18.4823   5
   4  -7  -8 33.4116 13.9437   4
   4  -7  -8 34.7871 14.7171   6
   4  -7  -8 37.1509 11.7558   7
  -4   7   8 14.6081 12.9925   1
   4   7  -8 37.8455 16.5138   5
   3  -7  -8  7.9315 14.2546   6
   3  -7  -8 10.1987 10.5653   7
   3  -7  -8 10.5536 13.2769   4
  -3   7   8 16.9265 11.7207   1
   3   7  -8 -9.5668 13.4122   5
   2  -7  -8 573.878  28.649   2
   2  -7  -8 648.722  30.686   6
   2  -7  -8 538.761  25.263   7
   2   7  -8 643.545  31.175   5
  -2   7   8 609.563  27.101   1
   1  -7  -8 121.990  18.287   6
   1  -7  -8 105.253  13.488   7
   1  -7  -8 131.901  18.863   2
   1   7  -8 92.5473 16.9658   5
   0  -7  -8 237.875  18.569   7
   0  -7  -8 262.406  23.002   2
   0  -7  -8 287.424  23.533   6
   0   7  -8 292.017  22.636   5
  -1  -7  -8 68.2735 16.4839   6
  -1  -7  -8 64.4551 12.3706   7
  -1  -7  -8 79.0003 17.4224   2
  -1   7  -8 79.5018 15.3791   5
  -2  -7  -8 529.017  29.753   6
  -2  -7  -8 467.373  28.953   2
  -2  -7  -8 473.177  24.719   7
  -2   7  -8 528.173  26.690   5
  -3  -7  -8 57.1138 13.5135   7
  -3   7  -8 71.6043 15.8659   1
  -4  -7  -8 428.347  24.930   7
  -4   7  -8 438.453  26.002   1
  -5  -7  -8 58.7376 14.3605   7
  -5   7  -8 49.8926 15.3258   1
  -6  -7  -8 160.451  18.469   7
  -7  -7  -8 32.7125 13.7981   7
  -7  -7  -8 14.5340 13.3985   7
  -8  -7  -8 231.347  20.770   7
  -8  -7  -8 284.348  27.527   2
  -8  -7  -8 202.437  20.713   7
  -7  -8   8  0.0555 15.9715   1
   7  -8  -8 -6.2004 11.3312   7
  -7   8   8  5.1358 14.4125   1
   7   8  -8 -1.6234 17.2120   5
   6  -8  -8 245.267  20.628   7
  -6  -8   8 227.477  24.962   1
  -6   8   8 212.582  22.435   1
   6   8  -8 204.561  25.865   5
   5  -8  -8 417.196  24.204   7
  -5  -8   8 340.605  28.698   1
  -5   8   8 431.606  27.316   1
   5   8  -8 392.780  30.595   5
   4  -8  -8  2.1276 11.3251   7
  -4   8   8 22.9126 14.1287   1
   4   8  -8  1.9262 16.2994   5
   3  -8  -8 19.7662 15.3345   6
   3  -8  -8  7.7165 10.6943   7
  -3   8   8 20.8691 13.0176   1
   3   8  -8 -10.329  14.290   5
   2  -8  -8 365.532  28.143   6
   2  -8  -8 370.124  26.378   2
   2  -8  -8 354.476  22.327   7
  -2   8   8 396.350  23.912   1
   2   8  -8 338.583  27.797   5
   1  -8  -8 352.243  21.802   7
   1  -8  -8 335.725  27.011   2
   1  -8  -8 395.292  27.015   6
   1   8  -8 366.695  26.260   5
   0  -8  -8 52.7220 18.1937   6
   0  -8  -8 92.0513 18.2278   2
   0  -8  -8 69.9979 13.9530   7
   0   8  -8 87.7556 17.3504   5
  -1  -8  -8 -7.0829 15.6448   2
  -1  -8  -8 -9.2072 10.3839   7
  -1  -8  -8 -15.765  14.932   6
  -1   8  -8  4.4758 13.2274   5
  -2  -8  -8 281.498  22.395   7
  -2  -8  -8 377.813  28.214   2
  -2  -8  -8 311.465  27.884   6
  -2   8  -8 349.582  24.715   5
  -3  -8  -8 97.3398 16.0924   7
  -3   8  -8 131.201  19.811   1
  -4  -8  -8 195.421  20.074   7
  -4   8  -8 219.886  22.858   1
  -5  -8  -8 17.2742 13.6335   7
  -5   8  -8 24.4753 15.1220   1
  -6  -8  -8 162.415  20.301   7
  -7  -8  -8  6.5992 13.2927   7
   6  -9  -8  6.4606 12.9317   7
  -6  -9   8  9.4077 16.0616   1
   6   9  -8 27.8485 18.5862   5
  -6   9   8  0.0273 14.9592   1
  -5  -9   8 -14.197  14.293   1
   5  -9  -8  0.2527 12.2695   7
   5   9  -8 11.8639 18.0764   5
  -5   9   8 27.5328 16.3079   1
   4  -9  -8 120.562  17.758   7
   4   9  -8 140.353  22.886   5
  -4   9   8 122.311  18.923   1
   3  -9  -8 151.859  18.644   7
  -3   9   8 214.159  21.581   1
   3   9  -8 154.850  22.758   5
   2  -9  -8 18.2194 12.3166   7
   2   9  -8 17.1606 16.2746   5
   1  -9  -8 49.5798 18.4849   2
   1  -9  -8 41.9952 13.2035   7
   1   9  -8  6.6434 15.7314   5
   0  -9  -8 130.396  18.055   7
   0  -9  -8 99.7511 20.1349   2
   0   9   8 133.072  18.412   5
   0   9  -8 131.320  20.621   5
  -1  -9  -8 271.280  22.874   7
  -1  -9  -8 213.074  25.954   2
  -1   9  -8 277.484  25.448   5
  -2  -9  -8 -25.017  11.383   7
  -2  -9  -8 -15.569  16.326   2
  -2   9  -8 20.9506 15.3633   5
  -3  -9  -8 18.3705 13.7890   7
  -4  -9  -8 74.6550 16.8317   7
  -4   9  -8 91.4735 19.9018   1
  -5  -9  -8 247.756  23.726   7
  -5   9  -8 309.956  27.663   1
  -6  -9  -8 -7.8022 13.3888   7
   3 -10  -8 18.0246 13.6333   7
   3  10  -8 -18.857  15.836   5
   2 -10  -8 122.763  18.653   7
   2  10  -8 101.568  21.510   5
   1 -10  -8 15.2261 13.0035   7
   1 -10  -8 -1.1668 18.1719   2
  -1  10   8  2.3410 15.2015   5
   1  10  -8  3.3567 17.0464   5
   0 -10  -8 12.9293 13.7864   7
   0 -10  -8  0.8305 17.0014   2
   0  10  -8 -36.344  13.729   5
  -1 -10  -8 18.6592 14.2274   7
  -1 -10  -8 38.7985 18.7277   2
  -1  10  -8  0.5927 16.2900   5
  -2 -10  -8 101.093  22.396   2
  -2 -10  -8 141.309  19.128   7
  -2  10  -8 111.355  20.586   5
  -3 -10  -8 10.0809 15.4348   7
  11   0  -9 16.2049 18.3826   3
  11   0  -9 -18.093  11.597   7
 -11   0   9 -13.809  14.361   1
 -10   0   9 -6.0442 13.1847   1
  10   0  -9  2.6872 15.9280   3
  10   0  -9 -2.0162 11.5013   7
   9   0  -9 -21.793  12.839   3
   9   0  -9 -5.9586 10.1790   7
  -9   0   9 -27.766  12.040   1
   9   0  -9  2.7682 14.2067   6
   8   0  -9 -0.7499 12.4810   6
   8   0  -9 6.32471 9.57131   7
  -8   0   9 -5.0578 12.1683   1
   8   0  -9 -0.5278 13.1200   3
   7   0  -9 -20.234  10.939   3
  -7   0   9 -2.0803 11.3100   1
   7   0  -9 5.60418 7.96784   7
   7   0  -9 14.3910 12.4874   6
   6   0  -9 15.9422 10.9849   3
  -6   0   9 -11.476   9.851   1
   6   0  -9 -11.323  10.871   6
   6   0  -9 2.10603 9.10642   2
   6   0  -9 -6.0244  6.0334   7
   5   0  -9 9.06728 9.46838   2
   5   0  -9 16.9890 10.0819   6
   5   0  -9  1.3495 10.0707   3
  -5   0   9 -1.2226  9.2340   1
  -4   0   9 -7.2390  8.3364   1
   4   0  -9 -0.8196  9.2620   3
   4   0  -9 9.11283 9.14721   6
   4   0  -9 -1.9773  9.3308   2
   3   0  -9 5.44432 8.95298   3
   3   0  -9 0.06283 7.73783   6
  -3   0   9 -3.4264  7.5159   1
   3   0  -9 9.35327 8.97623   2
   2   0  -9 2.39428 8.82211   3
   2   0  -9 2.20490 8.31605   2
   2   0  -9 5.41363 7.62648   6
  -2   0   9 -8.6279  6.6045   1
   1   0  -9 -8.9635  8.2858   2
   1   0  -9 3.58050 8.57683   3
  -1   0   9 3.81792 6.18483   1
   1   0  -9 5.41117 6.90687   6
   0   0  -9 -3.5198  8.1406   2
   0   0  -9 -9.1934  8.1070   3
   0   0  -9 -12.543   6.206   6
   0   0  -9 -14.038   5.835   4
  -1   0  -9 -0.6594  6.6016   6
  -1   0  -9 -0.5864  5.8328   4
  -1   0  -9 -4.0757  8.1431   2
  -1   0  -9 1.59966 8.31817   3
  -2   0  -9 2.48209 8.85017   2
  -2   0  -9 -0.8425  8.6723   3
  -3   0  -9 -3.4108  8.5032   2
  -4   0  -9 2.16522 8.85221   2
  -5   0  -9 -16.267   8.766   2
  -6   0  -9 -3.6081 10.3949   2
  -6   0  -9 -4.4527  4.2253   7
  -7   0  -9 10.3464  6.6756   7
  -8   0  -9 -5.3673  7.5446   7
  -9   0  -9 1.28698 8.55937   7
 -10   0  -9 -19.959   8.510   7
 -11   0  -9 -5.7130  9.5239   7
 -11  -1   9 24.4364 16.6793   1
  11  -1  -9 13.9494 12.9612   7
  11  -1  -9  9.6397 17.4813   3
  11   1  -9 42.2156 19.1837   3
  11   1  -9 24.6150 12.7325   7
 -11   1   9 32.9196 16.4018   1
  10  -1  -9 34.6491 13.4731   7
  10  -1  -9 38.8051 17.8365   3
 -10  -1   9 47.2196 16.3633   1
 -10   1   9 27.0515 14.8992   1
  10   1  -9 59.8129 18.6521   3
  10   1  -9 54.4355 13.0470   7
   9  -1  -9 54.5171 17.1527   3
   9  -1  -9 45.7910 15.5027   6
   9  -1  -9 54.3826 13.0118   7
  -9  -1   9 75.7810 16.6661   1
   9   1  -9 32.2381 15.1793   6
   9   1  -9 56.0318 11.7354   7
   9   1  -9 63.0257 17.5449   3
  -9   1   9 33.6271 14.6004   1
  -8  -1   9 1484.14   47.24   1
   8  -1  -9 1418.23   39.10   7
   8  -1  -9 1428.01   45.83   6
   8  -1  -9 1500.08   49.26   3
   8   1  -9 1428.96   36.34   7
  -8   1   9 1451.30   45.91   1
   8   1  -9 1458.11   46.18   6
   8   1  -9 1461.79   49.60   3
   7  -1  -9  1.1903 12.3963   3
   7  -1  -9 -0.1765 11.7475   6
  -7  -1   9 -1.2181 11.5747   1
   7  -1  -9 -2.2567  8.5110   7
   7   1  -9  9.5995 12.2899   3
   7   1  -9 -0.1536 11.6390   6
  -7   1   9 10.0560 11.6131   1
   7   1  -9 -0.3023  6.6263   7
   7   1  -9 -5.1158 10.5736   2
   6  -1  -9 139.929  16.325   6
   6  -1  -9 200.385  15.414   2
   6  -1  -9 157.818  11.685   7
  -6  -1   9 171.048  16.820   1
   6  -1  -9 162.063  17.474   3
   6   1  -9 146.004  16.084   6
  -6   1   9 121.466  15.584   1
   6   1  -9 156.098  17.778   3
   6   1  -9 195.283  16.615   2
   5  -1  -9 51.9687 12.2831   3
   5  -1  -9 29.8139 11.0549   6
   5  -1  -9 48.5745  7.1423   7
  -5  -1   9 50.6686 11.7254   1
   5  -1  -9 51.2693 11.2942   2
   5   1  -9 40.1300 11.8213   3
   5   1  -9 66.2152 11.5964   2
   5   1  -9 47.3775 11.2000   6
  -5   1   9 65.8961 12.0507   1
   4  -1  -9 2319.18   54.25   2
   4  -1  -9 2382.83   55.55   6
  -4  -1   9 2274.09   54.81   1
   4  -1  -9 2315.82   59.21   3
   4   1  -9 2313.59   58.83   3
   4   1  -9 2420.07   55.66   2
   4   1  -9 2422.24   54.69   6
  -4   1   9 2390.31   55.08   1
   3  -1  -9 10.0762  9.6832   3
   3  -1  -9 -0.5650  7.8873   6
   3  -1  -9 3.46571 9.16364   2
  -3  -1   9 -8.7923  7.2438   1
   3   1  -9 4.54995 8.54448   3
   3   1  -9 0.94219 7.70762   6
  -3   1   9 -4.3448  7.5026   1
   3   1  -9 14.8730  9.2587   2
   2  -1  -9 521.334  21.052   2
  -2  -1   9 533.742  19.489   1
   2  -1  -9 508.892  19.869   6
   2  -1  -9 513.687  22.181   3
   2   1  -9 541.698  22.750   3
   2   1  -9 454.566  19.695   2
   2   1  -9 533.429  17.948   6
  -2   1   9 503.058  18.512   1
   1  -1  -9 66.8087 11.1847   2
  -1  -1   9 67.1422  8.8098   1
   1  -1  -9 65.9811  9.1163   4
   1  -1  -9 46.1103 10.2185   3
   1  -1  -9 55.9996  9.2238   6
   1   1  -9 52.8553  7.7129   6
   1   1  -9 59.8602 10.8711   3
   1   1  -9 58.2384 10.4487   2
  -1   1   9 64.9736  8.1335   1
   0  -1  -9 2751.43   56.92   4
   0  -1  -9 2732.64   58.80   6
   0  -1  -9 2701.46   63.56   3
   0  -1  -9 2697.43   61.21   2
   0  -1   9 2797.87   55.88   1
   0   1  -9 2787.95   64.25   3
   0   1  -9 2716.18   53.32   4
   0   1  -9 2696.70   60.78   2
  -1  -1  -9 18.8099  8.4669   2
  -1  -1  -9 26.8557  9.5093   3
  -1  -1  -9 22.7074  8.5452   6
  -1   1  -9 16.3684  8.9534   3
  -1   1  -9 22.4136  8.8879   2
  -2  -1  -9 595.815  24.235   3
  -2  -1  -9 574.971  20.865   6
  -2  -1  -9 631.712  23.524   2
  -2   1  -9 596.308  22.086   2
  -2   1  -9 582.062  24.380   3
  -3  -1  -9 71.7446 11.8939   2
  -3   1  -9 50.9544 10.2233   2
  -4  -1  -9 2034.19   49.75   2
   4   1   9 1955.89   48.74   6
  -4   1  -9 2061.37   48.63   2
  -5  -1  -9 98.4364 14.1922   2
  -5  -1  -9 110.096   6.906   7
  -5   1  -9 89.5888 12.4828   2
  -6  -1  -9 235.838  12.012   7
  -6  -1  -9 245.206  12.183   7
  -6  -1  -9 244.235  18.505   2
  -7  -1  -9 61.3068  9.0180   7
  -7   1  -9 56.2205  6.4174   7
  -8  -1  -9 1245.79   34.01   7
  -8   1  -9 1296.63   30.97   7
  -9  -1  -9 36.8511 10.5138   7
  -9   1  -9 61.8504 10.2762   7
 -10  -1  -9 2.19225 9.71839   7
 -10   1  -9 40.7023 10.3027   7
 -11  -1  -9 38.0523 11.4529   7
 -11   1  -9 29.2629 10.5874   7
  11  -2  -9 95.7228 15.9964   7
 -11  -2   9 100.848  20.281   1
  11  -2  -9 100.806  21.968   3
  11   2  -9 102.388  23.111   3
 -11   2   9 74.7170 18.0735   1
  11   2  -9 84.4526 14.1239   7
  10  -2  -9 47.7345 17.5698   3
 -10  -2   9 35.5974 15.7461   1
  10  -2  -9 21.0975 12.3238   7
  10   2  -9 29.9790 11.2616   7
  10   2  -9 44.1850 18.3953   3
 -10   2   9 63.1611 16.1036   1
   9  -2  -9 20.8645 15.3570   6
   9  -2  -9 22.3681 15.3118   3
   9  -2  -9  1.2421 10.5768   7
  -9  -2   9 -6.1141 13.5981   1
   9   2  -9 -2.2103 12.9490   6
  -9   2   9  5.4989 13.1232   1
   9   2  -9 31.1894 16.2377   3
   9   2  -9 -3.5587  9.1600   7
  -8  -2   9 21.9538 13.6241   1
   8  -2  -9  1.2920 12.9083   3
   8  -2  -9 7.10714 9.72886   7
   8  -2  -9 21.7877 14.1685   6
   8   2  -9  4.3863 13.4420   6
  -8   2   9  8.7495 12.2399   1
   8   2  -9 20.4258  8.0528   7
   8   2  -9  8.9487 13.3132   3
   7  -2  -9 126.752  17.506   3
   7  -2  -9 127.371  16.900   6
  -7  -2   9 116.857  16.617   1
   7  -2  -9 129.144  12.810   7
  -7   2   9 131.109  16.280   1
   7   2  -9 156.141  17.252   6
   7   2  -9 111.704  17.236   3
   6  -2  -9 125.018  15.521   6
  -6  -2   9 121.698  15.617   1
   6  -2  -9 91.0018 15.1990   3
   6  -2  -9 110.651  10.865   7
   6   2  -9 96.4140 15.3395   3
   6   2  -9 127.888  14.870   6
   6   2  -9 116.143  15.068   2
  -6   2   9 119.625  15.283   1
   5  -2  -9 53.4336  8.1575   7
   5  -2  -9 55.7222 13.3280   3
   5  -2  -9 69.0251 11.4694   2
   5  -2  -9 47.5648 12.2448   6
  -5  -2   9 53.3384 12.2222   1
  -5   2   9 61.4666 11.8484   1
   5   2  -9 70.4647 13.1659   3
   5   2  -9 53.6185 11.9092   6
   5   2  -9 56.4301 12.0624   2
  -4  -2   9 19.1447 10.1047   1
   4  -2  -9 12.0166  5.8045   7
   4  -2  -9 19.3598 10.4355   3
   4  -2  -9 6.03766 8.79797   2
   4  -2  -9 19.0288 10.2414   6
   4   2  -9 6.69771 9.72062   3
  -4   2   9 15.1917  9.0694   1
   4   2  -9 5.60797 9.38021   6
   4   2  -9 20.5598 10.2244   2
   4   2  -9 29.3506 10.2558   5
  -3  -2   9 162.335  14.376   1
   3  -2  -9 179.402  14.641   2
   3  -2  -9 154.932  15.447   3
   3  -2  -9 161.426  14.637   6
   3  -2  -9 152.567   7.436   7
   3   2  -9 155.676  15.289   3
   3   2  -9 165.850  14.158   2
   3   2  -9 192.787  14.237   5
   3   2  -9 152.685  11.946   6
  -3   2   9 155.264  12.948   1
   2  -2  -9 311.542  16.684   4
  -2  -2   9 331.992  17.241   1
   2  -2  -9 349.093  17.676   2
   2  -2  -9 363.370  19.379   3
   2  -2  -9 312.948  17.506   6
   2   2  -9 292.574  17.486   2
   2   2  -9 348.124  19.123   3
  -2   2   9 320.782  15.395   1
   2   2  -9 323.532  16.026   5
   1  -2  -9 313.613  16.079   6
   1  -2  -9 273.052  17.293   3
   1  -2  -9 292.138  17.233   2
  -1  -2   9 305.720  15.340   1
   1  -2  -9 299.523  16.536   4
   1   2  -9 269.988  16.555   2
   1   2  -9 296.637  17.464   3
   0  -2  -9 1.72965 8.24810   6
   0  -2  -9 -0.2987  9.0140   2
   0  -2  -9 6.44209 8.36479   3
   0  -2  -9 13.9279  7.7350   4
   0  -2   9 6.40288 7.44616   1
   0   2  -9 -2.1846  8.4102   3
   0   2  -9 1.95018 8.58026   2
  -1  -2  -9 149.330  13.695   2
  -1  -2  -9 124.087  12.971   3
  -1  -2  -9 136.255  12.830   6
  -1   2  -9 127.330  13.674   3
  -1   2  -9 131.271  12.938   2
  -2  -2  -9 273.087  17.942   2
  -2  -2  -9 295.454  17.228   6
  -2  -2  -9 304.979  18.189   3
  -2   2  -9 289.777  16.176   2
  -3  -2  -9 672.092  26.190   2
  -3   2  -9 625.761  23.287   2
  -4  -2  -9 -0.2143  4.7072   7
  -4  -2  -9 -8.2927 10.2092   2
  -4   2  -9 -5.0399  7.9909   2
  -5  -2  -9 41.9514 12.7994   2
  -5  -2  -9 58.4018  7.7550   7
   5   2   9 52.4401 13.4450   6
  -5   2  -9 36.0483 10.1557   2
  -6  -2  -9 46.3878 13.4311   2
  -6  -2  -9 44.4180  8.5808   7
  -6  -2  -9 34.7670  8.4869   7
   6   2   9 16.0338 13.6934   6
  -7  -2  -9 567.092  21.369   7
  -7  -2  -9 564.388  27.308   2
  -8  -2  -9 18.1785  9.3948   7
  -9  -2  -9 9.45969 9.77432   7
  -9   2  -9 6.37771 8.09568   7
 -10  -2  -9 18.1762 10.5226   7
 -10   2  -9 12.1105  9.1980   7
 -11  -2  -9 302.465  19.638   7
 -11   2  -9 304.517  17.879   7
 -11  -3   9 77.4251 19.8830   1
  11  -3  -9 66.1428 15.4764   7
  11  -3  -9 67.2552 20.7044   3
  11   3  -9 69.5374 21.1790   3
 -11   3   9 85.0312 18.0572   1
  11   3  -9 78.3810 12.8317   7
  10  -3  -9 125.833  21.723   3
 -10  -3   9 160.447  21.746   1
  10  -3  -9 150.982  17.136   7
 -10   3   9 140.901  19.883   1
  10   3  -9 139.656  22.616   3
  10   3  -9 142.894  13.669   7
   9  -3  -9 17.7344 14.5445   3
  -9  -3   9 -15.696  12.635   1
   9  -3  -9 17.4798 10.9518   7
   9   3  -9 23.1815 15.5186   3
   9   3  -9  2.0210 14.5905   6
  -9   3   9 -0.9349 12.9267   1
   9   3  -9 9.77712 8.32993   7
  -8  -3   9 351.558  24.813   1
   8  -3  -9 291.364  24.142   6
   8  -3  -9 335.967  25.175   3
   8  -3  -9 333.706  20.109   7
  -8   3   9 327.627  23.907   1
   8   3  -9 341.527  25.320   3
   8   3  -9 386.697  24.049   6
   7  -3  -9 13.8801 12.8242   6
   7  -3  -9 -21.588  10.659   3
  -7  -3   9 -8.0655 12.1561   1
   7  -3  -9 15.4289  9.4960   7
  -7   3   9 -15.398  10.727   1
   7   3  -9 27.4711 13.4329   6
   7   3  -9  2.8420 12.6294   3
  -6  -3   9 410.412  24.681   1
   6  -3  -9 367.901  23.549   6
   6  -3  -9 355.845  23.599   3
   6  -3  -9 372.575  18.177   7
   6   3  -9 387.842  21.577   6
  -6   3   9 387.230  22.564   1
   6   3  -9 418.098  25.070   5
   6   3  -9 371.775  23.819   3
   5  -3  -9  1.3616 10.7982   3
  -5  -3   9  3.2816 10.6696   1
   5  -3  -9 18.2362  9.9543   2
   5  -3  -9  6.0336 11.3998   6
   5  -3  -9 15.1262  7.6296   7
  -5   3   9 3.56558 9.43553   1
   5   3  -9  2.1273 10.9703   5
   5   3  -9  1.0055 10.4440   3
   5   3  -9 12.7600 11.9355   2
   5   3  -9 3.55166 9.82792   6
   4  -3  -9 370.150  15.426   7
   4  -3  -9 356.316  18.979   2
   4  -3  -9 359.842  20.138   4
  -4  -3   9 358.354  21.650   1
   4  -3  -9 390.285  21.595   6
   4  -3  -9 370.527  21.524   3
  -4   3   9 400.761  19.926   1
   4   3  -9 396.676  21.822   5
   4   3  -9 358.097  21.344   3
   4   3  -9 380.611  20.581   2
   3  -3  -9 12.7290  6.2235   7
   3  -3  -9 18.5303  9.9290   3
   3  -3  -9 16.1467 10.5570   6
   3  -3  -9  4.3827 10.0401   4
  -3  -3   9 27.4632 10.5314   1
   3  -3  -9 15.8079  9.4143   2
   3   3  -9 11.3241 10.2422   2
  -3   3   9 12.8409  8.4120   1
   3   3  -9 25.0353 10.2747   5
   3   3  -9 18.0778 10.0999   3
   2  -3  -9 477.481  15.044   7
  -2  -3   9 491.706  22.308   1
   2  -3  -9 483.729  21.397   2
   2  -3  -9 488.292  21.954   6
   2  -3  -9 481.545  21.486   4
   2  -3  -9 474.921  21.633   3
   2   3  -9 480.032  21.661   2
   2   3  -9 548.968  21.482   5
   2   3  -9 495.725  22.475   3
  -2   3   9 502.232  19.444   1
   1  -3  -9 23.3682  5.2768   7
   1  -3  -9 26.1425  9.8730   2
  -1  -3   9 37.3761  9.9540   1
   1  -3  -9 28.1485  9.6103   3
   1  -3  -9 29.6798  9.8984   4
   1  -3  -9 11.0501  9.7103   6
   1   3  -9 11.3203  8.6357   5
   1   3  -9 9.64944 9.55044   2
   1   3  -9 24.7178 10.2174   3
   0  -3  -9 463.691  21.369   6
   0  -3  -9 460.373  13.363   7
   0  -3  -9 509.841  21.175   4
   0  -3  -9 458.041  21.159   3
   0  -3  -9 438.478  21.533   2
   0   3  -9 483.237  21.855   3
   0   3  -9 498.550  21.012   2
  -1  -3  -9 12.7150  9.0574   3
  -1  -3  -9  9.7615 10.7385   2
  -1  -3  -9 -1.2355  4.5268   7
  -1  -3  -9  7.2056 10.1791   6
  -1   3  -9 15.0548  9.8258   3
  -1   3  -9 -1.4007  9.1015   2
  -2  -3  -9 321.990  18.875   6
  -2  -3  -9 305.917  11.697   7
  -2  -3  -9 290.932  20.025   2
  -2  -3  -9 329.881  18.369   3
  -2   3  -9 315.930  17.583   2
  -3  -3  -9 197.687  17.605   2
  -3  -3  -9 183.072  10.651   7
  -3   3  -9 187.846  14.835   2
  -4  -3  -9 454.562  23.883   2
  -4  -3  -9 515.459  17.625   7
  -4   3  -9 486.061  20.537   2
  -5  -3  -9 19.8209 13.0237   2
  -5  -3  -9 14.9647  8.0320   7
  -6  -3  -9 171.678  13.507   7
  -6  -3  -9 127.984  17.400   2
  -6  -3  -9 154.760  13.401   7
   6   3   9 152.563  18.476   6
  -7  -3  -9 279.757  22.535   2
  -7  -3  -9 223.664  16.201   7
   7   3   9 242.309  23.038   6
  -8  -3  -9 391.311  20.224   7
   8   3   9 427.538  28.910   6
  -9  -3  -9 43.0505 11.5169   7
 -10  -3  -9 63.2590 12.9244   7
 -11  -3  -9 142.441  16.145   7
  10  -4  -9 223.736  20.062   7
  10  -4  -9 231.260  25.767   3
 -10  -4   9 259.104  25.898   1
 -10   4   9 213.277  23.353   1
   9  -4  -9 172.577  17.500   7
   9  -4  -9 161.832  21.048   3
  -9  -4   9 192.450  22.559   1
  -9   4   9 183.111  21.294   1
   9   4  -9 183.149  22.899   3
   9   4  -9 170.009  21.929   6
  -8  -4   9 189.458  22.240   1
   8  -4  -9 148.058  19.656   6
   8  -4  -9 168.546  16.141   7
   8  -4  -9 138.309  19.217   3
   8   4  -9 197.625  22.162   3
  -8   4   9 182.347  19.928   1
   8   4  -9 162.458  22.907   5
   7  -4  -9 231.087  22.791   6
  -7  -4   9 251.590  22.774   1
   7  -4  -9 251.889  17.989   7
   7  -4  -9 204.990  20.631   3
   7   4  -9 189.226  22.449   5
  -7   4   9 220.792  20.261   1
   7   4  -9 213.585  22.244   3
  -6  -4   9 114.694  16.906   1
   6  -4  -9 105.838  12.366   7
   6  -4  -9 111.544  16.161   4
   6  -4  -9 97.2477 15.5788   3
   6  -4  -9 70.2801 15.2586   6
   6   4  -9 72.1561 14.7301   3
  -6   4   9 92.3606 14.7277   1
   6   4  -9 108.331  17.459   5
   5  -4  -9 288.292  20.611   3
   5  -4  -9 289.480  16.661   7
  -5  -4   9 301.101  22.058   1
   5  -4  -9 291.494  20.097   4
   5  -4  -9 285.378  20.980   6
   5   4  -9 287.569  22.715   5
   5   4  -9 317.464  21.670   3
  -5   4   9 302.529  20.020   1
   4  -4  -9 76.4003 13.1468   4
   4  -4  -9 85.1104 10.2569   7
   4  -4  -9 92.7997 14.4595   3
  -4  -4   9 114.469  15.674   1
   4  -4  -9 112.170  15.931   6
   4  -4  -9 51.0197 12.0475   2
   4   4  -9 96.6889 15.1392   2
   4   4  -9 77.9505 14.5448   5
   4   4  -9 98.4190 14.3047   3
  -4   4   9 116.003  13.268   1
   3  -4  -9 38.5902 11.9891   4
   3  -4  -9 44.6608 11.5645   3
  -3  -4   9 47.5969 12.6639   1
   3  -4  -9 35.5729 12.3163   6
   3  -4  -9 29.3401 11.4825   2
   3  -4  -9 31.1436  7.8410   7
   3   4  -9 24.4511 11.6086   2
  -3   4   9 27.8439  9.8890   1
   3   4  -9 44.6966 12.7465   5
   3   4  -9 32.7127 11.2151   3
  -2  -4   9 -11.304   9.677   1
   2  -4  -9 2.00659 6.58844   7
   2  -4  -9 16.7434 11.0891   2
   2  -4  -9  1.1579 11.1908   6
   2  -4  -9 -6.6293  8.7156   3
   2  -4  -9 13.2550 10.8711   4
   2   4  -9 -3.5529  9.6146   2
  -2   4   9 10.4609  8.6406   1
   2   4  -9  2.3814 10.3259   5
   2   4  -9 -1.0801  9.6958   3
   1  -4  -9 238.537  18.514   2
   1  -4  -9 251.559  16.830   3
   1  -4  -9 245.435  13.113   7
   1  -4  -9 213.881  17.757   6
   1  -4  -9 236.181  17.878   4
   1   4  -9 248.984  17.859   3
   1   4  -9 279.431  18.982   5
   1   4  -9 281.815  18.219   2
   0  -4  -9 12.9791  9.2426   3
   0  -4  -9 17.2068  6.9180   7
   0  -4  -9  0.8199 11.1404   6
   0  -4  -9 36.2874 12.1931   2
   0   4  -9 15.7893 10.1963   2
   0   4  -9 30.1074 10.5674   3
  -1  -4  -9 20.5040  9.5716   3
  -1  -4  -9 13.6094  6.3318   7
  -1  -4  -9  2.6790 11.5187   6
  -1  -4  -9  7.3555 10.9256   2
  -1   4  -9 8.70860 9.34123   2
  -2  -4  -9 15.5822  6.8428   7
  -2  -4  -9 -10.060  12.157   6
  -2  -4  -9  3.6378 11.6851   2
  -2   4  -9 1.72281 8.96716   2
  -3  -4  -9 228.185  13.836   7
  -3  -4  -9 243.787  20.573   2
  -3   4  -9 257.876  16.421   2
  -4  -4  -9 259.780  15.873   7
  -4  -4  -9 292.519  22.482   2
  -5  -4  -9 5.30219 8.84990   7
  -5  -4  -9 19.8792 14.0757   2
  -6  -4  -9 45.7645 11.3062   7
  -6  -4  -9 57.2311 17.2244   2
  -6  -4  -9 39.9502 10.9449   7
   6   4   9 53.6309 15.9027   6
  -7  -4  -9 341.348  20.050   7
  -7  -4  -9 340.411  20.137   7
  -7  -4  -9 335.535  25.010   2
   7   4   9 396.511  27.456   6
  -8  -4  -9 230.932  23.911   2
  -8  -4  -9 272.049  19.133   7
   8   4   9 276.565  25.655   6
  -9  -4  -9  6.7664 10.7936   7
   9   4   9 48.9191 19.8638   6
 -10  -4  -9 77.7376 13.4279   7
  10  -5  -9 56.0187 14.7014   7
  10  -5  -9 71.5020 18.4790   3
 -10  -5   9 52.9193 18.7042   1
 -10   5   9 62.4620 17.7358   1
   9  -5  -9 106.065  15.893   7
   9  -5  -9 124.594  20.041   3
  -9  -5   9 73.8957 18.6340   1
   9   5  -9 108.639  22.350   5
  -9   5   9 115.611  18.859   1
  -8  -5   9  5.5731 14.1389   1
   8  -5  -9 -7.5297 12.2895   3
   8  -5  -9 -1.3344 10.2777   7
  -8   5   9  6.6709 13.3044   1
   8   5  -9 -27.320  14.701   5
   7  -5  -9 168.504  19.788   3
  -7  -5   9 206.786  21.983   1
   7  -5  -9 156.782  15.638   7
   7  -5  -9 173.534  20.867   6
   7   5  -9 160.532  22.464   5
  -7   5   9 203.709  20.379   1
  -6  -5   9 54.3003 15.7275   1
   6  -5  -9 50.4824 11.2933   7
   6  -5  -9 58.8074 14.8080   3
   6  -5  -9 63.8249 15.5738   4
   6  -5  -9 13.7364 14.0510   6
  -6   5   9 66.2677 14.3465   1
   6   5  -9 48.7443 16.1754   5
  -5  -5   9 216.095  20.847   1
   5  -5  -9 169.650  18.071   3
   5  -5  -9 197.349  19.632   6
   5  -5  -9 177.920  15.196   7
   5  -5  -9 165.169  18.828   4
   5   5  -9 217.890  21.751   5
  -5   5   9 197.031  18.619   1
   4  -5  -9 16.4591 11.4202   2
   4  -5  -9 0.75275 8.00216   7
   4  -5  -9 -1.7824 11.7595   6
   4  -5  -9  1.0820 10.4948   3
  -4  -5   9  3.3761 12.8966   1
   4  -5  -9 -6.3287 11.3703   4
   4   5  -9  7.6376 11.3951   3
   4   5  -9  6.1679 13.4615   5
  -4   5   9 -8.3640  9.9324   1
  -3  -5   9 410.550  24.895   1
   3  -5  -9 380.805  18.376   7
   3  -5  -9 414.572  20.878   3
   3  -5  -9 422.013  23.179   4
   3  -5  -9 380.477  23.142   6
   3  -5  -9 398.335  21.741   2
   3   5  -9 420.349  25.474   5
   3   5  -9 359.550  21.591   3
  -3   5   9 352.179  20.296   1
   2  -5  -9 91.8875 12.9110   3
   2  -5  -9 93.4036 15.3128   6
   2  -5  -9 77.6835 14.0757   4
   2  -5  -9 91.9090 11.0602   7
   2  -5  -9 123.769  15.571   2
   2   5  -9 79.8099 15.3310   5
   2   5  -9 90.6263 14.0229   3
  -2   5   9 98.0575 12.4361   1
   1  -5  -9 157.002  12.538   7
   1  -5  -9 154.690  16.789   4
   1  -5  -9 144.104  16.458   2
   1  -5  -9 157.053  17.563   6
   1   5  -9 150.582  15.638   3
   1   5  -9 137.825  15.947   2
   1   5  -9 143.079  16.260   5
   0  -5  -9 -0.4606 11.3080   2
   0  -5  -9 14.5775 11.8953   6
   0  -5  -9 3.88956 7.17127   7
   0   5  -9 24.5642 10.8115   3
   0   5  -9 -10.919  10.177   2
  -1  -5  -9 424.805  24.339   2
  -1  -5  -9 387.928  17.727   7
  -1  -5  -9 334.892  22.548   6
  -1   5  -9 380.294  20.531   2
  -2  -5  -9 155.888  12.541   7
  -2  -5  -9 149.937  18.412   2
  -2  -5  -9 125.962  18.236   6
  -2   5  -9 128.176  14.974   2
  -3  -5  -9 43.9992 10.1093   7
  -3  -5  -9 33.7427 15.1070   2
  -3   5  -9 57.5954 12.2606   2
  -4  -5  -9 -5.5604 13.9150   2
  -4  -5  -9 -1.5462  9.1067   7
  -5  -5  -9 195.532  16.437   7
  -5  -5  -9 165.364  21.967   2
  -6  -5  -9 170.406  21.558   2
  -6  -5  -9 156.654  15.992   7
   6   5   9 162.550  21.508   6
  -7  -5  -9  5.5323 11.1865   7
  -7  -5  -9  2.9070 10.4471   7
  -7  -5  -9  2.0408 17.0641   2
   7   5   9 19.3050 15.9001   6
  -8  -5  -9  6.7951 16.0915   2
  -8  -5  -9 -10.727  10.458   7
  -8  -5  -9  4.1433 10.6108   7
   8   5   9 -5.3492 16.4241   6
  -9  -5  -9 74.4027 13.5067   7
 -10  -5  -9 94.7079 14.8882   7
  -9  -6   9 50.1627 18.2812   1
   9  -6  -9 85.7337 15.6738   7
   9  -6  -9 78.9522 18.1888   3
   9   6  -9 87.4983 21.3361   5
  -9   6   9 94.7452 18.6792   1
  -8  -6   9  5.6774 14.8795   1
   8  -6  -9 47.9619 13.0989   7
  -8   6   9 23.1381 14.9871   1
   8   6  -9 32.2827 18.8428   5
  -7  -6   9 38.4978 16.3083   1
   7  -6  -9 35.9559 12.0963   7
   7   6  -9 51.8372 18.8750   5
  -7   6   9 18.2694 14.2541   1
   6  -6  -9 170.938  16.442   7
  -6  -6   9 128.946  19.851   1
   6  -6  -9 128.755  19.329   6
  -6   6   9 139.165  17.937   1
   6   6  -9 145.121  22.110   5
   5  -6  -9 150.373  19.479   6
  -5  -6   9 128.251  19.341   1
   5  -6  -9 151.785  19.540   4
   5  -6  -9 128.826  14.419   7
  -5   6   9 151.187  17.710   1
   5   6  -9 152.111  21.860   5
   4  -6  -9 31.6389 13.8347   4
   4  -6  -9 33.8702 10.7267   7
   4  -6  -9 41.9035 15.1597   6
  -4  -6   9 44.3294 14.8623   1
  -4   6   9 41.8903 12.6021   1
   4   6  -9 57.0418 16.4851   5
   3  -6  -9  9.3151 14.2988   6
   3  -6  -9 9.37628 9.17199   7
   3  -6  -9 29.0775 13.6983   4
   3  -6  -9 37.0692 13.6809   2
   3   6  -9 10.8827 13.6765   5
  -3   6   9 14.8251 11.2142   1
   2  -6  -9 106.286  13.206   7
   2  -6  -9 153.333  18.201   2
   2  -6  -9 166.042  18.081   4
   2  -6  -9 125.563  17.142   6
   2   6  -9 112.573  17.217   5
   1  -6  -9 184.988  15.192   7
   1  -6  -9 175.733  19.354   6
   1  -6  -9 187.787  18.616   2
   1   6  -9 204.314  19.771   5
   0  -6  -9 8.66327 8.56896   7
   0  -6  -9  2.6481 13.1609   2
   0  -6  -9 11.9576 12.7937   6
   0   6  -9 13.1830 12.5239   5
  -1  -6  -9 15.1066  8.9156   7
  -1  -6  -9  7.1481 14.0340   2
  -1  -6  -9 15.8463 13.6081   6
  -2  -6  -9 66.2540 16.3139   6
  -2  -6  -9 85.2059 18.1541   2
  -2  -6  -9 80.5782 11.8089   7
  -3  -6  -9 232.056  17.668   7
  -3  -6  -9 216.903  23.117   2
  -4  -6  -9 -4.8767 15.0777   2
  -4  -6  -9  2.0886 10.2894   7
  -5  -6  -9 -15.726  14.932   2
  -5  -6  -9  2.7327 10.6002   7
  -6  -6  -9 19.2419 11.8187   7
  -6  -6  -9 52.2929 17.6680   2
   6   6   9 27.7154 16.5482   6
  -7  -6  -9 306.048  21.911   7
  -7  -6  -9 313.343  27.697   2
  -8  -6  -9 15.7229 11.8454   7
  -8  -6  -9 10.2565 12.0227   7
  -8  -6  -9  3.6106 18.2156   2
  -9  -6  -9 -2.2349 11.4276   7
  -9  -6  -9 -20.181  15.846   2
  -9  -6  -9  3.8214 11.4631   7
  -8  -7   9 136.928  21.942   1
   8  -7  -9 132.424  17.602   7
  -8   7   9 164.942  21.200   1
   8   7  -9 146.772  24.355   5
  -7  -7   9 301.522  27.322   1
   7  -7  -9 340.113  21.928   7
   7   7  -9 359.806  31.601   5
  -7   7   9 313.178  25.652   1
   6  -7  -9 27.3310 12.0187   7
  -6  -7   9 19.3529 15.0262   1
   6   7  -9 37.2649 18.0629   5
  -6   7   9 46.7312 14.8766   1
  -5  -7   9 87.1814 18.4341   1
   5  -7  -9 53.9993 12.4059   7
  -5   7   9 64.1845 15.8101   1
   5   7  -9 95.0467 20.3581   5
   4  -7  -9 211.633  22.572   6
   4  -7  -9 220.160  18.063   7
  -4  -7   9 218.479  22.956   1
  -4   7   9 250.674  21.510   1
   4   7  -9 249.584  25.314   5
   3  -7  -9 541.805  25.087   7
   3  -7  -9 559.276  29.864   4
   3  -7  -9 592.081  30.561   6
   3   7  -9 581.666  32.104   5
  -3   7   9 605.537  28.012   1
   2  -7  -9 86.0277 17.6684   6
   2  -7  -9 92.2587 12.8156   7
   2  -7  -9 22.8655 14.0353   2
   2   7  -9 96.9266 17.6720   5
   1  -7  -9 101.549  18.023   6
   1  -7  -9 88.6165 13.1983   7
   1  -7  -9 82.0702 17.0632   2
   1   7  -9 108.068  18.025   5
   0  -7  -9 295.062  24.992   6
   0  -7  -9 348.066  20.069   7
   0  -7  -9 306.134  25.350   2
   0   7  -9 347.054  24.705   5
  -1  -7  -9 533.059  24.649   7
  -1  -7  -9 539.964  30.705   2
  -1  -7  -9 602.589  31.904   6
  -2  -7  -9 72.7411 12.5052   7
  -2  -7  -9 73.4096 19.0201   6
  -2  -7  -9 73.5603 18.4347   2
  -3  -7  -9 52.8355 18.0516   2
  -3  -7  -9 49.8938 12.8791   7
  -4  -7  -9 337.723  22.777   7
  -4  -7  -9 378.719  28.348   2
  -4   7  -9 371.859  26.561   1
  -5  -7  -9 248.422  20.708   7
  -5  -7  -9 280.351  26.557   2
  -6  -7  -9 68.0930 14.8375   7
  -6  -7  -9 72.5414 19.0303   2
  -7  -7  -9  3.8063 11.7669   7
  -7  -7  -9 17.6664 18.4541   2
  -8  -7  -9 225.955  26.441   2
  -8  -7  -9 242.555  21.607   7
   7  -8  -9 10.5949 13.0256   7
  -7  -8   9 19.9480 17.5727   1
  -7   8   9 56.3597 16.7365   1
   7   8  -9 17.1092 18.9140   5
  -6  -8   9 -2.8451 14.8390   1
   6  -8  -9  5.3792 11.5489   7
  -6   8   9 -14.521  13.327   1
   6   8  -9 10.7989 18.0700   5
  -5  -8   9  1.1644 15.3943   1
   5  -8  -9 -11.376  10.999   7
   5   8  -9 15.7874 17.6166   5
  -5   8   9 -11.954  12.834   1
  -4  -8   9 68.7625 18.2791   1
   4  -8  -9 49.4524 13.4936   7
  -4   8   9 60.5117 15.9441   1
   4   8  -9 91.5411 20.1933   5
   3  -8  -9 87.6292 14.8209   7
   3   8  -9 61.5804 18.3491   5
   2  -8  -9 87.7936 14.3446   7
   2  -8  -9 91.4621 18.4200   2
   2   8  -9 82.2354 18.6466   5
   1  -8  -9 -16.812  14.395   6
   1  -8  -9  4.9744 10.4296   7
   1  -8  -9 -1.0432 16.4238   2
   1   8  -9  5.3650 14.7502   5
   0  -8  -9 59.9744 17.8383   2
   0  -8  -9 92.1033 19.6247   6
   0  -8  -9 74.8029 13.6839   7
   0   8  -9 103.078  18.274   5
  -1  -8  -9 153.710  23.366   2
  -1  -8  -9 81.7977 20.2120   6
  -1  -8  -9 108.936  15.674   7
  -2  -8  -9 135.344  21.917   2
  -2  -8  -9 152.216  16.673   7
  -3  -8  -9 17.0195 13.0171   7
  -3  -8  -9 27.3273 17.1326   2
  -4  -8  -9 83.2369 15.5541   7
  -4  -8  -9 58.0013 19.3059   2
  -4   8  -9 98.4330 19.2775   1
  -5  -8  -9 76.4927 19.9312   2
  -5  -8  -9 84.6065 15.7421   7
  -6  -8  -9 92.0002 21.0607   2
  -6  -8  -9 101.179  16.888   7
  -7  -8  -9 81.0632 16.1227   7
  -7  -8  -9 44.7302 18.8268   2
  -5  -9   9 17.6033 17.1127   1
   5  -9  -9 22.9221 13.0642   7
  -5   9   9 24.8472 15.9834   1
   5   9  -9 16.9371 17.7598   5
   4  -9  -9 380.379  25.367   7
   4   9  -9 467.477  33.396   5
  -4   9   9 393.414  27.901   1
   3  -9  -9 17.2905 12.8164   7
   3   9  -9 -3.4674 16.1665   5
   2  -9  -9 31.2847 12.9245   7
   2   9  -9 15.8524 16.8005   5
   1  -9  -9 27.6797 18.6222   2
   1  -9  -9 55.5265 14.0396   7
   1   9  -9 13.9880 16.2986   5
   0  -9  -9 345.078  29.242   2
   0  -9  -9 353.108  23.663   7
   0   9  -9 347.172  28.066   5
  -1  -9  -9 90.0138 16.0519   7
  -1  -9  -9 96.3669 21.1966   2
  -2  -9  -9 54.5371 14.6782   7
  -2  -9  -9 60.2712 19.7093   2
  -3  -9  -9 36.4845 19.2731   2
  -3  -9  -9 57.2651 15.4628   7
  -4  -9  -9 198.383  25.489   2
  -4  -9  -9 216.830  21.919   7
  -5  -9  -9 331.991  25.201   7
  -5  -9  -9 257.449  27.960   2
   1 -10  -9 31.5220 20.3092   2
   1 -10  -9 15.4082 13.9849   7
   1  10  -9 30.0908 18.1970   5
   0 -10  -9 62.7633 21.0963   2
   0 -10  -9 84.9665 16.8967   7
   0  10  -9 115.126  21.267   5
  -1 -10  -9 281.942  24.462   7
  -1 -10  -9 274.631  29.362   2
  11   0 -10 94.6277 22.9219   3
 -11   0  10 166.378  22.294   1
  11   0 -10 139.435  16.329   7
  10   0 -10 189.179  16.603   7
 -10   0  10 169.791  21.527   1
  10   0 -10 172.053  24.559   3
   9   0 -10 247.618  16.830   7
   9   0 -10 227.879  22.669   6
   9   0 -10 210.519  23.938   3
  -9   0  10 212.449  22.581   1
  -8   0  10 112.788  17.669   1
   8   0 -10 115.340  18.359   3
   8   0 -10 109.934  11.303   7
   8   0 -10 90.7057 17.7773   6
   7   0 -10 61.5147 14.5371   6
   7   0 -10 51.7509 14.7491   3
  -7   0  10 73.9042 15.0689   1
   6   0 -10 676.354  25.570   2
  -6   0  10 626.828  27.851   1
   6   0 -10 646.303  29.845   3
   6   0 -10 633.226  27.260   6
  -5   0  10 489.727  23.510   1
   5   0 -10 505.155  22.300   2
   5   0 -10 491.731  22.734   6
   5   0 -10 475.044  25.341   3
   4   0 -10 480.002  23.921   3
  -4   0  10 421.130  20.919   1
   4   0 -10 476.444  20.666   6
   4   0 -10 454.556  21.498   2
   3   0 -10 25.6373  9.1077   6
  -3   0  10 20.5366  9.3859   1
   3   0 -10 10.9213 10.0159   2
   3   0 -10 11.4542  9.5124   3
  -2   0  10 1088.94   29.73   1
   2   0 -10 1082.80   32.88   2
   2   0 -10 1094.50   30.23   6
   1   0 -10 335.427  19.745   3
   1   0 -10 340.284  18.445   2
   1   0 -10 343.867  15.014   4
   1   0 -10 370.130  15.751   6
   0   0 -10 578.933  23.038   2
   0   0 -10 553.200  24.497   3
   0   0 -10 589.109  18.533   4
  -1   0 -10 278.508  18.107   3
  -1   0 -10 237.270  16.791   2
  -2   0 -10 784.582  27.351   2
  -2   0 -10 771.729  29.301   3
  -3   0 -10 111.196  14.001   2
  -4   0 -10 127.460  14.673   2
  -5   0 -10 217.805  17.460   2
  -6   0 -10 396.614  21.382   2
  -9   0 -10 75.2179  9.5459   7
 -10   0 -10 208.500  14.637   7
 -11   0 -10 88.4613 11.8904   7
  11  -1 -10  4.9999 16.8616   3
  11  -1 -10 17.9030 12.9579   7
 -11  -1  10 35.2821 17.4898   1
 -11   1  10 10.7764 14.6830   1
  11   1 -10 24.9629 11.3174   7
  11   1 -10 31.2476 19.0273   3
  10  -1 -10 34.1449 12.5874   7
  10  -1 -10 43.0953 18.5272   3
 -10  -1  10 73.5490 18.2140   1
  10   1 -10 81.7396 20.2108   3
  10   1 -10 47.6481 11.0467   7
 -10   1  10 39.1988 16.4218   1
   9  -1 -10 60.0175 12.5029   7
  -9  -1  10 59.7330 16.5428   1
   9  -1 -10 64.6445 17.9912   3
   9  -1 -10 35.3987 15.7060   6
   9   1 -10 48.8763 16.9341   3
   9   1 -10 40.1379 15.5480   6
  -9   1  10 41.6049 15.4456   1
   8  -1 -10 133.970  18.509   6
   8  -1 -10 98.1584 18.4740   3
   8  -1 -10 129.516  13.379   7
  -8  -1  10 141.475  18.752   1
   8   1 -10 121.318  19.168   3
  -8   1  10 136.817  18.115   1
   8   1 -10 100.687  17.337   6
  -7  -1  10 44.2113 14.4104   1
   7  -1 -10 70.1250 15.3615   3
   7  -1 -10 63.3167  9.7163   7
   7  -1 -10 89.6815 15.9649   6
  -7   1  10 49.4322 13.9714   1
   7   1 -10 92.8879 16.8597   3
   7   1 -10 56.7948 13.4603   2
   7   1 -10 67.8965 14.3053   6
   6  -1 -10 75.7724 15.0613   3
   6  -1 -10 85.9659 13.5374   2
   6  -1 -10 64.0187  7.3207   7
  -6  -1  10 97.4749 14.8005   1
   6  -1 -10 61.7058 14.3912   6
   6   1 -10 77.5111 13.2891   2
  -6   1  10 84.9016 13.9453   1
   6   1 -10 76.1238 13.9905   6
   6   1 -10 78.0353 15.0723   3
   5  -1 -10  0.4709 10.2922   2
   5  -1 -10 20.2533 11.3874   3
   5  -1 -10 34.9412 11.2834   6
  -5  -1  10 27.0652 10.9834   1
  -5   1  10 10.2032 10.3149   1
   5   1 -10 22.0401 11.9370   3
   5   1 -10 23.6861 11.1362   2
   5   1 -10 37.4235 11.3931   6
   4  -1 -10 114.144  15.100   3
   4  -1 -10 108.062  13.191   6
  -4  -1  10 145.668  13.982   1
   4  -1 -10 101.049  13.132   2
  -4   1  10 127.680  13.708   1
   4   1 -10 117.170  14.698   2
   4   1 -10 140.205  15.830   3
   3  -1 -10 134.529  13.307   6
   3  -1 -10 117.651  14.169   3
  -3  -1  10 104.701  12.181   1
   3  -1 -10 110.544  13.205   2
   3   1 -10 105.557  11.376   6
  -3   1  10 94.2796 11.5027   1
   3   1 -10 108.609  14.336   3
   3   1 -10 76.2027 12.5385   2
  -2  -1  10 19.2921  8.5494   1
   2  -1 -10 28.6271 10.3984   2
   2  -1 -10 16.3184  8.6458   6
   2  -1 -10 29.1785 10.9056   3
   2  -1 -10 16.7810  8.9524   4
   2   1 -10 6.90399 9.63621   2
   2   1 -10 13.4967  9.9763   3
  -2   1  10 28.8410  8.2142   1
   1  -1 -10 26.7242 10.2062   3
   1  -1 -10 34.7966  9.2384   6
  -1  -1  10 20.2200  8.0730   1
   1  -1 -10 35.4105 10.5897   2
   1  -1 -10 8.41973 8.32281   4
   1   1 -10 13.6938  9.9136   2
   1   1 -10 19.5522  9.9874   3
   0  -1 -10 50.0666 11.1251   2
   0  -1 -10 45.5193  9.5449   6
   0  -1 -10 59.2565  9.1765   4
   0  -1 -10 52.3056 11.4861   3
   0   1 -10 53.9750 10.2838   2
   0   1 -10 37.1707 11.2300   3
  -1  -1 -10 70.3686 10.5732   6
  -1  -1 -10 59.7135 11.6166   3
  -1  -1 -10 84.9183 12.6588   2
  -1   1 -10 55.9438 11.4447   3
  -1   1 -10 75.0330 11.9318   2
  -2  -1 -10 6.81540 8.94822   6
  -2  -1 -10 8.10576 9.90491   3
  -2  -1 -10 -0.8877  9.6716   2
  -2   1 -10 -7.7435  8.9054   2
  -2   1 -10 -0.6762  9.3098   3
  -3  -1 -10 75.1500 13.1285   2
  -3   1 -10 87.2860 12.3641   2
  -4  -1 -10 33.6522 12.1565   2
  -4   1 -10 30.8240 10.4630   2
  -5  -1 -10 10.9374 11.2911   2
  -5   1 -10 26.8674 10.6263   2
  -6  -1 -10 -0.0119 11.7116   2
  -7  -1 -10 84.0387  8.1084   7
  -8  -1 -10 2.40693 7.66553   7
  -9  -1 -10 2.65996 8.61651   7
 -10  -1 -10 36.1329 10.1293   7
 -11  -1 -10 16.9777  9.8904   7
  11  -2 -10 -2.9070 16.3686   3
  11  -2 -10 19.2908 13.6406   7
 -11  -2  10 15.1729 16.0776   1
  11   2 -10 -8.0941 17.0649   3
 -11   2  10 -8.6899 14.7764   1
  10  -2 -10 -14.013  14.702   3
  10  -2 -10  2.5030 11.8406   7
 -10  -2  10 13.1538 15.8276   1
  10   2 -10 -11.609  16.130   3
 -10   2  10 -6.2518 13.7173   1
  -9  -2  10 26.8508 15.2582   1
   9  -2 -10 22.5755 11.3480   7
   9  -2 -10 32.4654 15.9797   3
   9   2 -10 -13.149  14.690   3
  -9   2  10 25.0908 14.1818   1
   9   2 -10 10.9651 14.9916   6
  -8  -2  10 47.6313 15.2729   1
   8  -2 -10 34.8742 10.9918   7
   8  -2 -10 22.3285 15.1506   6
   8  -2 -10 44.0987 15.9082   3
   8   2 -10 54.9892 15.8629   6
   8   2 -10 58.4257 16.6112   3
  -8   2  10 26.7810 13.5208   1
  -7  -2  10 34.8735 13.7071   1
   7  -2 -10 43.8637 13.8088   6
   7  -2 -10 40.3747  9.7525   7
   7  -2 -10 55.7352 15.2746   3
  -7   2  10 39.7765 13.2783   1
   7   2 -10 37.0271 13.6603   2
   7   2 -10 35.2645 14.4381   6
   7   2 -10 44.1362 14.7742   3
   6  -2 -10 25.1867 12.9229   6
   6  -2 -10 28.5990  8.1221   7
   6  -2 -10 20.5339 12.8851   3
  -6  -2  10 42.8988 13.0642   1
  -6   2  10 27.4548 11.9289   1
   6   2 -10 39.6870 12.8482   6
   6   2 -10 19.0280 12.7750   3
   6   2 -10 27.4912 11.8645   2
  -5  -2  10 83.4297 14.0032   1
   5  -2 -10 96.8414 15.2385   3
   5  -2 -10 83.3239  8.0319   7
   5  -2 -10 97.3456 13.4759   2
   5  -2 -10 63.7388 14.2115   6
   5   2 -10 92.6752 14.4097   2
   5   2 -10 99.6766 13.0151   6
   5   2 -10 82.8283 14.3257   3
  -5   2  10 97.9264 13.3076   1
   4  -2 -10 13.1139  9.7246   2
   4  -2 -10 12.0541 11.1628   3
  -4  -2  10 19.5111 10.8369   1
   4  -2 -10  9.5536 10.4721   6
   4   2 -10 28.7662 11.3800   3
  -4   2  10 15.5990  9.3107   1
   4   2 -10 -4.7988  9.8798   2
   3  -2 -10 32.5169 10.8201   6
   3  -2 -10 41.2208 11.6580   2
  -3  -2  10 57.2582 11.2191   1
   3  -2 -10 75.4042 11.9916   4
   3  -2 -10 60.3617 12.3472   3
   3   2 -10 74.7513 13.1271   2
   3   2 -10 66.8053 11.0978   5
   3   2 -10 60.3318 12.7970   3
  -3   2  10 65.1506 10.6833   1
   2  -2 -10 288.932  18.159   2
   2  -2 -10 260.722  18.380   3
  -2  -2  10 283.222  17.017   1
   2  -2 -10 288.633  16.838   4
   2  -2 -10 244.322  17.028   6
   2   2 -10 315.005  19.982   3
   2   2 -10 272.477  17.682   2
   1  -2 -10 296.386  18.395   2
   1  -2 -10 290.445  16.860   4
  -1  -2  10 290.863  16.075   1
   1  -2 -10 289.302  18.511   3
   1  -2 -10 248.494  16.446   6
   1   2 -10 283.820  16.714   2
   1   2 -10 278.357  19.528   3
   0  -2 -10 5.18050 9.48358   3
   0  -2 -10 3.98049 9.87015   2
   0  -2 -10 -3.2935  8.8548   6
   0  -2 -10 13.4264  9.0353   4
   0   2 -10 1.22983 9.04499   2
   0   2 -10 14.6482  9.8893   3
  -1  -2 -10 20.1369  9.9459   3
  -1  -2 -10  4.5927 10.1196   2
  -1  -2 -10 0.84844 9.15714   6
  -1   2 -10 13.3050  9.7003   2
  -1   2 -10 12.7500  9.5824   3
  -2  -2 -10 638.255  25.989   2
  -2  -2 -10 637.685  24.422   6
  -2  -2 -10 582.534  25.505   3
  -2   2 -10 658.422  24.254   2
  -3  -2 -10 380.614  21.284   2
  -3   2 -10 343.879  18.451   2
  -4  -2 -10 17.7810 12.3020   2
  -4   2 -10 3.94454 9.45032   2
  -5  -2 -10 31.3086  5.1081   7
  -5  -2 -10 25.5104 12.3459   2
  -5   2 -10 41.5924 11.3611   2
  -6  -2 -10 567.689  17.439   7
  -6  -2 -10 539.805  26.277   2
  -7  -2 -10 206.224  13.911   7
  -7  -2 -10 236.211  21.139   2
  -7  -2 -10 234.866  14.527   7
  -8  -2 -10 5.72422 8.79701   7
  -8  -2 -10 22.7091  9.2050   7
  -9  -2 -10 89.1928 11.9763   7
 -10  -2 -10 235.108  16.776   7
 -11  -2 -10 85.3663 12.8107   7
  10  -3 -10 42.3595 13.2435   7
  10  -3 -10 77.1585 19.1713   3
 -10  -3  10 58.8021 18.0411   1
  10   3 -10 84.0540 20.5274   3
 -10   3  10 50.6090 16.7384   1
   9  -3 -10 96.6593 14.2235   7
   9  -3 -10 135.057  20.649   3
  -9  -3  10 85.7237 18.2312   1
  -9   3  10 102.482  18.073   1
   9   3 -10 139.274  20.396   6
   9   3 -10 140.039  21.378   3
   8  -3 -10 666.943  33.228   6
  -8  -3  10 657.300  32.038   1
   8  -3 -10 661.078  33.706   3
   8  -3 -10 722.417  26.058   7
  -8   3  10 668.753  31.631   1
   8   3 -10 626.416  33.823   3
   7  -3 -10 34.1450 14.9365   6
   7  -3 -10 35.2939  9.9674   7
  -7  -3  10 45.5574 14.8792   1
   7  -3 -10 45.7480 14.6692   3
  -7   3  10 25.8958 12.9462   1
   7   3 -10 41.0872 15.2388   3
   6  -3 -10 99.0232 16.6143   6
   6  -3 -10 88.9437 10.9732   7
  -6  -3  10 89.6071 15.8779   1
   6  -3 -10 105.724  16.512   3
   6   3 -10 97.0235 16.2567   3
  -6   3  10 95.8257 14.9409   1
   6   3 -10 107.774  17.011   2
   5  -3 -10 275.717  14.224   7
   5  -3 -10 280.793  20.841   3
  -5  -3  10 258.762  20.927   1
   5  -3 -10 338.030  19.011   2
   5  -3 -10 294.206  21.754   6
  -5   3  10 290.483  19.738   1
   5   3 -10 293.998  21.413   3
   5   3 -10 260.883  20.580   5
   5   3 -10 280.794  20.151   2
   4  -3 -10 1105.85   34.07   2
   4  -3 -10 1134.75   37.22   6
   4  -3 -10 1094.57   27.25   7
   4  -3 -10 1204.09   36.68   4
   4  -3 -10 1103.76   37.92   3
  -4  -3  10 1109.45   36.55   1
  -4   3  10 1142.01   34.39   1
   4   3 -10 1122.75   36.23   5
   4   3 -10 1181.29   38.40   3
   4   3 -10 1144.43   36.74   2
   3  -3 -10 122.575  14.833   3
  -3  -3  10 121.124  14.591   1
   3  -3 -10 126.165  15.651   6
   3  -3 -10 132.327  15.292   4
   3  -3 -10 113.889  14.069   2
   3  -3 -10 128.372   8.699   7
  -3   3  10 137.405  13.372   1
   3   3 -10 98.3432 14.4385   3
   3   3 -10 131.723  15.458   2
   3   3 -10 159.582  15.164   5
   2  -3 -10 169.532  15.800   6
   2  -3 -10 164.861  15.958   2
  -2  -3  10 132.971  14.006   1
   2  -3 -10 172.842  16.187   3
   2  -3 -10 123.233  14.529   4
   2   3 -10 148.306  15.052   2
   2   3 -10 174.551  16.749   3
   1  -3 -10 495.918  22.296   4
   1  -3 -10 494.661  22.378   6
   1  -3 -10 495.297  23.130   2
  -1  -3  10 452.754  21.336   1
   1  -3 -10 484.592  22.439   3
   1   3 -10 519.159  24.566   3
   1   3 -10 494.794  22.212   2
   0  -3  10 1042.90   31.16   1
   0  -3 -10 1106.49   32.62   4
   0  -3 -10 1105.44   34.17   3
   0  -3 -10 1023.49   33.39   6
   0  -3 -10 1074.57   34.44   2
   0   3 -10 1072.34   34.76   3
   0   3 -10 1046.74   33.03   2
  -1  -3 -10 247.247  18.660   2
  -1  -3 -10 236.178  16.815   3
  -1  -3 -10 241.010  17.828   6
  -1   3 -10 250.103  18.423   3
  -1   3 -10 265.381  17.073   2
  -2  -3 -10 152.867  16.485   6
  -2  -3 -10 163.873  17.138   2
  -2  -3 -10 164.381  15.760   3
  -2   3 -10 148.518  15.193   2
  -3  -3 -10 349.923  22.301   2
  -3  -3 -10 370.531  11.461   7
  -3   3 -10 336.302  19.298   2
  -4  -3 -10 515.598  15.647   7
  -4  -3 -10 550.703  26.685   2
  -4   3 -10 525.758  22.438   2
  -5  -3 -10 276.061  22.295   2
  -5  -3 -10 267.448  13.746   7
  -6  -3 -10 117.100  18.873   2
  -6  -3 -10 84.9321 10.4872   7
   6   3  10 125.823  17.936   6
  -7  -3 -10 187.596  20.730   2
  -7  -3 -10 143.553  13.303   7
  -7  -3 -10 147.441  13.649   7
  -8  -3 -10 197.231  15.281   7
  -8  -3 -10 179.283  14.833   7
  -9  -3 -10 203.201  16.015   7
 -10  -3 -10 43.5490 12.0542   7
 -10  -4  10 -10.920  15.848   1
  10  -4 -10 -11.680  15.225   3
  10  -4 -10 -3.5815 11.4348   7
 -10   4  10 21.0698 15.3386   1
   9  -4 -10 -8.7455 10.4639   7
   9  -4 -10 -2.2867 14.2548   3
  -9  -4  10  8.2067 14.4133   1
  -9   4  10 -1.2792 12.9038   1
   9   4 -10 13.1311 16.2475   3
   8  -4 -10 -1.3393 13.5712   3
  -8  -4  10 -4.4242 13.4582   1
   8  -4 -10 -11.805   9.408   7
  -8   4  10 22.2770 13.8193   1
   8   4 -10 10.0002 15.3419   3
   7  -4 -10 14.8340 10.1845   7
   7  -4 -10  7.6824 14.7607   6
  -7  -4  10 14.3391 14.1221   1
   7  -4 -10  1.6518 12.9045   3
   7   4 -10 -7.7971 12.2706   3
   7   4 -10  0.5976 14.7725   5
  -7   4  10  8.1588 12.5403   1
   6  -4 -10  9.1509 12.7429   4
   6  -4 -10 27.0841 14.3864   6
   6  -4 -10 24.4375  9.7405   7
   6  -4 -10 11.2688 12.2928   3
  -6  -4  10 17.4217 13.6965   1
  -6   4  10 17.8212 12.2133   1
   6   4 -10 -10.091  12.895   5
   6   4 -10 13.9841 13.0866   3
   5  -4 -10 4.93683 7.96121   7
   5  -4 -10  2.8006 12.3892   6
   5  -4 -10 -1.4232 10.4764   4
  -5  -4  10  5.5267 12.4109   1
   5  -4 -10  4.7848 11.7960   3
  -5   4  10  7.9834 10.7093   1
   5   4 -10  4.0085 12.4701   5
   5   4 -10 23.7613 13.1035   3
   4  -4 -10  7.6340 11.3554   3
   4  -4 -10 15.5654  7.7228   7
   4  -4 -10 15.1724 12.6548   6
  -4  -4  10  3.3447 11.8907   1
   4  -4 -10 -4.6234 10.2022   4
   4  -4 -10  2.9284 10.2226   2
   4   4 -10 -4.7086 10.9542   3
   4   4 -10 18.7180 12.1668   5
   4   4 -10 20.6772 12.3793   2
  -4   4  10 21.2049 10.4524   1
  -3  -4  10  5.2687 10.8754   1
   3  -4 -10 -2.7110  9.7697   3
   3  -4 -10 3.50211 6.79410   7
   3  -4 -10  1.5007 10.2277   2
   3  -4 -10 -9.5092 10.7814   6
   3  -4 -10 -6.1171 11.1385   4
  -3   4  10 -2.5762  8.8958   1
   3   4 -10  2.2769 10.8764   3
   3   4 -10  2.0328 11.0858   5
   3   4 -10 -17.801  10.307   2
  -2  -4  10 -9.5489 10.6462   1
   2  -4 -10 28.8679 11.4689   2
   2  -4 -10 -0.8707 10.6207   4
   2  -4 -10 -4.3078  6.2372   7
   2  -4 -10 -13.004  10.973   6
   2  -4 -10 -8.8507  9.6487   3
   2   4 -10 -5.0381 10.0686   2
   2   4 -10  8.7255 10.9221   3
   1  -4 -10 -2.3282 10.6581   2
   1  -4 -10 15.1484 10.8836   4
   1  -4 -10 -4.3873 11.4277   6
   1  -4 -10 6.81426 9.23272   3
   1  -4 -10 4.25064 5.90676   7
   1   4 -10 12.3175 10.2963   3
   1   4 -10 -0.3631 10.9090   2
   0  -4 -10 35.3138 11.0554   3
   0  -4 -10 18.3624 12.5440   2
   0  -4 -10 33.3749  6.8308   7
   0  -4 -10 10.5079 11.4548   6
   0   4 -10 21.3379 10.8184   2
   0   4 -10 21.5417 10.8814   3
  -1  -4 -10 -2.4762  5.8860   7
  -1  -4 -10  5.6163 11.4097   6
  -1  -4 -10 10.7660  9.8720   3
  -1  -4 -10 -9.2900 11.4374   2
  -1   4 -10 3.84272 9.76153   2
  -2  -4 -10 24.4645 12.8289   2
  -2  -4 -10 18.9341 12.0999   6
  -2  -4 -10 3.17094 6.21418   7
  -2   4 -10 7.21846 9.49640   2
  -3  -4 -10  5.7987 12.5098   2
  -3  -4 -10 3.06390 6.48447   7
  -3   4 -10 -3.7309  9.9965   2
  -4  -4 -10 0.31354 7.30592   7
  -4  -4 -10 11.1421 13.7425   2
  -5  -4 -10 33.8684 14.8264   2
  -5  -4 -10 12.5724  8.5612   7
  -6  -4 -10 14.4550 14.5533   2
  -6  -4 -10 -4.1206  8.8101   7
   6   4  10  7.3438 13.9053   6
  -7  -4 -10 25.1715 10.4970   7
  -7  -4 -10 37.2863 17.1624   2
   7   4  10  0.3183 15.5160   6
  -8  -4 -10 -17.153   9.444   7
  -8  -4 -10 11.1474 16.1731   2
  -8  -4 -10 11.2727 10.5440   7
  -9  -4 -10 23.2311 11.1311   7
  -9  -4 -10 26.4319 10.9661   7
 -10  -4 -10  3.7092 10.4157   7
   9  -5 -10 94.3868 19.3342   3
  -9  -5  10 87.4579 20.1721   1
   9  -5 -10 91.7005 15.5100   7
  -9   5  10 82.6018 18.2366   1
   8  -5 -10 731.430  29.690   7
   8  -5 -10 806.964  35.998   3
  -8  -5  10 826.174  37.640   1
  -8   5  10 720.009  34.458   1
   8   5 -10 786.343  39.818   5
  -7  -5  10 19.9434 15.2289   1
   7  -5 -10 14.0539 10.2924   7
   7  -5 -10 23.8039 14.4764   3
  -7   5  10 10.9777 13.5444   1
   7   5 -10 20.3060 16.7113   5
   6  -5 -10 101.713  17.320   3
   6  -5 -10 112.878  18.208   4
   6  -5 -10 92.9247 12.8760   7
   6  -5 -10 75.7538 17.0872   6
  -6  -5  10 77.9815 17.1799   1
   6   5 -10 96.3251 19.1812   5
  -6   5  10 110.590  16.497   1
   5  -5 -10 329.109  18.631   7
   5  -5 -10 400.408  24.004   3
   5  -5 -10 336.765  23.709   4
   5  -5 -10 356.011  25.763   6
  -5  -5  10 362.563  26.017   1
   5   5 -10 359.653  26.386   5
  -5   5  10 376.267  23.432   1
   4  -5 -10 1203.96   40.24   4
   4  -5 -10 1137.93   38.42   3
   4  -5 -10 1154.16   32.81   7
   4  -5 -10 1107.21   39.77   6
  -4  -5  10 1181.30   40.42   1
   4  -5 -10 1135.09   36.79   2
   4   5 -10 1192.10   41.45   5
   4   5 -10 1098.39   38.77   3
  -4   5  10 1136.47   36.75   1
   3  -5 -10 169.541  18.294   4
   3  -5 -10 156.529  18.097   6
   3  -5 -10 162.693  17.357   2
   3  -5 -10 158.517  12.846   7
   3  -5 -10 184.136  17.057   3
  -3  -5  10 166.066  19.139   1
   3   5 -10 149.687  18.842   5
   3   5 -10 173.630  18.161   3
   2  -5 -10 325.255  16.409   7
   2  -5 -10 359.626  21.325   3
   2  -5 -10 336.618  22.671   6
   2  -5 -10 331.485  21.195   2
   2  -5 -10 370.396  22.412   4
  -2  -5  10 270.835  21.951   1
   2   5 -10 385.132  24.389   5
   2   5 -10 333.563  22.186   2
   2   5 -10 359.517  21.942   3
   1  -5 -10 479.840  18.674   7
   1  -5 -10 468.970  24.701   4
   1  -5 -10 479.388  26.246   2
   1  -5 -10 485.589  26.501   6
   1   5 -10 498.574  24.572   3
   1   5 -10 482.434  24.597   2
   0  -5 -10 1025.35   37.03   2
   0  -5 -10 1084.36   37.42   6
   0  -5 -10 1082.06   29.28   7
   0   5 -10 1052.48   35.21   2
   0   5 -10 1085.10   36.63   3
  -1  -5 -10 329.568  22.959   2
  -1  -5 -10 339.080  24.134   6
  -1  -5 -10 333.206  15.929   7
  -1   5 -10 335.871  20.426   2
  -2  -5 -10 552.309  20.694   7
  -2  -5 -10 564.392  29.518   6
  -2  -5 -10 593.229  29.253   2
  -2   5 -10 637.334  26.049   2
  -3  -5 -10 154.139  20.041   2
  -3  -5 -10 154.112  12.585   7
  -3   5 -10 140.443  15.826   2
  -4  -5 -10 587.513  22.857   7
  -4  -5 -10 625.751  32.159   2
  -5  -5 -10 374.249  19.785   7
  -5  -5 -10 348.276  26.677   2
  -6  -5 -10 377.745  20.609   7
  -6  -5 -10 381.569  28.031   2
   6   5  10 358.307  27.495   6
  -7  -5 -10 -15.036  15.954   2
  -7  -5 -10 -13.475   9.884   7
   7   5  10 26.1800 16.3073   6
  -8  -5 -10 304.724  21.003   7
  -8  -5 -10 293.570  26.681   2
  -8  -5 -10 281.270  20.247   7
  -9  -5 -10 268.181  20.182   7
  -9  -5 -10 255.140  20.367   7
  -8  -6  10 60.7919 18.2403   1
   8  -6 -10 49.3485 12.9867   7
  -8   6  10 75.7118 17.3087   1
   8   6 -10 47.4655 19.4869   5
  -7  -6  10 21.2347 16.2590   1
   7  -6 -10 27.7903 11.6285   7
  -7   6  10 -7.2374 12.9326   1
   7   6 -10 25.1693 18.0595   5
  -6  -6  10 46.6880 16.6059   1
   6  -6 -10 24.4985 11.2537   7
  -6   6  10 19.3305 13.7885   1
   6   6 -10 34.7399 17.3210   5
   5  -6 -10 42.6987 16.6003   6
  -5  -6  10 28.2388 14.7256   1
   5  -6 -10 27.3383 10.5916   7
  -5   6  10  5.4467 12.9337   1
   5   6 -10  9.4934 15.3973   5
  -4  -6  10  9.1440 14.6878   1
   4  -6 -10 -0.2345 13.5416   4
   4  -6 -10 21.2123  9.5152   7
   4  -6 -10 -9.0064 14.7237   6
   4   6 -10 44.5567 16.5233   5
  -4   6  10 -11.011  10.808   1
   3  -6 -10 67.6661 15.4673   4
   3  -6 -10 97.3374 16.7248   2
   3  -6 -10 86.4064 18.3058   6
  -3  -6  10 70.8314 16.5113   1
   3  -6 -10 71.2509 11.6920   7
   3   6 -10 69.6450 17.7499   5
   2  -6 -10 202.327  20.931   6
   2  -6 -10 173.847  15.161   7
   2  -6 -10 213.544  20.758   2
   2  -6 -10 138.535  18.390   4
   2   6 -10 206.396  21.413   5
   1  -6 -10 122.793  17.979   2
   1  -6 -10 86.3487 16.7708   6
   1  -6 -10 110.206  12.833   7
   0  -6 -10 -3.4415 13.1223   2
   0  -6 -10 -4.7309 13.8095   6
   0  -6 -10 -5.0702  8.0772   7
  -1  -6 -10 57.6041 10.5487   7
  -1  -6 -10 60.0953 16.8139   2
  -1  -6 -10 51.3518 15.7780   6
  -2  -6 -10 461.308  20.957   7
  -2  -6 -10 483.327  28.146   6
  -2  -6 -10 440.047  28.901   2
  -3  -6 -10 208.984  23.539   2
  -3  -6 -10 240.450  16.588   7
  -4  -6 -10 9.97161 9.91154   7
  -4  -6 -10  3.4717 16.1861   2
  -5  -6 -10 14.7973 10.9461   7
  -5  -6 -10 -11.762  15.250   2
  -6  -6 -10 434.964  23.512   7
  -6  -6 -10 436.386  31.682   2
   6   6  10 470.658  30.101   6
  -7  -6 -10 181.571  17.965   7
  -7  -6 -10 205.177  24.949   2
  -8  -6 -10 46.3509 12.9819   7
  -8  -6 -10 61.1109 19.5781   2
  -7  -7  10 159.973  22.773   1
   7  -7 -10 95.0556 15.4520   7
   7   7 -10 79.9002 21.4150   5
  -7   7  10 104.232  18.478   1
  -6  -7  10 312.381  28.327   1
   6  -7 -10 266.580  20.028   7
   6   7 -10 284.785  28.580   5
  -6   7  10 352.478  25.258   1
   5  -7 -10 49.8633 12.2053   7
  -5  -7  10 75.1928 18.0652   1
   5   7 -10 36.2822 18.7351   5
  -5   7  10 66.6182 16.2917   1
   4  -7 -10 388.516  21.173   7
  -4  -7  10 468.934  30.012   1
   4   7 -10 379.550  30.354   5
   3  -7 -10 243.254  23.584   6
   3  -7 -10 204.863  17.207   7
   3   7 -10 227.727  24.397   5
   2  -7 -10 303.004  25.044   2
   2  -7 -10 272.580  19.043   7
   2  -7 -10 262.964  24.635   6
   2   7 -10 269.268  24.566   5
   1  -7 -10 51.2720 15.9138   2
   1  -7 -10 33.8603 11.0692   7
   1  -7 -10 34.9231 15.8621   6
   0  -7 -10 291.870  25.538   6
   0  -7 -10 298.565  18.655   7
   0  -7 -10 269.801  24.958   2
  -1  -7 -10 199.674  16.796   7
  -1  -7 -10 209.365  22.685   6
  -1  -7 -10 188.394  22.854   2
  -2  -7 -10 188.521  16.754   7
  -2  -7 -10 221.845  23.875   6
  -2  -7 -10 211.133  24.350   2
  -3  -7 -10 1.24911 9.86793   7
  -3  -7 -10 -17.712  16.051   2
  -4  -7 -10 226.588  25.335   2
  -4  -7 -10 176.875  17.252   7
  -5  -7 -10 137.220  22.786   2
  -5  -7 -10 90.7028 15.5112   7
  -6  -7 -10 211.104  25.500   2
  -6  -7 -10 214.848  19.944   7
  -7  -7 -10 18.3105 12.9375   7
  -7  -7 -10 12.6427 17.6882   2
  -6  -8  10 316.255  28.321   1
   6  -8 -10 240.293  20.854   7
   6   8 -10 282.860  29.045   5
  -6   8  10 295.168  25.906   1
   5  -8 -10 124.420  15.909   7
  -5  -8  10 126.632  21.308   1
   5   8 -10 136.636  23.891   5
  -5   8  10 130.402  19.322   1
   4  -8 -10 99.3844 14.9846   7
  -4  -8  10 92.0604 20.0085   1
   4   8 -10 118.040  21.955   5
   3  -8 -10 -5.3171 10.6062   7
   3   8 -10 19.6158 17.1109   5
   2  -8 -10 396.518  23.843   7
   2  -8 -10 459.584  29.729   2
   2   8 -10 526.182  32.739   5
   1  -8 -10 91.5051 14.0509   7
   1  -8 -10 93.1908 19.6287   2
   0  -8 -10 121.857  21.881   2
   0  -8 -10 91.5800 14.2013   7
  -1  -8 -10 37.3886 12.3612   7
  -1  -8 -10 12.3934 18.5878   2
  -2  -8 -10 366.952  30.394   2
  -2  -8 -10 373.964  22.957   7
  -3  -8 -10 41.4044 12.6561   7
  -3  -8 -10 52.1148 19.2704   2
  -4  -8 -10 23.0675 18.9762   2
  -4  -8 -10 21.6082 12.9194   7
  -5  -8 -10 48.8978 14.4039   7
  -5  -8 -10 58.9230 20.4902   2
  -6  -8 -10 228.014  21.374   7
  -6  -8 -10 204.184  26.401   2
  -4  -9  10 116.249  22.050   1
   4  -9 -10 102.277  16.611   7
   4   9 -10 121.248  22.976   5
   3  -9 -10 27.7854 12.9423   7
   3   9 -10 34.7790 19.3975   5
   2  -9 -10 172.107  19.109   7
   2   9 -10 199.675  24.730   5
   1  -9 -10 341.135  28.244   2
   1  -9 -10 293.071  22.219   7
   0  -9 -10 145.311  17.230   7
   0  -9 -10 124.846  23.293   2
  -1  -9 -10 14.9569 12.1282   7
  -1  -9 -10 21.1236 18.8198   2
  -2  -9 -10 186.071  26.632   2
  -2  -9 -10 171.073  18.867   7
  -3  -9 -10 264.215  28.710   2
  -3  -9 -10 202.384  20.536   7
  -4  -9 -10 92.7702 17.3518   7
  -4  -9 -10 139.893  24.966   2
 -10   0  11  0.5857 15.1339   1
  10   0 -11 19.2859 17.6799   3
   9   0 -11 28.5274 16.4830   3
  -9   0  11 10.3972 14.1049   1
  -8   0  11 27.8503 14.4013   1
   8   0 -11 -9.0679 13.7287   3
   8   0 -11 -15.476  12.768   6
   7   0 -11 -4.6220 12.3951   3
  -7   0  11 14.1042 12.7034   1
   7   0 -11 10.4642 12.1826   6
  -6   0  11 -6.3254 10.8817   1
   6   0 -11 10.2948 11.0676   6
   6   0 -11 11.5648 12.4675   3
   6   0 -11 -11.023  11.365   2
   5   0 -11 -5.3915 10.3319   2
   5   0 -11 -11.521  10.217   6
  -5   0  11 29.5710 11.4387   1
   5   0 -11 10.8018 11.6241   3
   4   0 -11 -12.777   9.592   6
   4   0 -11 -4.3694 10.3660   3
   4   0 -11 -17.903   9.623   2
  -4   0  11 -16.760   8.520   1
  -3   0  11 23.2433  9.6071   1
   3   0 -11 1.76282 9.50695   6
   3   0 -11 -3.6176 10.1948   3
   3   0 -11  8.6990 10.4384   2
   2   0 -11  5.5568 10.1608   2
   2   0 -11 2.02939 9.79829   3
   2   0 -11 -1.8080  8.1628   6
   1   0 -11 18.2345 10.1600   2
   1   0 -11 3.83712 9.70039   3
   0   0 -11  6.6495 10.1971   3
   0   0 -11  6.2529 10.3253   2
  -1   0 -11 1.18111 9.81954   3
  -1   0 -11 -2.1492 10.0994   2
  -2   0 -11  3.8170 10.2254   2
  -2   0 -11  7.3112 10.3987   3
  -3   0 -11  5.5741 10.6923   2
  -4   0 -11  3.2034 11.0526   2
  -5   0 -11 -12.238  11.301   2
  -6   0 -11  1.3070 12.6359   2
  10  -1 -11 951.148  44.091   3
 -10  -1  11 935.949  40.905   1
 -10   1  11 901.242  39.939   1
  10   1 -11 927.757  44.882   3
   9  -1 -11 -7.6942 14.3119   3
  -9  -1  11 38.6118 15.9112   1
  -9   1  11 14.4556 14.2164   1
   9   1 -11 -11.398  14.955   6
   9   1 -11  1.5733 14.8971   3
   8  -1 -11 149.038  20.643   3
   8  -1 -11 201.166  20.520   6
  -8  -1  11 179.656  20.790   1
   8   1 -11 169.121  21.706   3
  -8   1  11 214.595  20.976   1
   8   1 -11 202.009  20.999   6
   7  -1 -11 55.3731 15.9056   6
   7  -1 -11 70.6032 16.2621   3
  -7  -1  11 73.3416 15.4784   1
   7   1 -11 53.3104 15.2874   3
   7   1 -11 50.8437 13.3833   2
  -7   1  11 59.7739 14.7934   1
   7   1 -11 47.8121 14.7468   6
   6  -1 -11 1274.13   44.24   3
   6  -1 -11 1262.46   40.04   6
   6  -1 -11 1264.46   38.76   2
  -6  -1  11 1319.04   41.18   1
   6   1 -11 1289.14   39.54   2
   6   1 -11 1300.78   44.31   3
  -6   1  11 1248.80   39.98   1
  -5  -1  11 10.8406 10.7649   1
   5  -1 -11 -5.1959 10.2470   2
   5  -1 -11  0.4566 11.3145   6
   5  -1 -11 16.5608 12.0130   3
  -5   1  11  3.3890 10.2839   1
   5   1 -11 -4.7887 10.7053   3
   5   1 -11  9.2735 11.8028   2
   5   1 -11 -11.142   9.887   6
   4  -1 -11 165.302  17.548   3
   4  -1 -11 167.591  16.348   6
  -4  -1  11 190.309  16.644   1
   4  -1 -11 189.006  17.231   2
   4   1 -11 167.217  16.976   2
  -4   1  11 209.423  16.285   1
   4   1 -11 183.415  18.181   3
   3  -1 -11 142.508  15.197   2
   3  -1 -11 156.782  16.944   3
   3  -1 -11 153.340  15.120   6
  -3  -1  11 179.397  14.802   1
  -3   1  11 177.457  14.419   1
   3   1 -11 142.658  16.441   3
   3   1 -11 163.571  16.240   2
  -2  -1  11 1135.88   32.00   1
   2  -1 -11 1091.60   37.66   3
   2  -1 -11 1129.16   35.20   2
   2  -1 -11 1154.94   33.30   6
   2  -1 -11 1186.73   32.69   4
   2   1 -11 1122.03   35.42   2
   2   1 -11 1192.61   38.18   3
   1  -1 -11 3.48436 9.72299   3
   1  -1 -11 10.5885  8.8171   6
   1  -1 -11 14.2059  8.7315   4
   1  -1 -11  4.6960 10.0699   2
   1   1 -11 -6.4112  8.5442   2
   1   1 -11  6.7503 10.6128   3
   0  -1 -11 123.843  15.115   3
   0  -1 -11 84.9919 13.5866   2
   0  -1 -11 98.5008 11.8579   6
   0  -1 -11 94.5899 11.0305   4
   0   1 -11 77.7308 13.2881   3
   0   1 -11 82.6902 12.8917   2
  -1  -1 -11 320.777  19.983   2
  -1  -1 -11 367.711  20.878   3
  -1   1 -11 340.815  19.718   2
  -1   1 -11 349.239  21.116   3
  -2  -1 -11 807.953  29.815   2
  -2  -1 -11 755.796  30.096   3
  -2   1 -11 800.363  31.121   3
  -2   1 -11 809.113  28.483   2
  -3  -1 -11  1.9037 11.5726   2
  -3   1 -11  0.3386 10.4547   2
  -4  -1 -11 16.3066 11.9827   2
  -4   1 -11  9.7274 11.5157   2
  -5  -1 -11 484.992  25.086   2
  -5   1 -11 459.142  22.319   2
  -6  -1 -11 483.358  24.558   2
  10  -2 -11 35.9613 17.3668   3
  10  -2 -11 50.6518 13.2458   7
 -10  -2  11 16.9916 16.1168   1
 -10   2  11 51.8794 17.5911   1
  10   2 -11 30.7404 19.2300   3
   9  -2 -11 71.2740 12.8076   7
  -9  -2  11 92.8356 18.7011   1
   9  -2 -11 80.5275 18.2796   3
   9   2 -11 91.0825 20.1589   3
  -9   2  11 68.0628 16.5301   1
   9   2 -11 71.2393 18.0630   6
   8  -2 -11 26.2890 10.3919   7
   8  -2 -11 22.5160 15.0880   3
   8  -2 -11 24.2412 15.3022   6
  -8  -2  11 45.8406 15.2857   1
   8   2 -11 24.5494 15.5450   3
  -8   2  11 46.1300 14.8455   1
  -7  -2  11 324.748  24.149   1
   7  -2 -11 333.994  15.319   7
   7  -2 -11 350.577  25.605   3
   7  -2 -11 327.666  24.412   6
   7   2 -11 313.308  25.854   3
   7   2 -11 327.325  22.078   2
  -7   2  11 331.043  23.238   1
  -6  -2  11 24.9986 12.4993   1
   6  -2 -11 36.0845 13.6247   6
   6  -2 -11 33.9501 13.7530   3
   6   2 -11 15.6794 13.1612   2
  -6   2  11 48.3548 13.2608   1
   6   2 -11 22.9499 12.8238   3
   5  -2 -11 -3.6779 11.5227   3
   5  -2 -11 -12.912  12.274   6
   5  -2 -11  0.2658 10.3473   2
  -5  -2  11 -5.7261 10.3887   1
   5   2 -11 -4.1970 11.2790   2
   5   2 -11 -1.7922 11.4116   3
  -5   2  11 -6.5195 10.0200   1
  -4  -2  11 132.083  15.184   1
   4  -2 -11 111.901  15.115   6
   4  -2 -11 111.662  14.990   2
   4  -2 -11 122.884  16.104   3
   4   2 -11 106.794  16.053   3
  -4   2  11 136.649  14.289   1
   4   2 -11 109.291  15.152   2
   3  -2 -11 345.865  19.149   4
  -3  -2  11 369.233  19.986   1
   3  -2 -11 376.172  20.777   6
   3  -2 -11 355.435  22.029   3
   3  -2 -11 342.329  19.986   2
   3   2 -11 375.483  23.297   3
   3   2 -11 350.504  21.040   2
   2  -2 -11 137.693  14.770   4
  -2  -2  11 131.798  13.756   1
   2  -2 -11 150.361  14.866   6
   2  -2 -11 138.871  16.134   3
   2  -2 -11 168.814  16.066   2
   2   2 -11 123.332  15.611   3
   2   2 -11 120.912  14.844   2
   1  -2 -11 78.1990 12.3290   6
   1  -2 -11 77.3401 12.9943   3
   1  -2 -11 77.4633 11.4258   4
   1  -2 -11 86.1486 13.6802   2
   1   2 -11 81.5847 13.9235   3
   1   2 -11 52.1758 12.1062   2
   0  -2 -11 119.958  15.035   3
   0  -2 -11 105.118  12.510   4
   0  -2 -11 111.570  15.154   2
   0  -2 -11 118.596  13.603   6
   0   2 -11 127.825  14.854   2
   0   2 -11 126.170  15.398   3
  -1  -2 -11 196.836  15.957   6
  -1  -2 -11 193.457  17.488   2
  -1  -2 -11 210.563  17.726   3
  -1   2 -11 191.045  17.753   3
  -1   2 -11 196.008  16.605   2
  -2  -2 -11 417.239  21.610   6
  -2  -2 -11 444.518  23.071   2
  -2  -2 -11 399.598  22.417   3
  -2   2 -11 397.533  20.643   2
  -3  -2 -11 12.5865 11.8406   2
  -3   2 -11 15.0982 10.8726   2
  -4  -2 -11  2.1736 11.6443   2
  -4   2 -11  8.9451 11.6393   2
  -5  -2 -11 75.8086 15.5372   2
  -5   2 -11 95.4288 14.5360   2
  -6  -2 -11 449.047  25.347   2
  -7  -2 -11  5.6044 13.3932   2
  10  -3 -11 183.110  17.556   7
  10  -3 -11 142.842  22.837   3
 -10  -3  11 114.220  21.897   1
 -10   3  11 146.823  21.237   1
  10   3 -11 207.300  26.888   3
   9  -3 -11 20.1444 11.0748   7
  -9  -3  11 23.0483 16.3307   1
   9  -3 -11 11.8208 15.5048   3
   9   3 -11 71.5370 19.3931   3
  -9   3  11 -17.536  12.362   1
   8  -3 -11 19.1477 10.2813   7
   8  -3 -11 34.3351 15.7603   3
  -8  -3  11 -9.6238 13.3897   1
   8   3 -11 32.5628 16.4860   3
  -8   3  11 23.6149 14.2680   1
   7  -3 -11 67.0507 10.6127   7
   7  -3 -11 40.3702 15.8673   6
   7  -3 -11 41.1880 14.9768   3
  -7  -3  11 34.3046 14.8832   1
   7   3 -11 50.1242 15.8422   3
  -7   3  11 86.3733 15.7302   1
   6  -3 -11 317.811  23.581   3
   6  -3 -11 337.290  15.086   7
   6  -3 -11 254.293  22.327   6
  -6  -3  11 298.280  24.091   1
   6   3 -11 299.561  23.451   3
  -6   3  11 300.262  21.931   1
   6   3 -11 283.474  22.998   2
   5  -3 -11 61.4579 15.0618   6
   5  -3 -11 64.4287 14.4481   4
   5  -3 -11 85.7767 15.9529   3
  -5  -3  11 68.0501 14.7650   1
   5  -3 -11 67.8069  7.9234   7
   5  -3 -11 68.0279 13.6133   2
   5   3 -11 78.0388 15.9147   3
   5   3 -11 65.3928 14.4118   2
  -5   3  11 72.9284 13.6870   1
  -4  -3  11 140.157  16.678   1
   4  -3 -11 188.043  18.479   3
   4  -3 -11 187.815  18.115   6
   4  -3 -11 143.675  16.632   4
   4  -3 -11 188.210  17.374   2
   4   3 -11 176.806  18.549   2
  -4   3  11 204.734  16.779   1
   4   3 -11 198.651  17.588   5
   4   3 -11 186.037  18.813   3
   3  -3 -11 102.829  14.956   4
   3  -3 -11 125.174  15.850   3
   3  -3 -11 108.984  15.550   6
  -3  -3  11 117.055  15.093   1
   3  -3 -11 113.289  14.916   2
   3   3 -11 104.877  15.573   3
   3   3 -11 99.8415 15.3206   2
   2  -3 -11 540.186  24.977   6
   2  -3 -11 548.447  24.231   4
  -2  -3  11 548.043  23.791   1
   2  -3 -11 511.166  24.385   2
   2  -3 -11 499.735  24.970   3
   2   3 -11 558.720  24.883   2
   2   3 -11 543.047  26.115   3
   1  -3 -11 96.4951 14.8178   2
   1  -3 -11 81.2294 13.4347   4
   1  -3 -11 91.9696 13.8750   3
   1  -3 -11 99.3111 14.3594   6
  -1  -3  11 94.3459 12.4863   1
   1   3 -11 101.590  14.324   2
   1   3 -11 90.7855 14.4966   3
   0  -3 -11 520.505  24.776   2
   0  -3 -11 478.288  23.760   3
   0  -3 -11 482.265  22.600   4
   0  -3 -11 454.906  23.150   6
   0   3 -11 487.283  22.967   2
   0   3 -11 459.789  24.208   3
  -1  -3 -11 213.526  17.878   6
  -1  -3 -11 234.904  19.862   2
  -1  -3 -11 212.872  18.031   3
  -1   3 -11 269.445  19.584   3
  -1   3 -11 260.076  18.010   2
  -2  -3 -11 676.316  28.829   2
  -2  -3 -11 676.342  28.229   3
  -2  -3 -11 701.328  28.425   6
  -2   3 -11 646.575  26.258   2
  -3  -3 -11  7.7230 12.8239   2
  -3   3 -11 51.4294 12.1446   2
  -4  -3 -11 315.152  24.315   2
  -4   3 -11 303.229  19.530   2
  -5  -3 -11 297.351  24.497   2
  -6  -3 -11 484.691  16.503   7
  -6  -3 -11 513.603  28.396   2
  -7  -3 -11 35.4129 17.2577   2
  -7  -3 -11 17.2826  8.5298   7
  -8  -3 -11 41.4289 10.1028   7
  -9  -3 -11 188.782  15.043   7
 -10  -3 -11 259.089  18.080   7
 -10  -3 -11 257.350  18.017   7
   9  -4 -11 63.1086 13.1782   7
   9  -4 -11 57.0060 17.7731   3
  -9  -4  11 62.4914 17.6330   1
  -9   4  11 37.4788 16.1615   1
   9   4 -11 59.1211 19.1587   3
   8  -4 -11 -0.0683 13.9807   3
  -8  -4  11  0.7797 14.8669   1
   8  -4 -11 -7.2365  9.7637   7
  -8   4  11 28.4904 14.4304   1
   8   4 -11 12.9846 15.8623   3
  -7  -4  11 100.231  18.353   1
   7  -4 -11 103.271  12.589   7
   7  -4 -11 75.8750 18.2040   6
   7  -4 -11 96.7605 18.0929   3
  -7   4  11 82.3825 16.2649   1
   7   4 -11 94.9723 18.1969   3
   6  -4 -11 567.547  28.322   4
   6  -4 -11 498.435  20.270   7
   6  -4 -11 517.905  28.612   3
   6  -4 -11 487.283  28.740   6
  -6  -4  11 534.571  29.544   1
   6   4 -11 504.503  29.330   5
   6   4 -11 468.557  28.245   3
  -6   4  11 518.102  26.759   1
   5  -4 -11 140.478  11.888   7
   5  -4 -11 111.888  17.115   4
   5  -4 -11 157.618  19.075   6
  -5  -4  11 174.004  19.402   1
   5  -4 -11 140.205  18.475   3
   5   4 -11 131.065  17.741   3
   5   4 -11 168.999  19.914   5
  -5   4  11 166.164  17.351   1
   5   4 -11 132.173  18.272   2
   4  -4 -11 21.7476 12.2656   2
   4  -4 -11  6.1216 11.7724   3
   4  -4 -11 -8.1065 12.0498   6
   4  -4 -11 17.3635  7.7516   7
  -4  -4  11 15.3640 12.8088   1
   4  -4 -11 26.2335 13.5609   4
   4   4 -11 11.9075 13.9574   2
  -4   4  11 -2.7638 10.5340   1
   4   4 -11 16.5506 12.6839   5
   4   4 -11 11.3114 12.4959   3
   3  -4 -11 249.804  20.644   3
   3  -4 -11 244.633  20.205   4
   3  -4 -11 245.334  19.513   2
   3  -4 -11 220.573  11.798   7
  -3  -4  11 227.641  20.020   1
   3  -4 -11 205.931  19.771   6
   3   4 -11 236.542  19.960   2
   3   4 -11 248.185  20.791   3
   2  -4 -11 782.959  30.798   6
   2  -4 -11 735.655  29.598   4
  -2  -4  11 786.206  30.364   1
   2  -4 -11 761.932  30.787   2
   2  -4 -11 789.368  30.711   3
   2  -4 -11 755.039  19.632   7
   2   4 -11 751.116  31.553   3
   2   4 -11 789.966  30.876   2
   1  -4 -11 168.667  17.834   2
   1  -4 -11 152.348  16.494   4
  -1  -4  11 161.818  16.878   1
   1  -4 -11 148.752   8.853   7
   1  -4 -11 177.633  16.694   3
   1  -4 -11 146.303  17.484   6
   1   4 -11 166.757  17.568   3
   1   4 -11 182.208  17.721   2
   0  -4 -11 44.7136  5.5970   7
   0  -4 -11 63.1896 14.0086   6
   0  -4 -11 28.3022 11.6284   3
   0  -4 -11 51.5687 13.8963   2
   0   4 -11 66.5571 13.3166   2
   0   4 -11 46.9384 13.0919   3
  -1  -4 -11 566.632  27.638   2
  -1  -4 -11 526.245  24.706   3
  -1  -4 -11 544.906  26.235   6
  -1  -4 -11 550.032  14.563   7
  -1   4 -11 568.924  24.589   2
  -2  -4 -11 692.759  30.016   6
  -2  -4 -11 675.018  31.017   2
  -2  -4 -11 717.914  18.305   7
  -2   4 -11 702.589  27.160   2
  -3  -4 -11 47.8636 13.6867   2
  -3  -4 -11 61.1627  7.1275   7
  -3   4 -11 50.7437 13.0251   2
  -4  -4 -11 71.1404 16.8692   2
  -4  -4 -11 69.9984  8.3972   7
  -4   4 -11 72.3891 13.3221   2
  -5  -4 -11 763.737  22.728   7
  -5  -4 -11 754.754  34.702   2
  -6  -4 -11 421.354  18.727   7
  -6  -4 -11 406.239  28.100   2
  -7  -4 -11 9.44492 9.03389   7
  -7  -4 -11 27.9614 18.1106   2
  -8  -4 -11 98.5896 13.0552   7
  -8  -4 -11 103.320  20.771   2
  -9  -4 -11 569.682  24.067   7
   9  -5 -11 146.771  22.055   3
   9  -5 -11 148.257  16.399   7
  -9  -5  11 161.150  22.612   1
  -9   5  11 130.727  20.592   1
   8  -5 -11 137.254  15.138   7
   8  -5 -11 155.996  20.923   3
  -8  -5  11 133.956  21.601   1
  -8   5  11 168.129  20.923   1
   7  -5 -11  8.9692 13.9942   3
   7  -5 -11 23.8257 10.7397   7
  -7  -5  11 -1.1766 14.5680   1
   7   5 -11 -2.1504 15.6958   5
  -7   5  11 38.1119 14.7574   1
   6  -5 -11 -11.861   8.824   7
   6  -5 -11 -16.159  13.942   6
  -6  -5  11  1.0751 13.8741   1
   6  -5 -11 24.4769 13.9025   3
  -6   5  11 17.2031 13.0711   1
   6   5 -11  7.4386 15.4937   5
   5  -5 -11 206.487  22.687   6
   5  -5 -11 213.581  21.593   4
   5  -5 -11 211.137  15.266   7
   5  -5 -11 198.822  20.598   3
  -5  -5  11 229.452  22.658   1
   5   5 -11 213.406  22.538   5
  -5   5  11 229.374  20.190   1
   4  -5 -11 189.159  14.483   7
   4  -5 -11 224.923  19.689   2
   4  -5 -11 216.515  20.185   3
   4  -5 -11 155.833  19.203   4
  -4  -5  11 192.023  20.813   1
   4  -5 -11 178.634  20.232   6
   4   5 -11 182.359  21.199   5
   4   5 -11 166.765  19.322   3
  -3  -5  11 21.7440 13.2763   1
   3  -5 -11  1.2288 11.7652   3
   3  -5 -11 23.3257 13.0934   2
   3  -5 -11  2.4727 13.9713   6
   3  -5 -11 15.9232  8.1192   7
   3  -5 -11 14.7500 12.9990   4
   3   5 -11  3.2432 12.9716   2
   3   5 -11 37.1348 14.3773   3
   2  -5 -11 -2.6914 12.0586   4
   2  -5 -11 -10.298   6.763   7
   2  -5 -11  3.4716 12.4566   2
  -2  -5  11  4.2653 12.6671   1
   2  -5 -11 -7.6443 12.5670   6
   2   5 -11 -12.521  10.846   3
   2   5 -11 11.0278 12.6316   2
   1  -5 -11 220.149  20.934   6
   1  -5 -11 217.279  21.235   2
   1  -5 -11 253.205  21.117   4
   1  -5 -11 240.806  13.326   7
   1   5 -11 253.551  20.712   2
   1   5 -11 244.841  20.420   3
   0  -5 -11 151.250  19.061   2
   0  -5 -11 183.730  12.963   7
   0  -5 -11 161.064  18.507   6
   0   5 -11 208.108  18.692   2
   0   5 -11 223.272  20.047   3
  -1  -5 -11 34.6614  8.0759   7
  -1  -5 -11 30.2204 14.9070   2
  -1  -5 -11  4.6322 13.6782   6
  -1   5 -11 29.8191 12.5839   2
  -2  -5 -11 9.37055 7.32344   7
  -2  -5 -11 11.4083 15.0471   6
  -2  -5 -11 -19.647  13.802   2
  -2   5 -11  4.3076 11.2872   2
  -3  -5 -11 222.601  23.225   2
  -3  -5 -11 218.010  14.005   7
  -3   5 -11 229.330  18.987   2
  -4  -5 -11 156.317  12.676   7
  -4  -5 -11 219.402  23.148   2
  -5  -5 -11 13.4375  9.3327   7
  -5  -5 -11 11.8361 15.7598   2
  -6  -5 -11 -14.099  15.349   2
  -6  -5 -11 10.7245 10.1552   7
   6   5  11 17.3331 16.9341   6
  -7  -5 -11 96.1800 21.0454   2
  -7  -5 -11 86.1526 13.2783   7
   7   5  11 132.881  22.646   6
  -8  -5 -11 195.340  16.997   7
  -8  -5 -11 215.174  25.878   2
  -9  -5 -11 15.8616 11.1549   7
  -8  -6  11 49.1970 18.8278   1
   8  -6 -11 95.0264 15.1465   7
   8   6 -11 71.1890 20.7404   5
  -8   6  11 107.839  19.078   1
  -7  -6  11 22.2026 16.6779   1
   7  -6 -11 44.7252 12.1635   7
  -7   6  11 50.8486 16.1712   1
   7   6 -11 33.6633 19.0175   5
   6  -6 -11 112.749  14.127   7
  -6  -6  11 110.114  20.335   1
   6   6 -11 136.216  22.415   5
  -6   6  11 81.4124 17.2340   1
   5  -6 -11 -4.9781  9.4137   7
  -5  -6  11 28.7959 15.9825   1
  -5   6  11 20.2127 13.5009   1
   5   6 -11 -0.6931 15.7151   5
   4  -6 -11 245.691  24.239   6
  -4  -6  11 271.041  24.334   1
   4  -6 -11 219.631  16.923   7
   4   6 -11 271.138  25.205   5
   3  -6 -11 33.6624 15.7588   6
   3  -6 -11 81.3448 11.0528   7
  -3  -6  11 61.5410 16.5360   1
   3  -6 -11 40.8287 15.4183   4
   3  -6 -11 66.4289 16.1581   2
   2  -6 -11 267.156  22.413   2
   2  -6 -11 237.261  15.982   7
   2  -6 -11 213.805  21.862   6
  -2  -6  11 252.478  23.509   1
   2  -6 -11 252.484  23.074   4
   1  -6 -11 -6.1258  8.4194   7
   1  -6 -11 15.0854 14.8689   6
   1  -6 -11 22.4371 15.0534   2
   0  -6 -11 225.229  22.332   2
   0  -6 -11 215.058  21.985   6
   0  -6 -11 208.956  15.177   7
  -1  -6 -11 40.2716  9.8892   7
  -1  -6 -11 27.0027 16.8680   6
  -1  -6 -11 53.3337 16.8282   2
  -2  -6 -11 352.810  18.137   7
  -2  -6 -11 376.852  27.370   2
  -2  -6 -11 408.515  27.383   6
  -2   6 -11 431.975  24.059   2
  -3  -6 -11 19.9564 16.1728   2
  -3  -6 -11 16.8492  9.5680   7
  -4  -6 -11 61.9239 18.9592   2
  -4  -6 -11 71.9050 11.6104   7
  -5  -6 -11 66.6618 12.7923   7
  -5  -6 -11 46.2860 18.6013   2
  -6  -6 -11 379.310  21.652   7
  -6  -6 -11 349.482  29.981   2
  -7  -6 -11 -3.2613 10.7032   7
  -7  -6 -11  2.9412 18.7876   2
  -8  -6 -11 19.1685 12.0737   7
  -8  -6 -11 10.4876 17.3652   2
   7  -7 -11 75.7935 14.0249   7
  -7  -7  11 73.9340 19.7072   1
  -7   7  11 80.5179 17.8281   1
   7   7 -11 85.2361 22.0634   5
  -6  -7  11 120.523  21.265   1
   6  -7 -11 132.283  15.658   7
   6   7 -11 148.397  23.859   5
  -6   7  11 124.291  18.902   1
  -5  -7  11 149.032  21.148   1
   5  -7 -11 128.733  15.478   7
   5   7 -11 144.534  23.307   5
  -4  -7  11 64.0285 18.2814   1
   4  -7 -11 45.8891 11.5800   7
   4   7 -11 21.5313 18.2229   5
   3  -7 -11 38.7147 11.0582   7
  -3  -7  11 68.8158 17.8854   1
   2  -7 -11 98.5459 19.8693   6
   2  -7 -11 87.4255 13.0300   7
   2  -7 -11 132.010  19.967   2
   1  -7 -11 124.742  14.016   7
   1  -7 -11 125.745  20.657   6
   1  -7 -11 134.497  20.563   2
   0  -7 -11 24.2735 10.4986   7
   0  -7 -11 21.4773 16.5090   6
   0  -7 -11 -6.3256 15.9479   2
  -1  -7 -11  8.1253 16.9413   6
  -1  -7 -11 -17.261  15.552   2
  -1  -7 -11 -15.720   8.543   7
  -2  -7 -11 34.6799 11.0470   7
  -2  -7 -11 56.6557 19.5614   2
  -2  -7 -11 70.8935 20.0327   6
  -3  -7 -11 93.0193 13.4744   7
  -3  -7 -11 116.847  22.006   2
  -4  -7 -11 59.6149 20.0537   2
  -4  -7 -11 72.9430 12.2768   7
  -5  -7 -11 33.3933 20.2582   2
  -5  -7 -11 31.0593 12.4081   7
  -6  -7 -11 25.7219 12.4881   7
  -6  -7 -11 16.0043 18.5711   2
  -7  -7 -11 121.990  16.395   7
  -7  -7 -11 90.0554 22.1504   2
  -5  -8  11 22.9985 16.6177   1
   5  -8 -11 -1.6949 10.5065   7
   5   8 -11 30.1906 19.1378   5
   4  -8 -11 93.6764 14.5401   7
  -4  -8  11 90.6527 20.2305   1
   4   8 -11 97.7588 21.9665   5
   3  -8 -11 -0.0306 10.8364   7
  -3  -8  11  3.4626 16.0861   1
   2  -8 -11  8.2832 10.3984   7
   2  -8 -11 15.6781 15.8053   2
   1  -8 -11 26.0313 18.1202   2
   1  -8 -11 21.3208 11.6651   7
   0  -8 -11 70.1038 13.4435   7
   0  -8 -11 37.4138 17.7936   2
  -1  -8 -11 64.7702 12.6182   7
  -1  -8 -11 23.8738 17.4521   2
  -2  -8 -11 19.0961 20.2725   2
  -2  -8 -11 33.1377 12.5446   7
  -3  -8 -11 -3.3771 18.5794   2
  -3  -8 -11 -3.8749 10.6581   7
  -4  -8 -11 21.0017 11.6567   7
  -4  -8 -11 48.8921 20.7233   2
  -5  -8 -11 50.9325 13.6464   7
  -5  -8 -11 96.4547 22.5775   2
   2  -9 -11 96.1401 16.0051   7
   1  -9 -11 76.9111 21.0304   2
   1  -9 -11 66.9659 14.4992   7
   0  -9 -11 51.1492 20.1286   2
   0  -9 -11 47.9877 13.6533   7
  -1  -9 -11 30.1239 20.0200   2
  -1  -9 -11 -2.1523 11.2128   7
  -2  -9 -11 25.3924 13.0715   7
  -2  -9 -11 11.9219 20.9750   2
 -10   0  12 105.371  20.189   1
  10   0 -12 66.4635 20.5876   3
   9   0 -12 24.7803 16.6111   3
  -9   0  12 26.1346 15.3256   1
   8   0 -12 413.753  26.584   6
   8   0 -12 402.973  29.544   3
  -8   0  12 393.862  26.409   1
   7   0 -12 140.696  18.525   6
   7   0 -12 128.804  19.253   3
  -7   0  12 157.141  19.238   1
  -6   0  12 237.211  20.594   1
   6   0 -12 262.823  21.139   2
   6   0 -12 244.357  19.890   6
   6   0 -12 228.378  21.989   3
   5   0 -12 93.0169 14.9417   6
   5   0 -12 79.7726 15.8799   3
   5   0 -12 105.737  15.594   2
  -5   0  12 72.4360 14.3053   1
   4   0 -12 1070.75   36.27   2
   4   0 -12 1223.74   41.06   3
  -4   0  12 1119.74   35.20   1
   3   0 -12 415.262  24.513   3
   3   0 -12 425.611  22.435   2
   2   0 -12 403.924  22.192   2
   2   0 -12 390.269  23.609   3
   1   0 -12 158.770  17.432   3
   1   0 -12 155.761  16.582   2
   0   0 -12 2568.25   62.30   2
   0   0 -12 2517.17   64.91   3
  -1   0 -12 386.433  22.928   3
  -1   0 -12 372.769  21.850   2
  -2   0 -12 302.607  20.450   2
  -2   0 -12 304.277  21.866   3
  -3   0 -12 137.460  16.723   2
  -4   0 -12 2783.05   67.48   2
  -5   0 -12 43.4593 14.6172   2
  -6   0 -12 103.257  16.824   2
 -10  -1  12 64.4911 18.6821   1
  10  -1 -12 93.5717 20.9501   3
  10   1 -12 57.9341 20.3654   3
 -10   1  12 91.1671 18.8758   1
  -9  -1  12 -18.157  13.891   1
   9  -1 -12 18.4714 16.2455   3
  -9   1  12  9.0446 14.7743   1
   9   1 -12 12.4470 15.5981   3
   8  -1 -12  4.4325 14.7518   6
  -8  -1  12 -11.267  13.300   1
   8  -1 -12 -5.8356 14.3037   3
   8   1 -12 -6.5581 14.1098   3
  -8   1  12 -9.1191 13.1928   1
   7  -1 -12 66.4846 16.3655   3
   7  -1 -12 64.9706 16.2027   6
  -7  -1  12 48.4632 15.0748   1
   7   1 -12 39.0490 13.9727   2
  -7   1  12 51.3201 14.3688   1
   7   1 -12 25.8725 15.1436   3
   6  -1 -12 61.4861 15.1161   6
   6  -1 -12 55.1927 14.8102   2
  -6  -1  12 49.6716 14.5052   1
   6  -1 -12 73.5284 16.0745   3
   6   1 -12 60.7498 15.1654   2
  -6   1  12 66.2386 14.3990   1
   6   1 -12 42.5118 14.2579   3
   5  -1 -12 -8.3224 11.7233   6
  -5  -1  12 -10.554  10.781   1
   5  -1 -12 -8.8295 11.4112   3
   5  -1 -12 11.0508 11.1837   2
  -5   1  12  2.1610 11.1352   1
   5   1 -12 -22.787  10.691   3
   5   1 -12 13.2799 12.0587   2
   4  -1 -12  0.1556 11.5278   3
   4  -1 -12 11.0725 11.3629   2
   4  -1 -12 -7.3701 10.1030   6
  -4  -1  12 19.1155 10.8794   1
   4   1 -12 -3.8129 11.5752   2
  -4   1  12 -7.5873  9.7090   1
   4   1 -12 10.1185 11.9253   3
   3  -1 -12 118.453  13.840   4
   3  -1 -12 106.013  13.838   6
   3  -1 -12 104.309  15.077   2
   3  -1 -12 107.087  16.290   3
  -3  -1  12 92.3990 12.9721   1
   3   1 -12 88.7920 15.1019   3
   3   1 -12 111.516  15.256   2
   2  -1 -12 12.7922  9.7587   4
   2  -1 -12 23.2175 11.9073   3
   2  -1 -12 26.9747 11.8345   2
   2   1 -12  7.8282 11.3179   3
   2   1 -12 21.5170 11.8917   2
   1  -1 -12  9.6917 11.5756   2
   1  -1 -12 -3.9054 10.3348   3
   1   1 -12 -10.510  10.220   2
   1   1 -12 13.3994 11.2496   3
   0  -1 -12 25.2694 11.0241   2
   0  -1 -12 10.6538 11.1882   3
   0   1 -12 17.7096 11.4666   2
   0   1 -12 14.4684 11.4510   3
  -1  -1 -12 13.1709 11.0925   3
  -1  -1 -12 44.9687 13.1386   2
  -1   1 -12 34.9523 12.1355   3
  -1   1 -12 30.2073 12.0821   2
  -2  -1 -12  6.6989 10.8426   3
  -2  -1 -12 -7.4036 11.1175   2
  -2   1 -12 -11.068  10.352   2
  -3  -1 -12 54.7678 13.4999   2
  -3   1 -12 27.1767 12.0721   2
  -4  -1 -12 35.7059 14.3661   2
  -4   1 -12 57.3890 13.6793   2
  -5  -1 -12  1.4344 13.5488   2
  -5   1 -12 -13.210  11.926   2
  -6  -1 -12 14.5348 13.4689   2
  -9  -2  12 92.7651 19.4735   1
   9  -2 -12 115.034  20.774   3
  -9   2  12 95.0532 18.3713   1
   9   2 -12 118.974  21.896   3
   8  -2 -12 817.402  37.721   3
  -8  -2  12 745.531  35.632   1
  -8   2  12 756.038  34.380   1
   8   2 -12 820.920  38.810   3
  -7  -2  12 32.8707 14.7826   1
   7  -2 -12 42.4262 15.2107   6
   7  -2 -12 36.0288 15.0976   3
   7   2 -12 31.3674 15.2285   2
  -7   2  12 47.2826 14.4947   1
   7   2 -12 50.1119 15.4828   3
  -6  -2  12 83.0033 15.8225   1
   6  -2 -12 77.2830 17.6328   6
   6  -2 -12 81.6914 16.8781   3
   6   2 -12 84.7289 16.9162   2
  -6   2  12 80.3420 14.9538   1
   6   2 -12 74.7687 16.1432   3
   5  -2 -12 128.675  17.333   3
  -5  -2  12 120.731  15.591   1
   5  -2 -12 108.293  16.153   2
   5  -2 -12 111.927  16.300   6
  -5   2  12 92.1827 14.4998   1
   5   2 -12 101.745  16.254   2
   5   2 -12 80.3293 16.5354   3
   4  -2 -12 1280.45   43.47   3
   4  -2 -12 1313.25   40.41   6
   4  -2 -12 1336.07   40.04   4
   4  -2 -12 1352.67   40.19   2
  -4  -2  12 1358.92   40.28   1
   4   2 -12 1299.16   41.19   2
   4   2 -12 1294.10   43.76   3
   3  -2 -12 18.0563 12.0323   2
   3  -2 -12 -11.450  10.054   4
  -3  -2  12 22.7554 11.1832   1
   3  -2 -12  7.5883 11.7486   6
   3  -2 -12  3.7793 11.5913   3
   3   2 -12 28.7379 12.7096   2
   3   2 -12 -6.6144 11.1642   3
   2  -2 -12 59.0546 13.6621   2
   2  -2 -12 64.9676 12.8831   6
   2  -2 -12 53.3091 11.7154   4
   2  -2 -12 30.7122 12.5848   3
   2   2 -12 52.1283 13.4653   3
   2   2 -12 50.0737 13.0348   2
   1  -2 -12 36.2714 12.2717   3
   1  -2 -12 49.3133 11.1618   4
   1  -2 -12 40.8500 13.2078   2
   1  -2 -12 31.1590 11.9343   6
   1   2 -12 37.7811 12.9526   3
   1   2 -12 49.4830 12.7978   2
   0  -2 -12 1318.06   38.10   6
   0  -2 -12 1309.04   41.84   3
   0  -2 -12 1305.34   40.63   2
   0   2 -12 1326.85   40.04   2
   0   2 -12 1321.46   42.47   3
  -1  -2 -12 -5.1249 10.2493   2
  -1  -2 -12 -6.2407  9.8566   3
  -1   2 -12 14.2441 11.3264   3
  -1   2 -12  1.5820 10.8518   2
  -2  -2 -12 59.5785 13.6771   3
  -2  -2 -12 38.5617 13.3381   2
  -2   2 -12 39.0968 12.2280   2
  -3  -2 -12  0.7021 12.9155   2
  -3   2 -12 -10.498  10.705   2
  -4  -2 -12 768.264  32.100   2
  -4   2 -12 820.304  30.937   2
  -5  -2 -12 -17.816  13.721   2
  -5   2 -12  3.9659 12.6546   2
  -6  -2 -12 61.3488 15.9952   2
  -7  -2 -12 -4.6612 15.2584   2
  -9  -3  12 58.2339 18.2666   1
   9  -3 -12 55.9419 18.0819   3
   9   3 -12 77.8044 20.0744   3
  -9   3  12 79.2628 18.0101   1
  -8  -3  12  7.1521 14.8211   1
   8  -3 -12 14.5588 15.1810   3
  -8   3  12  9.7319 13.7124   1
   8   3 -12 18.9395 15.7151   3
   7  -3 -12 65.4571 18.5040   6
   7  -3 -12 83.5181 17.4380   3
  -7  -3  12 83.9480 17.0576   1
   7   3 -12 91.2147 18.4385   3
  -7   3  12 89.3331 16.7954   1
   6  -3 -12 297.527  23.488   4
   6  -3 -12 287.401  23.908   6
   6  -3 -12 289.463  24.463   3
  -6  -3  12 330.105  24.513   1
   6   3 -12 258.993  23.151   2
   6   3 -12 299.894  25.071   3
  -6   3  12 346.214  23.108   1
   5  -3 -12 283.194  20.647   2
   5  -3 -12 263.724  22.213   3
   5  -3 -12 218.590  20.039   4
   5  -3 -12 233.049  21.171   6
  -5  -3  12 239.466  21.528   1
  -5   3  12 243.415  20.068   1
   5   3 -12 210.168  20.979   3
   5   3 -12 248.865  21.687   2
  -4  -3  12 18.3245 12.1909   1
   4  -3 -12 29.5122 13.4631   4
   4  -3 -12 27.4741 14.2171   6
   4  -3 -12 26.5811 13.2262   2
   4  -3 -12 12.6727 12.4931   3
   4   3 -12 27.1722 13.3748   2
   4   3 -12 15.0814 12.6928   3
   3  -3 -12 143.497  17.247   6
   3  -3 -12 167.155  17.869   4
   3  -3 -12 143.817  17.867   3
  -3  -3  12 120.417  15.134   1
   3  -3 -12 157.703  17.278   2
   3   3 -12 140.673  17.910   3
   3   3 -12 138.598  17.114   2
   2  -3 -12 212.374  19.723   3
   2  -3 -12 183.475  17.641   6
   2  -3 -12 211.718  17.990   4
   2  -3 -12 204.434  19.091   2
  -2  -3  12 195.280  17.239   1
   2   3 -12 189.021  18.536   2
   2   3 -12 182.049  19.438   3
   1  -3 -12 521.490  26.199   2
   1  -3 -12 523.861  26.064   3
   1  -3 -12 562.802  24.392   6
   1  -3 -12 564.641  23.694   4
   1   3 -12 506.241  25.116   2
   1   3 -12 481.371  26.510   3
   0  -3 -12 11.5540 11.4641   4
   0  -3 -12  8.7302 12.1994   6
   0  -3 -12 26.6821 12.1501   3
   0  -3 -12  7.6683 12.1584   2
   0   3 -12 15.9425 12.1047   3
   0   3 -12 28.9403 12.6627   2
  -1  -3 -12 134.453  16.108   3
  -1  -3 -12 97.1530 16.0262   2
  -1  -3 -12 107.214  15.593   6
  -1   3 -12 108.212  14.905   2
  -1   3 -12 94.8778 15.5805   3
  -2  -3 -12 86.2240 15.2873   6
  -2  -3 -12 19.1522 12.1653   3
  -2  -3 -12 40.4097 14.5799   2
  -2   3 -12 60.5070 13.8681   2
  -3  -3 -12 590.180  29.239   2
  -3   3 -12 667.027  27.580   2
  -4  -3 -12 16.2631 13.9834   2
  -4   3 -12  3.6113 11.1689   2
  -5  -3 -12 -3.6781 14.7184   2
  -6  -3 -12 10.9922 14.5604   2
  -7  -3 -12 362.823  27.541   2
   9  -4 -12 46.6992 12.0026   7
  -9  -4  12 31.0321 17.0637   1
   9  -4 -12 70.5985 18.5498   3
  -9   4  12 70.8068 17.5181   1
   8  -4 -12 93.6529 12.8324   7
   8  -4 -12 75.1620 18.4026   3
  -8  -4  12 100.126  19.725   1
  -8   4  12 96.8342 17.8840   1
   8   4 -12 122.424  20.923   3
  -7  -4  12 54.0413 16.8638   1
   7  -4 -12 71.9737 16.9724   3
   7  -4 -12 62.8380 10.5818   7
  -7   4  12 82.1376 16.8090   1
   7   4 -12 77.4378 18.5039   3
   6  -4 -12 90.2279 17.3959   3
   6  -4 -12 115.990  10.977   7
   6  -4 -12 119.263  19.118   6
  -6  -4  12 105.492  18.862   1
   6   4 -12 97.5523 18.3800   3
  -6   4  12 118.130  16.841   1
  -5  -4  12 63.2483 16.1076   1
   5  -4 -12 94.4921 16.5949   3
   5  -4 -12 83.6167 17.4570   4
   5  -4 -12 80.4724 17.4995   6
   5   4 -12 92.1211 17.3439   2
   5   4 -12 99.8258 17.5061   3
   4  -4 -12 133.910  17.610   4
   4  -4 -12 123.406  17.260   2
   4  -4 -12 132.337  18.981   6
  -4  -4  12 144.318  18.417   1
   4  -4 -12 156.270  18.921   3
   4   4 -12 119.925  18.131   2
   4   4 -12 146.031  19.118   3
   3  -4 -12 88.2512 15.7121   3
   3  -4 -12 94.1475 17.2420   6
   3  -4 -12 85.5382 15.7231   4
  -3  -4  12 95.5404 15.6945   1
   3  -4 -12 115.476  16.675   2
   3   4 -12 119.996  17.805   3
   3   4 -12 116.321  17.060   2
  -2  -4  12 117.065  15.579   1
   2  -4 -12 62.3307 15.0023   2
   2  -4 -12 114.764  17.757   6
   2  -4 -12 104.177  15.871   4
   2  -4 -12 94.5059 15.4737   3
   2   4 -12 101.790  17.152   3
   2   4 -12 95.1303 16.5186   2
   1  -4 -12 59.3767 14.2263   6
   1  -4 -12 39.6078 15.0883   2
   1  -4 -12 31.5991 12.7165   4
   1  -4 -12 52.9049 13.6768   3
   1   4 -12 49.6942 13.8933   2
   1   4 -12 67.5947 14.7366   3
   0  -4 -12 99.6482 14.9613   3
   0  -4 -12 95.3185 16.4954   2
   0  -4 -12 83.1970 15.8176   6
   0   4 -12 70.4306 14.3337   2
   0   4 -12 111.438  16.401   3
  -1  -4 -12 98.6085 15.0765   3
  -1  -4 -12 100.034  16.155   6
  -1  -4 -12 100.064  17.111   2
  -1   4 -12 71.1989 14.0867   2
  -2  -4 -12 105.437  16.716   6
  -2  -4 -12 82.5494 16.8032   2
  -2   4 -12 79.6006 15.4926   2
  -3  -4 -12 18.2601 14.6164   2
  -3   4 -12 30.0384 12.5179   2
  -4  -4 -12 39.8846 17.4429   2
  -5  -4 -12 21.6282 16.7197   2
  -6  -4 -12 82.0016 20.6080   2
  -7  -4 -12 13.8395 18.1618   2
  -8  -4 -12 28.1222 18.8198   2
   8  -5 -12 16.2007 10.8934   7
  -8  -5  12  9.4574 16.4811   1
   8  -5 -12  9.6806 15.0568   3
  -8   5  12 -10.294  14.225   1
   7  -5 -12 6.65846 9.78484   7
  -7  -5  12  4.9458 15.3582   1
   7  -5 -12  3.1450 14.4829   3
  -7   5  12 -4.4115 13.4977   1
   7   5 -12  4.5168 16.4618   5
   6  -5 -12 325.525  25.520   3
   6  -5 -12 342.016  18.242   7
  -6  -5  12 321.943  27.051   1
  -6   5  12 310.647  24.952   1
   6   5 -12 326.388  27.944   5
   5  -5 -12 268.719  24.778   6
   5  -5 -12 268.792  23.319   3
  -5  -5  12 265.870  24.722   1
   5  -5 -12 254.539  15.498   7
   4  -5 -12 -10.285   7.425   7
   4  -5 -12  0.6532 13.3185   2
  -4  -5  12 -10.318  12.429   1
   4  -5 -12 -4.2475 13.0820   3
   4  -5 -12 -0.3363 13.6448   6
   4  -5 -12  7.0983 14.3776   4
   4   5 -12 -4.4364 13.5602   3
   3  -5 -12 18.6113 14.2946   4
  -3  -5  12 -18.903  12.105   1
   3  -5 -12 24.0164 13.9731   2
   3  -5 -12 -2.5262  7.1274   7
   3  -5 -12 13.5337 12.5678   3
   3  -5 -12 -5.9448 14.8754   6
   3   5 -12 -1.0104 13.3929   3
   3   5 -12 17.2143 14.4770   2
   2  -5 -12 443.532  25.169   4
   2  -5 -12 455.861  27.328   6
  -2  -5  12 457.244  27.181   1
   2  -5 -12 439.881  15.907   7
   2  -5 -12 415.829  26.510   2
   2   5 -12 457.294  26.928   3
   2   5 -12 381.864  24.901   2
  -1  -5  12 677.856  30.838   1
   1  -5 -12 696.285  32.578   6
   1  -5 -12 669.712  19.336   7
   1  -5 -12 722.213  31.506   2
   1   5 -12 694.102  30.468   2
   1   5 -12 699.772  31.335   3
   0  -5 -12  4.8884 13.3721   6
   0  -5 -12 9.10754 6.08141   7
   0  -5 -12  2.3573 13.4431   2
   0   5 -12  6.1460 12.3613   2
   0   5 -12 -0.7776 12.6601   3
  -1  -5 -12 24.2135  6.7882   7
  -1  -5 -12  2.0935 14.7267   6
  -1  -5 -12 -1.4911 14.3995   2
  -1   5 -12 33.6170 13.5490   2
  -2  -5 -12 197.475  21.132   6
  -2  -5 -12 229.629  24.177   2
  -2  -5 -12 205.402  11.784   7
  -2   5 -12 224.780  19.906   2
  -3  -5 -12 691.467  34.413   2
  -3  -5 -12 725.280  21.027   7
  -3   5 -12 738.130  29.736   2
  -4  -5 -12 -5.4353 15.3646   2
  -4  -5 -12 -5.9062  6.9641   7
  -5  -5 -12 21.6257  8.6316   7
  -5  -5 -12 11.5353 17.2045   2
  -6  -5 -12  7.9382 17.4811   2
  -6  -5 -12 19.8643  8.8730   7
  -7  -5 -12 412.309  19.538   7
  -7  -5 -12 405.787  30.348   2
  -8  -5 -12 -7.0465 18.0273   2
  -8  -5 -12 -0.8255  9.9793   7
  -7  -6  12 224.905  25.763   1
   7  -6 -12 209.569  17.101   7
  -7   6  12 221.653  22.920   1
   7   6 -12 190.125  25.736   5
   6  -6 -12 80.7449 12.6770   7
  -6  -6  12 56.6295 18.6273   1
   6   6 -12 50.1004 19.1522   5
   5  -6 -12 8.47489 9.28620   7
  -5  -6  12  4.2048 15.0832   1
  -4  -6  12 213.295  22.725   1
   4  -6 -12 222.344  15.679   7
   3  -6 -12 213.649  21.148   2
  -3  -6  12 209.158  22.636   1
   3  -6 -12 171.809  22.145   6
   3  -6 -12 165.277  13.590   7
   2  -6 -12 168.351  12.825   7
   2  -6 -12 182.998  20.730   2
   2  -6 -12 158.511  20.838   6
  -2  -6  12 178.335  21.358   1
   2  -6 -12 168.483  21.301   4
   1  -6 -12 50.7192 16.4107   6
   1  -6 -12 81.9498 10.1185   7
   1  -6 -12 53.3382 16.5115   2
   0  -6 -12 65.3521 17.7586   6
   0  -6 -12 67.8511 10.2639   7
   0  -6 -12 85.9990 18.5292   2
   0   6 -12 88.5834 17.0222   2
  -1  -6 -12 152.621  12.763   7
  -1  -6 -12 160.276  22.013   2
  -1  -6 -12 149.964  20.173   6
  -1   6 -12 126.053  18.975   2
  -2  -6 -12 148.865  21.537   6
  -2  -6 -12 189.836  23.487   2
  -2  -6 -12 181.347  13.498   7
  -2   6 -12 194.586  20.110   2
  -3  -6 -12 107.280  11.388   7
  -3  -6 -12 116.767  21.516   2
  -4  -6 -12 -3.4374 17.0432   2
  -4  -6 -12 3.56234 8.78060   7
  -5  -6 -12 144.716  24.054   2
  -5  -6 -12 177.611  14.689   7
  -6  -6 -12 65.3151 12.0733   7
  -6  -6 -12 78.2742 21.7883   2
  -7  -6 -12 10.6386 19.6079   2
  -7  -6 -12 65.8799 12.4149   7
   6  -7 -12 137.093  15.404   7
  -6  -7  12 168.393  23.544   1
   6   7 -12 161.465  24.789   5
  -5  -7  12 -11.507  15.227   1
   5  -7 -12 22.3449 11.3723   7
  -4  -7  12 30.1350 17.1343   1
   4  -7 -12 48.0362 11.7078   7
   3  -7 -12 -7.0080  8.9122   7
  -3  -7  12 17.3815 16.3390   1
   2  -7 -12 61.1934 17.1990   2
  -2  -7  12 95.9049 19.4528   1
   2  -7 -12 64.7803 11.6981   7
   1  -7 -12 50.7801 10.8184   7
   1  -7 -12 64.9708 18.5215   2
   0  -7 -12 26.1794 18.3038   2
   0  -7 -12 37.3346 10.9340   7
  -1  -7 -12 17.9173 10.0462   7
  -1  -7 -12 35.4706 17.9012   2
  -2  -7 -12 28.2930 10.3132   7
  -2  -7 -12 42.5950 18.9669   2
  -3  -7 -12 79.6345 21.0660   2
  -3  -7 -12 110.535  13.444   7
  -4  -7 -12 12.4598 10.3473   7
  -4  -7 -12 28.3734 18.2633   2
  -5  -7 -12 98.8850 22.0332   2
  -5  -7 -12 73.9440 13.0037   7
  -6  -7 -12 23.9173 19.7549   2
  -6  -7 -12  5.7600 10.9888   7
   4  -8 -12 175.211  16.882   7
  -4  -8  12 266.285  27.269   1
   3  -8 -12 425.479  22.594   7
  -3  -8  12 485.758  32.939   1
   2  -8 -12 -6.4987 10.2164   7
   2  -8 -12 -8.3146 16.1303   2
   1  -8 -12 12.1190 16.5402   2
   1  -8 -12  0.5402 10.7383   7
   0  -8 -12 398.051  22.354   7
   0  -8 -12 423.329  30.170   2
  -1  -8 -12 389.053  31.592   2
  -1  -8 -12 392.602  21.962   7
  -2  -8 -12 16.2278 19.2587   2
  -2  -8 -12 -3.1303 10.2718   7
  -3  -8 -12 24.0880 11.6301   7
  -3  -8 -12 -0.7095 18.3750   2
  -4  -8 -12 410.452  34.028   2
  -4  -8 -12 387.810  22.837   7
  -9   0  13 -22.271  13.222   1
   9   0 -13  7.4468 16.1500   3
  -8   0  13 -3.1940 14.0873   1
   8   0 -13 -0.9193 14.5446   3
   7   0 -13  7.7630 14.1898   3
  -7   0  13 -1.7491 12.8982   1
  -6   0  13 -5.8554 12.0435   1
   6   0 -13  5.5903 13.2961   2
   6   0 -13  4.0858 12.7812   3
   5   0 -13 -8.7075 12.0046   2
   5   0 -13 -0.6117 12.5676   3
  -5   0  13 28.3131 12.8023   1
   4   0 -13 -12.542  11.734   3
   4   0 -13  4.5556 11.7236   2
   3   0 -13 -6.3795 11.9818   2
   3   0 -13 -12.189  11.231   3
   2   0 -13 -9.4230 11.1373   3
   2   0 -13  2.4212 12.1779   2
   1   0 -13  0.2415 11.7887   3
   1   0 -13 -3.3857 11.7525   2
   0   0 -13 24.6966 12.0043   2
   0   0 -13 18.0309 12.2861   3
  -1   0 -13 -5.5465 11.7346   2
  -1   0 -13  4.5625 11.4303   3
  -2   0 -13 -11.117  11.743   2
  -2   0 -13 -4.5690 11.0619   3
  -3   0 -13 -1.7495 12.3652   2
  -4   0 -13 -15.459  12.008   2
  -5   0 -13  3.4104 13.7616   2
  -6   0 -13  5.8911 14.5015   2
  -9  -1  13 31.9797 16.0610   1
   9  -1 -13 26.4682 17.0439   3
   9   1 -13 34.6289 18.2249   3
  -9   1  13 19.0912 15.1755   1
   8  -1 -13 79.7182 19.1619   3
  -8  -1  13 80.8697 17.5548   1
  -8   1  13 54.3438 16.7063   1
   8   1 -13 79.9449 18.8534   3
  -7  -1  13 -9.5710 12.9648   1
   7  -1 -13 10.6624 14.3206   6
   7  -1 -13 -5.4613 13.4223   3
   7   1 -13 -14.972  12.626   2
   7   1 -13  3.0555 14.1803   3
  -7   1  13  5.3567 13.4701   1
   6  -1 -13 80.2727 16.3121   2
   6  -1 -13 112.707  17.631   6
  -6  -1  13 78.2596 15.6741   1
   6  -1 -13 102.527  17.386   3
   6   1 -13 71.3256 16.2770   3
  -6   1  13 93.5744 15.8929   1
   6   1 -13 110.853  17.190   2
  -5  -1  13 80.5488 15.0339   1
   5  -1 -13 57.8928 14.7474   2
   5  -1 -13 67.9065 15.8199   3
   5   1 -13 50.0414 14.7373   2
   5   1 -13 79.9684 17.1798   3
   4  -1 -13 31.3339 14.0004   3
   4  -1 -13 33.0751 13.3039   2
   4   1 -13 26.6683 13.6619   3
   4   1 -13 37.0514 14.6190   2
   3  -1 -13 32.8189 13.0635   2
   3  -1 -13 -12.250  11.458   3
   3   1 -13 -1.9239 11.8383   2
   3   1 -13 -9.1778 11.4409   3
   2  -1 -13 119.886  16.548   2
   2  -1 -13 116.005  17.213   3
   2   1 -13 84.8333 15.8387   2
   2   1 -13 113.938  16.995   3
   1  -1 -13 252.652  21.344   2
   1  -1 -13 243.840  21.313   3
   1   1 -13 276.975  22.884   3
   1   1 -13 307.520  21.252   2
   0  -1 -13  3.2367 11.6614   3
   0  -1 -13 17.3206 12.9208   2
   0   1 -13 18.1051 12.4419   3
   0   1 -13 11.7872 12.3298   2
  -1  -1 -13  7.0425 11.2832   3
  -1  -1 -13 -3.2728 12.0052   2
  -1   1 -13  2.0808 11.7393   3
  -1   1 -13  9.4089 12.1180   2
  -2  -1 -13 171.560  18.934   2
  -2  -1 -13 148.527  18.149   3
  -2   1 -13 165.982  18.063   2
  -3  -1 -13 574.891  28.745   2
  -3   1 -13 626.786  27.913   2
  -4  -1 -13 16.0734 13.8105   2
  -4   1 -13 45.8388 13.8075   2
  -5  -1 -13  3.5146 13.1508   2
  -5   1 -13 -13.877  12.597   2
  -6  -1 -13 275.108  23.843   2
  -9  -2  13 94.0084 19.4157   1
   9  -2 -13 65.0675 19.6871   3
   9   2 -13 34.6663 18.1157   3
  -9   2  13 64.4592 17.3349   1
   8  -2 -13 280.798  27.194   3
  -8  -2  13 245.983  24.809   1
   8   2 -13 220.400  24.433   3
  -8   2  13 262.063  24.094   1
  -7  -2  13 26.0063 15.1249   1
   7  -2 -13  2.5742 13.7480   3
   7  -2 -13 67.8319 17.9436   6
  -7   2  13 30.7648 14.1793   1
   7   2 -13 47.2602 16.5573   3
   7   2 -13  0.6619 13.3128   2
  -6  -2  13 -16.199  12.269   1
   6  -2 -13 -26.552  11.685   6
   6  -2 -13 17.3064 13.8402   3
   6   2 -13  9.8638 14.2115   3
  -6   2  13 -7.1343 12.3282   1
   6   2 -13 11.8160 14.6343   2
   5  -2 -13 104.989  16.327   6
   5  -2 -13 101.152  15.658   4
  -5  -2  13 86.9036 15.4228   1
   5  -2 -13 94.5416 15.6958   2
   5  -2 -13 87.0880 16.3657   3
   5   2 -13 103.702  17.451   3
   5   2 -13 80.5008 16.3454   2
  -4  -2  13 424.016  23.183   1
   4  -2 -13 451.840  24.426   2
   4  -2 -13 419.282  26.882   3
   4  -2 -13 428.682  23.126   4
   4  -2 -13 482.929  25.232   6
   4   2 -13 410.229  26.687   3
   4   2 -13 419.324  24.877   2
   3  -2 -13 128.888  16.486   6
   3  -2 -13 136.774  18.019   3
   3  -2 -13 92.0357 15.9522   2
   3  -2 -13 135.618  16.005   4
   3   2 -13 108.127  17.185   3
   3   2 -13 127.524  17.120   2
   2  -2 -13 58.3670 14.4787   3
   2  -2 -13 70.6176 15.4777   2
   2  -2 -13 45.8941 12.8364   4
   2   2 -13 51.7628 14.1772   2
   2   2 -13 43.3935 14.6314   3
   1  -2 -13 103.287  16.491   2
   1  -2 -13 120.305  17.125   3
   1   2 -13 123.231  17.242   3
   1   2 -13 125.529  16.936   2
   0  -2 -13 595.109  28.767   2
   0  -2 -13 576.299  27.984   3
   0   2 -13 512.530  27.690   3
   0   2 -13 622.025  27.283   2
  -1  -2 -13 133.192  17.093   3
  -1  -2 -13 142.433  18.089   2
  -1   2 -13 136.435  17.867   3
  -1   2 -13 151.080  17.807   2
  -2  -2 -13 85.6058 15.8596   3
  -2  -2 -13 126.890  17.784   2
  -2   2 -13 107.973  15.713   2
  -3  -2 -13 141.048  18.816   2
  -3   2 -13 115.749  16.735   2
  -4  -2 -13 411.930  25.810   2
  -4   2 -13 399.402  23.019   2
  -5  -2 -13 98.5790 17.4890   2
  -5   2 -13 69.5967 15.8306   2
  -6  -2 -13 64.2351 17.3032   2
  -7  -2 -13 73.1238 18.3000   2
   8  -3 -13 89.1394 19.4357   3
  -8  -3  13 113.117  20.258   1
  -8   3  13 89.2295 17.5845   1
   8   3 -13 80.0206 19.5961   3
   7  -3 -13 21.1763 15.2829   3
  -7  -3  13 25.1983 15.2608   1
   7   3 -13 33.4173 16.5048   3
  -7   3  13 12.2136 13.6514   1
   6  -3 -13 -2.5588 13.5760   6
  -6  -3  13 -4.0424 12.6762   1
   6  -3 -13 10.8504 13.3480   3
   6   3 -13 15.3984 14.3129   2
   6   3 -13 14.2967 14.9667   3
   5  -3 -13 70.8218 16.9891   4
  -5  -3  13 109.309  16.832   1
   5  -3 -13 98.9735 17.0039   6
   5  -3 -13 79.4733 15.5332   2
   5  -3 -13 88.6620 17.1008   3
   5   3 -13 57.5058 16.4208   3
   5   3 -13 63.3355 16.6505   2
   4  -3 -13 50.8808 14.4281   2
   4  -3 -13 40.1152 14.3778   4
  -4  -3  13 64.2521 14.9345   1
   4  -3 -13 55.4063 15.7017   6
   4  -3 -13 47.8902 15.3572   3
   4   3 -13 57.0733 15.5237   3
   4   3 -13 37.3583 14.9998   2
   3  -3 -13 165.302  19.685   3
   3  -3 -13 147.903  17.798   4
   3  -3 -13 142.729  17.960   2
   3  -3 -13 136.014  17.890   6
   3   3 -13 123.199  17.435   2
   3   3 -13 127.903  17.849   3
   2  -3 -13 38.8971 13.6608   6
   2  -3 -13  4.0258 12.2590   3
   2  -3 -13 33.0045 13.9435   2
   2  -3 -13 34.6404 12.5434   4
   2   3 -13 41.1117 13.8319   2
   2   3 -13 48.9113 15.1234   3
   1  -3 -13 68.6778 14.9034   6
   1  -3 -13 85.4999 15.8295   2
   1  -3 -13 88.0107 15.9373   3
   1  -3 -13 90.6242 14.1716   4
   1   3 -13 67.9008 15.0723   2
   1   3 -13 80.4149 15.7180   3
   0  -3 -13 -24.095  12.384   2
   0  -3 -13  9.9573 12.2799   6
   0  -3 -13  5.0514 11.5958   3
   0   3 -13 -0.1011 11.6930   3
   0   3 -13  1.0025 12.0946   2
  -1  -3 -13 112.539  17.502   2
  -1  -3 -13 142.012  16.979   3
  -1   3 -13 112.878  17.395   3
  -1   3 -13 105.551  16.109   2
  -2  -3 -13 36.8705 15.0806   2
  -2   3 -13 40.0302 13.9965   2
  -3  -3 -13 31.1596 14.9895   2
  -3   3 -13 12.1404 12.4750   2
  -4  -3 -13 31.5331 15.6920   2
  -4   3 -13 49.6798 14.5647   2
  -5  -3 -13 44.1853 16.0571   2
  -6  -3 -13 25.3731 16.8236   2
  -7  -3 -13 23.5981 17.5673   2
  -8  -4  13 425.190  29.444   1
   8  -4 -13 441.425  30.701   3
  -8   4  13 424.692  28.706   1
   8   4 -13 385.990  32.224   3
   7  -4 -13 34.0209 16.0694   3
  -7  -4  13 46.1620 16.4687   1
   7   4 -13 29.8021 16.7097   3
  -7   4  13 46.7764 16.0629   1
  -6  -4  13 434.443  29.081   1
   6  -4 -13 445.803  28.681   3
  -5  -4  13 197.682  21.632   1
   5  -4 -13 167.408  20.804   3
   5  -4 -13 193.017  22.081   6
   5   4 -13 209.595  22.222   2
   5   4 -13 194.220  22.284   3
  -4  -4  13 481.934  27.514   1
   4  -4 -13 484.128  28.293   3
   4  -4 -13 471.503  27.052   4
   4  -4 -13 470.318  26.814   2
   4  -4 -13 426.711  26.492   6
   4   4 -13 457.120  27.199   2
   4   4 -13 430.035  27.739   3
   3  -4 -13 -23.941  12.428   4
   3  -4 -13  9.6592 13.1521   3
   3  -4 -13 -8.8602 13.6357   2
  -3  -4  13 -15.747  12.022   1
   3  -4 -13  8.0028 13.3499   6
   3   4 -13 -22.817  12.326   3
   3   4 -13 -24.508  12.271   2
   2  -4 -13 268.437  22.297   2
   2  -4 -13 310.025  23.125   3
   2  -4 -13 330.776  22.920   4
   2  -4 -13 277.260  22.428   6
   2   4 -13 280.777  23.769   3
   2   4 -13 290.782  23.418   2
   1  -4 -13 81.0450 16.0219   3
   1  -4 -13 96.1472 17.0789   2
   1  -4 -13 71.3440 14.9950   4
   1  -4 -13 71.1101 16.3709   6
   1   4 -13 63.0447 16.0989   3
   1   4 -13 90.8810 16.3853   2
   0  -4 -13 509.206  28.527   2
   0  -4 -13 497.689  27.253   6
   0  -4 -13 547.609  27.400   3
   0   4 -13 508.748  28.127   3
   0   4 -13 573.990  26.834   2
  -1  -4 -13 -9.7033 13.4642   2
  -1  -4 -13 12.9305 14.3022   6
  -1  -4 -13  5.9726 11.8491   3
  -1   4 -13  6.5881 11.9912   2
  -2  -4 -13 44.7402 16.1539   2
  -2   4 -13 25.6042 13.2533   2
  -3  -4 -13 23.6444 15.4690   2
  -3   4 -13 19.6837 13.7095   2
  -4  -4 -13 467.772  29.055   2
  -5  -4 -13 79.9816 20.3351   2
  -6  -4 -13 -29.837  15.286   2
  -7  -4 -13 -4.0765 16.4588   2
  -8  -4 -13 343.513  30.194   2
  -7  -5  13  1.8684 15.2594   1
   7  -5 -13 -13.352  13.790   3
   6  -5 -13 55.1002 16.7383   3
  -6  -5  13 64.0121 18.1296   1
   5  -5 -13 16.4401 14.5338   3
  -5  -5  13 20.0333 15.5247   1
   4  -5 -13 38.1714 16.3819   6
   4  -5 -13 22.9008 14.3198   3
  -4  -5  13 15.3456 15.2625   1
   4  -5 -13 30.3255 16.0817   2
   4   5 -13 16.5400 15.6067   3
  -3  -5  13  1.9620 13.6738   1
   3  -5 -13 25.6919 15.0352   4
   3  -5 -13  0.5667 12.9885   2
   3  -5 -13 -3.4004 15.4764   6
   3   5 -13  9.9153 14.3136   2
   3   5 -13 15.8841 14.3224   3
   2  -5 -13 123.181  19.064   2
   2  -5 -13 103.397  17.923   4
   2  -5 -13 91.1673 18.3410   6
   2   5 -13 113.035  18.131   2
   2   5 -13 88.6429 17.3678   3
   1  -5 -13 13.0940 15.5570   6
   1  -5 -13 27.2136 15.7232   2
   1   5 -13 10.5703 13.4340   2
   1   5 -13 -5.6102 12.8424   3
   0  -5 -13  3.2183 13.9142   2
   0  -5 -13 -2.9517 14.3067   6
   0   5 -13  4.1459 13.0144   2
  -1  -5 -13  1.5245 15.3202   6
  -1  -5 -13 -7.3506 13.8642   2
  -1   5 -13  6.6915 13.1251   2
  -2  -5 -13 105.514  19.865   6
  -2  -5 -13 79.9400 18.7023   2
  -2   5 -13 112.227  16.835   2
  -3  -5 -13  0.8321 15.9348   2
  -3   5 -13  5.5963 13.0592   2
  -4  -5 -13 51.4948 18.0550   2
  -5  -5 -13  1.5201 17.2990   2
  -6  -5 -13 39.9780 20.7257   2
  -7  -5 -13 22.5165 19.9476   2
  -6  -6  13 202.833  24.406   1
  -5  -6  13  5.8243 15.7558   1
  -4  -6  13 410.763  29.103   1
  -3  -6  13 60.5104 17.0427   1
   3  -6 -13 60.3401 17.0099   2
   2  -6 -13 214.772  23.266   2
  -2  -6  13 208.645  22.927   1
   1  -6 -13  1.4635 14.6299   2
   1  -6 -13 22.9511 16.3573   6
   0  -6 -13 509.116  30.312   2
   0  -6 -13 572.056  32.898   6
   0   6 -13 621.269  31.786   2
  -1  -6 -13 70.1976 19.1762   2
  -1  -6 -13 75.1013 19.1065   6
  -1   6 -13 79.2522 17.6831   2
  -2  -6 -13 129.359  21.434   6
  -2  -6 -13 112.120  21.700   2
  -2   6 -13 153.117  19.312   2
  -3  -6 -13 -6.4565 16.9017   2
  -5  -6 -13 84.9613 22.3302   2
  -6  -6 -13 73.0868 20.4368   2
   5  -7 -13 99.5373 13.1529   7
  -5  -7  13 126.914  21.818   1
  -4  -7  13 36.8607 18.1533   1
   4  -7 -13 40.3582 10.7240   7
   3  -7 -13 15.7754  9.5122   7
  -3  -7  13 10.9607 15.8229   1
   2  -7 -13 229.117  23.977   2
  -2  -7  13 233.119  25.783   1
   2  -7 -13 187.305  14.667   7
   1  -7 -13 159.748  23.000   2
   1  -7 -13 149.509  13.149   7
   0  -7 -13 41.6336 10.2677   7
   0  -7 -13 24.0705 17.5344   2
  -1  -7 -13 -14.635  16.979   2
  -1  -7 -13 1.62304 9.17782   7
  -2  -7 -13 297.028  29.405   2
  -2  -7 -13 291.884  17.703   7
  -3  -7 -13 133.713  24.419   2
  -3  -7 -13 94.7607 12.2173   7
  -4  -7 -13 49.1524 20.1542   2
  -4  -7 -13 8.80947 9.25612   7
  -5  -7 -13 -0.6107  9.4910   7
   2  -8 -13 336.371  29.071   2
  -2  -8  13 249.385  27.154   1
   2  -8 -13 298.691  18.744   7
   1  -8 -13 147.169  23.392   2
   1  -8 -13 141.479  14.968   7
   0  -8 -13 185.158  16.232   7
   0  -8 -13 145.932  24.127   2
  -1  -8 -13 70.1477 22.8990   2
  -1  -8 -13 85.5770 13.3437   7
  -2  -8 -13 416.833  21.370   7
  -2  -8 -13 385.134  33.339   2
  -8   0  14 44.1077 16.1888   1
   8   0 -14 30.2627 16.3580   3
  -7   0  14 364.722  25.615   1
   7   0 -14 297.701  26.743   3
   6   0 -14 1122.76   45.01   3
   6   0 -14 1221.42   41.14   2
  -6   0  14 1252.23   42.04   1
   5   0 -14  1.2870 12.7154   2
   5   0 -14  4.0876 13.3392   3
   4   0 -14 50.5080 14.8182   2
   4   0 -14 38.3472 14.5002   3
   3   0 -14 445.352  27.577   3
   3   0 -14 483.166  26.207   2
   2   0 -14 1490.30   48.56   3
   2   0 -14 1437.07   45.42   2
   1   0 -14 58.5596 15.2506   2
   1   0 -14 67.4463 15.8380   3
   0   0 -14 22.3007 13.0746   3
   0   0 -14 -11.845  12.284   2
  -1   0 -14 347.990  24.500   3
  -1   0 -14 438.908  25.135   2
  -2   0 -14 1069.11   38.51   2
  -3   0 -14 85.4436 17.6156   2
  -4   0 -14 -18.070  13.461   2
  -5   0 -14 203.036  21.325   2
  -6   0 -14 512.274  28.151   2
   8  -1 -14 -8.0071 14.6960   3
  -8  -1  14 -12.310  13.609   1
   8   1 -14 -15.919  14.122   3
  -8   1  14 15.6746 15.2261   1
  -7  -1  14  3.3919 14.1561   1
   7  -1 -14 22.5034 15.3509   3
   7   1 -14 17.2781 15.5342   3
  -7   1  14 44.5939 15.4322   1
   7   1 -14 46.3534 15.6938   2
   6  -1 -14 215.437  23.146   3
   6  -1 -14 183.273  20.651   2
  -6  -1  14 240.571  21.857   1
   6   1 -14 207.947  23.153   3
   6   1 -14 195.156  20.791   2
   5  -1 -14 35.3131 15.1279   3
   5  -1 -14 22.1121 13.2300   2
   5   1 -14 -0.2207 13.9868   2
   5   1 -14 -14.981  12.267   3
   4  -1 -14 25.8759 14.3369   3
   4  -1 -14 11.5526 13.7576   2
   4   1 -14 -19.719  12.100   3
   4   1 -14  1.5558 13.2153   2
   3  -1 -14 127.710  18.335   3
   3  -1 -14 143.885  18.965   2
   3   1 -14 144.454  18.646   2
   3   1 -14 132.529  18.618   3
   2  -1 -14 114.434  17.548   3
   2  -1 -14 79.2776 16.2073   2
   2   1 -14 95.2628 17.4082   3
   2   1 -14 109.414  16.811   2
   1  -1 -14 31.6811 14.1402   3
   1  -1 -14 49.3741 15.0654   2
   1   1 -14 45.4178 14.0599   2
   1   1 -14 19.8586 13.9996   3
   0  -1 -14  5.4790 12.5263   3
   0  -1 -14 15.7152 13.9415   2
   0   1 -14 21.8441 13.0119   3
   0   1 -14 28.3087 13.7321   2
  -1  -1 -14 242.468  22.065   2
  -1  -1 -14 235.689  21.811   3
  -1   1 -14 256.907  22.013   2
  -1   1 -14 218.803  21.376   3
  -2  -1 -14  7.5379 13.5993   2
  -2  -1 -14 -0.7575 11.9350   3
  -2   1 -14 -6.3720 12.4176   2
  -3  -1 -14  6.8819 13.8362   2
  -3   1 -14 49.5917 15.3386   2
  -4  -1 -14 32.2762 15.7424   2
  -4   1 -14 -0.3890 14.2707   2
  -5  -1 -14 156.340  20.707   2
  -5   1 -14 154.973  19.960   2
  -6  -1 -14  4.1126 16.1295   2
  -8  -2  14 171.041  22.416   1
   8  -2 -14 185.080  24.029   3
  -8   2  14 203.888  22.834   1
   8   2 -14 170.642  23.332   3
   7  -2 -14 87.9120 18.7090   3
  -7  -2  14 82.6168 18.1818   1
   7   2 -14 103.956  20.527   3
   7   2 -14 96.6260 18.2164   2
   6  -2 -14 456.709  29.287   3
  -6  -2  14 439.562  27.130   1
   6   2 -14 417.402  29.142   3
   6   2 -14 418.035  27.557   2
   5  -2 -14  8.3735 14.0295   3
   5  -2 -14 30.1192 13.7089   2
   5  -2 -14 38.6504 14.4184   4
   5   2 -14 37.1699 15.3264   3
   5   2 -14 29.8444 15.1135   2
   4  -2 -14 182.742  19.432   4
   4  -2 -14 186.016  19.717   2
   4  -2 -14 147.557  19.850   3
   4   2 -14 145.360  19.377   2
   4   2 -14 145.376  19.707   3
   3  -2 -14 150.789  19.801   3
   3  -2 -14 162.802  18.905   2
   3   2 -14 174.315  20.574   3
   3   2 -14 172.029  19.903   2
   2  -2 -14 712.293  31.656   2
   2  -2 -14 662.571  32.338   3
   2   2 -14 736.461  31.865   2
   2   2 -14 728.531  33.692   3
   1  -2 -14  4.6680 13.1191   3
   1  -2 -14 -4.6382 13.2354   2
   1   2 -14  8.6861 13.2657   2
   1   2 -14 -6.6589 12.4166   3
   0  -2 -14 100.871  16.918   3
   0  -2 -14 68.5462 16.3783   2
   0   2 -14 89.7000 16.0658   2
   0   2 -14 45.8765 15.0027   3
  -1  -2 -14 241.505  22.516   2
  -1  -2 -14 279.270  21.835   3
  -1   2 -14 243.277  21.220   2
  -1   2 -14 226.474  22.445   3
  -2  -2 -14 737.313  34.218   2
  -2   2 -14 773.874  32.906   2
  -3  -2 -14 21.4011 14.6490   2
  -3   2 -14 31.3185 13.8075   2
  -4  -2 -14 18.7573 14.7826   2
  -4   2 -14 46.6283 14.2051   2
  -5  -2 -14 256.229  24.238   2
  -6  -2 -14 385.094  28.703   2
  -7  -2 -14 68.4927 19.6769   2
  -8  -3  14 -0.5134 15.1516   1
   8  -3 -14  7.8080 16.2317   3
   8   3 -14 -19.041  15.904   3
  -8   3  14 -2.3015 13.7206   1
  -7  -3  14 121.216  19.325   1
   7  -3 -14 133.784  20.155   3
   7   3 -14 81.9153 18.5221   2
   7   3 -14 96.1378 20.7736   3
  -6  -3  14 259.763  23.978   1
   6  -3 -14 330.915  27.224   3
   6   3 -14 308.558  27.215   3
   6   3 -14 300.683  25.393   2
   5  -3 -14 15.4463 14.6118   2
   5  -3 -14  4.2135 13.8553   6
   5  -3 -14  4.7951 14.3475   3
  -5  -3  14 11.2027 13.6360   1
   5   3 -14 -8.4086 13.8933   2
   5   3 -14  0.6479 14.4954   3
   4  -3 -14 14.8314 13.8141   2
   4  -3 -14 -7.1302 12.4752   4
   4  -3 -14 -5.8998 13.0833   3
   4  -3 -14 -2.6723 13.3001   6
   4   3 -14 12.3420 14.0884   2
   4   3 -14 23.9015 15.1245   3
   3  -3 -14 314.470  23.197   2
   3  -3 -14 321.741  24.646   3
   3  -3 -14 327.660  22.594   6
   3  -3 -14 310.086  22.206   4
   3   3 -14 244.182  22.571   2
   3   3 -14 268.464  24.750   3
   2  -3 -14 496.689  28.150   3
   2  -3 -14 464.380  27.171   2
   2   3 -14 422.040  25.691   2
   2   3 -14 447.812  28.575   3
   1  -3 -14 24.8619 13.2406   3
   1  -3 -14 19.7136 14.7379   2
   1   3 -14  9.9064 13.6139   2
   1   3 -14 15.1534 13.3642   3
   0  -3 -14 -7.7241 13.0679   2
   0  -3 -14 10.8754 13.0137   3
   0   3 -14  0.6690 12.8918   2
   0   3 -14 34.6870 14.0005   3
  -1  -3 -14 460.940  26.445   3
  -1  -3 -14 433.756  27.466   2
  -1   3 -14 485.756  26.060   2
  -1   3 -14 477.380  28.196   3
  -2  -3 -14 392.730  26.804   2
  -2   3 -14 415.065  24.565   2
  -3  -3 -14  6.1737 14.0712   2
  -3   3 -14 12.8581 13.5890   2
  -4  -3 -14  9.3180 15.3548   2
  -4   3 -14 34.7795 15.3147   2
  -5  -3 -14 355.519  29.065   2
  -6  -3 -14 245.654  25.139   2
  -7  -3 -14  3.7488 16.4955   2
  -7  -4  14 29.3797 15.9450   1
   7  -4 -14 43.5283 16.7679   3
   7   4 -14 50.6583 18.4101   3
  -6  -4  14 45.9085 16.9822   1
   6  -4 -14 76.3708 18.0193   3
   6   4 -14 42.9727 17.9447   3
   5  -4 -14 42.3727 16.1213   3
  -5  -4  14 30.0148 15.3416   1
   5   4 -14  7.2845 14.8670   3
   5   4 -14  5.2511 14.5627   2
   4  -4 -14 110.264  19.154   3
   4  -4 -14 105.473  18.440   6
   4  -4 -14 144.404  19.902   2
   4   4 -14 121.941  20.103   3
   4   4 -14 114.551  18.793   2
   3  -4 -14 45.2367 15.6195   4
   3  -4 -14 74.8126 16.7047   2
   3  -4 -14 81.3309 17.6003   6
   3  -4 -14 62.5851 16.0668   3
   3   4 -14 50.7991 16.6465   2
   3   4 -14 40.7963 16.3430   3
   2  -4 -14 106.026  17.817   3
   2  -4 -14 111.239  19.436   2
   2  -4 -14 107.742  17.401   4
   2  -4 -14 108.824  18.662   6
   2   4 -14 128.664  19.534   3
   2   4 -14 102.913  17.982   2
   1  -4 -14 11.9826 13.7036   3
   1  -4 -14 13.0448 15.2681   6
   1  -4 -14 44.6764 15.9961   2
   1   4 -14 27.8953 14.9293   2
   1   4 -14 35.1760 15.2935   3
   0  -4 -14 73.6951 15.8959   3
   0  -4 -14 80.3359 17.9499   2
   0   4 -14 92.4317 16.6541   2
   0   4 -14 86.4635 17.1817   3
  -1  -4 -14 64.2491 15.2648   3
  -1  -4 -14 21.0125 16.0058   2
  -1   4 -14 86.8652 16.3696   2
  -2  -4 -14 130.476  19.834   2
  -2   4 -14 178.134  19.777   2
  -3  -4 -14 94.4908 19.2027   2
  -3   4 -14 92.6983 16.7176   2
  -4  -4 -14 45.3942 17.5419   2
  -5  -4 -14 57.8248 19.0637   2
  -6  -4 -14 93.7349 20.4934   2
  -7  -4 -14 165.069  24.606   2
  -6  -5  14 198.892  24.084   1
   6  -5 -14 195.728  23.616   3
   5  -5 -14 16.9637 16.0793   3
  -5  -5  14 22.2963 15.6885   1
  -4  -5  14 40.1810 15.9771   1
   4  -5 -14  9.3825 15.6149   2
   4   5 -14 18.0064 16.3566   2
   4   5 -14 21.3715 16.0092   3
   3  -5 -14 233.732  23.201   2
   3   5 -14 254.156  25.199   3
   3   5 -14 242.288  23.625   2
   2  -5 -14 390.894  26.356   2
   2  -5 -14 370.791  27.923   6
   2   5 -14 373.665  26.174   2
   2   5 -14 403.539  28.050   3
   1  -5 -14  3.2163 14.8747   2
   1  -5 -14 -7.5858 14.9321   6
   1   5 -14  4.4768 13.5720   2
   1   5 -14  7.6522 13.9685   3
   0  -5 -14 91.0983 19.0299   2
   0  -5 -14 104.130  19.046   6
   0   5 -14 99.4596 18.2323   2
  -1  -5 -14 252.989  25.224   2
  -1  -5 -14 282.556  24.682   6
  -1   5 -14 288.913  23.759   2
  -2  -5 -14 481.584  30.476   2
  -2   5 -14 471.231  27.140   2
  -3  -5 -14 -5.6023 16.2234   2
  -3   5 -14  6.3055 13.6779   2
  -4  -5 -14 135.546  22.018   2
  -5  -5 -14 192.719  24.970   2
  -6  -5 -14 319.575  29.624   2
  -5  -6  14 470.873  31.661   1
  -4  -6  14 43.4067 18.3730   1
   3  -6 -14  4.1232 16.0735   2
   2  -6 -14  8.2295 16.5089   2
   1  -6 -14 504.544  31.188   2
   1   6 -14 430.048  29.319   2
   0  -6 -14 197.366  23.956   2
   0   6 -14 183.248  22.105   2
  -1  -6 -14 12.2544 17.2858   2
  -1   6 -14 13.0967 14.5351   2
  -2  -6 -14 18.4912 17.5441   2
  -2   6 -14 41.3599 15.4863   2
  -3  -6 -14 155.624  23.570   2
  -4  -6 -14 223.926  27.491   2
  -5  -6 -14 -10.530  17.806   2
   2  -7 -14 117.000  20.512   2
   1  -7 -14 48.8648 18.9579   2
   0  -7 -14 11.2250 17.4019   2
  -1  -7 -14 125.123  22.811   2
  -2  -7 -14 20.7213 19.1193   2
  -3  -7 -14 22.9076 20.0125   2
   7   0 -15 -20.201  14.502   3
   6   0 -15 -7.2410 14.4923   3
   6   0 -15  5.2261 14.4294   2
   5   0 -15 -0.3884 13.7550   3
   5   0 -15 -15.080  13.715   2
   4   0 -15 15.8154 14.0942   2
   4   0 -15 14.1350 13.9645   3
   3   0 -15 -30.059  11.317   3
   3   0 -15 11.0218 13.9749   2
   2   0 -15 -3.9083 13.2454   2
   2   0 -15 -10.731  12.965   3
   1   0 -15  1.8530 13.3713   2
   1   0 -15 -6.0208 12.7853   3
   0   0 -15  2.6646 12.5183   3
   0   0 -15 -6.1654 14.3501   2
  -1   0 -15 23.2036 13.7496   3
  -1   0 -15 -11.111  12.918   2
  -2   0 -15  8.5228 13.5759   2
  -3   0 -15 -8.5164 13.6246   2
  -4   0 -15  1.4381 15.4367   2
  -5   0 -15 -12.544  15.355   2
  -6   0 -15 -6.3962 16.1158   2
   7  -1 -15 62.4607 17.9674   3
   7   1 -15 37.8109 16.1467   2
   7   1 -15 37.3885 17.3688   3
   6  -1 -15 56.5059 16.7652   3
   6  -1 -15 38.1821 15.7261   2
   6   1 -15 46.2730 16.5945   3
   6   1 -15 79.8558 18.0536   2
   5  -1 -15  7.4237 14.0885   3
   5  -1 -15 16.8305 14.0128   2
   5   1 -15  7.7144 14.4823   3
   5   1 -15 -1.6006 14.4859   2
   4  -1 -15 792.654  34.709   2
   4  -1 -15 786.479  36.956   3
   4   1 -15 817.596  37.348   3
   4   1 -15 769.489  33.820   2
   3  -1 -15 34.2028 15.1852   2
   3  -1 -15 74.8078 17.0856   3
   3   1 -15 77.6457 17.0386   3
   3   1 -15 48.7972 16.1705   2
   2  -1 -15 136.811  19.867   3
   2  -1 -15 123.867  19.275   2
   2   1 -15 109.080  18.555   3
   2   1 -15 113.687  17.923   2
   1  -1 -15 -19.303  13.008   2
   1  -1 -15 -13.453  12.556   3
   1   1 -15  9.8483 13.9418   2
   1   1 -15 -4.2913 12.8442   3
   0  -1 -15 680.093  32.164   2
   0  -1 -15 651.608  32.710   3
   0   1 -15 701.854  31.542   2
   0   1 -15 695.394  33.589   3
  -1  -1 -15 73.7179 16.5948   3
  -1  -1 -15 115.222  18.261   2
  -1   1 -15 73.5981 17.2858   3
  -1   1 -15 71.8581 16.6489   2
  -2  -1 -15 149.480  20.176   2
  -2   1 -15 148.983  19.386   2
  -3  -1 -15  2.4651 14.5283   2
  -3   1 -15 12.9548 15.3530   2
  -4  -1 -15 471.092  29.179   2
  -4   1 -15 508.079  28.299   2
  -5  -1 -15 106.388  19.932   2
  -5   1 -15 78.0119 18.4817   2
  -6  -1 -15 58.0552 19.1843   2
  -7  -2  15 19.9563 15.2490   1
   7  -2 -15 -13.291  14.477   3
   7   2 -15 38.2918 16.5831   2
   7   2 -15 14.1373 15.9735   3
   6  -2 -15 79.9972 18.9572   3
   6   2 -15 100.110  19.999   3
   6   2 -15 108.925  18.947   2
   5  -2 -15 71.3419 17.9663   3
   5  -2 -15 84.6347 17.2894   2
   5   2 -15 95.4295 18.4482   3
   5   2 -15 45.6849 16.3405   2
   4  -2 -15 29.1123 14.7191   2
   4  -2 -15 29.8166 15.1578   3
   4   2 -15 20.6017 14.9051   3
   4   2 -15  4.3776 14.0124   2
   3  -2 -15  9.9158 14.2845   3
   3  -2 -15 13.7670 13.9155   2
   3   2 -15  4.0573 14.1323   3
   3   2 -15  0.9412 13.7557   2
   2  -2 -15 61.0376 16.4260   3
   2  -2 -15 68.6002 17.7027   2
   2   2 -15 45.8479 15.5600   2
   2   2 -15 72.1412 17.1231   3
   1  -2 -15 142.720  19.733   3
   1  -2 -15 104.525  18.254   2
   1   2 -15 86.3262 18.0963   2
   1   2 -15 137.228  19.809   3
   0  -2 -15 26.9510 15.8594   2
   0  -2 -15 53.5359 15.6895   3
   0   2 -15 40.6618 15.1174   3
   0   2 -15 34.3968 14.5595   2
  -1  -2 -15 10.8751 14.6468   2
  -1  -2 -15 -2.1690 12.6772   3
  -1   2 -15 -14.816  12.406   3
  -1   2 -15 -6.6438 12.8100   2
  -2  -2 -15 -5.3545 14.4409   2
  -2   2 -15 25.9261 14.8576   2
  -3  -2 -15 128.752  20.408   2
  -3   2 -15 161.836  19.866   2
  -4  -2 -15 117.035  19.916   2
  -4   2 -15 111.307  18.073   2
  -5  -2 -15 -6.0196 16.2017   2
  -6  -2 -15  0.4192 15.6207   2
  -7  -2 -15 132.035  22.475   2
   7  -3 -15 10.1044 16.1403   3
  -7  -3  15 10.6810 15.6879   1
   7   3 -15  4.6153 15.3956   2
   7   3 -15 19.5523 17.6404   3
   6  -3 -15 117.134  20.890   3
   6   3 -15 101.909  19.524   2
   6   3 -15 113.120  20.769   3
   5  -3 -15 85.5398 18.4277   2
   5  -3 -15 78.3973 18.2972   3
   5   3 -15 59.5301 17.8262   3
   5   3 -15 99.7934 19.3985   2
   4  -3 -15 84.4828 18.3879   3
   4  -3 -15 117.589  18.740   2
   4   3 -15 91.1980 18.3584   2
   4   3 -15 91.3843 19.0959   3
   3  -3 -15  2.2436 15.3971   2
   3  -3 -15 12.9229 14.3673   3
   3   3 -15 -1.0504 14.4200   3
   3   3 -15 -5.9071 13.5024   2
   2  -3 -15 250.961  24.020   2
   2  -3 -15 233.676  23.776   3
   2   3 -15 252.787  24.522   3
   2   3 -15 218.245  22.225   2
   1  -3 -15 203.028  22.026   3
   1  -3 -15 215.130  22.617   2
   1   3 -15 234.226  23.826   3
   1   3 -15 235.025  22.103   2
   0  -3 -15 241.385  24.110   2
   0  -3 -15 233.195  22.171   3
   0   3 -15 312.140  23.491   2
   0   3 -15 277.127  24.923   3
  -1  -3 -15 15.0730 13.7256   3
  -1  -3 -15 -8.1438 14.2064   2
  -1   3 -15  8.5319 13.5880   2
  -2  -3 -15 141.091  20.554   2
  -2   3 -15 159.786  19.485   2
  -3  -3 -15 135.891  20.557   2
  -3   3 -15 135.886  19.231   2
  -4  -3 -15 384.403  28.176   2
  -4   3 -15 357.903  25.029   2
  -5  -3 -15 55.7834 18.7167   2
  -6  -3 -15 46.3931 19.6955   2
  -7  -3 -15 20.1108 18.3528   2
   6  -4 -15 173.386  22.389   3
  -6  -4  15 179.568  22.183   1
   6   4 -15 166.681  24.418   3
   5  -4 -15 98.3658 19.0593   3
   5   4 -15 99.8037 20.9632   3
   5   4 -15 75.3094 18.5218   2
   4  -4 -15 -15.070  14.725   2
   4  -4 -15  6.3968 14.8039   3
   4   4 -15 -16.207  13.832   2
   4   4 -15 -6.2308 15.2126   3
   3  -4 -15 61.2585 17.7030   2
   3  -4 -15 12.4295 15.0914   3
   3   4 -15 49.5707 16.4037   2
   3   4 -15  7.8746 14.8074   3
   2  -4 -15 218.445  22.978   2
   2  -4 -15 209.771  22.471   3
   2   4 -15 188.137  21.631   2
   2   4 -15 274.835  25.633   3
   1  -4 -15 156.180  21.090   2
   1  -4 -15 178.396  21.226   3
   1   4 -15 214.397  23.199   3
   1   4 -15 165.926  20.513   2
   0  -4 -15 -4.6852 12.9407   3
   0  -4 -15 -11.668  14.117   2
   0   4 -15  1.9311 12.9916   2
   0   4 -15  3.1726 14.0195   3
  -1  -4 -15 17.4074 14.7286   3
  -1  -4 -15 -17.852  15.031   2
  -1   4 -15  8.1451 13.8771   2
  -2  -4 -15 224.954  24.486   2
  -2   4 -15 253.783  23.109   2
  -3  -4 -15 307.179  27.335   2
  -3   4 -15 285.437  24.020   2
  -4  -4 -15 24.0011 17.0965   2
  -5  -4 -15 22.5494 16.9699   2
  -6  -4 -15 215.033  26.205   2
   4  -5 -15  9.4350 16.2414   2
   4   5 -15 -18.939  15.835   3
   4   5 -15 19.4252 16.7941   2
   3  -5 -15 183.855  22.991   2
   3   5 -15 171.910  21.854   2
   3   5 -15 145.379  22.550   3
   2  -5 -15 38.2266 16.3595   2
   2   5 -15 37.4309 16.2109   3
   2   5 -15 15.4100 15.0057   2
   1  -5 -15 17.4320 17.2978   2
   1   5 -15  1.2047 14.3860   2
   1   5 -15  7.6577 15.3651   3
   0  -5 -15 12.2069 16.0906   2
   0   5 -15 28.8436 15.7048   2
  -1  -5 -15 195.882  23.752   2
  -1   5 -15 188.677  22.189   2
  -2  -5 -15 55.9903 19.4513   2
  -2   5 -15 53.3178 16.7525   2
  -3  -5 -15 13.4092 18.1000   2
  -3   5 -15 -14.312  13.874   2
  -4  -5 -15 35.7142 18.1548   2
  -5  -5 -15 175.288  25.043   2
   3  -6 -15 -14.564  16.755   2
   2  -6 -15 46.5912 18.2998   2
   1  -6 -15 88.6562 21.1023   2
   1   6 -15 136.270  20.663   2
   0  -6 -15 23.1809 18.6006   2
   0   6 -15 16.0963 16.4559   2
  -1  -6 -15 42.9414 18.8223   2
  -1   6 -15 57.7504 18.6287   2
  -2  -6 -15 63.0688 20.4569   2
  -2   6 -15 66.4470 18.2225   2
  -3  -6 -15 126.393  23.269   2
   6   0 -16 -19.187  13.675   3
   6   0 -16 15.9296 15.5316   2
   5   0 -16 299.441  24.884   2
   5   0 -16 288.491  26.891   3
   4   0 -16 117.369  19.202   2
   4   0 -16 121.183  20.439   3
   3   0 -16 42.0694 16.4318   3
   3   0 -16 12.6996 15.0919   2
   2   0 -16 175.925  22.084   3
   2   0 -16 190.455  21.483   2
   1   0 -16 348.444  25.730   2
   1   0 -16 367.592  27.824   3
   0   0 -16 42.8101 16.1222   2
   0   0 -16 55.6837 16.7355   3
  -1   0 -16 24.4007 15.5206   2
  -1   0 -16 15.6189 14.3301   3
  -2   0 -16 297.586  25.867   2
  -3   0 -16 272.890  25.176   2
  -4   0 -16 21.7605 15.4994   2
  -5   0 -16 89.3114 19.5349   2
   6  -1 -16 -0.8894 15.2216   3
   6  -1 -16 18.8225 16.2515   2
   6   1 -16 -2.4228 14.5159   2
   6   1 -16 18.3943 16.4714   3
   5  -1 -16 10.9709 15.1565   3
   5  -1 -16 32.6753 15.8648   2
   5   1 -16 47.7210 17.1602   3
   5   1 -16 25.3550 16.4768   2
   4  -1 -16 18.8198 15.1684   2
   4  -1 -16 11.3877 14.8265   3
   4   1 -16 29.8228 15.7950   2
   4   1 -16 43.0181 16.6440   3
   3  -1 -16 25.4532 15.6900   2
   3  -1 -16 32.0475 15.6751   3
   3   1 -16 58.3118 17.6534   3
   3   1 -16 27.3877 15.7790   2
   2  -1 -16 23.6799 15.2054   2
   2  -1 -16 18.6485 15.6575   3
   2   1 -16 37.9213 15.5132   2
   2   1 -16  1.2113 14.6132   3
   1  -1 -16 12.1707 15.1740   2
   1  -1 -16  7.8664 14.7710   3
   1   1 -16  7.4431 14.2451   3
   1   1 -16 34.0593 15.7428   2
   0  -1 -16 124.214  19.099   2
   0  -1 -16 120.400  19.136   3
   0   1 -16 128.366  19.381   2
   0   1 -16 92.8338 17.9138   3
  -1  -1 -16 34.9944 16.0954   2
  -1  -1 -16 27.9797 14.6551   3
  -1   1 -16 38.5677 15.8756   3
  -1   1 -16  6.2608 14.3049   2
  -2  -1 -16  6.9773 15.3913   2
  -2   1 -16 26.2583 16.0752   2
  -3  -1 -16  6.7919 15.3934   2
  -3   1 -16  4.5996 14.8220   2
  -4  -1 -16 162.401  22.485   2
  -4   1 -16 166.716  21.478   2
  -5  -1 -16  2.9550 17.0041   2
  -5   1 -16 -3.5515 16.6079   2
  -6  -1 -16 16.8537 18.5001   2
   6  -2 -16 34.7061 17.2974   3
   6   2 -16 -1.5684 15.6135   3
   6   2 -16  8.6385 15.3210   2
   5  -2 -16 255.199  24.416   2
   5  -2 -16 211.422  24.431   3
   5   2 -16 195.841  24.300   3
   5   2 -16 209.389  23.811   2
   4  -2 -16 82.6698 18.5506   2
   4  -2 -16 85.6678 18.5791   3
   4   2 -16 77.8056 18.6578   3
   4   2 -16 77.7040 17.4784   2
   3  -2 -16 -1.3796 14.6782   2
   3  -2 -16  2.7106 14.5678   3
   3   2 -16 -10.504  14.002   3
   3   2 -16 14.7876 14.6155   2
   2  -2 -16 82.7816 18.7148   3
   2  -2 -16 55.4316 17.1456   2
   2   2 -16 63.8978 17.4302   3
   2   2 -16 38.6339 16.2923   2
   1  -2 -16 262.960  24.966   2
   1  -2 -16 256.688  24.807   3
   1   2 -16 305.351  25.287   2
   1   2 -16 351.349  27.177   3
   0  -2 -16 157.704  20.388   3
   0  -2 -16 120.580  20.305   2
   0   2 -16 120.999  19.011   2
   0   2 -16 95.3348 18.5985   3
  -1  -2 -16 23.2440 16.0986   2
  -1  -2 -16 29.2611 15.6076   3
  -1   2 -16  1.0478 14.5311   3
  -1   2 -16 26.9861 15.8519   2
  -2  -2 -16 59.4266 17.9672   2
  -2   2 -16 110.845  18.404   2
  -3  -2 -16 222.461  24.053   2
  -3   2 -16 191.827  22.774   2
  -4  -2 -16 92.1796 19.9166   2
  -4   2 -16 75.4215 18.8143   2
  -5  -2 -16 22.8020 18.7923   2
  -6  -2 -16 68.0576 20.9206   2
   5  -3 -16 158.808  20.863   2
   5  -3 -16 177.524  23.147   3
   5   3 -16 88.8434 19.9500   3
   5   3 -16 108.600  19.927   2
   4  -3 -16 568.687  33.526   3
   4  -3 -16 559.718  31.453   2
   4   3 -16 514.107  33.110   3
   4   3 -16 555.982  31.420   2
   3  -3 -16 88.9705 18.5332   3
   3  -3 -16 86.9510 18.1518   2
   3   3 -16 101.836  20.013   3
   3   3 -16 54.8915 17.3665   2
   2  -3 -16 15.2942 16.9021   2
   2  -3 -16 -9.1219 14.0734   3
   2   3 -16 10.9514 15.3164   3
   2   3 -16 28.8035 15.3984   2
   1  -3 -16 191.735  22.206   3
   1  -3 -16 192.828  22.549   2
   1   3 -16 174.331  22.230   3
   1   3 -16 195.285  21.471   2
   0  -3 -16 405.005  28.046   3
   0  -3 -16 395.127  27.944   2
   0   3 -16 465.406  27.919   2
   0   3 -16 388.425  28.758   3
  -1  -3 -16 134.649  22.186   2
  -1  -3 -16 132.328  20.059   3
  -1   3 -16 155.765  21.100   2
  -2  -3 -16 32.9972 17.2318   2
  -2   3 -16 20.8259 15.0338   2
  -3  -3 -16 130.377  21.389   2
  -3   3 -16 149.590  20.584   2
  -4  -3 -16 195.001  23.941   2
  -4   3 -16 185.885  22.365   2
  -5  -3 -16 147.348  23.709   2
   4  -4 -16 21.8616 16.8878   2
   4  -4 -16 -1.7100 14.9089   3
   4   4 -16 21.9120 17.6459   3
   4   4 -16  3.1307 15.7992   2
   3  -4 -16 33.7414 16.8500   3
   3  -4 -16 22.8732 17.2454   2
   3   4 -16 30.0804 17.0520   3
   3   4 -16 16.2330 16.5345   2
   2  -4 -16 68.7880 18.2497   3
   2  -4 -16 56.6722 18.7041   2
   2   4 -16 50.4800 16.9702   2
   2   4 -16 44.2859 17.1998   3
   1  -4 -16 40.1940 16.1690   3
   1  -4 -16 15.6509 16.1529   2
   1   4 -16  9.2181 15.0052   3
   1   4 -16 19.7556 15.2280   2
   0  -4 -16  1.7556 14.2371   3
   0  -4 -16 29.0249 17.5867   2
   0   4 -16 21.3041 15.8025   3
   0   4 -16 18.5495 14.7076   2
  -1  -4 -16 28.4354 16.8386   2
  -1   4 -16  8.1120 13.8241   2
  -2  -4 -16 64.1250 18.9263   2
  -2   4 -16 41.7504 15.6190   2
  -3  -4 -16 20.9749 17.4230   2
  -3   4 -16 22.5413 15.7171   2
  -4  -4 -16 -18.049  16.395   2
   3  -5 -16 242.837  25.317   2
   3   5 -16 224.051  26.177   3
   3   5 -16 205.522  23.936   2
   2  -5 -16 36.0370 17.8106   2
   2   5 -16 43.9644 18.2890   2
   2   5 -16 69.2347 19.0500   3
   1  -5 -16 76.5484 20.0401   2
   1   5 -16 46.3413 17.1282   2
   1   5 -16 94.3078 20.0498   3
   0  -5 -16 498.757  31.871   2
   0   5 -16 506.767  31.116   2
  -1  -5 -16 230.969  26.113   2
  -1   5 -16 286.506  25.747   2
  -2  -5 -16 89.6425 21.7109   2
  -2   5 -16 93.5593 19.1537   2
  -3  -5 -16 50.8441 19.6469   2
  -3   5 -16 106.330  20.234   2
   5   0 -17 -4.5042 15.7860   3
   5   0 -17 19.1630 15.3489   2
   4   0 -17 -0.4281 15.4781   3
   4   0 -17 12.2812 15.8253   2
   3   0 -17 -4.7151 15.5569   2
   3   0 -17 10.1690 15.3573   3
   2   0 -17  9.2471 14.4443   3
   2   0 -17 13.2566 15.2604   2
   1   0 -17  5.9439 15.3322   2
   1   0 -17  5.2969 14.4386   3
   0   0 -17 -10.229  14.974   2
   0   0 -17 -15.846  13.002   3
  -1   0 -17  7.4304 15.5497   2
  -1   0 -17 11.6475 14.7515   3
  -2   0 -17 28.6378 15.7053   2
  -3   0 -17 -28.160  14.827   2
  -4   0 -17 -26.417  14.805   2
  -5   0 -17 -24.912  15.117   2
   5  -1 -17 23.3944 16.7361   3
   5  -1 -17 -3.2718 15.8039   2
   5   1 -17 -1.5049 15.7209   3
   5   1 -17 -8.0434 14.7433   2
   4  -1 -17 125.775  20.751   2
   4  -1 -17 133.428  21.727   3
   4   1 -17 156.782  22.960   3
   4   1 -17 121.375  20.542   2
   3  -1 -17 152.501  22.561   3
   3  -1 -17 163.691  22.785   2
   3   1 -17 179.991  22.157   2
   3   1 -17 213.450  25.398   3
   2  -1 -17 444.164  31.709   3
   2  -1 -17 447.420  29.626   2
   2   1 -17 516.537  31.994   3
   2   1 -17 474.301  29.337   2
   1  -1 -17 -10.062  14.067   3
   1  -1 -17  7.7371 15.0195   2
   1   1 -17 -10.314  14.127   3
   1   1 -17 -14.192  15.213   2
   0  -1 -17 169.750  22.316   3
   0  -1 -17 114.060  20.657   2
   0   1 -17 160.476  21.677   3
   0   1 -17 138.047  20.672   2
  -1  -1 -17 309.194  26.995   2
  -1  -1 -17 330.452  28.323   3
  -1   1 -17 336.868  27.503   2
  -1   1 -17 364.059  28.038   3
  -2  -1 -17 498.129  30.879   2
  -2   1 -17 527.500  30.481   2
  -3  -1 -17 -0.3688 16.7440   2
  -3   1 -17 -37.337  14.025   2
  -4  -1 -17 40.5040 18.2693   2
  -4   1 -17 78.1361 19.3874   2
  -5  -1 -17 411.081  29.760   2
  -5   1 -17 389.591  30.019   2
   4  -2 -17  1.2120 15.0180   2
   4  -2 -17 -1.3667 15.1440   3
   4   2 -17 17.7354 16.2737   2
   4   2 -17 23.7731 16.8546   3
   3  -2 -17 26.5893 16.9184   2
   3  -2 -17 30.4225 18.0840   3
   3   2 -17 20.6894 16.1827   2
   3   2 -17 58.8589 18.6498   3
   2  -2 -17 102.360  19.854   2
   2  -2 -17 127.359  21.301   3
   2   2 -17 109.963  19.963   2
   2   2 -17 46.8728 18.3614   3
   1  -2 -17 -3.3274 14.3517   3
   1  -2 -17 -4.0291 15.4410   2
   1   2 -17 -10.516  13.977   3
   1   2 -17 -8.6324 14.7367   2
   0  -2 -17  9.0115 16.2657   2
   0  -2 -17 -7.9873 13.7161   3
   0   2 -17  1.0648 14.9344   3
   0   2 -17  5.8401 15.6347   2
  -1  -2 -17 29.6528 16.9920   2
  -1  -2 -17 18.2256 15.1496   3
  -1   2 -17 40.8748 17.2478   2
  -2  -2 -17 215.531  24.801   2
  -2   2 -17 219.520  24.495   2
  -3  -2 -17  9.3216 17.8577   2
  -3   2 -17 13.7884 15.8276   2
  -4  -2 -17  1.0382 16.3691   2
  -4   2 -17  0.5385 16.5215   2
   4  -3 -17 78.8571 19.2078   3
   4  -3 -17 98.4287 20.1413   2
   4   3 -17 55.2166 19.1725   3
   4   3 -17 66.8638 18.7646   2
   3  -3 -17 29.7232 16.8993   3
   3  -3 -17 55.5654 17.4182   2
   3   3 -17 31.4121 17.0889   2
   3   3 -17 -16.772  14.722   3
   2  -3 -17 253.938  26.542   3
   2  -3 -17 253.553  26.055   2
   2   3 -17 222.717  25.712   3
   2   3 -17 224.798  23.351   2
   1  -3 -17 122.161  21.422   2
   1  -3 -17 129.781  20.915   3
   1   3 -17 125.595  21.086   3
   1   3 -17 68.6948 18.7127   2
   0  -3 -17 77.4183 20.7075   2
   0  -3 -17 71.9777 17.7405   3
   0   3 -17 130.346  21.524   3
   0   3 -17 87.8736 18.9718   2
  -1  -3 -17  7.9383 16.6277   2
  -1  -3 -17 70.8223 18.4746   3
  -1   3 -17 39.9968 16.6607   2
  -2  -3 -17 41.6590 17.7864   2
  -2   3 -17 61.8650 17.4834   2
  -3  -3 -17 91.0426 20.7597   2
  -3   3 -17 64.1239 17.9129   2
  -4  -3 -17 74.7725 21.1819   2
  -4   3 -17 63.7730 18.1991   2
   2  -4 -17 186.066  24.183   2
   2  -4 -17 182.659  23.659   3
   2   4 -17 170.573  23.318   2
   2   4 -17 216.314  25.687   3
   1  -4 -17 35.4699 16.1943   3
   1  -4 -17 16.6037 17.5870   2
   1   4 -17 -1.3757 16.3546   2
   1   4 -17 13.1202 16.6317   3
   0  -4 -17 38.1599 18.9566   2
   0   4 -17  8.9386 16.7630   2
  -1  -4 -17 275.647  28.178   2
  -1   4 -17 306.162  25.683   2
  -2  -4 -17 229.992  26.241   2
  -2   4 -17 197.378  22.489   2
   3   0 -18 171.001  23.032   2
   3   0 -18 134.282  23.266   3
   2   0 -18 38.0878 17.6293   3
   2   0 -18 26.0958 17.3214   2
   1   0 -18 131.491  22.512   2
   1   0 -18 144.569  22.128   3
   0   0 -18 599.078  33.500   2
   0   0 -18 598.980  35.017   3
  -1   0 -18 153.954  22.861   2
  -2   0 -18 -1.4366 15.7830   2
  -3   0 -18 77.5485 19.3457   2
   3  -1 -18  2.3117 16.2660   2
   3   1 -18 11.0172 16.6338   2
   2  -1 -18 40.8694 18.3418   3
   2  -1 -18 41.5880 17.7905   2
   2   1 -18 29.9046 17.6399   2
   2   1 -18 40.6879 17.8205   3
   1  -1 -18 204.188  24.406   2
   1  -1 -18 149.005  22.707   3
   1   1 -18 180.080  23.891   3
   1   1 -18 199.324  23.656   2
   0  -1 -18  5.6597 16.7659   2
   0  -1 -18 -5.9474 15.1986   3
   0   1 -18 -1.8672 15.3942   3
   0   1 -18 -16.587  14.732   2
  -1  -1 -18 18.3051 16.3219   2
  -1  -1 -18 -4.5500 14.7301   3
  -1   1 -18 -7.6144 16.3240   2
  -2  -1 -18 17.5388 18.2721   2
  -2   1 -18 31.7373 17.5681   2
   2  -2 -18 56.5889 20.0666   2
   2  -2 -18 45.2788 18.3582   3
   2   2 -18 19.1425 17.3187   2
   1  -2 -18 17.7982 17.1546   2
   1  -2 -18  3.8900 15.8635   3
   1   2 -18 -0.2578 15.6788   3
   1   2 -18 36.9072 18.0148   2
   0  -2 -18 376.434  29.691   3
   0  -2 -18 342.990  29.622   2
   0   2 -18 399.658  31.031   3
   0   2 -18 379.583  29.177   2
  -1  -2 -18 31.9735 17.9590   2
  -1  -2 -18 50.7924 17.9889   3
  -1   2 -18 34.3479 17.4120   2
  -2  -2 -18 24.9902 19.1493   2
  -2   2 -18 53.1341 17.9560   2
   0   0   0    0.00    0.00   0
;
_shelx_hkl_checksum              15782
loop_
_space_group_symop_operation_xyz
'x, y, z'
'-x, y+1/2, -z+1/2'
'-x, -y, -z'
'x, -y-1/2, z-1/2'
loop_
_atom_site_label
_atom_site_type_symbol
_atom_site_fract_x
_atom_site_fract_y
_atom_site_fract_z
_atom_site_U_iso_or_equiv
_atom_site_adp_type
_atom_site_occupancy
_atom_site_site_symmetry_order
_atom_site_calc_flag
_atom_site_refinement_flags_posn
_atom_site_refinement_flags_adp
_atom_site_refinement_flags_occupancy
_atom_site_disorder_assembly
_atom_site_disorder_group
Cs1 Cs 0.48929(3) 0.05772(3) 0.16537(2) 0.01122(7) Uani 1 1 d . . . . .
Ba1 Ba 0.00036(3) 0.02811(3) 0.17570(2) 0.00759(7) Uani 1 1 d . . . . .
Ba2 Ba 0.24867(3) 0.56648(3) 0.00727(2) 0.00840(6) Uani 1 1 d . . . . .
Cl1 Cl 0.03721(11) 0.16247(12) 0.40110(8) 0.0099(2) Uani 1 1 d . . . . .
Cl2 Cl 0.20957(11) 0.33395(12) 0.18715(8) 0.0117(2) Uani 1 1 d . . . . .
Cl3 Cl 0.21359(11) 0.55044(12) 0.50223(8) 0.0097(2) Uani 1 1 d . . . . .
Cl4 Cl 0.46371(11) 0.17566(13) 0.42116(9) 0.0135(2) Uani 1 1 d . . . . .
Cl5 Cl 0.77549(11) 0.30872(12) 0.21862(9) 0.0102(2) Uani 1 1 d . . . . .
loop_
_atom_site_aniso_label
_atom_site_aniso_U_11
_atom_site_aniso_U_22
_atom_site_aniso_U_33
_atom_site_aniso_U_23
_atom_site_aniso_U_13
_atom_site_aniso_U_12
Cs1 0.01027(13) 0.01100(12) 0.01238(15) -0.00217(11) 0.00047(11) -0.00177(10)
Ba1 0.00867(12) 0.00727(12) 0.00681(13) -0.00017(10) -0.00015(10) 0.00080(9)
Ba2 0.00835(12) 0.00823(12) 0.00861(14) 0.00077(10) -0.00011(10) 0.00003(9)
Cl1 0.0101(5) 0.0099(5) 0.0098(6) 0.0021(4) 0.0006(4) 0.0007(4)
Cl2 0.0128(5) 0.0102(5) 0.0120(6) 0.0014(4) 0.0024(4) 0.0012(4)
Cl3 0.0095(5) 0.0109(5) 0.0086(5) -0.0006(4) -0.0010(4) -0.0001(4)
Cl4 0.0118(5) 0.0123(5) 0.0163(6) 0.0038(4) -0.0010(5) -0.0012(4)
Cl5 0.0105(5) 0.0100(5) 0.0102(6) -0.0013(4) -0.0008(4) 0.0000(4)
loop_
_atom_type_symbol
_atom_type_description
_atom_type_scat_dispersion_real
_atom_type_scat_dispersion_imag
_atom_type_scat_source
Cl Cl 0.1484 0.1585 'International Tables Vol C Tables 4.2.6.8 and 6.1.1.4'
Cs Cs -0.3680 2.1192 'International Tables Vol C Tables 4.2.6.8 and 6.1.1.4'
Ba Ba -0.3244 2.2819 'International Tables Vol C Tables 4.2.6.8 and 6.1.1.4'
loop_
_geom_angle_atom_site_label_1
_geom_angle_atom_site_label_2
_geom_angle_atom_site_label_3
_geom_angle
_geom_angle_site_symmetry_1
_geom_angle_site_symmetry_3
Cl4 Cs1 Cl5 120.93(3) 2_645 .
Cl4 Cs1 Cl3 69.90(3) 2_645 4_565
Cl5 Cs1 Cl3 149.03(3) . 4_565
Cl4 Cs1 Cl2 136.98(3) 2_645 .
Cl5 Cs1 Cl2 101.21(2) . .
Cl3 Cs1 Cl2 69.30(3) 4_565 .
Cl4 Cs1 Cl4 126.21(3) 2_645 .
Cl5 Cs1 Cl4 72.60(2) . .
Cl3 Cs1 Cl4 127.14(2) 4_565 .
Cl2 Cs1 Cl4 71.85(3) . .
Cl4 Cs1 Cl5 73.01(2) 2_645 2_645
Cl5 Cs1 Cl5 143.181(12) . 2_645
Cl3 Cs1 Cl5 65.82(3) 4_565 2_645
Cl2 Cs1 Cl5 78.42(2) . 2_645
Cl4 Cs1 Cl5 72.43(3) . 2_645
Cl4 Cs1 Cl3 70.80(2) 2_645 2_645
Cl5 Cs1 Cl3 61.11(2) . 2_645
Cl3 Cs1 Cl3 102.08(2) 4_565 2_645
Cl2 Cs1 Cl3 131.29(2) . 2_645
Cl4 Cs1 Cl3 130.56(3) . 2_645
Cl5 Cs1 Cl3 143.79(2) 2_645 2_645
Cl4 Cs1 Cl4 104.61(2) 2_645 4_565
Cl5 Cs1 Cl4 83.13(3) . 4_565
Cl3 Cs1 Cl4 65.90(2) 4_565 4_565
Cl2 Cs1 Cl4 70.07(2) . 4_565
Cl4 Cs1 Cl4 129.175(10) . 4_565
Cl5 Cs1 Cl4 128.96(3) 2_645 4_565
Cl3 Cs1 Cl4 63.25(2) 2_645 4_565
Cl4 Cs1 Cl2 68.45(3) 2_645 2_645
Cl5 Cs1 Cl2 66.86(2) . 2_645
Cl3 Cs1 Cl2 137.02(2) 4_565 2_645
Cl2 Cs1 Cl2 144.803(15) . 2_645
Cl4 Cs1 Cl2 72.96(2) . 2_645
Cl5 Cs1 Cl2 92.06(2) 2_645 2_645
Cl3 Cs1 Cl2 73.74(2) 2_645 2_645
Cl4 Cs1 Cl2 135.76(2) 4_565 2_645
Cl4 Cs1 Cs1 57.69(2) 2_645 3_655
Cl5 Cs1 Cs1 106.47(2) . 3_655
Cl3 Cs1 Cs1 51.972(17) 4_565 3_655
Cl2 Cs1 Cs1 104.72(2) . 3_655
Cl4 Cs1 Cs1 176.01(2) . 3_655
Cl5 Cs1 Cs1 109.19(2) 2_645 3_655
Cl3 Cs1 Cs1 50.107(18) 2_645 3_655
Cl4 Cs1 Cs1 46.923(16) 4_565 3_655
Cl2 Cs1 Cs1 110.394(18) 2_645 3_655
Cl4 Cs1 Ba2 112.749(19) 2_645 3_665
Cl5 Cs1 Ba2 43.470(19) . 3_665
Cl3 Cs1 Ba2 105.975(18) 4_565 3_665
Cl2 Cs1 Ba2 91.145(17) . 3_665
Cl4 Cs1 Ba2 109.258(18) . 3_665
Cl5 Cs1 Ba2 168.43(2) 2_645 3_665
Cl3 Cs1 Ba2 43.519(16) 2_645 3_665
Cl4 Cs1 Ba2 40.904(17) 4_565 3_665
Cl2 Cs1 Ba2 99.386(16) 2_645 3_665
Cs1 Cs1 Ba2 68.395(7) 3_655 3_665
Cl4 Cs1 Ba1 95.46(2) 2_645 .
Cl5 Cs1 Ba1 143.573(18) . .
Cl3 Cs1 Ba1 42.115(16) 4_565 .
Cl2 Cs1 Ba1 43.426(18) . .
Cl4 Cs1 Ba1 85.067(19) . .
Cl5 Cs1 Ba1 41.900(18) 2_645 .
Cl3 Cs1 Ba1 143.59(2) 2_645 .
Cl4 Cs1 Ba1 89.639(17) 4_565 .
Cl2 Cs1 Ba1 133.667(16) 2_645 .
Cs1 Cs1 Ba1 93.800(9) 3_655 .
Ba2 Cs1 Ba1 126.541(8) 3_665 .
Cl3 Ba1 Cl5 144.83(3) 2_545 2_645
Cl3 Ba1 Cl3 83.52(3) 2_545 4_565
Cl5 Ba1 Cl3 76.21(3) 2_645 4_565
Cl3 Ba1 Cl2 92.67(3) 2_545 2_545
Cl5 Ba1 Cl2 83.45(3) 2_645 2_545
Cl3 Ba1 Cl2 137.10(3) 4_565 2_545
Cl3 Ba1 Cl1 138.82(3) 2_545 .
Cl5 Ba1 Cl1 73.21(3) 2_645 .
Cl3 Ba1 Cl1 133.01(3) 4_565 .
Cl2 Ba1 Cl1 73.01(3) 2_545 .
Cl3 Ba1 Cl1 75.15(3) 2_545 2_545
Cl5 Ba1 Cl1 70.93(3) 2_645 2_545
Cl3 Ba1 Cl1 69.31(3) 4_565 2_545
Cl2 Ba1 Cl1 68.44(3) 2_545 2_545
Cl1 Ba1 Cl1 129.33(3) . 2_545
Cl3 Ba1 Cl5 69.67(3) 2_545 1_455
Cl5 Ba1 Cl5 142.709(15) 2_645 1_455
Cl3 Ba1 Cl5 135.59(3) 4_565 1_455
Cl2 Ba1 Cl5 80.56(3) 2_545 1_455
Cl1 Ba1 Cl5 69.96(3) . 1_455
Cl1 Ba1 Cl5 131.32(3) 2_545 1_455
Cl3 Ba1 Cl2 113.26(3) 2_545 .
Cl5 Ba1 Cl2 90.42(3) 2_645 .
Cl3 Ba1 Cl2 77.96(3) 4_565 .
Cl2 Ba1 Cl2 140.185(19) 2_545 .
Cl1 Ba1 Cl2 67.58(3) . .
Cl1 Ba1 Cl2 145.19(3) 2_545 .
Cl5 Ba1 Cl2 81.01(3) 1_455 .
Cl3 Ba1 Ba1 112.08(2) 2_545 2_545
Cl5 Ba1 Ba1 44.625(19) 2_645 2_545
Cl3 Ba1 Ba1 97.463(19) 4_565 2_545
Cl2 Ba1 Ba1 44.85(2) 2_545 2_545
Cl1 Ba1 Ba1 84.96(2) . 2_545
Cl1 Ba1 Ba1 44.43(2) 2_545 2_545
Cl5 Ba1 Ba1 124.93(2) 1_455 2_545
Cl2 Ba1 Ba1 133.48(2) . 2_545
Cl3 Ba1 Ba1 105.63(2) 2_545 2
Cl5 Ba1 Ba1 109.37(2) 2_645 2
Cl3 Ba1 Ba1 120.14(2) 4_565 2
Cl2 Ba1 Ba1 102.09(2) 2_545 2
Cl1 Ba1 Ba1 44.491(19) . 2
Cl1 Ba1 Ba1 170.52(2) 2_545 2
Cl5 Ba1 Ba1 43.23(2) 1_455 2
Cl2 Ba1 Ba1 43.537(18) . 2
Ba1 Ba1 Ba1 129.038(13) 2_545 2
Cl3 Ba1 Ba1 41.953(18) 2_545 3
Cl5 Ba1 Ba1 112.68(2) 2_645 3
Cl3 Ba1 Ba1 41.57(2) 4_565 3
Cl2 Ba1 Ba1 121.60(2) 2_545 3
Cl1 Ba1 Ba1 164.06(2) . 3
Cl1 Ba1 Ba1 65.86(2) 2_545 3
Cl5 Ba1 Ba1 104.40(2) 1_455 3
Cl2 Ba1 Ba1 97.08(2) . 3
Ba1 Ba1 Ba1 109.782(8) 2_545 3
Ba1 Ba1 Ba1 121.179(9) 2 3
Cl3 Ba1 Cs1 128.858(19) 2_545 .
Cl5 Ba1 Cs1 50.295(19) 2_645 .
Cl3 Ba1 Cs1 48.63(2) 4_565 .
Cl2 Ba1 Cs1 132.99(2) 2_545 .
Cl1 Ba1 Cs1 84.389(19) . .
Cl1 Ba1 Cs1 98.674(19) 2_545 .
Cl5 Ba1 Cs1 129.55(2) 1_455 .
Cl2 Ba1 Cs1 48.777(19) . .
Ba1 Ba1 Cs1 93.585(8) 2_545 .
Ba1 Ba1 Cs1 88.191(8) 2 .
Ba1 Ba1 Cs1 88.528(8) 3 .
Cl4 Ba2 Cl2 93.21(3) 2_655 .
Cl4 Ba2 Cl4 72.75(3) 2_655 4_565
Cl2 Ba2 Cl4 87.99(3) . 4_565
Cl4 Ba2 Cl1 126.95(3) 2_655 2
Cl2 Ba2 Cl1 75.36(3) . 2
Cl4 Ba2 Cl1 154.12(3) 4_565 2
Cl4 Ba2 Cl1 155.38(3) 2_655 4_565
Cl2 Ba2 Cl1 83.67(3) . 4_565
Cl4 Ba2 Cl1 82.72(3) 4_565 4_565
Cl1 Ba2 Cl1 75.96(3) 2 4_565
Cl4 Ba2 Cl5 105.09(3) 2_655 3_665
Cl2 Ba2 Cl5 157.27(3) . 3_665
Cl4 Ba2 Cl5 84.77(3) 4_565 3_665
Cl1 Ba2 Cl5 102.96(3) 2 3_665
Cl1 Ba2 Cl5 74.06(3) 4_565 3_665
Cl4 Ba2 Cl3 78.91(3) 2_655 4_575
Cl2 Ba2 Cl3 128.48(3) . 4_575
Cl4 Ba2 Cl3 134.89(3) 4_565 4_575
Cl1 Ba2 Cl3 70.17(3) 2 4_575
Cl1 Ba2 Cl3 121.83(3) 4_565 4_575
Cl5 Ba2 Cl3 69.50(3) 3_665 4_575
Cl4 Ba2 Cs1 57.40(2) 2_655 3_665
Cl2 Ba2 Cs1 150.61(2) . 3_665
Cl4 Ba2 Cs1 83.57(2) 4_565 3_665
Cl1 Ba2 Cs1 120.35(2) 2 3_665
Cl1 Ba2 Cs1 122.79(2) 4_565 3_665
Cl5 Ba2 Cs1 49.51(2) 3_665 3_665
Cl3 Ba2 Cs1 51.467(18) 4_575 3_665
Cl4 Ba2 Ba1 113.61(2) 2_655 3_565
Cl2 Ba2 Ba1 140.18(2) . 3_565
Cl4 Ba2 Ba1 126.84(2) 4_565 3_565
Cl1 Ba2 Ba1 65.08(2) 2 3_565
Cl1 Ba2 Ba1 82.71(2) 4_565 3_565
Cl5 Ba2 Ba1 42.069(18) 3_665 3_565
Cl3 Ba2 Ba1 40.41(2) 4_575 3_565
Cs1 Ba2 Ba1 63.050(6) 3_665 3_565
Cl4 Ba2 Ba1 101.36(2) 2_655 2
Cl2 Ba2 Ba1 39.519(19) . 2
Cl4 Ba2 Ba1 127.43(2) 4_565 2
Cl1 Ba2 Ba1 40.54(2) 2 2
Cl1 Ba2 Ba1 91.740(19) 4_565 2
Cl5 Ba2 Ba1 143.49(2) 3_665 2
Cl3 Ba2 Ba1 91.774(19) 4_575 2
Cs1 Ba2 Ba1 138.159(7) 3_665 2
Ba1 Ba2 Ba1 103.851(6) 3_565 2
Cl4 Ba2 Cs1 44.29(2) 2_655 2_655
Cl2 Ba2 Cs1 51.93(2) . 2_655
Cl4 Ba2 Cs1 88.71(2) 4_565 2_655
Cl1 Ba2 Cs1 96.06(2) 2 2_655
Cl1 Ba2 Cs1 135.11(2) 4_565 2_655
Cl5 Ba2 Cs1 148.96(2) 3_665 2_655
Cl3 Ba2 Cs1 94.89(2) 4_575 2_655
Cs1 Ba2 Cs1 99.635(7) 3_665 2_655
Ba1 Ba2 Cs1 134.366(7) 3_565 2_655
Ba1 Ba2 Cs1 59.681(6) 2 2_655
Cl4 Ba2 Cs1 39.80(2) 2_655 1_565
Cl2 Ba2 Cs1 103.51(2) . 1_565
Cl4 Ba2 Cs1 111.38(2) 4_565 1_565
Cl1 Ba2 Cs1 91.96(2) 2 1_565
Cl1 Ba2 Cs1 164.10(2) 4_565 1_565
Cl5 Ba2 Cs1 99.19(2) 3_665 1_565
Cl3 Ba2 Cs1 42.85(2) 4_575 1_565
Cs1 Ba2 Cs1 54.725(7) 3_665 1_565
Ba1 Ba2 Cs1 82.808(6) 3_565 1_565
Ba1 Ba2 Cs1 85.386(6) 2 1_565
Cs1 Ba2 Cs1 55.409(5) 2_655 1_565
Ba2 Cl1 Ba2 104.04(3) 2_545 4_566
Ba2 Cl1 Ba1 100.45(3) 2_545 .
Ba2 Cl1 Ba1 106.31(3) 4_566 .
Ba2 Cl1 Ba1 105.46(3) 2_545 2
Ba2 Cl1 Ba1 142.16(4) 4_566 2
Ba1 Cl1 Ba1 91.08(3) . 2
Ba2 Cl2 Ba1 101.98(3) . 2
Ba2 Cl2 Ba1 121.88(4) . .
Ba1 Cl2 Ba1 91.61(3) 2 .
Ba2 Cl2 Cs1 104.19(3) . .
Ba1 Cl2 Cs1 149.45(4) 2 .
Ba1 Cl2 Cs1 87.80(2) . .
Ba2 Cl2 Cs1 90.01(3) . 2_655
Ba1 Cl2 Cs1 86.73(3) 2 2_655
Ba1 Cl2 Cs1 147.57(4) . 2_655
Cs1 Cl2 Cs1 77.83(2) . 2_655
Ba1 Cl3 Ba1 96.48(3) 2 4_566
Ba1 Cl3 Ba2 98.25(3) 2 4_576
Ba1 Cl3 Ba2 104.98(3) 4_566 4_576
Ba1 Cl3 Cs1 159.51(3) 2 4_566
Ba1 Cl3 Cs1 89.25(3) 4_566 4_566
Ba2 Cl3 Cs1 99.23(3) 4_576 4_566
Ba1 Cl3 Cs1 93.07(3) 2 2_655
Ba1 Cl3 Cs1 164.97(4) 4_566 2_655
Ba2 Cl3 Cs1 85.01(2) 4_576 2_655
Cs1 Cl3 Cs1 77.92(2) 4_566 2_655
Ba2 Cl4 Ba2 107.25(3) 2_645 4_566
Ba2 Cl4 Cs1 105.06(3) 2_645 2_655
Ba2 Cl4 Cs1 144.76(4) 4_566 2_655
Ba2 Cl4 Cs1 98.69(3) 2_645 .
Ba2 Cl4 Cs1 102.93(3) 4_566 .
Cs1 Cl4 Cs1 85.57(3) 2_655 .
Ba2 Cl4 Cs1 81.70(3) 2_645 4_566
Ba2 Cl4 Cs1 95.68(3) 4_566 4_566
Cs1 Cl4 Cs1 75.39(2) 2_655 4_566
Cs1 Cl4 Cs1 160.29(3) . 4_566
Ba1 Cl5 Ba2 106.31(3) 2_655 3_665
Ba1 Cl5 Ba1 92.14(3) 2_655 1_655
Ba2 Cl5 Ba1 96.56(3) 3_665 1_655
Ba1 Cl5 Cs1 164.81(4) 2_655 .
Ba2 Cl5 Cs1 87.02(3) 3_665 .
Ba1 Cl5 Cs1 93.55(3) 1_655 .
Ba1 Cl5 Cs1 87.81(3) 2_655 2_655
Ba2 Cl5 Cs1 99.62(3) 3_665 2_655
Ba1 Cl5 Cs1 163.16(4) 1_655 2_655
Cs1 Cl5 Cs1 82.69(2) . 2_655
loop_
_geom_bond_atom_site_label_1
_geom_bond_atom_site_label_2
_geom_bond_distance
_geom_bond_site_symmetry_2
Cs1 Cl4 3.3675(11) 2_645
Cs1 Cl5 3.4855(11) .
Cs1 Cl3 3.5003(12) 4_565
Cs1 Cl2 3.5103(11) .
Cs1 Cl4 3.5128(12) .
Cs1 Cl5 3.5905(10) 2_645
Cs1 Cl3 3.5936(10) 2_645
Cs1 Cl4 3.8962(12) 4_565
Cs1 Cl2 3.9148(12) 2_645
Cs1 Cs1 4.4611(6) 3_655
Cs1 Ba2 4.5766(4) 3_665
Cs1 Ba1 4.6635(4) .
Ba1 Cl3 3.1043(12) 2_545
Ba1 Cl5 3.1167(11) 2_645
Ba1 Cl3 3.1277(10) 4_565
Ba1 Cl2 3.1335(10) 2_545
Ba1 Cl1 3.1838(11) .
Ba1 Cl1 3.1872(10) 2_545
Ba1 Cl5 3.1965(10) 1_455
Ba1 Cl2 3.2082(11) .
Ba1 Ba1 4.5472(3) 2_545
Ba1 Ba1 4.5472(3) 2
Ba1 Ba1 4.6487(6) 3
Ba2 Cl4 3.0284(12) 2_655
Ba2 Cl2 3.0653(11) .
Ba2 Cl4 3.0730(10) 4_565
Ba2 Cl1 3.0831(10) 2
Ba2 Cl1 3.0856(11) 4_565
Ba2 Cl5 3.1528(12) 3_665
Ba2 Cl3 3.1634(10) 4_575
