#------------------------------------------------------------------------------
#$Date: 2021-03-03 10:12:29 +0200 (Wed, 03 Mar 2021) $
#$Revision: 262382 $
#$URL: file:///home/coder/svn-repositories/cod/cif/1/56/07/1560769.cif $
#------------------------------------------------------------------------------
#
# This file is available in the Crystallography Open Database (COD),
# http://www.crystallography.net/
#
# All data on this site have been placed in the public domain by the
# contributors.
#
data_1560769
loop_
_publ_author_name
'Smaha, Rebecca W.'
'He, Wei'
'Sheckelton, John P.'
'Wen, Jiajia'
'Lee, Young S.'
_publ_section_title
;
 Synthesis-dependent properties of barlowite and Zn-substituted barlowite
;
_journal_name_full               'Journal of Solid State Chemistry'
_journal_page_first              123
_journal_page_last               129
_journal_paper_doi               10.1016/j.jssc.2018.08.016
_journal_volume                  268
_journal_year                    2018
_chemical_formula_moiety         '1(Br1), Cu4 H6 O6, 1(F1)'
_chemical_formula_sum            'Br Cu4 F H6 O6'
_chemical_formula_weight         455.12
_chemical_name_systematic        barlowite
_space_group_crystal_system      hexagonal
_space_group_IT_number           194
_space_group_name_Hall           '-P 6c 2c'
_space_group_name_H-M_alt        'P 63/m m c'
_atom_sites_solution_hydrogens   difmap
_cell_angle_alpha                90
_cell_angle_beta                 90
_cell_angle_gamma                120
_cell_formula_units_Z            2
_cell_length_a                   6.6704(2)
_cell_length_b                   6.6704(2)
_cell_length_c                   9.2864(2)
_cell_measurement_reflns_used    9945
_cell_measurement_temperature    296(2)
_cell_measurement_theta_max      20.148
_cell_measurement_theta_min      2.414
_cell_volume                     357.834(17)
_computing_cell_refinement       'SAINT V8.38A (?, 2016)'
_computing_data_reduction        'SAINT V8.38A (?, 2016)'
_computing_molecular_graphics    'Olex2 (Dolomanov et al., 2009)'
_computing_publication_material  'Olex2 (Dolomanov et al., 2009)'
_computing_structure_refinement  'XL (Sheldrick, 2008)'
_diffrn_ambient_temperature      296.15
_diffrn_measured_fraction_theta_full 1.000
_diffrn_measured_fraction_theta_max 1.000
_diffrn_measurement_device_type  'Bruker APEX-II CCD'
_diffrn_measurement_method       '\f and \w scans'
_diffrn_radiation_type           synchrotron
_diffrn_radiation_wavelength     0.41328
_diffrn_reflns_av_R_equivalents  0.0606
_diffrn_reflns_av_unetI/netI     0.0143
_diffrn_reflns_Laue_measured_fraction_full 1.000
_diffrn_reflns_Laue_measured_fraction_max 1.000
_diffrn_reflns_limit_h_max       11
_diffrn_reflns_limit_h_min       -11
_diffrn_reflns_limit_k_max       11
_diffrn_reflns_limit_k_min       -11
_diffrn_reflns_limit_l_max       15
_diffrn_reflns_limit_l_min       -15
_diffrn_reflns_number            14595
_diffrn_reflns_point_group_measured_fraction_full 1.000
_diffrn_reflns_point_group_measured_fraction_max 1.000
_diffrn_reflns_theta_full        14.357
_diffrn_reflns_theta_max         20.148
_diffrn_reflns_theta_min         2.050
_diffrn_standards_number         0
_exptl_absorpt_coefficient_mu    3.903
_exptl_absorpt_correction_T_max  0.7445
_exptl_absorpt_correction_T_min  0.6672
_exptl_absorpt_correction_type   multi-scan
_exptl_absorpt_process_details
;
'SADABS-2016/2 (Bruker,2016/2) was used for absorption correction.
wR2(int) was 0.0929 before and 0.0790 after correction. The Ratio 
of minimum to maximum transmission is 0.8962. The \l/2 correction
factor is Not present.'
;
_exptl_crystal_colour            'clear green'
_exptl_crystal_colour_lustre     clear
_exptl_crystal_colour_primary    green
_exptl_crystal_density_diffrn    4.224
_exptl_crystal_description       hexagonal
_exptl_crystal_F_000             428
_exptl_crystal_size_max          0.115
_exptl_crystal_size_mid          0.115
_exptl_crystal_size_min          0.038
_refine_diff_density_max         0.710
_refine_diff_density_min         -1.406
_refine_diff_density_rms         0.227
_refine_ls_extinction_coef       2.65(7)
_refine_ls_extinction_expression Fc^*^=kFc[1+0.001xFc^2^\l^3^/sin(2\q)]^-1/4^
_refine_ls_extinction_method     'SHELXL-2014/7 (Sheldrick 2014'
_refine_ls_goodness_of_fit_ref   1.234
_refine_ls_hydrogen_treatment    refxyz
_refine_ls_matrix_type           full
_refine_ls_number_parameters     22
_refine_ls_number_reflns         368
_refine_ls_number_restraints     1
_refine_ls_restrained_S_all      1.232
_refine_ls_R_factor_all          0.0207
_refine_ls_R_factor_gt           0.0207
_refine_ls_shift/su_max          0.000
_refine_ls_shift/su_mean         0.000
_refine_ls_structure_factor_coef Fsqd
_refine_ls_weighting_details
'w=1/[\s^2^(Fo^2^)+(0.0289P)^2^+0.0681P] where P=(Fo^2^+2Fc^2^)/3'
_refine_ls_weighting_scheme      calc
_refine_ls_wR_factor_gt          0.0456
_refine_ls_wR_factor_ref         0.0456
_reflns_Friedel_coverage         0.000
_reflns_Friedel_fraction_full    .
_reflns_Friedel_fraction_max     .
_reflns_number_gt                368
_reflns_number_total             368
_reflns_threshold_expression     'I > 2\s(I)'
_cod_data_source_file            JSSC-2018-268-123.cif
_cod_data_source_block           2_RS49
_cod_original_cell_volume        357.83(2)
_cod_database_code               1560769
_shelx_space_group_comment
;
The symmetry employed for this shelxl refinement is uniquely defined
by the following loop, which should always be used as a source of
symmetry information in preference to the above space-group names.
They are only intended as comments.
;
_shelx_estimated_absorpt_t_max   0.866
_shelx_estimated_absorpt_t_min   0.662
_shelx_res_file
;
    sg194_a.res created by SHELXL-2014/7

TITL sg194_a.res in P6(3)/mmc
REM Old TITL sg194 in P6(3)/mmc
REM SHELXT solution in P6(3)/mmc
REM R1 0.334, Rweak 0.009, Alpha 0.066, Orientation as input
REM Formula found by SHELXT: Br Cu3 F8 O2
CELL 0.41328 6.6704 6.6704 9.2864 90 90 120
ZERR 2 0.0002 0.0002 0.0002 0 0 0
LATT 1
SYMM -Y,+X-Y,+Z
SYMM +Y-X,-X,+Z
SYMM -X,-Y,0.5+Z
SYMM +Y,-X+Y,0.5+Z
SYMM -Y+X,+X,0.5+Z
SYMM +Y,+X,-Z
SYMM -Y+X,-Y,-Z
SYMM -X,-X+Y,-Z
SYMM -Y,-X,0.5-Z
SYMM +Y-X,+Y,0.5-Z
SYMM +X,+X-Y,0.5-Z
SFAC Br Cu F H O
DISP Br 0.286 0.964 2319.32
DISP Cu 0.247 0.471 1146.04
DISP F 0.004 0.003 14.4
DISP H 0 0 0.64
DISP O 0.002 0.002 10.24
UNIT 2 8 2 12 12
DFIX 0.84 O1 H1

L.S. 50
PLAN  10
SIZE 0.038 0.115 0.115
TEMP 23
fmap 2
acta
REM <olex2.extras>
REM <HklSrc "%.\\sg194_a.hkl">
REM </olex2.extras>

WGHT    0.028900    0.068100
EXTI    2.648594
FVAR       1.10307
BR1   1    0.666667    0.333333    0.750000    10.08333    0.01815    0.01815 =
         0.01264    0.00000    0.00000    0.00907
CU1   2    0.500000    0.500000    0.500000    10.25000    0.00968    0.00968 =
         0.02005   -0.00179    0.00179    0.00531
PART 2
CU2   2    0.628902    0.257805    0.250000    10.08333    0.00984    0.01581 =
         0.00808    0.00000    0.00000    0.00791
PART 0
O1    5    0.404214    0.202107    0.408096    10.50000    0.01042    0.01022 =
         0.01476   -0.00090   -0.00180    0.00521

F1    3    0.000000    0.000000    0.250000    10.08333    0.01817    0.01817 =
         0.03348    0.00000    0.00000    0.00908
H1    4    0.267367    0.133684    0.374342    10.50000   -1.50000
HKLF 4

REM  sg194_a.res in P6(3)/mmc
REM R1 =  0.0207 for     368 Fo > 4sig(Fo)  and  0.0207 for all     368 data
REM     22 parameters refined using      1 restraints

END

WGHT      0.0289      0.0681

REM Highest difference peak  0.710,  deepest hole -1.406,  1-sigma level  0.227
Q1    1   0.4973  0.5027  0.6128  10.50000  0.05    0.71
Q2    1   0.0000  0.0000  0.0995  10.16667  0.05    0.59
Q3    1   0.0000  0.0000  0.5000  10.08333  0.05    0.59
Q4    1   0.6667  0.3333  0.8623  10.16667  0.05    0.53
Q5    1   0.6667  0.3333  0.1349  10.16667  0.05    0.37
Q6    1   0.5596  0.4404  0.6280  10.50000  0.05    0.32
Q7    1   0.4316  0.3892  0.6438  11.00000  0.05    0.31
Q8    1   0.6083  0.3917  0.5481  10.50000  0.05    0.28
Q9    1   0.1663  0.3325  0.3380  10.50000  0.05    0.26
Q10   1   0.0375  0.0750  0.1597  10.50000  0.05    0.26
;
_shelx_res_checksum              19791
_shelx_hkl_file
;
  -1   0   0 2358.26  151.28
  -1   0   0 2214.78  151.28
  -1   0   0 2178.98  151.28
  -1   0   0 1983.80  151.28
   0  -1   0 2259.17  151.28
   0  -1   0 2052.99  151.28
   0   1   0 2202.88  151.28
   0   1   0 2427.76  151.28
   1  -1   0 2343.37  151.28
   1  -1   0 2104.79  151.28
   1   0   0 2168.28  151.28
   1   0   0 1990.20  151.28
   1   0   0 2501.75  151.28
   1   0   0 2522.95  151.28
   1  -2   0 1214.68   89.19
   1  -2   0 1157.98   89.19
   1  -2   0 1251.47   89.19
   2  -1   0 1477.45   89.29
   2  -1   0 1166.58   89.19
  -1   2   0 1461.35   89.19
  -1   2   0 1339.07   89.19
  -1   2   0 1307.17   89.19
  -2   1   0 1356.96   89.29
  -2   1   0 1366.16   89.29
  -2   1   0 1393.56   89.29
   2   0   0 2812.22  175.68
  -2   0   0 2774.02  175.68
  -2   0   0 2702.43  175.68
   2   0   0 2885.61  175.58
   0   2   0 2569.84  175.58
   2  -2   0 2249.18  175.68
  -2   0   0 2391.46  175.58
  -2   0   0 2540.95  175.58
   2   0   0 2574.44  175.68
  -2   2   0 2560.24  175.68
   0  -2   0 2715.93  175.58
   2   0   0 2681.83  175.58
   0  -2   0 2486.25  175.58
   0  -2   0 2528.15  175.58
   0  -2   0 2786.52  175.58
   0   2   0 2275.17  175.58
  -1   3   0 1094.59   76.19
  -1   3   0 1015.10   76.19
  -1   3   0  981.60   76.09
  -1   3   0 1017.00   76.09
   3  -1   0 1274.57   76.29
   3  -1   0 1061.99   76.19
   3  -1   0 1016.50   76.29
   3  -1   0 1206.28   76.29
  -3   2   0 1215.48   76.29
  -3   2   0 1282.87   76.29
   1  -3   0 1156.78   76.19
   1  -3   0 1091.09   76.19
   2   1   0 1241.58   76.09
   2   1   0 1054.29   76.09
   2  -3   0 1080.09   76.29
  -3   2   0 1070.09   76.29
   1  -3   0 1013.10   76.19
  -3   1   0 1246.38   76.19
  -3   1   0 1066.19   76.29
  -3   1   0 1205.08   76.29
  -2   3   0 1121.09   76.29
  -2   3   0 1109.89   76.19
  -2   3   0  994.70   76.29
   2  -3   0 1106.59   76.19
   2  -3   0 1126.19   76.29
  -3   2   0 1239.28   76.29
   3  -2   0 1088.69   76.29
   3  -2   0 1201.48   76.29
   3  -2   0 1193.68   76.29
  -3   1   0 1164.18   76.29
   3   0   0  178.48   12.80
   0   3   0  209.08   12.80
   3   0   0  205.78   12.90
   3   0   0  214.38   12.80
   3  -3   0  196.98   13.00
  -3   3   0  177.08   12.90
   0  -3   0  171.08   12.70
   0  -3   0  173.18   12.70
   0  -3   0  187.78   12.80
  -3   0   0  181.38   12.80
  -3   0   0  175.88   12.80
  -3   0   0  171.28   12.80
  -3   3   0  192.48   13.00
   0   3   0  190.28   12.80
   0  -3   0  199.98   12.80
   3  -3   0  168.28   12.90
   3   0   0  184.88   12.70
  -2   4   0 8608.14  613.14
  -2  -2   0 8512.35  612.84
   2  -4   0 9002.10  613.14
  -4   2   0 9095.69  613.14
  -2   4   0 9054.09  613.14
   2  -4   0 9521.15  613.14
  -2  -2   0 9391.16  612.84
   4  -2   0 7933.51  613.14
  -4   2   0 9397.76  613.24
   4  -2   0 9298.77  613.14
   4  -2   0 9044.20  613.24
   4  -2   0 9672.23  613.14
   2  -4   0 8775.22  613.14
   2   2   0 9999.00  612.94
   2  -4   0 8658.33  613.14
  -4   3   0 2118.89  158.48
  -3  -1   0 2592.74  158.18
  -3  -1   0 2648.44  158.18
   4  -1   0 2271.87  158.38
  -3   4   0 2009.90  158.38
  -4   1   0 2554.34  158.38
  -3   4   0 2225.28  158.38
   3   1   0 2520.05  158.18
   4  -3   0 2072.59  158.38
   4  -3   0 2404.96  158.48
  -4   1   0 2455.35  158.38
  -4   1   0 2205.78  158.38
  -4   1   0 2450.45  158.38
   1   3   0 2537.85  158.18
   3  -4   0 2189.38  158.38
   3  -4   0 2061.09  158.38
   1  -4   0 2738.73  158.28
   1  -4   0 2366.96  158.28
  -1   4   0 2202.98  158.18
  -1   4   0 2299.47  158.38
  -1   4   0 2269.97  158.28
  -1   4   0 2114.29  158.18
   3  -4   0 2587.34  158.58
   3  -4   0 2577.14  158.48
   4  -1   0 2494.65  158.38
   4  -1   0 2214.38  158.28
   4  -1   0 2113.39  158.38
  -3   4   0 2064.29  158.38
   1  -4   0 2411.56  158.38
  -4   3   0 2227.58  158.38
  -3  -1   0 2474.75  158.18
   0  -4   0 3789.22  227.38
   0   4   0 3161.18  227.48
   0  -4   0 3626.74  227.38
   4   0   0 3742.33  227.58
   4   0   0 3880.11  227.58
   0   4   0 3362.56  227.48
   4  -4   0 3091.79  227.68
   4   0   0 3031.70  227.38
  -4   0   0 3202.28  227.48
  -4   0   0 3406.06  227.48
  -4   0   0 3026.40  227.48
  -4   0   0 3647.74  227.58
  -4   4   0 3095.59  227.58
   0  -4   0 2996.50  227.48
  -2   5   0 2671.63  171.18
  -5   3   0 2559.14  171.18
   2  -5   0 2579.64  171.18
   5  -3   0 2321.17  171.18
   5  -3   0 2630.54  171.18
  -5   3   0 2723.03  171.18
   2  -5   0 2269.57  170.98
  -3   5   0 2156.48  170.98
   5  -2   0 2459.15  171.08
   2  -5   0 2752.72  171.08
   2  -5   0 2197.18  171.08
   3   2   0 2816.42  170.88
  -5   2   0 2833.82  171.08
  -5   3   0 2385.36  171.18
  -5   3   0 2282.37  171.18
  -2   5   0 2738.53  170.98
   5  -3   0 2554.54  171.18
   5  -1   0  169.88   12.80
   5  -1   0  183.48   12.90
   1  -5   0  211.68   12.90
   1  -5   0  167.58   12.80
   4  -5   0  186.38   12.90
   4  -5   0  202.58   13.10
   4  -5   0  181.28   13.00
  -4   5   0  160.78   12.90
   5  -4   0  180.38   12.90
   1  -5   0  200.18   12.80
   1  -5   0  194.58   12.80
  -5   4   0  193.78   13.00
  -5   4   0  203.68   13.10
  -4  -1   0  189.18   12.80
  -4  -1   0  195.78   12.70
  -4  -1   0  168.88   12.70
  -5   1   0  168.98   12.90
   5  -4   0  180.58   12.90
   4  -5   0  196.08   13.00
  -5   4   0  181.58   12.90
   4   1   0  196.78   12.80
   5  -4   0  190.78   13.10
   5  -4   0  185.48   13.00
  -4   5   0  161.58   12.90
  -5   4   0  179.28   13.00
  -1   5   0  197.48   12.80
  -4   5   0  190.58   12.90
  -4   5   0  172.28   12.90
   5  -1   0  191.48   12.80
  -4  -1   0  204.38   12.80
  -5   1   0  174.68   12.80
  -1  -4   0  180.18   12.60
  -1  -4   0  173.18   12.60
  -1   5   0  198.68   12.80
  -5   1   0  168.68   12.80
   0  -5   0    2.90    0.40
   0  -5   0    2.10    0.30
   5  -5   0    2.90    0.50
  -5   5   0    2.40    0.50
   5   0   0    2.20    0.20
   5   0   0    2.30    0.40
   5   0   0    2.90    0.40
  -5   5   0    1.90    0.40
  -5   5   0    2.10    0.50
   0   5   0    3.10    0.40
  -5   0   0    1.90    0.40
   5   0   0    2.70    0.30
   5  -5   0    2.50    0.50
   5  -5   0    2.10    0.50
  -5   0   0    1.50    0.30
  -5   5   0    2.90    0.60
   5  -5   0    1.70    0.50
  -6   3   0  700.63   44.60
   6  -3   0  695.83   44.70
   3  -6   0  665.23   44.70
  -6   3   0  688.73   44.70
   3  -6   0  653.43   44.60
  -6   3   0  694.83   44.70
  -3   6   0  605.34   44.50
   3  -6   0  684.63   44.60
   6  -3   0  573.34   44.50
  -3   6   0  588.84   44.60
   6  -3   0  674.83   44.70
  -3   6   0  578.54   44.60
   6  -3   0  723.13   44.70
   3  -6   0  620.94   44.60
   4  -6   0 3267.57  221.18
   6  -2   0 2955.70  221.08
  -4   6   0 3312.27  221.18
   6  -4   0 3420.06  221.28
   4   2   0 3190.28  220.88
  -4   6   0 2985.10  221.18
   6  -4   0 3498.45  221.18
   6  -4   0 2943.51  221.28
   2  -6   0 3365.76  221.08
   6  -2   0 3103.09  221.08
  -6   4   0 3357.06  221.38
  -6   2   0 3337.77  221.18
  -4  -2   0 3670.73  220.88
  -2   6   0 3619.44  220.98
  -2   6   0 2951.40  220.98
  -4  -2   0 3625.74  220.98
  -6   4   0 3491.55  221.38
   6  -2   0 3351.06  221.28
  -4   6   0 3046.30  221.28
   6  -4   0 2912.21  221.18
  -6   2   0 3267.67  221.28
  -4  -2   0 3452.95  220.98
  -6   4   0 3269.97  221.18
  -6   4   0 3099.79  221.18
  -4  -2   0 3536.25  220.88
   4  -6   0 3081.29  221.28
   4  -6   0 3312.27  221.28
  -6   2   0 2958.00  221.08
   6  -2   0 3468.25  221.28
  -2   6   0 3256.77  221.18
  -6   2   0 3101.69  221.18
  -5  -1   0 2006.60  127.29
  -5  -1   0 2129.59  127.29
  -1  -5   0 1821.52  127.09
   6  -1   0 1876.51  127.39
   6  -1   0 1972.30  127.49
  -5  -1   0 1877.51  127.29
   6  -1   0 1883.81  127.29
   5  -6   0 1771.82  127.59
  -1   6   0 2030.70  127.39
   5   1   0 1931.11  127.29
  -1   6   0 1879.61  127.29
   1   5   0 2122.29  127.19
   1   5   0 2109.69  127.19
   1  -6   0 1888.31  127.29
  -6   1   0 1801.82  127.39
   5  -6   0 1745.33  127.39
   6  -5   0 1713.13  127.49
  -5   6   0 1685.73  127.39
  -5  -1   0 2096.49  127.39
  -6   1   0 1938.61  127.49
  -5   6   0 1808.92  127.59
   6  -5   0 1637.54  127.49
  -1  -5   0 2119.29  127.09
   6  -5   0 1761.02  127.49
  -6   5   0 1743.63  127.49
   1  -6   0 1801.92  127.29
  -6   5   0 1586.04  127.49
   5   1   0 1870.71  127.29
  -5   6   0 2015.50  127.49
   5  -6   0 1753.12  127.49
  -6   1   0 1866.31  127.39
   6  -1   0 1960.70  127.29
   1  -6   0 1665.43  127.29
   1  -6   0 1739.03  127.29
  -1  -5   0 2156.78  127.09
   5  -6   0 1760.72  127.49
  -6   5   0 1949.41  127.59
   6  -6   0 4272.67  336.57
   6  -6   0 5118.19  336.77
  -6   6   0 4495.95  336.57
   0   6   0 5326.47  336.37
   6  -6   0 4615.54  336.67
   0  -6   0 5586.54  336.47
  -6   0   0 4948.41  336.57
   0  -6   0 5287.87  336.37
  -6   6   0 4906.21  336.77
   0  -6   0 4889.01  336.37
  -6   0   0 5684.83  336.57
  -6   0   0 4251.07  336.37
  -6   0   0 5114.09  336.47
   6   0   0 5098.89  336.47
   7  -4   0  416.26   33.50
  -4   7   0  445.66   33.30
  -7   4   0  488.15   33.50
  -7   4   0  496.35   33.50
   4  -7   0  453.65   33.40
  -4   7   0  497.45   33.50
   7  -3   0  414.56   33.30
  -7   4   0  488.55   33.40
   7  -3   0  487.85   33.50
   4  -7   0  498.45   33.50
  -7   3   0  501.55   33.50
   3  -7   0  524.45   33.40
   7  -4   0  492.95   33.50
   7  -4   0  491.95   33.40
  -7   4   0  506.85   33.50
   7  -4   0  446.76   33.50
  -4   7   0  494.05   33.30
   7  -3   0  487.25   33.50
  -4  -3   0  501.95   33.00
  -7   3   0  491.45   33.40
  -4   7   0  479.25   33.50
   4  -7   0  526.95   33.40
   4  -7   0  484.55   33.50
  -7   3   0  501.55   33.50
  -4  -3   0  508.25   33.00
   3  -7   0  538.85   33.50
  -7   3   0  454.35   33.50
  -3   7   0  470.75   33.40
  -3   7   0  524.95   33.50
  -3   7   0  485.65   33.30
   5  -7   0   50.69    4.10
  -7   5   0   52.79    4.20
   5  -7   0   47.10    4.10
  -7   2   0   53.59    4.10
   2  -7   0   57.69    4.00
   7  -2   0   53.39    4.00
  -7   2   0   62.49    4.20
  -5  -2   0   55.69    3.80
  -5  -2   0   57.69    3.90
   7  -2   0   52.29    4.10
   2  -7   0   50.39    4.00
  -7   5   0   46.20    4.10
  -5   7   0   53.39    4.10
  -5   7   0   55.09    4.10
   7  -2   0   49.60    4.10
  -2   7   0   51.19    4.00
   5   2   0   53.79    3.80
   5  -7   0   50.69    4.10
  -2   7   0   46.90    3.70
  -5  -2   0   58.69    3.90
  -5  -2   0   50.89    3.80
  -2   7   0   54.89    3.80
  -7   5   0   57.59    4.10
   5   2   0   50.49    3.80
   5  -7   0   53.49    4.20
   7  -5   0   59.69    4.20
   7  -2   0   44.20    3.90
  -5   7   0   55.29    4.20
  -5   7   0   51.09    4.20
   7  -5   0   54.69    4.10
   7  -5   0   53.99    4.10
   2  -7   0   58.89    4.10
  -7   2   0   53.39    4.20
   7  -5   0   46.40    4.20
  -7   6   0  366.36   24.00
   1   6   0  331.37   23.50
   7  -6   0  328.97   23.90
  -1  -6   0  329.37   23.50
  -1  -6   0  328.77   23.50
  -7   6   0  384.36   24.20
  -7   6   0  367.06   24.00
   6  -7   0  323.67   24.00
   6  -7   0  364.86   24.00
  -6  -1   0  365.06   23.80
  -6   7   0  289.27   24.00
  -7   6   0  342.87   24.10
  -7   1   0  354.46   23.90
   6   1   0  345.87   23.80
  -6  -1   0  365.36   23.70
   6   1   0  345.27   23.70
   7  -6   0  302.07   23.90
  -1   7   0  323.97   23.70
   7  -1   0  345.57   23.70
   6  -7   0  332.47   23.90
  -1   7   0  347.37   23.80
   7  -1   0  339.37   23.60
  -6   7   0  404.06   24.10
  -6   7   0  389.26   24.00
  -1  -6   0  361.76   23.50
   7  -1   0  361.36   23.90
  -7   1   0  323.77   23.90
  -6  -1   0  353.66   23.70
  -6   7   0  343.97   24.00
   6  -7   0  355.86   24.00
   1  -7   0  353.16   23.80
   7  -1   0  347.77   23.90
   1  -7   0  345.37   23.80
  -7   1   0  312.07   23.80
   1  -7   0  310.67   23.70
   1  -7   0  371.96   23.90
   1   6   0  343.67   23.50
  -1  -6   0  335.47   23.50
  -7   7   0 1300.77  100.19
   0   7   0 1563.34   99.99
   7   0   0 1523.85  100.09
   0  -7   0 1594.24   99.99
  -7   0   0 1374.66  100.09
   7   0   0 1524.55  100.19
   0  -7   0 1589.94   99.99
   0  -7   0 1377.56   99.89
  -7   0   0 1378.56  100.09
   0   7   0 1504.05   99.99
   8  -4   0 3946.11  247.18
  -8   4   0 4011.10  247.28
  -8   4   0 3716.83  247.28
  -8   4   0 3096.09  247.08
  -4   8   0 3754.92  246.98
   4  -8   0 3355.66  247.18
   4  -8   0 3800.82  247.18
   4  -8   0 3173.28  247.08
   8  -4   0 3824.12  247.28
   4  -8   0 4025.60  247.48
   8  -4   0 3393.36  247.18
   8  -4   0 3860.81  247.18
  -8   4   0 3453.25  247.18
   5  -8   0  811.82   51.59
   8  -3   0  722.53   51.29
  -5   8   0  658.83   51.29
  -5  -3   0  766.12   50.99
  -8   3   0  737.33   51.49
   8  -5   0  830.92   51.79
   5  -8   0  761.42   51.39
  -8   5   0  778.82   51.49
  -3   8   0  751.52   51.39
  -5  -3   0  771.62   50.99
   3  -8   0  749.82   51.29
  -5   8   0  696.43   51.39
  -5  -3   0  827.62   50.89
   8  -3   0  709.13   51.39
  -5  -3   0  719.13   50.89
   8  -3   0  754.42   51.49
  -8   5   0  779.52   51.39
  -5   8   0  716.23   51.29
   8  -3   0  755.02   51.29
   5   3   0  747.23   50.89
   5   3   0  757.02   50.89
  -3   8   0  785.32   51.09
  -8   3   0  795.32   51.39
   5  -8   0  780.42   51.49
   3  -8   0  764.62   51.29
   3  -8   0  682.53   51.29
  -3   8   0  781.42   51.39
   8  -5   0  726.53   51.29
  -8   3   0  698.33   51.39
  -8   5   0  704.23   51.49
   5  -8   0  761.12   51.29
  -5   8   0  700.03   51.39
   3  -8   0  801.12   51.39
   8  -2   0 2326.47  157.58
  -6   8   0 2527.45  157.88
   8  -2   0 2016.40  157.68
  -8   2   0 2187.98  157.68
  -8   2   0 2384.46  157.88
   2  -8   0 2340.67  157.68
  -8   2   0 2179.28  157.78
  -6   8   0 2045.50  157.68
  -6  -2   0 2508.65  157.48
  -8   2   0 2304.97  157.68
   6   2   0 2486.25  157.48
   8  -2   0 2362.26  157.78
   6   2   0 2192.58  157.48
  -6   8   0 2594.34  158.08
  -2  -6   0 2370.86  157.28
  -6  -2   0 2285.97  157.48
  -6  -2   0 2453.55  157.48
   8  -6   0 2227.58  157.78
   6  -8   0 2379.66  157.98
   8  -2   0 2439.76  157.58
  -2   8   0 2196.88  157.68
   6  -8   0 2323.77  157.88
   2  -8   0 2488.15  157.78
  -2   8   0 2116.89  157.68
   2  -8   0 2375.96  157.68
   8  -7   0   27.80    2.70
  -8   1   0   31.10    2.60
   8  -1   0   33.10    2.70
  -8   1   0   35.80    2.70
   7  -8   0   33.60    2.80
  -8   1   0   31.00    2.60
   1   7   0   30.40    2.30
   1  -8   0   31.30    2.60
  -1  -7   0   27.70    2.30
   1   7   0   31.90    2.30
   7  -8   0   31.70    2.90
  -7  -1   0   34.20    2.60
   8  -1   0   32.50    2.40
   8  -1   0   31.00    2.40
  -1  -7   0   29.30    2.40
  -7  -1   0   29.70    2.60
  -7  -1   0   29.80    2.50
   8  -1   0   31.70    2.70
  -8   7   0   31.80    2.80
  -7   8   0   31.50    2.80
  -1  -7   0   30.90    2.40
  -8   1   0   31.90    2.70
  -1  -7   0   33.60    2.30
  -7   8   0   32.20    2.70
   0  -8   0 1833.22  134.79
  -8   8   0 2307.77  135.29
   0  -8   0 1863.91  134.69
   8   0   0 2220.08  135.09
   8  -8   0 1761.92  135.19
   0  -8   0 2090.79  134.79
   8  -8   0 1834.62  135.09
  -8   8   0 1986.40  135.19
   0  -8   0 2176.88  134.89
  -8   0   0 2078.89  134.89
   0   8   0 1901.81  134.69
  -8   0   0 2090.49  134.99
   0   8   0 2024.30  134.79
  -8   0   0 1715.53  134.89
   8   0   0 2054.29  134.99
  -8   0   0 1863.61  134.89
  -4   9   0  425.06   31.00
  -5   9   0  421.36   31.20
  -5  -4   0  450.55   30.70
  -5   9   0  445.66   31.30
   9  -4   0  496.45   31.20
   5  -9   0  470.65   31.30
   5  -9   0  466.05   31.40
  -5   9   0  425.16   31.10
  -9   5   0  466.85   31.40
   4  -9   0  465.55   31.30
  -4   9   0  433.76   31.20
  -5  -4   0  481.05   30.70
  -4   9   0  454.85   31.00
  -5   9   0  395.76   31.10
   5  -9   0  470.15   31.30
   4  -9   0  411.46   31.20
  -4   9   0  471.55   31.30
   9  -5   0  486.95   31.20
  -9   5   0  457.35   31.30
   4  -9   0  445.06   31.20
   6  -9   0   34.60    3.00
  -3   9   0   31.60    2.80
  -9   3   0   35.10    2.90
  -6   9   0   32.10    2.80
  -6  -3   0   38.00    2.50
   6   3   0   31.10    2.40
   9  -3   0   36.80    2.90
   9  -3   0   31.30    2.70
   6  -9   0   34.90    3.00
  -9   6   0   33.10    2.90
  -6  -3   0   33.00    2.50
   9  -3   0   29.70    2.90
  -3   9   0   33.10    2.40
   3  -9   0   31.90    2.80
  -6   9   0   35.30    3.00
   3  -9   0   32.00    2.80
   3  -9   0   37.20    2.90
   6   3   0   34.50    2.40
  -3   9   0   30.50    2.80
  -3   9   0   30.50    2.40
  -9   3   0   31.30    2.90
   9  -6   0   27.60    2.80
   9  -6   0   31.70    3.00
  -9   3   0   32.80    2.90
   3  -9   0   33.40    2.70
   9  -3   0   31.70    2.70
  -6  -3   0   36.20    2.50
  -9   6   0   32.20    2.90
  -7  -2   0    6.80    0.80
  -7  -2   0    8.30    0.90
   7   2   0    6.40    0.80
   9  -2   0    5.90    0.80
   9  -7   0    6.90    1.20
  -9   2   0    6.40    0.90
  -9   7   0    6.90    1.10
   2  -9   0    6.00    0.90
  -9   7   0    5.10    1.00
   9  -2   0    6.10    1.00
   9  -7   0    7.10    1.20
  -7  -2   0    6.30    0.80
   7   2   0    6.80    0.80
   7  -9   0    5.90    1.10
  -9   2   0    7.10    1.00
   2  -9   0    5.50    0.90
   2  -9   0    6.20    0.90
  -7   9   0    7.50    1.00
   7  -9   0    7.50    1.10
   9  -2   0    6.10    1.00
  -2   9   0    6.00    0.90
  -2   9   0    6.50    0.90
   9  -2   0    6.30    0.80
  -9   2   0    6.20    0.90
  -8   9   0  774.12   51.79
   1  -9   0  780.82   51.49
  -9   8   0  664.53   51.59
   9  -1   0  783.62   51.59
  -8  -1   0  785.32   51.49
   8  -9   0  770.52   51.89
   9  -1   0  787.82   51.69
   8   1   0  808.12   51.59
   9  -8   0  763.62   51.89
  -9   1   0  779.82   51.59
   8   1   0  816.22   51.49
  -8  -1   0  803.62   51.49
  -9   1   0  743.13   51.59
   8  -9   0  649.24   51.69
  -9   1   0  672.93   51.59
   9  -8   0  776.82   51.79
  -8   9   0  674.23   51.59
  -1   9   0  728.83   51.49
  -9   9   0   12.20    1.50
   9   0   0   14.40    1.70
   9   0   0   11.00    1.50
  -9   0   0   11.90    1.50
   9  -9   0   12.00    1.50
  -9   9   0   12.90    1.50
  10  -5   0  136.09   10.50
  -5  10   0  142.09   10.20
  -5  10   0  148.29   10.50
 -10   5   0  138.69   10.50
   5 -10   0  158.58   10.60
 -10   5   0  131.59   10.40
  10  -5   0  156.98   10.40
   5 -10   0  135.79   10.50
  -4  10   0 1359.66   91.79
  -6  10   0 1237.88   91.69
 -10   4   0 1430.66   91.89
  -4  10   0 1357.66   91.79
  10  -6   0 1349.77   91.79
  10  -6   0 1424.86   91.99
  -6  10   0 1183.48   91.79
   4 -10   0 1193.58   91.69
  10  -4   0 1472.45   91.69
   4 -10   0 1468.25   91.79
  10  -4   0 1441.26   91.99
   6 -10   0 1161.68   91.79
   4 -10   0 1266.97   91.79
 -10   4   0 1555.94   91.99
 -10   6   0 1380.26   91.89
   6 -10   0 1263.07   91.79
   3 -10   0  724.83   47.30
 -10   7   0  709.43   47.50
 -10   7   0  690.83   47.30
   3 -10   0  702.53   47.30
   3 -10   0  671.13   47.20
  -3  10   0  720.63   47.20
  -3  10   0  676.73   47.30
  10  -3   0  715.03   47.50
  10  -7   0  760.12   47.50
  10  -7   0  618.54   47.40
  -7  10   0  701.03   47.30
   7 -10   0  653.13   47.30
  10  -3   0  667.83   47.10
  -7  10   0  710.33   47.40
 -10   3   0  620.74   47.30
 -10   3   0  671.63   47.30
  10  -8   0 1493.45   93.09
 -10   8   0 1521.15   92.89
   8 -10   0 1353.66   92.89
  10  -8   0 1294.27   92.79
 -10   8   0 1525.25   93.09
  -8  10   0 1278.57   92.69
  -8  10   0 1178.78   92.79
   8 -10   0 1240.68   92.79
  -9  10   0   35.60    3.20
  11  -6   0  266.87   20.60
  -5  11   0  293.07   20.50
  11  -5   0  290.17   20.60
  11  -6   0  289.17   20.40
 -11   5   0  307.77   20.50
  -6  11   0  271.47   20.50
  11  -5   0  289.87   20.40
 -11   5   0  278.17   20.50
   5 -11   0  316.77   20.60
   6 -11   0  277.17   20.50
   6 -11   0  275.27   20.60
 -11   6   0  310.77   20.60
   5 -11   0  311.77   20.50
   0   0   1    0.10    0.10
   0   0   1    0.10    0.10
   0   0   1    0.10    0.10
   0   0   1    0.00    0.10
   0  -1   1  108.69    6.90
  -1   0   1  112.69    7.00
   1   0  -1   98.39    6.90
   1  -1   1  103.79    7.00
   0  -1  -1  104.09    7.00
   0  -1  -1   92.79    6.90
  -1   0   1  103.79    7.00
   1   0  -1  109.29    7.00
  -1   1   1  104.19    7.00
   1   0   1   93.89    7.00
  -1   1  -1  112.19    7.00
   1   0  -1  102.59    7.00
  -1   0   1   98.69    6.90
   0   1  -1  105.19    6.90
   0  -1  -1   97.09    6.90
   1  -1   1   99.99    7.00
   0   1   1  106.39    6.90
  -1   0   1  113.39    7.00
   0   1  -1  107.09    6.90
   1   0  -1   90.99    7.00
   1  -1  -1   94.59    7.00
   0   1   1   94.59    7.00
  -1   0  -1  109.29    7.00
   0   1   1   87.29    7.00
   1   0   1  104.09    7.00
  -1   0  -1   96.59    7.00
   0  -1  -1  107.19    7.00
   1  -1   1   90.69    7.00
   0   1  -1  106.49    6.90
   1   0   1   99.29    7.00
   1  -1  -1  110.99    7.00
   1  -1  -1   88.39    7.00
   0   1   1  101.29    6.90
   0  -1   1  100.09    6.90
  -2   1  -1    0.40    0.10
   1  -2   1    0.10    0.10
  -1   2  -1    0.10    0.10
   2  -1   1    0.10    0.10
   1   1   1    0.10    0.10
  -1   2   1    0.20    0.10
  -1   2   1    0.10    0.10
   1  -2   1    0.20    0.10
  -1   2   1    0.10    0.10
   1  -2  -1    0.30    0.10
  -2   1   1    0.10    0.10
  -1   2  -1    0.10    0.10
   1  -2  -1    0.10    0.10
   2  -1  -1    0.00    0.10
   2  -1  -1    0.10    0.10
   2  -1  -1    0.40    0.10
   1   1  -1    0.10    0.10
  -2   1   1    0.00    0.10
  -1  -1  -1    0.10    0.10
   1   1  -1    0.30    0.10
  -1   2  -1    0.00    0.10
  -1   2  -1    0.20    0.10
  -2   1  -1    0.30    0.10
   1  -2   1    0.20    0.10
  -1  -1  -1    0.10    0.10
   1  -2   1    0.10    0.10
  -2   1   1    0.40    0.10
   1  -2  -1    0.10    0.10
  -1   2   1    0.30    0.20
   1   1   1    0.30    0.10
   1  -2  -1    0.60    0.20
  -2   1   1    0.00    0.10
   0  -2   1 1373.26   85.69
   0  -2  -1 1351.86   85.69
   2  -2   1 1210.38   85.79
   0  -2   1 1336.87   85.69
   0  -2   1 1468.65   85.59
  -2   0   1 1197.28   85.69
   0  -2  -1 1242.98   85.69
  -2   2   1 1283.77   85.79
  -2   0  -1 1149.29   85.69
   0   2   1 1327.57   85.69
   2   0   1 1330.37   85.69
   2   0  -1 1188.88   85.69
   2   0  -1 1140.69   85.69
  -2   0   1 1215.78   85.69
   0   2   1 1248.78   85.59
  -2   0  -1 1342.07   85.69
   0   2  -1 1288.07   85.69
  -2   2  -1 1274.47   85.79
   0  -2  -1 1128.99   85.69
  -2   0  -1 1365.36   85.79
   2   0   1 1208.58   85.69
   2   0   1 1306.87   85.69
   2   0  -1 1221.78   85.69
  -2   2  -1 1253.07   85.79
  -2   0   1 1198.18   85.69
  -2   0   1 1252.87   85.69
  -2   0  -1 1235.18   85.69
   2  -2  -1 1222.18   85.79
   2  -2  -1 1269.97   85.79
   2   0   1 1340.57   85.79
   0   2   1 1299.97   85.69
   2  -2   1 1228.58   85.79
   1  -3  -1  355.76   24.60
  -2  -1  -1  365.26   24.50
  -1   3  -1  370.46   24.60
   3  -2  -1  366.86   24.70
  -1   3  -1  348.07   24.60
  -3   2  -1  360.96   24.70
  -2   3   1  377.86   24.70
   3  -2  -1  351.86   24.70
  -1   3  -1  349.47   24.60
   3  -1   1  323.77   24.60
   2  -3   1  391.66   24.70
   1  -3  -1  321.87   24.60
   3  -1   1  351.66   24.60
   3  -2  -1  331.77   24.70
  -3   2  -1  360.06   24.70
   3  -1   1  379.96   24.70
   1   2   1  384.56   24.50
  -2  -1  -1  323.47   24.50
   1   2   1  379.26   24.50
   1  -3  -1  355.06   24.60
   2  -3   1  305.27   24.60
  -1   3  -1  317.07   24.50
   3  -1   1  378.56   24.60
  -3   1   1  383.06   24.60
  -3   1   1  341.97   24.70
  -3   2  -1  374.96   24.70
  -2   3   1  376.06   24.70
   2  -3   1  353.26   24.70
   2   1  -1  360.16   24.50
   2   1  -1  382.66   24.50
   2  -3   1  396.96   24.70
  -2   3   1  358.96   24.70
  -3   1   1  347.27   24.60
  -2  -1  -1  374.76   24.50
  -3   1   1  323.37   24.70
  -2  -1  -1  333.37   24.60
   1  -3   1  366.86   24.60
  -2   3  -1  306.77   24.70
   3  -1  -1  379.56   24.60
  -1   3   1  340.07   24.60
  -1  -2  -1  389.06   24.50
  -1   3   1  371.96   24.60
  -2   3  -1  383.26   24.70
  -2   3  -1  368.96   24.60
  -1  -2  -1  344.97   24.50
   2   1   1  346.97   24.50
   3  -2   1  372.66   24.70
  -3   2   1  386.76   24.70
   3  -1  -1  389.26   24.70
   2   1   1  376.96   24.60
  -3   1  -1  374.46   24.70
   3  -1  -1  357.46   24.60
  -2   3  -1  383.46   24.70
   2  -3  -1  353.96   24.70
   2  -3  -1  369.16   24.70
   2  -3  -1  389.26   24.70
  -3   2   1  366.36   24.70
  -2  -1   1  386.56   24.50
  -3   1  -1  318.97   24.60
  -3   1  -1  319.17   24.60
  -1   3   1  378.56   24.60
  -2  -1   1  355.96   24.50
   3  -1  -1  368.06   24.70
  -3   1  -1  380.56   24.70
   1  -3   1  350.66   24.60
   1  -3   1  380.86   24.60
  -3   2   1  381.26   24.70
   0  -3  -1  267.57   18.70
   3  -3   1  264.67   18.80
  -3   3   1  293.97   18.90
   0  -3   1  263.97   18.60
   3   0  -1  290.27   18.60
   0   3  -1  270.17   18.70
   0  -3  -1  270.77   18.70
  -3   3  -1  267.57   18.80
   3   0  -1  248.68   18.70
   0   3  -1  274.97   18.70
  -3   0   1  256.07   18.70
   0  -3  -1  257.47   18.70
   0  -3   1  276.57   18.70
   3   0   1  289.67   18.70
  -3   0   1  284.67   18.70
  -3   0  -1  276.37   18.70
   3   0   1  267.57   18.70
   3   0  -1  284.77   18.60
  -3   0  -1  270.37   18.70
  -3   0  -1  279.67   18.70
  -3   0   1  277.67   18.70
  -3   3  -1  263.87   18.80
   3   0  -1  298.87   18.70
   0   3   1  249.68   18.70
   3  -3   1  272.17   18.80
  -3   0  -1  269.17   18.70
   0  -3  -1  284.57   18.70
  -3   3  -1  292.07   18.80
   0  -3   1  289.87   18.70
  -3   3  -1  295.17   18.90
   3   0   1  270.57   18.70
   0  -3   1  241.88   18.60
   3   0   1  296.07   18.70
   0   3   1  287.67   18.70
   3  -3  -1  242.08   18.80
  -2   4   1    0.00    0.10
  -2   4   1    0.20    0.20
   2  -4  -1    0.10    0.20
   4  -2  -1    0.10    0.10
   4  -2   1    0.10    0.20
   2  -4  -1    0.80    0.30
   4  -2   1    0.90    0.30
  -4   2  -1    0.60    0.30
   2  -4  -1    0.10    0.20
  -4   2   1    0.40    0.20
   2  -4   1    0.40    0.20
  -4   2   1   -0.10    0.10
   2   2   1    0.20    0.10
  -2   4  -1    0.20    0.20
   4  -2   1    0.10    0.10
   4  -2  -1    0.00    0.20
  -2  -2  -1    0.40    0.10
   4  -2  -1    0.00    0.10
  -2   4  -1    0.10    0.20
   4  -2  -1    0.10    0.10
   4  -2   1    0.10    0.20
  -4   2   1    0.60    0.20
  -2   4   1    0.10    0.10
  -4   2   1    0.70    0.30
   2  -4   1    0.60    0.20
  -2   4   1    0.10    0.10
  -4   2  -1    0.20    0.20
  -3  -1  -1  504.35   35.80
   1  -4  -1  546.85   35.80
  -1   4  -1  548.15   35.80
  -3  -1  -1  577.24   35.70
  -4   1   1  548.45   35.90
  -1  -3   1  542.45   35.60
   3  -4   1  498.15   35.90
  -3   4   1  446.76   35.90
  -1   4  -1  533.55   35.70
  -3   4   1  491.25   35.90
   4  -1   1  524.75   35.90
   3  -4   1  565.24   35.90
  -1   4  -1  449.86   35.70
   3  -4   1  516.05   35.90
  -4   1   1  508.65   35.80
   1   3   1  517.45   35.70
   1   3   1  516.65   35.70
   3   1  -1  562.44   35.70
   1  -4  -1  492.25   35.80
   1  -4  -1  464.15   35.80
  -3  -1  -1  536.35   35.70
  -1  -3   1  562.54   35.60
  -4   1   1  534.55   35.90
  -3   4   1  524.65   35.90
   4  -1   1  551.24   35.80
   3   1  -1  493.65   35.70
  -4   1   1  491.15   35.80
   4  -1   1  553.04   35.90
   3  -4  -1  506.35   35.90
   1  -4   1  542.65   35.80
  -1   4   1  529.45   35.80
  -3  -1   1  513.75   35.70
  -4   1  -1  491.15   35.80
  -1  -3  -1  543.65   35.60
  -3  -1   1  508.65   35.70
   4  -1  -1  557.94   35.90
   1  -4   1  497.65   35.80
  -4   3   1  564.44   36.00
  -3  -1   1  519.35   35.60
   1  -4   1  557.04   35.80
   4  -3   1  528.95   35.90
  -3  -1   1  523.85   35.70
  -3   4  -1  554.84   35.90
  -4   1  -1  580.44   36.00
   3   1   1  534.15   35.80
   1   3  -1  553.64   35.60
   3  -4  -1  525.05   35.90
  -1   4   1  538.15   35.70
   1  -4   1  523.85   35.80
  -1  -3  -1  499.15   35.70
  -4   1  -1  503.45   35.90
   4  -1  -1  557.74   35.90
  -4   3   1  457.95   35.80
   4  -1  -1  531.45   35.80
   3   1   1  522.25   35.80
   3  -4  -1  515.25   36.00
  -1  -3  -1  565.04   35.70
  -3   4  -1  510.65   35.90
   1   3  -1  559.04   35.60
  -4   1  -1  522.95   35.80
   4  -3   1  539.55   36.00
   0  -4   1 1207.98   84.79
   4   0   1 1158.18   84.79
   4   0  -1 1246.08   84.69
   0  -4   1 1421.46   84.79
  -4   0   1 1288.37   84.89
  -4   0   1 1326.97   84.89
  -4   4  -1 1296.37   84.99
   4   0  -1 1316.57   84.89
  -4   0  -1 1175.98   84.89
   4  -4   1 1141.89   84.99
   0   4   1 1055.69   84.79
   4  -4  -1 1362.96   85.09
   0  -4   1 1233.28   84.69
   0   4   1 1236.58   84.79
  -4   4   1 1174.18   85.09
  -4   0  -1 1350.76   84.89
   4   0  -1 1299.07   84.89
  -4   0   1 1120.19   84.79
  -4   0  -1 1296.17   84.89
   4  -4   1 1298.57   84.99
   0   4  -1 1206.78   84.79
   4   0  -1 1144.19   84.69
   0  -4  -1 1142.79   84.79
   4  -4  -1 1361.36   85.09
   4   0   1 1275.47   84.79
  -4   4  -1 1185.38   84.99
  -4   4   1 1348.27   84.99
   0   4  -1 1380.36   84.79
  -4   4   1 1163.78   84.99
   0  -4  -1 1234.38   84.79
   4   0   1 1334.57   84.89
  -4   0   1 1268.27   84.89
   0  -4  -1 1348.37   84.79
   4   0   1 1276.37   84.89
  -4   0  -1 1213.28   84.89
   0  -4   1 1162.18   84.69
   5  -3  -1  252.87   16.10
   2  -5  -1  228.88   16.00
   2   3   1  219.58   15.80
  -3  -2  -1  207.48   15.70
   5  -3  -1  242.48   16.10
  -5   3  -1  231.48   16.00
  -5   2   1  230.48   16.00
  -2   5  -1  238.78   15.90
   2  -5  -1  219.88   16.00
   2  -5  -1  221.68   16.00
  -2   5  -1  237.28   15.90
  -5   3  -1  206.08   16.10
   3   2  -1  231.38   15.70
   2   3   1  238.08   15.80
  -5   3  -1  220.88   16.00
  -2   5  -1  240.18   16.00
   2  -5  -1  243.18   16.10
  -5   3  -1  218.08   16.10
   3   2  -1  236.18   15.70
   5  -3  -1  228.48   16.10
  -2   5   1  217.08   16.00
   3   2   1  237.58   15.80
  -2   5   1  245.28   16.00
   2  -5   1  225.38   16.00
  -3   5  -1  240.88   16.00
   2  -5   1  241.58   16.00
   5  -3   1  216.98   16.10
   2  -5   1  241.38   16.00
  -5   3   1  230.18   16.10
  -2   5   1  228.58   15.90
   2  -5   1  236.78   16.00
   5  -3   1  223.18   16.00
  -5   3   1  240.88   16.10
   3  -5  -1  243.18   16.00
  -5   3   1  210.38   16.00
   5  -3   1  221.28   16.10
  -5   3   1  252.37   16.10
   3   2   1  248.68   15.80
  -2   5   1  230.48   15.90
   5  -4  -1  281.77   19.30
  -4   5   1  279.27   19.30
  -5   1   1  250.57   19.10
   4   1  -1  255.77   19.00
  -5   1   1  236.78   19.10
  -5   1   1  252.47   19.20
   1  -5  -1  258.47   19.10
   4  -5   1  300.17   19.30
   5  -1   1  284.37   19.10
  -4  -1  -1  287.07   19.00
   1  -5  -1  255.07   19.10
   4  -5   1  289.07   19.20
  -1  -4   1  266.97   18.90
   1  -5  -1  283.87   19.10
  -1   5  -1  284.87   19.10
   5  -1   1  271.87   19.10
  -4   5   1  251.87   19.20
   5  -1   1  292.87   19.20
   5  -4  -1  281.27   19.20
   5  -4  -1  248.18   19.30
   4   1  -1  292.47   19.00
  -4  -1  -1  287.87   19.10
  -4   5   1  311.47   19.30
  -5   4  -1  278.67   19.20
  -4   5   1  293.67   19.20
  -5   4  -1  295.67   19.30
  -1  -4   1  257.87   18.90
  -4  -1  -1  288.67   19.10
  -1   5  -1  306.37   19.10
   5  -4  -1  247.58   19.20
   1  -5  -1  260.67   19.10
   4  -5   1  275.87   19.30
  -5   4  -1  262.47   19.20
   5  -1   1  276.47   19.20
   1  -5   1  272.07   19.10
   5  -1  -1  304.37   19.20
   5  -4   1  303.47   19.40
  -1  -4  -1  261.17   19.00
   5  -1  -1  257.87   19.00
   5  -1  -1  275.57   19.00
   4   1   1  300.37   19.10
   4  -5  -1  300.67   19.40
   5  -4   1  285.27   19.20
   1  -5   1  279.87   19.10
  -1   5   1  271.17   18.90
  -1  -4  -1  262.47   18.90
  -4  -1   1  293.37   19.00
  -1   5   1  299.47   19.00
   1  -5   1  276.37   19.10
   5  -1  -1  268.77   19.20
  -4   5  -1  295.57   19.30
  -5   1  -1  280.87   19.20
  -1   5   1  273.67   19.10
  -4   5  -1  302.67   19.30
  -4  -1   1  272.67   19.00
   4  -5  -1  278.97   19.30
  -5   4   1  255.27   19.30
   1  -5   1  265.87   19.00
  -1   5   1  289.77   19.10
  -4   5  -1  234.28   19.10
  -5   1  -1  265.37   19.20
   4  -5  -1  296.77   19.30
  -5   4   1  287.77   19.30
  -5   1  -1  264.07   19.10
   4   1   1  300.97   19.10
  -1  -4  -1  266.37   18.90
  -5   4   1  299.27   19.30
  -5   4   1  274.17   19.20
  -1  -4  -1  307.07   19.00
   5  -4   1  307.77   19.30
   5  -4   1  267.77   19.30
   5  -5   1  415.66   27.00
  -5   5  -1  390.66   26.80
   0  -5   1  401.16   26.60
   5  -5  -1  449.56   27.00
   5   0  -1  428.26   26.80
   0  -5   1  400.76   26.50
   0  -5   1  376.66   26.50
   0  -5   1  375.16   26.60
   5   0   1  361.66   26.70
  -5   5  -1  412.16   26.90
  -5   5   1  340.07   26.80
   5   0  -1  394.96   26.70
   0  -5  -1  381.86   26.60
   5  -5  -1  401.96   26.90
   5   0   1  398.36   26.50
   5  -5  -1  335.37   26.70
   5  -5   1  361.56   26.80
  -5   0   1  358.36   26.70
   0  -5  -1  406.86   26.60
   5   0   1  376.16   26.70
   5  -5   1  356.26   26.80
  -5   5   1  373.86   26.80
  -5   0  -1  350.86   26.70
  -5   5  -1  364.96   26.80
  -5   5  -1  367.46   26.90
  -5   0   1  402.76   26.80
   5   0  -1  414.06   26.40
   5  -5  -1  365.86   26.90
  -5   0   1  388.86   26.60
  -5   0  -1  365.56   26.70
   0  -5  -1  386.86   26.60
   0  -5  -1  408.16   26.60
   5  -5   1  396.16   26.80
   0   5  -1  418.46   26.60
  -5   5   1  388.76   27.00
   0   5  -1  401.86   26.60
   0   5   1  420.26   26.70
   0   5   1  447.06   26.80
  -5   0  -1  387.26   26.70
   5   0   1  410.36   26.50
  -5   5   1  400.76   26.90
   6  -3  -1    0.20    0.20
   3  -6  -1    0.10    0.20
   6  -3   1    0.10    0.20
   3   3   1    0.60    0.10
   3   3   1    0.10    0.10
  -3   6   1    0.00    0.10
  -3   6  -1    0.40    0.20
   6  -3   1    0.20    0.20
   3  -6  -1    0.10    0.20
  -6   3   1    0.30    0.20
  -3  -3  -1    0.20    0.10
  -3   6   1    0.10    0.20
  -6   3  -1    0.20    0.20
   3  -6  -1    0.10    0.20
   3  -6  -1    0.50    0.30
   6  -3  -1    0.20    0.20
  -3   6   1    1.00    0.30
  -6   3  -1    0.40    0.30
   3  -6   1    0.20    0.20
   6  -3   1    0.20    0.20
   3  -6   1    0.10    0.10
   3  -6   1    0.30    0.20
   3  -6   1    0.10    0.20
  -6   3   1    0.10    0.20
  -6   3  -1    0.90    0.30
   6  -3  -1    0.00    0.10
  -3  -3  -1    0.30    0.10
  -3   6   1    0.00    0.20
  -3   6  -1    0.60    0.20
  -3   6  -1    0.10    0.20
  -6   3   1    0.30    0.20
   6  -3   1    0.20    0.20
  -6   3   1    0.00    0.20
  -6   3  -1    0.30    0.30
   4  -6   1  522.95   33.80
  -2   6  -1  511.25   33.60
   4  -6   1  453.25   33.60
  -4   6   1  452.35   33.70
   2   4   1  533.85   33.30
   6  -2   1  513.95   33.70
  -6   4  -1  524.35   33.80
   6  -2   1  514.75   33.70
   4   2  -1  489.85   33.30
  -4  -2  -1  500.25   33.40
  -6   2   1  473.55   33.70
   2  -6  -1  487.45   33.60
   6  -2   1  514.05   33.60
  -6   2   1  526.65   33.70
   6  -4  -1  539.45   33.80
   6  -2   1  463.35   33.50
  -2   6  -1  499.45   33.40
  -4   6   1  517.35   33.60
  -4   6   1  450.45   33.70
   2   4   1  496.85   33.30
  -6   2   1  526.85   33.60
  -4  -2  -1  533.75   33.40
   6  -4  -1  486.85   33.70
  -6   4  -1  417.36   33.70
  -6   4  -1  456.85   33.60
  -6   2   1  504.35   33.70
  -2   6  -1  444.66   33.40
   4  -6   1  509.35   33.70
   4   2  -1  499.25   33.30
  -4  -2  -1  494.65   33.40
  -4   6   1  450.85   33.60
   4  -6   1  485.65   33.70
   6  -4  -1  531.35   33.80
   6  -4  -1  543.75   33.70
   2  -6   1  445.76   33.50
   6  -2  -1  441.66   33.50
  -6   4   1  495.45   33.70
  -6   4   1  510.45   33.70
  -2  -4  -1  506.55   33.30
  -4   6  -1  493.05   33.70
  -4  -2   1  530.25   33.30
  -6   2  -1  522.25   33.70
  -2   6   1  488.85   33.40
   2  -6   1  499.95   33.50
  -4   6  -1  480.95   33.60
  -4   6  -1  449.46   33.60
   6  -4   1  425.06   33.60
   4  -6  -1  528.35   33.90
   4  -6  -1  447.56   33.60
   6  -2  -1  514.05   33.70
  -6   2  -1  447.16   33.60
  -6   2  -1  478.45   33.60
   6  -4   1  487.25   33.70
   6  -4   1  461.25   33.70
   6  -2  -1  435.86   33.50
  -4  -2   1  532.25   33.30
  -4   6  -1  437.06   33.70
   4   2   1  480.65   33.40
   6  -2  -1  455.75   33.70
  -4  -2   1  531.45   33.40
  -4  -2   1  486.65   33.30
  -2  -4  -1  515.25   33.30
   4   2   1  526.05   33.40
  -6   4   1  512.65   33.80
  -6   4   1  453.85   33.70
   1  -6  -1 1496.65   90.89
   1  -6  -1 1384.46   90.89
  -6   1   1 1533.45   90.99
   6  -5  -1 1150.98   90.99
   6  -5  -1 1315.87   90.99
   1  -6  -1 1402.66   90.79
  -5  -1  -1 1382.76   90.79
  -6   1   1 1418.56   90.89
  -6   5  -1 1241.38   90.89
   6  -5  -1 1252.47   90.89
  -1  -5   1 1392.56   90.49
  -1  -5   1 1464.05   90.59
  -6   5  -1 1315.47   90.99
   1   5   1 1383.06   90.59
   6  -1   1 1477.35   90.79
  -5   6   1 1358.26   90.89
   5   1  -1 1298.17   90.69
  -6   5  -1 1513.75   91.29
  -5  -1  -1 1346.57   90.69
   6  -1   1 1286.37   90.89
   6  -1   1 1385.46   90.89
   6  -1   1 1416.36   90.79
  -5  -1  -1 1403.56   90.69
   5  -6   1 1327.17   90.99
  -5   6   1 1230.38   90.89
  -5  -1  -1 1365.56   90.69
  -1   6  -1 1197.78   90.69
   6  -5  -1 1208.28   90.89
   1   5   1 1284.47   90.59
  -1   6  -1 1166.58   90.79
   5  -6   1 1520.15   91.09
  -1  -5   1 1430.26   90.59
   5  -6   1 1211.88   90.89
  -5   6   1 1298.87   90.99
   6  -1  -1 1375.66   90.69
   6  -1  -1 1283.07   90.89
   5  -6  -1 1187.98   90.89
   6  -5   1 1268.47   90.89
   1  -6   1 1355.56   90.79
  -5   6  -1 1336.77   91.09
  -1  -5  -1 1170.08   90.59
   5   1   1 1354.46   90.79
   6  -1  -1 1432.56   90.99
   1  -6   1 1464.45   90.79
  -5  -1   1 1312.27   90.69
   5   1   1 1238.78   90.69
   5  -6  -1 1288.17   90.99
   1  -6   1 1356.76   90.69
  -5  -1   1 1203.48   90.69
   1   5  -1 1328.97   90.59
  -6   1  -1 1404.96   90.89
   1  -6   1 1182.88   90.69
  -6   5   1 1334.27   90.99
   5  -6  -1 1347.37   91.09
  -5   6  -1 1172.58   90.89
  -5   6  -1 1416.16   90.89
  -1  -5  -1 1428.36   90.59
  -5  -1   1 1499.15   90.79
  -6   5   1 1321.77   90.89
  -1  -5  -1 1290.47   90.59
  -6   1  -1 1390.16   90.89
  -5   6  -1 1204.88   90.89
  -1   6   1 1275.27   90.79
  -1   6   1 1244.58   90.79
  -1  -5  -1 1392.26   90.59
   6  -1  -1 1275.37   90.69
  -5  -1   1 1425.36   90.69
   6  -5   1 1352.86   91.09
  -6   5   1 1407.46   90.99
   1   5  -1 1356.26   90.59
   5  -6  -1 1450.05   90.99
  -6   5   1 1311.17   90.99
   6  -6  -1  350.86   26.20
  -6   6  -1  398.66   26.30
   0  -6   1  403.46   26.00
   0   6  -1  385.36   26.00
  -6   6  -1  333.97   26.30
   6  -6   1  410.26   26.30
  -6   6   1  379.56   26.30
  -6   0  -1  390.26   26.20
  -6   0   1  374.96   26.10
   6  -6  -1  391.16   26.30
  -6   6   1  401.46   26.40
   6  -6   1  362.26   26.40
   6  -6  -1  374.86   26.40
  -6   6  -1  364.46   26.30
  -6   0  -1  400.16   26.10
   0  -6  -1  376.86   26.00
   0  -6  -1  413.46   26.10
   0  -6  -1  379.26   26.10
  -6   0   1  407.46   26.20
  -6   6   1  358.46   26.30
  -6   0   1  374.46   26.10
   6   0  -1  384.66   26.20
   6  -6   1  324.27   26.30
   0   6   1  357.16   26.10
   0  -6   1  380.16   26.00
   0  -6   1  380.56   26.00
   6  -6   1  385.66   26.40
   6   0  -1  437.16   26.30
   0  -6  -1  385.96   26.10
   0   6   1  378.86   26.10
   0   6  -1  389.46   26.00
  -6   6  -1  376.06   26.30
  -6   0   1  380.06   26.20
   0  -6   1  356.46   26.00
  -7   4  -1  632.74   41.90
  -7   4  -1  543.45   41.80
  -7   3   1  652.13   41.90
  -4   7   1  614.84   41.90
  -4   7   1  647.04   41.80
  -7   3   1  539.55   41.90
  -7   3   1  652.03   41.90
  -3   7  -1  613.84   41.90
  -3   7  -1  621.24   41.80
   7  -4  -1  636.84   42.00
   7  -4  -1  625.84   41.90
  -7   4  -1  584.64   41.90
   4  -7   1  626.84   41.90
  -4  -3  -1  581.04   41.50
   7  -3   1  596.74   41.90
  -4   7   1  632.94   41.90
   4  -7   1  605.94   41.90
  -7   4  -1  610.64   42.00
   4  -7   1  663.03   41.80
  -4  -3  -1  628.94   41.50
  -3   7  -1  622.54   41.70
   7  -3   1  540.65   41.90
  -4  -3  -1  572.54   41.50
   3  -7  -1  608.54   41.80
  -4   7   1  550.34   41.70
   7  -3   1  602.54   41.80
   3  -7  -1  573.04   41.80
   3  -7  -1  599.44   41.80
   3  -7  -1  659.53   41.90
   7  -4  -1  648.44   41.90
  -7   3   1  615.04   41.90
   7  -4  -1  591.94   41.80
  -4   7  -1  568.54   41.80
  -7   4   1  631.74   41.90
  -4   7  -1  572.84   41.70
   3  -7   1  614.34   41.80
  -7   4   1  592.44   41.90
   4  -7  -1  649.43   41.80
  -7   3  -1  615.14   41.80
   4  -7  -1  622.64   41.90
   7  -4   1  610.44   41.90
   4   3   1  640.44   41.50
   7  -3  -1  620.04   42.00
  -7   4   1  647.34   41.90
   4  -7  -1  609.44   41.90
   7  -4   1  620.54   41.80
  -3   7   1  583.44   41.70
   7  -3  -1  588.04   41.80
  -3   7   1  537.95   41.60
  -4   7  -1  641.54   41.80
   7  -3  -1  631.54   41.90
   4   3   1  639.84   41.50
   4  -7  -1  636.94   41.90
  -7   3  -1  551.14   41.90
  -3   7   1  618.94   41.90
   7  -4   1  615.34   42.00
   7  -4   1  656.93   42.00
   7  -3  -1  568.94   41.70
  -4   7  -1  571.74   41.90
  -3   7   1  642.14   41.90
  -7   3  -1  610.44   41.80
  -7   4   1  627.54   42.00
   3  -7   1  629.14   41.80
  -7   3  -1  645.64   41.90
  -5   7   1    1.80    0.50
   5  -7   1    1.00    0.40
   7  -5  -1    1.10    0.40
   7  -2   1    1.90    0.50
   2  -7  -1    1.00    0.30
   7  -5  -1    1.30    0.40
   5  -7   1    1.30    0.50
  -2   7  -1    1.60    0.20
   7  -5  -1    1.00    0.40
   5   2  -1    1.00    0.20
   5  -7   1    1.30    0.40
  -5   7   1    1.80    0.60
  -5  -2  -1    1.80    0.30
  -5  -2  -1    1.50    0.30
  -7   2   1    2.60    0.60
   2  -7  -1    1.60    0.50
  -2   7  -1    2.50    0.50
  -5  -2  -1    1.20    0.30
  -5   7   1    1.00    0.40
   5   2  -1    2.10    0.30
   5  -7   1    1.10    0.40
  -7   5  -1    1.90    0.50
  -7   2   1    1.50    0.40
  -7   5  -1    1.00    0.40
  -7   2   1    1.40    0.40
   2   5   1    1.80    0.20
  -7   2   1    0.90    0.40
   7  -2   1    1.50    0.40
   7  -2   1    1.50    0.40
  -7   5  -1    0.90    0.40
  -5   7   1    1.00    0.40
   7  -5  -1    1.30    0.40
   2  -7  -1    1.20    0.40
  -2   7  -1    1.50    0.40
   5   2   1    1.80    0.40
  -2   7   1    1.90    0.50
  -2   7   1    1.60    0.40
  -5  -2   1    1.30    0.30
  -5  -2   1    1.10    0.20
   7  -5   1    1.30    0.40
   7  -2  -1    1.40    0.40
   2  -7   1    1.70    0.40
   5   2   1    1.40    0.30
   7  -5   1    1.20    0.50
   2  -7   1    1.60    0.40
   7  -2  -1    1.50    0.40
  -7   5   1    1.10    0.40
   7  -2  -1    2.40    0.40
  -5  -2   1    0.90    0.20
  -5  -2   1    1.60    0.30
   2  -7   1    1.90    0.40
  -7   5   1    1.80    0.50
   5  -7  -1    1.70    0.50
  -7   2  -1    1.70    0.50
  -2  -5  -1    1.30    0.20
  -7   2  -1    1.20    0.40
   5  -7  -1    1.40    0.50
   5  -7  -1    1.80    0.50
  -5   7  -1    0.90    0.40
   7  -2  -1    1.50    0.40
  -2   7   1    1.50    0.30
   7  -5   1    2.00    0.60
  -2   7   1    1.20    0.20
  -7   2  -1    1.20    0.40
  -5   7  -1    1.10    0.40
  -5   7  -1    1.60    0.50
  -2  -5  -1    1.80    0.20
   5  -7  -1    1.50    0.50
  -2  -5  -1    1.50    0.20
   7  -5   1    1.10    0.40
  -7   5   1    1.20    0.40
   1  -7  -1  378.46   24.40
   6  -7   1  352.06   24.60
   1   6   1  366.86   24.20
  -7   6  -1  313.77   24.60
  -6   7   1  359.66   24.50
  -7   1   1  323.37   24.40
   7  -6  -1  364.96   24.60
  -7   6  -1  311.07   24.60
  -1   7  -1  346.27   24.30
   7  -1   1  355.16   24.30
  -7   1   1  374.16   24.50
   7  -1   1  335.87   24.20
  -1  -6   1  369.86   24.10
  -1  -6   1  366.16   24.10
  -7   1   1  375.86   24.50
   1  -7  -1  351.76   24.30
  -6  -1  -1  369.46   24.30
  -6  -1  -1  374.16   24.30
   7  -6  -1  310.57   24.50
   1  -7  -1  330.37   24.50
  -6  -1  -1  358.56   24.30
   7  -6  -1  366.66   24.50
   1  -7  -1  346.87   24.30
   7  -1   1  356.16   24.50
  -1   7  -1  360.96   24.30
  -6  -1  -1  364.26   24.30
  -7   6  -1  396.46   24.80
   6   1  -1  338.87   24.30
   6   1  -1  358.36   24.30
  -7   1   1  326.87   24.40
   6  -7   1  314.47   24.60
  -6   7   1  388.36   24.70
  -1  -6   1  354.06   24.10
   7  -6  -1  331.07   24.60
  -1  -6   1  335.47   24.10
   1   6   1  378.56   24.20
   6  -7   1  349.87   24.60
  -6   7   1  386.26   24.70
   6  -7   1  359.96   24.50
  -6   7   1  372.66   24.60
   7  -1   1  374.96   24.50
  -7   6  -1  344.37   24.50
   6  -7  -1  375.26   24.70
  -1  -6  -1  376.26   24.20
  -7   6   1  372.46   24.50
   7  -1  -1  333.67   24.20
  -7   6   1  340.47   24.50
  -1  -6  -1  355.06   24.20
   6   1   1  363.76   24.30
  -6   7  -1  358.36   24.50
  -6  -1   1  372.16   24.30
   7  -1  -1  355.26   24.20
  -1  -6  -1  384.76   24.20
   1   6  -1  330.67   24.10
  -7   6   1  338.47   24.60
   1  -7   1  352.06   24.40
  -6  -1   1  376.86   24.30
  -6  -1   1  353.16   24.30
   7  -1  -1  356.56   24.50
  -7   1  -1  361.26   24.40
   6  -7  -1  347.77   24.60
   6  -7  -1  347.27   24.60
  -6   7  -1  369.76   24.50
   1  -7   1  358.66   24.30
  -7   1  -1  344.87   24.50
   1  -7   1  348.37   24.30
   6  -7  -1  370.16   24.50
  -1   7   1  322.97   24.30
  -1   7   1  369.16   24.40
  -1  -6  -1  384.26   24.20
  -7   1  -1  331.67   24.40
  -7   6   1  319.57   24.60
   1   6  -1  369.46   24.10
  -6   7  -1  314.47   24.60
   6   1   1  345.97   24.30
   7  -6   1  340.67   24.50
   1  -7   1  336.77   24.30
  -6   7  -1  335.07   24.60
  -7   0   1  549.35   39.60
   0   7  -1  548.95   39.40
   7   0   1  602.34   39.70
  -7   7  -1  588.24   39.80
   0  -7  -1  595.54   39.50
   7   0  -1  538.05   39.60
   0   7   1  604.84   39.50
   0  -7   1  608.24   39.50
  -7   0  -1  600.44   39.70
   0   7  -1  585.24   39.40
   0  -7   1  541.45   39.40
  -7   0  -1  568.74   39.60
   0  -7  -1  529.15   39.50
  -7   7   1  567.44   39.80
   0   7   1  584.04   39.50
  -7   0   1  594.94   39.60
  -7   0  -1  603.14   39.60
  -7   0  -1  534.45   39.60
   0  -7   1  606.84   39.40
  -7   0   1  572.94   39.60
   0  -7   1  599.74   39.40
   0  -7  -1  602.24   39.50
   7   0   1  598.44   39.60
   7   0  -1  562.54   39.60
  -4   8  -1    0.00    0.10
   4  -8  -1    0.60    0.30
   8  -4  -1    0.10    0.30
   4  -8  -1    0.10    0.30
  -8   4  -1   -0.30    0.20
  -8   4   1    0.10    0.20
   8  -4   1    0.90    0.40
  -4   8   1    0.20    0.20
  -4  -4  -1    0.10    0.10
  -8   4   1    0.00    0.20
   4  -8   1    0.20    0.20
  -8   4   1    0.60    0.40
   4  -8  -1    0.00    0.10
   8  -4  -1    0.10    0.20
   8  -4  -1    0.10    0.20
  -8   4  -1   -0.10    0.20
  -4   8   1    0.10    0.20
   4  -8   1    0.10    0.20
  -8   4   1    0.10    0.30
   8  -4   1    0.00    0.20
   4  -8   1    0.10    0.20
  -4   8   1    0.10    0.30
  -4   8   1    0.20    0.20
   8  -4   1    0.10    0.30
  -4  -4  -1    0.20    0.10
   4  -8  -1    0.70    0.30
   8  -4  -1    0.00    0.20
  -8   4  -1    0.00    0.30
  -5   8   1  619.94   46.30
  -5   8   1  691.03   46.30
  -5  -3  -1  649.83   45.80
  -3   8  -1  665.93   45.90
   5  -8   1  648.94   46.30
  -3   8  -1  780.12   46.40
   5  -8   1  721.13   46.30
  -8   3   1  650.23   46.30
  -5   8   1  694.73   46.20
  -5  -3  -1  651.63   45.90
   5  -8   1  684.03   46.30
   8  -3   1  677.83   46.10
   5  -8   1  664.93   46.20
   8  -5  -1  610.54   46.30
   8  -3   1  688.73   46.30
  -8   5  -1  703.53   46.30
   8  -3   1  631.74   46.10
  -8   3   1  647.44   46.20
  -8   3   1  711.43   46.30
   3  -8  -1  682.63   46.20
  -3   8  -1  651.33   46.20
  -5  -3  -1  709.23   45.90
   3  -8  -1  637.04   46.20
  -5   8   1  591.44   46.10
  -8   5  -1  759.22   46.50
  -3   8  -1  698.03   45.90
  -5  -3  -1  700.03   45.90
   8  -5  -1  731.43   46.30
   3  -8   1  626.34   46.20
   8  -3  -1  617.34   46.30
  -8   3  -1  742.03   46.30
  -8   5   1  648.74   46.60
   8  -3  -1  695.63   46.30
  -5  -3   1  704.53   45.80
  -3   8   1  719.43   46.00
  -3   8   1  692.63   46.30
  -8   3  -1  632.64   46.30
   5   3   1  697.03   45.80
   5  -8  -1  645.14   46.30
   5  -8  -1  701.73   46.30
   8  -3  -1  644.54   46.10
  -5   8  -1  607.24   46.10
   8  -5   1  687.63   46.30
   8  -5   1  715.53   46.20
   8  -5   1  702.83   46.40
   5  -8  -1  652.93   46.20
   5  -8  -1  606.54   46.20
  -3   8   1  678.13   46.20
  -5   8  -1  677.43   46.30
   3  -8   1  694.43   46.20
  -5   8  -1  670.43   46.30
   5   3   1  663.93   45.80
  -5  -3   1  652.63   45.80
   8  -3  -1  623.74   46.10
  -8   5   1  740.13   46.50
  -8   5   1  702.03   46.30
  -3  -5  -1  699.23   45.70
   3  -8   1  569.94   46.10
  -8   3  -1  686.43   46.20
  -8   3  -1  690.53   46.30
  -5   8  -1  701.93   46.20
   3  -8   1  700.33   46.20
  -8   2   1  596.04   44.70
   8  -2   1  634.24   44.80
   8  -2   1  641.64   44.70
  -8   2   1  679.33   44.90
  -6   8   1  567.04   44.90
  -8   2   1  661.03   44.80
  -6  -2  -1  622.84   44.50
   2  -8  -1  636.54   44.80
   8  -2   1  589.44   44.60
   2  -8  -1  716.93   44.80
   8  -6  -1  723.13   44.90
  -6  -2  -1  606.84   44.50
  -6   8   1  653.23   44.90
   6  -8   1  622.74   44.90
  -8   6  -1  616.54   44.90
   2  -8  -1  673.93   44.70
  -8   6  -1  681.13   44.90
  -6   8   1  714.13   44.90
   6  -8   1  719.73   45.00
  -2   8  -1  627.24   44.70
  -2   8  -1  664.83   44.70
  -8   2   1  679.03   44.80
   8  -2   1  676.23   44.90
   2  -8  -1  616.24   44.70
   6   2  -1  708.83   44.50
  -6  -2  -1  576.64   44.50
   6   2  -1  726.93   44.50
  -2  -6  -1  700.23   44.40
  -8   2  -1  577.54   44.70
  -6  -2   1  591.74   44.40
  -6   8  -1  681.73   44.80
  -6  -2   1  622.54   44.50
   8  -2  -1  600.64   44.80
   2  -8   1  575.84   44.60
  -6  -2   1  670.23   44.50
   8  -6   1  599.34   44.90
  -2  -6  -1  690.83   44.40
  -2  -6  -1  688.13   44.20
  -8   2  -1  725.13   44.80
   8  -2  -1  621.44   44.80
  -6   8  -1  724.13   45.00
  -8   2  -1  691.93   44.80
   2  -8   1  648.84   44.70
   6  -8  -1  709.63   45.10
  -8   2  -1  713.33   44.90
  -2  -6  -1  663.23   44.20
   8  -2  -1  664.63   44.60
  -6   8  -1  598.24   44.70
   2  -8   1  590.04   44.70
   6   2   1  666.03   44.60
  -6  -2   1  683.83   44.50
  -2   8   1  713.73   44.80
  -2   8   1  643.64   44.70
   6  -8  -1  569.64   44.80
   6   2   1  674.73   44.50
   2  -8   1  670.83   44.60
  -8   6   1  647.54   45.00
   8  -1   1  151.58   10.30
   1  -8  -1  136.49   10.20
   7  -8   1  153.78   10.50
   7  -8   1  125.09   10.50
  -1  -7   1  136.69    9.90
  -8   1   1  150.98   10.40
   8  -1   1  160.78   10.50
  -1  -7   1  136.59    9.90
  -1  -7   1  148.59   10.00
  -8   1   1  138.89   10.30
  -8   1   1  142.29   10.30
   1   7   1  147.59   10.00
   7   1  -1  145.69   10.20
   8  -7  -1  141.29   10.50
  -1  -7   1  152.78   10.00
  -7   8   1  145.39   10.60
  -8   7  -1  154.48   10.50
   1  -8  -1  144.59   10.30
   7   1  -1  143.99   10.20
  -7  -1  -1  150.58   10.20
  -1   8  -1  169.58   10.50
  -8   1   1  149.69   10.40
  -7   8   1  154.18   10.50
   8  -1   1  139.59   10.00
   8  -1   1  150.78   10.10
   1   7   1  159.98   10.10
   1  -8   1  138.69   10.30
  -8   1  -1  151.48   10.40
   8  -1  -1  136.29   10.40
   8  -1  -1  151.28   10.00
   8  -7   1  122.39   10.40
   1  -8   1  144.99   10.20
  -7   8  -1  150.18   10.50
  -7   8  -1  159.18   10.50
   1   7  -1  147.89    9.90
  -1  -7  -1  138.49   10.00
  -7  -1   1  156.88   10.20
   8  -1  -1  152.58   10.40
  -1   8   1  151.88   10.30
   7  -8  -1  146.39   10.60
  -8   1  -1  132.89   10.30
  -1  -7  -1  131.39   10.10
  -7  -1   1  132.29   10.20
   1  -8   1  133.09   10.20
  -7  -1   1  139.19   10.20
  -1  -7  -1  132.99   10.00
  -8   1  -1  151.58   10.40
  -7  -1   1  151.98   10.20
   7  -8  -1  136.09   10.40
  -8   7   1  119.49   10.40
  -8   1  -1  140.59   10.30
   1   7  -1  134.39    9.90
   8  -1  -1  141.99   10.00
  -1  -7  -1  151.88   10.10
  -8   8   1   39.80    3.50
   0  -8   1   38.50    3.20
   8   0   1   39.30    3.40
   8  -8   1   46.20    3.70
  -8   8   1   40.10    3.60
   0   8   1   38.10    3.20
  -8   0  -1   43.80    3.40
   8  -8   1   40.20    3.60
   0   8  -1   42.50    3.20
   8   0  -1   45.80    3.40
   0  -8  -1   42.70    3.30
   0  -8  -1   42.60    3.20
  -8   0   1   43.00    3.40
   0  -8   1   40.20    3.20
   0  -8  -1   42.90    3.20
   0   8   1   38.10    3.20
  -8   0   1   42.40    3.40
  -8   0   1   43.70    3.30
   0  -8  -1   38.40    3.20
   0  -8   1   45.00    3.20
  -8   0  -1   41.40    3.30
  -8   0   1   40.60    3.40
  -8   8  -1   43.70    3.60
  -8   0  -1   42.80    3.40
   8  -8  -1   44.60    3.70
   8  -8  -1   47.50    3.70
  -8   8  -1   36.10    3.40
  -8   0  -1   44.00    3.40
   0  -8   1   43.90    3.20
   0   8  -1   43.80    3.20
   8   0  -1   41.10    3.40
   8   0   1   39.20    3.30
   4  -9  -1  225.48   17.20
  -4   9  -1  251.97   17.30
  -9   5  -1  231.88   17.20
   5  -9   1  254.67   17.40
   9  -5  -1  263.27   17.20
  -5   9   1  250.27   17.10
  -4   9  -1  242.98   17.00
  -4   9  -1  252.17   17.00
  -5   9   1  262.27   17.30
   9  -5  -1  239.78   17.40
   9  -4   1  246.58   17.20
  -5   9   1  270.67   17.30
   4  -9  -1  212.48   17.20
   9  -4   1  277.57   17.30
   5  -9   1  252.07   17.30
  -5  -4  -1  229.88   16.80
   5  -9   1  253.37   17.30
  -5  -4  -1  241.58   16.80
   4  -9  -1  241.98   17.20
  -9   5  -1  239.28   17.30
  -5   9  -1  223.48   17.10
   9  -4  -1  227.28   17.10
  -4  -5  -1  233.08   16.70
   4  -9   1  253.87   17.20
  -5   9  -1  266.67   17.10
  -5  -4   1  244.88   16.60
  -5   9  -1  245.28   17.30
  -4  -5  -1  250.77   16.70
   4  -9   1  219.28   17.20
   9  -4  -1  239.08   17.10
  -9   5   1  248.78   17.20
  -9   5   1  223.68   17.30
   5  -9  -1  252.97   17.40
   9  -5   1  239.78   17.20
  -4   9   1  258.67   17.40
  -4   9   1  245.78   17.10
   5  -9  -1  253.17   17.30
   4  -9   1  239.18   17.30
   9  -5   1  230.28   17.10
  -4   9   1  256.47   17.00
  -4   9   1  251.67   17.30
  -6  -3  -1   37.70    2.80
   9  -3   1   38.40    3.30
  -9   3   1   39.90    3.30
  -9   3   1   35.90    3.20
   3  -9  -1   42.20    3.30
   9  -6  -1   36.90    3.40
   6  -9   1   39.50    3.30
  -3   9  -1   35.70    3.20
  -9   6  -1   33.20    3.20
   6   3  -1   36.20    2.70
   3  -9  -1   36.90    3.10
   9  -3   1   37.50    3.30
   6  -9   1   40.10    3.30
  -6   9   1   39.40    3.20
   3  -9  -1   41.70    3.30
  -9   3   1   38.00    3.30
   9  -3   1   40.80    3.10
  -6   9   1   36.80    3.30
  -3   9  -1   40.30    3.20
  -3   9  -1   35.60    2.70
  -6  -3  -1   38.70    2.90
   6   3  -1   39.40    2.70
  -9   6  -1   32.30    3.20
  -6  -3  -1   35.50    2.80
   3  -9  -1   39.50    3.10
   9  -3   1   34.80    3.10
   9  -3  -1   33.90    3.20
   9  -3  -1   40.30    3.40
  -3  -6  -1   37.30    2.70
   6   3   1   36.60    2.80
   6  -9  -1   43.30    3.50
   3  -9   1   40.90    3.10
   6  -9  -1   39.20    3.30
  -6   9  -1   38.40    3.30
   9  -6   1   34.40    3.20
   9  -3  -1   40.90    3.10
   9  -6   1   41.70    3.40
  -9   3  -1   35.90    3.20
   6   3   1   35.80    2.80
  -3   9   1   41.40    2.90
  -3   9   1   41.70    3.20
  -9   3  -1   38.50    3.20
  -6   9  -1   40.70    3.20
  -6  -3   1   46.00    3.00
  -3   9   1   35.00    2.80
   3  -9   1   38.90    3.20
   3  -9   1   35.20    3.10
  -9   6   1   38.10    3.30
  -9   3  -1   38.70    3.30
  -9   6   1   35.90    3.20
   3  -9   1   40.70    3.30
  -3   9   1   38.40    3.20
  -6  -3   1   37.20    2.90
   9  -3  -1   42.10    3.20
  -9   2   1  126.29   10.00
  -9   2   1  147.59   10.10
  -7  -2  -1  139.49    9.80
   9  -2   1  131.39    9.90
   7   2  -1  121.19    9.60
   9  -2   1  126.99    9.70
  -9   2   1  139.39   10.00
   9  -2   1  131.09   10.00
  -9   7  -1  152.88   10.20
  -9   7  -1  145.59   10.10
  -2   9  -1  125.69    9.80
   9  -7  -1  151.88   10.30
  -7  -2  -1  142.89    9.70
   9  -2   1  121.19    9.70
   9  -7  -1  139.39   10.10
  -7  -2  -1  142.29    9.80
  -7   9   1  129.99   10.00
   2  -9  -1  154.68   10.00
   7  -9   1  153.88   10.30
   2  -9  -1  145.29   10.00
   7   2  -1  147.09    9.70
   2  -9  -1  143.29   10.00
  -2   9  -1  135.29    9.90
  -7  -2  -1  145.29    9.80
   7  -9   1  125.79   10.00
   7   2   1  134.79    9.70
   9  -2  -1  152.58    9.80
   9  -2  -1  134.29   10.10
   7  -9  -1  114.29   10.10
  -9   2  -1  127.79   10.00
   9  -2  -1  123.19    9.70
  -2   9   1  147.79   10.00
  -9   2  -1  134.09   10.00
  -7   9  -1  130.59   10.00
  -9   7   1  125.89   10.00
   2  -9   1  147.49   10.00
   9  -7   1  137.09   10.10
   2  -9   1  141.09    9.90
   7  -9  -1  146.09   10.10
  -7   9  -1  134.29   10.10
   2  -9   1  142.59    9.90
  -2  -7  -1  140.29    9.60
  -2   9   1  150.58   10.00
  -9   2  -1  143.99   10.10
   7   2   1  132.19    9.70
   9  -2  -1  133.59   10.00
  -7  -2   1  140.79    9.70
   2  -9   1  146.19    9.90
  -8  -1  -1  412.56   29.40
  -8  -1  -1  412.06   29.40
   9  -1   1  442.66   29.60
   9  -1   1  407.86   29.50
  -8   9   1  411.86   29.60
   1  -9  -1  451.75   29.50
  -9   8  -1  410.56   29.60
   1  -9  -1  428.96   29.40
   8  -9   1  443.36   29.70
  -8  -1  -1  421.86   29.40
  -9   1   1  389.96   29.50
  -9   1   1  405.16   29.50
   8  -9   1  462.55   29.90
  -8   9   1  444.16   29.80
  -9   1   1  415.46   29.50
  -8  -1  -1  411.16   29.40
  -9   1  -1  409.26   29.50
  -1  -8  -1  439.26   29.20
   8   1   1  388.16   29.40
  -9   1  -1  474.15   29.70
   9  -8   1  436.36   29.70
  -9   8   1  449.56   29.70
   9  -1  -1  450.75   29.50
   8  -9  -1  369.16   29.60
  -8   9  -1  388.06   29.60
   8  -9  -1  452.65   29.90
   9  -1  -1  494.05   29.80
  -9   1  -1  433.66   29.60
  -1   9   1  460.45   29.40
  -1   9   1  473.05   29.60
   1  -9   1  433.36   29.30
   8   1   1  441.66   29.50
   9  -8   1  367.86   29.60
  -8   9  -1  389.96   29.50
  -8  -1   1  422.36   29.40
   9   0   1   49.30    3.90
  -9   9   1   48.80    4.10
  -9   9  -1   47.30    4.10
   9  -9   1   51.39    4.10
   9  -9  -1   47.30    4.20
   9  -9   1   48.90    4.20
   9  -9  -1   43.20    4.00
   9   0   1   50.79    4.00
  -9   9  -1   48.70    4.00
  -9   0  -1   45.10    3.90
  -9   9   1   56.19    4.10
   5 -10  -1    1.30    0.50
  -5  10   1   -0.10    0.20
  10  -5  -1    0.20    0.30
 -10   5  -1    0.20    0.20
 -10   5   1    0.30    0.30
  10  -5  -1    0.10    0.20
  10  -5  -1    0.10    0.20
  10  -5   1    0.10    0.20
  -5  10  -1    0.20    0.20
   5 -10   1    0.30    0.40
  -5  10   1    0.10    0.20
 -10   5  -1    0.00    0.30
  10  -5   1    0.40    0.30
   5 -10  -1    0.00    0.30
  -5  10   1    0.10    0.20
  10  -5   1    0.10    0.20
  10  -4   1   65.09    4.90
 -10   6  -1   67.39    5.10
 -10   4   1   57.79    4.90
  10  -4   1   57.29    5.00
  -4  10  -1   68.29    5.00
   4 -10  -1   57.79    4.90
  -6  10   1   63.19    5.00
  10  -6  -1   73.79    5.10
   6 -10   1   68.89    5.10
  -6  10   1   64.29    4.90
   4 -10  -1   57.99    4.90
  -4  10  -1   58.39    4.90
  10  -6  -1   63.19    5.10
   4 -10  -1   63.39    4.90
 -10   6  -1   65.49    5.00
   6 -10   1   66.29    5.00
 -10   4   1   58.89    4.90
 -10   6   1   51.09    4.80
   4 -10   1   60.59    4.90
  10  -4  -1   74.89    5.10
   4 -10   1   74.29    5.20
   6 -10  -1   60.69    5.00
  -4  10   1   64.59    4.90
  -6  10  -1   66.69    5.20
  10  -4  -1   64.69    4.80
   6 -10  -1   60.69    5.00
 -10   6   1   56.49    5.00
  -4  10   1   57.99    4.90
   4 -10   1   56.19    4.80
  10  -6   1   59.79    4.90
  10  -6   1   59.99    5.00
  -6  10  -1   63.29    4.80
 -10   4  -1   56.69    4.90
 -10   4  -1   58.79    4.90
  -7  10   1  428.96   30.70
  10  -3   1  465.85   30.70
  -3  10  -1  473.15   30.60
 -10   7  -1  409.56   30.60
  10  -7  -1  441.86   30.80
  10  -7  -1  441.66   30.60
 -10   7  -1  404.76   30.60
   3 -10  -1  430.56   30.60
 -10   3   1  417.96   30.50
  10  -3   1  433.66   30.40
  -3  10  -1  481.25   30.60
 -10   3   1  449.36   30.60
   3 -10  -1  400.66   30.60
  -7  10   1  467.15   30.60
   7 -10   1  445.26   30.70
   3 -10  -1  447.76   30.50
  10  -3  -1  476.55   30.80
  10  -3  -1  416.36   30.40
   3 -10   1  423.96   30.50
 -10   3  -1  478.55   30.70
  10  -7   1  474.95   30.80
  10  -7   1  400.46   30.60
   7 -10  -1  443.46   30.70
   7 -10  -1  368.66   30.60
 -10   7   1  460.05   30.80
  -7  10  -1  438.66   30.70
  -3  10   1  433.16   30.60
 -10   3  -1  416.16   30.50
   3 -10   1  463.75   30.50
  -7  10  -1  447.06   30.60
   3 -10   1  430.76   30.50
  -3  10   1  472.95   30.70
 -10   7   1  478.65   30.70
  10  -8  -1  151.48   11.80
  -8  10   1  163.38   11.90
   8 -10   1  165.58   11.90
 -10   8  -1  177.78   11.90
 -10   8  -1  174.98   12.00
   8 -10   1  168.88   12.00
  -8  10   1  158.38   11.70
 -10   8   1  149.19   11.80
  -8  10  -1  162.18   11.90
 -10   8   1  148.19   11.80
   8 -10  -1  168.58   11.90
   8 -10  -1  175.78   12.10
  10  -8   1  164.58   11.80
  10  -8   1  153.98   11.90
  -9  10   1  119.59    9.00
  -9  10  -1  122.49    9.00
 -11   5   1   32.50    2.90
 -11   5   1   32.10    3.00
  11  -6  -1   31.70    3.00
  11  -6  -1   32.60    2.90
  -5  11  -1   32.70    3.00
  -6  11   1   31.10    3.00
   5 -11  -1   35.40    3.10
   5 -11  -1   35.60    3.00
   6 -11   1   32.40    3.00
   6 -11   1   30.30    3.00
 -11   6  -1   34.80    3.00
  11  -5   1   31.90    3.00
 -11   6  -1   33.30    3.00
  11  -5   1   27.80    2.80
   6 -11  -1   32.00    3.10
  -6  11  -1   34.10    3.00
   5 -11   1   31.30    3.00
 -11   6   1   31.20    2.90
  11  -5  -1   37.50    3.50
   5 -11   1   34.90    3.00
  11  -6   1   28.70    3.00
 -11   5  -1   33.30    3.00
  -5  11   1   36.50    3.10
   6 -11  -1   32.40    3.00
  11  -5  -1   32.10    2.90
 -11   5  -1   32.00    2.90
   0   0   2 1481.95   92.89
   0   0   2 1322.37   92.89
   0   0  -2 1309.37   92.79
   1  -1  -2  194.48   12.30
   1  -1  -2  167.58   12.20
   1   0   2  167.88   12.20
   0   1   2  175.78   12.20
   1   0  -2  176.08   12.20
  -1   0   2  181.18   12.20
   1   0  -2  169.18   12.20
  -1   0   2  192.08   12.20
   0  -1   2  164.88   12.20
   0   1   2  177.68   12.20
  -1   1  -2  185.98   12.20
   1   0  -2  163.58   12.20
   1  -1   2  152.98   12.20
  -1   0  -2  185.38   12.20
  -1   1   2  176.48   12.20
   1  -1   2  160.58   12.20
   0   1  -2  181.28   12.20
   0  -1  -2  161.88   12.20
   1  -1   2  164.98   12.20
  -1   0  -2  160.38   12.20
   0  -1   2  171.28   12.10
   0  -1  -2  185.78   12.20
   0   1   2  190.18   12.20
   1   0  -2  184.48   12.20
   0  -1   2  190.48   12.20
  -1   1   2  197.98   12.20
  -1   0   2  193.98   12.20
   1   0   2  179.98   12.20
   1  -1   2  182.38   12.20
   0   1  -2  198.18   12.20
   1   0   2  205.68   12.20
   0   1  -2  161.58   12.10
  -2   1  -2 5152.98  325.77
  -2   1   2 5008.20  325.87
   2  -1  -2 4694.03  325.77
  -1  -1  -2 5252.87  325.67
  -2   1  -2 4942.71  325.77
  -1  -1  -2 4898.61  325.77
  -1   2   2 4103.09  325.77
   1  -2  -2 4191.08  325.77
  -2   1  -2 5359.96  325.77
  -1   2  -2 4970.10  325.77
  -1   2  -2 5284.37  325.77
  -2   1   2 5068.49  325.77
  -1  -1   2 4895.31  325.67
  -1  -1  -2 5011.40  325.77
  -1  -1   2 5517.95  325.67
   2  -1   2 4082.59  325.77
   2  -1  -2 4193.38  325.77
  -1  -1   2 4729.23  325.67
   2  -1   2 5030.50  325.87
   1   1   2 5532.65  325.67
  -1   2  -2 4534.35  325.77
   1  -2   2 4608.64  325.77
  -1  -1  -2 4678.93  325.77
   1   1   2 4957.20  325.77
   1  -2  -2 4630.04  325.77
   1  -2   2 4262.77  325.77
   1   1   2 5233.08  325.77
   1   1  -2 4978.50  325.67
  -1   2   2 4438.86  325.77
   2  -1  -2 4223.48  325.77
  -2   2  -2 5214.58  353.06
   2  -2  -2 5009.40  353.06
  -2   0  -2 5228.48  353.06
   0   2   2 5016.80  353.06
  -2   0  -2 5609.14  353.06
   2   0   2 4517.55  352.96
   2  -2   2 5555.54  353.06
   2   0  -2 5396.96  352.96
   0   2   2 5256.17  352.96
   0   2  -2 4588.44  352.86
  -2   0  -2 5438.36  353.06
   0   2   2 5205.48  353.06
  -2   0   2 5156.78  352.96
   2  -2   2 4588.04  353.06
   2   0  -2 5114.79  352.96
  -2   0   2 5704.33  353.06
  -2   2  -2 5634.04  353.16
   2  -2   2 5708.53  353.16
   0  -2   2 4943.91  352.96
  -2   2   2 5156.08  353.06
   2   0   2 5045.70  353.06
   2   0  -2 4592.64  352.96
   0  -2   2 5400.46  352.96
  -2   0  -2 4674.83  352.96
   2  -2  -2 4524.25  353.06
   0  -2  -2 5434.66  353.06
  -2   0   2 5216.38  353.06
  -2   0   2 5428.46  352.96
   2  -2  -2 4638.24  353.06
   0  -2   2 5531.35  353.06
   2   0   2 5090.39  353.06
   0  -2  -2 5821.62  353.06
   0  -2  -2 5992.20  353.06
   2  -2  -2 5472.15  353.16
   0   2  -2 5754.82  352.96
   3  -2  -2    0.50    0.30
  -1  -2   2    0.90    0.20
  -1   3  -2    2.00    0.30
   2  -3   2    1.60    0.30
  -3   2  -2    0.60    0.20
   1  -3  -2    2.40    0.30
   1   2   2    2.20    0.30
   3  -1   2    1.00    0.30
  -2  -1  -2    0.80    0.20
  -2  -1  -2    1.40    0.20
  -1  -2   2    1.60    0.20
   2  -3   2    1.60    0.30
  -3   1   2    1.10    0.30
  -3   2   2    1.40    0.30
   2  -3  -2    0.80    0.20
   3  -1  -2    1.20    0.30
  -3   1  -2    0.60    0.20
  -1  -2  -2    1.80    0.20
   2  -3  -2    0.60    0.20
   3  -2   2    0.60    0.30
  -2  -1   2    1.40    0.20
  -1  -2  -2    1.10    0.20
   1  -3   2    0.80    0.20
   2   1   2    1.30    0.20
   1  -3   2    0.80    0.20
  -1   3   2    0.50    0.20
   3  -3   2 4899.91  342.97
   3  -3  -2 4794.02  342.97
   3   0  -2 5249.67  342.87
   0  -3  -2 4508.85  342.87
   0  -3  -2 4967.90  342.87
  -3   0   2 4907.71  342.87
   0   3  -2 5845.02  342.87
   0  -3   2 4861.81  342.87
   0   3   2 5179.48  342.87
   0  -3   2 4709.83  342.77
  -3   0  -2 5786.22  342.97
  -3   3  -2 5057.39  342.97
   0  -3  -2 5032.50  342.87
  -3   0   2 4327.57  342.87
   3  -3   2 5142.09  342.97
   3  -3   2 5034.40  343.07
  -3   0  -2 5322.17  342.87
  -3   0   2 5031.10  342.87
  -3   0   2 4523.65  342.87
  -3   3  -2 4746.73  342.97
   0   3   2 5200.58  342.77
  -3   0  -2 4636.94  342.87
   3   0   2 5781.02  342.97
  -3   0  -2 5627.84  342.87
  -3   3  -2 5003.30  342.97
   3   0   2 5240.28  342.97
   3   0  -2 5476.75  342.77
   3  -3   2 4965.50  342.97
   3   0   2 4689.03  342.87
   3   0  -2 5451.65  342.77
   0   3   2 5110.19  342.77
   2  -4  -2 1740.33  125.89
   2  -4   2 1846.12  125.89
   4  -2   2 1778.92  125.89
   4  -2   2 2030.20  125.99
  -4   2   2 1958.50  125.89
   4  -2  -2 2011.10  125.99
   2  -4  -2 1920.21  125.99
   4  -2  -2 1802.52  125.89
   2   2   2 2089.49  125.79
  -4   2   2 1573.04  125.89
  -2   4   2 1813.12  125.89
   2  -4  -2 1746.73  125.89
  -2  -2  -2 2006.50  125.79
  -2   4  -2 1760.72  125.99
  -2   4  -2 1603.44  125.89
   4  -2   2 1866.81  125.99
   2  -4  -2 1893.71  125.99
  -4   2   2 1877.11  125.99
   2   2  -2 1981.20  125.69
  -4   2  -2 1997.50  125.99
   2  -4   2 2008.40  125.99
   2  -4   2 1989.20  125.89
  -2   4   2 1734.93  125.79
  -2  -2   2 1836.02  125.69
   2   2  -2 1604.44  125.69
  -2   4  -2 2008.10  125.89
  -4   2   2 1730.83  125.99
  -2  -2   2 2099.99  125.69
  -2  -2  -2 1774.42  125.69
   2   2   2 1802.72  125.79
   2  -4   2 1723.23  125.79
  -4   2  -2 1869.11  125.89
   4  -2   2 1817.42  125.89
  -4   1   2  495.75   38.40
  -4   1   2  599.94   38.50
   4  -1   2  594.84   38.50
   4  -1   2  630.24   38.40
   3  -4   2  566.94   38.50
   1  -4  -2  607.74   38.40
  -1   4  -2  606.54   38.40
  -3  -1  -2  580.74   38.30
  -1  -3   2  509.55   38.20
  -3   4   2  503.75   38.40
  -4   1   2  524.25   38.40
  -1   4  -2  589.84   38.20
   3   1  -2  604.14   38.30
   1   3   2  539.85   38.30
  -3   4   2  500.75   38.50
  -3  -1  -2  593.94   38.40
   4  -3  -2  592.44   38.50
  -1   4  -2  565.04   38.40
  -1  -3   2  619.24   38.20
   1   3   2  545.75   38.30
   1  -4  -2  582.24   38.40
  -4   1   2  576.34   38.40
   3  -4   2  572.44   38.50
   1  -4  -2  492.15   38.40
   1  -4  -2  499.75   38.30
   3   1  -2  591.04   38.30
   1  -4   2  539.15   38.30
   4  -1  -2  607.14   38.30
  -1  -3  -2  596.94   38.30
  -1  -3  -2  582.34   38.30
  -1   4   2  508.85   38.40
  -1   4   2  587.24   38.40
   1  -4   2  610.14   38.40
  -3   4  -2  571.64   38.50
   3  -4  -2  485.25   38.40
  -3  -1   2  552.34   38.30
  -4   1  -2  539.25   38.40
  -3   4  -2  586.34   38.50
  -1  -3  -2  563.14   38.30
  -3  -1   2  576.44   38.20
   3   1   2  593.64   38.20
   4  -1  -2  586.84   38.40
   3   1   2  527.35   38.30
  -3   4  -2  539.25   38.40
   1  -4   2  607.24   38.40
   1   3  -2  576.54   38.20
  -3   4  -2  541.75   38.40
  -1  -3  -2  553.34   38.30
   1   3  -2  542.95   38.20
   4  -1  -2  514.85   38.40
   4  -1  -2  596.34   38.50
  -4   1  -2  577.84   38.40
   3   1   2  601.94   38.40
   3  -4  -2  508.65   38.40
  -3  -1   2  563.34   38.20
  -1   4   2  582.84   38.30
  -3  -1   2  573.54   38.30
  -4   1  -2  587.14   38.40
  -1   4   2  474.35   38.30
  -4   0   2 6314.07  375.26
   0  -4  -2 5358.96  375.26
  -4   4  -2 6393.36  375.36
   0  -4  -2 5425.36  375.16
   0  -4   2 6191.78  375.16
  -4   4   2 4958.00  375.36
   0   4  -2 5343.17  375.16
   0  -4  -2 5171.98  375.26
  -4   4  -2 5856.51  375.56
   0  -4   2 5158.98  375.06
   4  -4   2 5662.23  375.46
   4   0   2 5625.84  375.16
   4   0  -2 5228.38  375.26
   0  -4   2 5948.60  375.16
  -4   0  -2 6072.19  375.26
   0   4   2 6203.78  375.26
   0   4  -2 6082.59  375.16
  -4   0   2 5995.70  375.26
   0   4   2 4864.41  375.16
  -4   0   2 4927.71  375.26
  -4   4   2 4859.91  375.36
   4  -4  -2 5176.78  375.36
   4   0   2 6059.89  375.26
   4  -4  -2 5636.24  375.46
   4   0   2 5632.14  375.16
   4  -4   2 5493.65  375.46
  -4   0  -2 6320.37  375.36
   4   0  -2 5824.02  375.16
   4  -4  -2 4975.90  375.36
  -4   4   2 4726.03  375.36
   4  -4   2 4893.91  375.36
  -4   0  -2 5196.28  375.26
  -4   4   2 4999.60  375.46
   4   0   2 5858.31  375.36
   0  -4   2 5410.46  375.16
  -4   0   2 5918.01  375.16
  -4   4  -2 4707.53  375.36
  -4   0  -2 6276.37  375.26
   5  -3  -2  342.67   25.90
  -5   3  -2  387.46   26.00
  -3   5   2  385.66   26.00
  -3   5   2  344.87   26.00
   2  -5  -2  376.26   25.90
   5  -2   2  394.96   25.90
  -3   5   2  373.06   25.90
  -5   3  -2  397.76   26.00
   3  -5   2  438.36   26.00
   5  -2   2  337.47   25.90
   5  -2   2  361.66   26.00
  -3  -2  -2  362.06   25.70
   5  -3  -2  349.07   25.90
   5  -2   2  394.06   25.90
  -3   5   2  371.56   25.90
   2  -5  -2  382.06   26.00
  -5   3  -2  401.66   26.00
  -5   2   2  397.16   25.90
   5  -3  -2  438.26   26.10
   2   3   2  369.36   25.70
  -5   3  -2  404.96   25.90
  -2   5  -2  402.06   25.80
  -2   5  -2  357.36   25.90
  -3  -2  -2  362.46   25.70
  -2   5  -2  382.46   25.80
   2  -5  -2  375.26   25.90
  -3  -2  -2  411.96   25.70
  -3  -2  -2  362.46   25.70
   2   3   2  378.26   25.70
  -5   3   2  348.77   25.90
   3  -5  -2  397.36   26.00
   2  -5   2  379.26   25.90
   3  -5  -2  355.06   25.90
   5  -2  -2  350.26   25.80
  -2  -3  -2  356.96   25.70
  -5   3   2  420.46   26.10
  -3  -2   2  377.16   25.60
   3   2   2  400.56   25.80
  -2   5   2  395.86   25.80
  -2   5   2  379.26   25.90
   3  -5  -2  359.76   25.90
   5  -3   2  362.66   25.90
  -2   5   2  354.06   25.80
  -5   2  -2  388.86   26.00
   2  -5   2  388.66   25.90
  -5   3   2  413.86   26.00
   5  -3   2  386.36   25.90
   3  -5  -2  429.86   26.10
   2  -5   2  341.17   25.80
  -2  -3  -2  332.17   25.70
   5  -3   2  401.36   26.00
  -5   3   2  386.86   25.90
  -3  -2   2  365.86   25.60
   2  -5   2  367.26   25.80
   5  -3   2  328.47   26.00
  -5   2  -2  339.77   25.90
   4   1  -2 3802.82  224.68
   4  -5   2 3820.32  224.98
  -1  -4   2 3412.76  224.48
  -4   5   2 3225.98  224.88
   1   4   2 3588.04  224.68
   4  -5   2 3527.65  224.98
  -5   1   2 3115.99  224.78
  -4   5   2 2884.61  224.78
  -5   4  -2 3057.59  224.88
   4  -5   2 3187.38  224.78
  -5   4  -2 3104.39  224.78
  -1  -4   2 3637.44  224.58
  -5   1   2 3788.32  224.88
   5  -1   2 3504.85  224.68
   1  -5  -2 3349.76  224.68
  -4  -1  -2 2862.81  224.68
  -1   5  -2 3735.93  224.78
   1  -5  -2 3278.67  224.78
   4  -5   2 3090.59  224.88
   4   1  -2 3582.14  224.68
  -4   5   2 3380.56  224.88
  -5   1   2 3349.47  224.78
   5  -4  -2 3041.50  224.88
   1  -5  -2 3414.66  224.78
   5  -4  -2 2884.21  224.78
  -4  -1  -2 3279.57  224.68
  -5   4  -2 3766.42  225.08
   1   4   2 3342.27  224.68
   5  -4  -2 2937.81  224.78
  -5   4   2 3190.58  224.88
   1   4  -2 3113.29  224.48
   5  -1  -2 3206.68  224.78
   5  -4   2 3609.54  224.98
  -1  -4  -2 2957.30  224.68
   4  -5  -2 2982.70  224.78
   4  -5  -2 3624.14  224.88
  -4   5  -2 3478.25  224.78
  -5   1  -2 2936.51  224.68
   4   1   2 3703.63  224.78
  -5   1  -2 2989.60  224.68
  -5   4   2 3246.08  224.88
   1  -5   2 3382.46  224.68
   1  -5   2 3628.24  224.78
  -4   5  -2 3177.68  224.88
  -1   5   2 2945.21  224.68
   4  -5  -2 3100.59  224.88
  -1   5   2 3765.62  224.68
   4  -5  -2 3419.46  224.88
  -5   4   2 3249.67  224.88
   1  -5   2 3705.33  224.78
  -5   4   2 2873.61  224.88
  -4   5  -2 3127.79  224.88
   1   4  -2 3274.67  224.48
   5  -1  -2 3233.18  224.78
  -1  -4  -2 3760.12  224.68
  -1   5   2 2954.70  224.58
   5  -1  -2 3820.32  224.68
  -4  -1   2 3173.28  224.58
   4   1   2 3234.18  224.68
   0  -5  -2  196.68   14.00
   0  -5   2  212.78   14.00
   5  -5  -2  209.38   14.20
   0  -5  -2  204.78   14.10
   0   5  -2  186.38   14.00
   5  -5  -2  214.38   14.30
   5   0  -2  211.88   13.80
  -5   0   2  208.78   14.10
  -5   0   2  204.48   14.00
   5  -5   2  205.78   14.30
  -5   5   2  225.38   14.30
   0  -5   2  206.58   14.00
   0  -5   2  210.58   13.90
   5   0  -2  201.68   14.10
  -5   5  -2  211.98   14.20
   5   0   2  202.38   14.00
   5   0   2  177.38   14.00
  -5   0  -2  181.28   14.10
  -5   5  -2  196.28   14.20
   5  -5  -2  187.28   14.20
   5  -5  -2  222.88   14.40
   0  -5  -2  189.98   14.00
   5   0  -2  210.28   14.10
  -5   5   2  227.88   14.30
   5  -5   2  200.88   14.30
  -5   5   2  210.78   14.30
   5   0   2  176.28   14.10
   0   5  -2  199.48   14.00
   0  -5   2  196.98   14.00
  -5   0  -2  194.58   14.10
   5   0   2  201.68   14.20
  -5   5  -2  238.18   14.40
  -5   5  -2  209.48   14.40
   5  -5   2  190.58   14.30
  -6   3  -2 2007.20  151.38
  -3   6   2 2410.16  151.48
   3   3   2 2370.36  151.18
  -3  -3  -2 2553.74  151.18
  -6   3  -2 2489.05  151.48
   6  -3   2 2109.39  151.38
   6  -3  -2 2047.40  151.38
   3  -6   2 2290.07  151.48
  -3   6  -2 2067.29  151.38
  -6   3   2 2166.78  151.48
  -6   3   2 2268.27  151.48
   6  -3   2 2272.07  151.58
   6  -3  -2 2199.38  151.38
  -3  -3  -2 2229.08  151.18
  -3  -3  -2 2388.06  151.18
   3  -6  -2 2076.69  151.38
  -3   6   2 2462.15  151.58
  -6   3   2 2271.07  151.58
  -3   6   2 2020.20  151.28
  -3   6   2 2064.69  151.28
   3  -6  -2 2176.88  151.38
   3  -6  -2 2238.18  151.38
   3  -6   2 2225.18  151.48
   6  -3   2 2137.59  151.48
  -6   3   2 2273.77  151.48
   3  -6  -2 2092.59  151.48
   3  -6   2 2331.17  151.38
   6  -3   2 2288.77  151.38
  -6   3  -2 2286.67  151.48
  -3   6  -2 2442.66  151.48
   3   3   2 2496.45  151.18
   3  -6   2 1960.00  151.38
   6  -3  -2 1969.10  151.38
  -4  -2  -2 3793.52  262.37
   2   4   2 4183.08  262.27
  -4   6   2 3265.17  262.47
   6  -2   2 3961.80  262.47
  -6   4  -2 3700.43  262.57
   2  -6  -2 4256.87  262.67
  -6   2   2 3941.01  262.57
   6  -4  -2 4486.85  262.87
  -4   6   2 4010.70  262.57
   6  -4  -2 4032.90  262.67
  -4   6   2 3536.75  262.57
  -4  -2  -2 4307.07  262.37
  -2   6  -2 4476.15  262.37
   6  -4  -2 3569.74  262.57
   4  -6   2 4313.87  262.77
   6  -2   2 3324.57  262.47
   2   4   2 3844.32  262.27
  -6   4  -2 3933.51  262.57
   4  -6   2 3580.74  262.57
  -6   2   2 4301.07  262.57
  -6   2   2 3514.35  262.57
  -2   6  -2 3648.23  262.27
   6  -4  -2 3899.91  262.57
  -6   4  -2 3401.56  262.57
   4   2  -2 4311.37  262.27
  -4  -2  -2 4353.76  262.37
  -4   6   2 3880.01  262.67
   6  -2   2 3746.63  262.57
  -6   2   2 3807.02  262.57
   4  -6   2 3480.15  262.47
  -6   4  -2 3709.93  262.57
  -2   6   2 3976.50  262.57
   2  -6   2 3658.53  262.37
  -6   4   2 3727.73  262.57
  -4   6  -2 3807.22  262.67
   6  -2  -2 3804.42  262.57
   6  -2  -2 4092.89  262.47
  -4  -2   2 3791.92  262.27
   4  -6  -2 3861.21  262.67
   4  -6  -2 3540.85  262.57
   6  -4   2 4145.29  262.67
  -2   6   2 3953.90  262.57
  -6   2  -2 3542.15  262.57
   4  -6  -2 3319.57  262.47
  -6   2  -2 3503.05  262.57
   6  -2  -2 4146.19  262.67
  -2  -4  -2 3588.94  262.27
  -4   6  -2 3380.96  262.47
   6  -4   2 4065.29  262.77
  -6   4   2 3735.73  262.57
  -6   4   2 3843.72  262.67
   6  -4   2 3809.72  262.57
  -6   4   2 4400.86  262.67
  -2   6   2 3952.30  262.37
  -6   2  -2 4041.70  262.57
  -4  -2   2 3901.81  262.27
  -6   2  -2 3759.32  262.47
   6  -4   2 3624.84  262.47
  -4   6  -2 3748.32  262.47
   4  -6  -2 3662.13  262.57
  -4   6  -2 3387.56  262.57
   4   2   2 4027.80  262.37
   4   2   2 4049.69  262.37
  -2  -4  -2 4206.48  262.27
  -4  -2   2 4444.16  262.17
  -4  -2   2 4241.08  262.27
   2  -6   2 3941.61  262.47
  -2  -4  -2 4330.57  262.27
   6  -1   2   59.09    4.70
   1  -6  -2   64.39    4.70
  -5   6   2   60.79    4.80
  -5   6   2   62.99    4.80
  -5   6   2   61.69    4.80
  -5   6   2   63.09    4.80
  -1   6  -2   64.29    4.60
  -1  -5   2   64.89    4.40
   6  -5  -2   68.59    4.80
  -6   5  -2   65.19    4.70
  -6   1   2   56.39    4.60
  -5  -1  -2   65.89    4.60
  -1  -5   2   70.09    4.40
   6  -1   2   70.59    4.80
   5  -6   2   72.09    4.90
  -1  -5   2   68.09    4.40
  -6   5  -2   61.99    4.80
  -5  -1  -2   54.19    4.50
   1  -6  -2   60.09    4.70
   5   1  -2   62.59    4.50
  -6   5  -2   55.99    4.80
   1  -6  -2   62.49    4.60
   6  -5  -2   65.39    4.90
  -6   5  -2   52.99    4.80
   1   5   2   72.09    4.60
  -5  -1  -2   59.79    4.60
   6  -1   2   62.99    4.60
  -1   6  -2   66.49    4.60
  -1  -5   2   60.29    4.40
   1   5   2   57.59    4.50
   6  -5  -2   62.59    4.80
   6  -5  -2   62.69    4.90
  -5  -1   2   61.59    4.60
  -6   1  -2   59.39    4.70
   5   1   2   62.89    4.60
  -5  -1   2   59.79    4.50
  -5   6  -2   74.89    4.90
   6  -1  -2   64.69    4.50
  -1   6   2   54.79    4.60
   1  -6   2   53.89    4.50
  -6   1  -2   65.79    4.70
   1   5  -2   57.99    4.40
  -5   6  -2   65.69    4.70
  -1   6   2   66.29    4.70
  -6   1  -2   56.29    4.70
  -6   5   2   56.59    4.70
  -6   5   2   53.49    4.70
  -6   5   2   67.09    4.90
   5  -6  -2   61.89    4.80
   6  -5   2   66.79    4.80
   5   1   2   64.89    4.60
   6  -1  -2   67.09    4.80
   5  -6  -2   69.09    4.90
   5  -6  -2   70.59    4.80
   1  -6   2   59.89    4.50
  -5  -1   2   59.29    4.50
  -1  -5  -2   63.69    4.60
  -5   6  -2   71.79    4.90
   1   5  -2   65.59    4.40
   6  -1  -2   69.49    4.50
  -1  -5  -2   57.19    4.50
  -5   6  -2   62.79    4.80
   6  -1  -2   62.69    4.70
  -1  -5  -2   60.89    4.50
   1  -6   2   59.69    4.60
   1  -6   2   66.99    4.60
   5  -6  -2   64.09    4.80
   6   0   2 1453.05  102.49
  -6   6   2 1534.55  102.99
  -6   6   2 1526.75  102.99
  -6   0   2 1704.23  102.69
   0  -6  -2 1390.96  102.69
  -6   0   2 1504.75  102.69
   6   0   2 1629.34  102.49
  -6   0   2 1437.36  102.89
   0   6   2 1454.35  102.69
  -6   0   2 1627.64  102.79
   6   0  -2 1286.37  102.79
  -6   6  -2 1612.64  103.09
   0   6  -2 1748.82  102.69
   0  -6  -2 1553.44  102.69
   6   0  -2 1729.13  102.79
   0  -6  -2 1376.26  102.69
   0  -6   2 1560.64  102.59
   6  -6   2 1337.57  102.89
   6  -6   2 1500.15  102.89
   0   6   2 1512.55  102.69
  -6   6   2 1492.85  102.89
   0  -6  -2 1671.03  102.69
  -6   6  -2 1418.36  102.79
  -6   0  -2 1647.04  102.89
  -6   6  -2 1388.46  102.89
   6   0   2 1635.44  102.79
   0  -6   2 1466.15  102.59
   6  -6   2 1453.25  102.79
  -6   0  -2 1304.47  102.89
   0   6  -2 1559.64  102.59
   6  -6  -2 1570.44  102.99
   6  -6  -2 1468.25  102.89
  -6   0  -2 1403.06  102.79
   6  -6  -2 1585.84  103.09
  -6   6   2 1442.96  102.89
  -6   6  -2 1605.84  102.89
   0  -6   2 1596.54  102.59
   0  -6   2 1271.67  102.49
   6  -6  -2 1346.57  102.79
   6   0   2 1728.43  102.89
  -7   4  -2   58.99    4.60
  -4  -3  -2   53.99    4.30
  -7   3   2   59.19    4.60
  -3   7  -2   56.59    4.40
  -4  -3  -2   57.09    4.30
   4  -7   2   60.89    4.60
   4  -7   2   60.29    4.50
  -7   3   2   49.70    4.60
   3  -7  -2   66.09    4.70
  -7   4  -2   69.09    4.80
  -4   7   2   64.69    4.60
  -7   4  -2   63.49    4.80
   7  -3   2   57.99    4.60
   4  -7   2   55.59    4.60
   7  -3   2   60.19    4.70
  -7   3   2   62.59    4.70
  -4   7   2   62.49    4.70
   3   4   2   55.49    4.20
   7  -4  -2   65.39    4.60
  -7   3   2   57.29    4.60
   7  -4  -2   64.29    4.70
   3  -7  -2   60.39    4.60
  -4  -3  -2   65.79    4.30
  -4   7   2   58.99    4.50
  -4   7   2   58.19    4.60
   7  -4  -2   61.39    4.60
   7  -3   2   55.59    4.50
   4  -7   2   56.79    4.60
   3   4   2   55.49    4.20
  -3   7  -2   65.59    4.70
  -3   7  -2   58.59    4.60
   3  -7  -2   55.29    4.50
  -7   4  -2   66.19    4.70
   7  -3   2   63.39    4.70
   7  -3  -2   61.29    4.50
  -7   3  -2   50.49    4.50
   3  -7   2   62.29    4.60
   4   3   2   61.79    4.40
   3  -7   2   57.09    4.50
  -7   4   2   62.19    4.70
   7  -4   2   59.59    4.60
  -3  -4  -2   61.89    4.30
  -4   7  -2   63.59    4.70
   7  -3  -2   62.29    4.50
   7  -4   2   63.29    4.60
   4   3   2   57.39    4.30
  -4   7  -2   62.89    4.50
  -3   7   2   60.59    4.60
  -7   3  -2   56.99    4.60
   4  -7  -2   59.99    4.60
   7  -3  -2   59.49    4.70
   3  -7   2   51.09    4.50
   4  -7  -2   62.29    4.70
   7  -4   2   64.29    4.60
   3  -7   2   60.49    4.50
  -7   4   2   56.99    4.60
  -7   4   2   64.09    4.70
   4  -7  -2   62.39    4.60
  -7   3  -2   60.09    4.60
  -3  -4  -2   59.49    4.20
  -3   7   2   59.39    4.40
  -7   4   2   61.19    4.70
   7  -4   2   60.99    4.70
  -7   3  -2   60.49    4.60
   7  -3  -2   63.79    4.70
  -3  -4  -2   58.59    4.20
   4  -7  -2   62.69    4.60
  -3   7   2   60.59    4.60
  -3  -4  -2   58.79    4.20
  -4   7  -2   68.89    4.70
   2   5   2 2004.30  128.39
   5  -7   2 1840.52  128.79
  -5  -2  -2 1872.51  128.49
   7  -5  -2 1651.33  128.59
  -2   7  -2 1617.24  128.59
   7  -2   2 2085.09  128.89
   5  -7   2 1879.41  128.69
  -5   7   2 1927.11  128.69
  -7   2   2 1751.02  128.59
  -7   2   2 2023.00  128.69
  -5  -2  -2 1896.91  128.49
  -5   7   2 1719.63  128.69
   2  -7  -2 1890.91  128.59
   5   2  -2 1927.91  128.39
  -7   5  -2 1875.81  128.79
  -7   5  -2 1887.81  128.69
  -7   5  -2 1802.42  128.69
   7  -2   2 1876.91  128.69
  -5   7   2 1989.30  128.69
   5  -7   2 1777.42  128.69
   2  -7  -2 1788.92  128.69
  -2   7  -2 1873.81  128.29
   7  -5  -2 1866.31  128.79
  -2   7  -2 1985.10  128.29
  -2   7  -2 2161.78  128.79
   5  -7   2 1812.02  128.79
  -7   5  -2 1828.62  128.79
   7  -5  -2 1861.81  128.79
   2  -7  -2 1628.64  128.59
  -5  -2  -2 1966.30  128.49
   2   5   2 2138.99  128.39
  -5  -2  -2 1878.21  128.49
  -5   7   2 1811.92  128.79
   7  -5  -2 1673.63  128.79
  -7   2  -2 1921.11  128.69
   5  -7  -2 1918.91  128.79
  -5   7  -2 1957.80  128.89
  -7   2  -2 1849.81  128.69
  -2  -5  -2 2066.09  128.39
  -2  -5  -2 2099.49  128.39
  -5   7  -2 2010.20  128.69
  -7   2  -2 1968.00  128.79
  -5  -2   2 2107.09  128.39
   2  -7   2 1937.71  128.59
   7  -2  -2 1847.72  128.69
  -7   5   2 1686.53  128.79
  -5   7  -2 1785.72  128.59
   7  -5   2 2005.00  128.79
   7  -5   2 1993.60  128.69
   7  -5   2 1584.74  128.79
   5   2   2 1876.01  128.49
  -7   5   2 2133.69  128.99
  -5  -2   2 1927.01  128.39
   5  -7  -2 1991.60  128.89
  -2   7   2 1679.13  128.59
   7  -2  -2 1940.51  128.59
   7  -2  -2 1882.91  128.59
  -5  -2   2 1881.61  128.39
  -2   7   2 1831.62  128.39
  -2   7   2 1769.72  128.39
  -7   2  -2 1590.14  128.69
   7  -2  -2 2152.38  128.89
   7  -5   2 1873.41  128.79
  -7   5   2 1901.41  128.69
   5   2   2 2058.79  128.49
  -5  -2   2 2024.20  128.39
  -2  -5  -2 2106.29  128.39
   2  -7   2 1675.23  128.49
   2  -7   2 1761.62  128.59
  -5   7  -2 1856.41  128.79
  -2   7   2 2182.68  128.79
  -2  -5  -2 2063.59  128.39
  -1  -6   2  742.53   46.70
   7  -1   2  729.03   46.90
  -6  -1  -2  696.83   46.90
  -1  -6   2  683.93   46.70
   6  -7   2  629.94   47.10
   7  -1   2  663.63   47.00
   6  -7   2  750.62   47.10
  -1   7  -2  650.23   46.90
  -7   6  -2  723.13   47.50
   1  -7  -2  652.83   46.90
  -6   7   2  670.83   47.10
  -1   7  -2  718.63   46.90
  -1  -6   2  662.33   46.60
  -7   1   2  720.43   47.10
  -1  -6   2  700.33   46.70
   1  -7  -2  668.33   46.90
  -7   1   2  705.03   47.00
   1   6   2  700.63   46.80
  -6   7   2  661.23   47.20
  -7   6  -2  616.04   47.00
   6   1  -2  742.33   46.90
  -7   1   2  637.34   47.00
   6   1  -2  715.23   46.90
   1   6   2  735.23   46.80
   6  -7   2  664.53   47.20
   7  -6  -2  740.13   47.20
   7  -6  -2  716.63   47.10
   7  -6  -2  705.83   47.30
   7  -6  -2  683.43   47.20
  -6  -1  -2  608.84   46.90
   6  -7   2  746.23   47.20
  -6  -1  -2  623.14   46.90
  -6   7   2  732.63   47.30
  -7   1   2  715.93   47.00
   1  -7   2  677.73   46.90
   6  -7  -2  752.82   47.30
   7  -1  -2  713.13   47.10
  -1  -6  -2  619.04   46.80
  -6   7  -2  690.93   47.20
   1  -7   2  593.04   46.80
  -7   6   2  712.03   47.20
  -7   6   2  720.13   47.30
   7  -6   2  680.53   47.10
  -6  -1   2  632.84   46.80
  -6   7  -2  681.73   47.10
   7  -1  -2  706.03   46.80
   7  -1  -2  730.93   46.80
  -7   6   2  702.83   47.10
  -7   1  -2  758.82   47.10
   6  -7  -2  625.94   47.00
   1  -7   2  703.63   46.90
   1   6  -2  679.93   46.60
   7  -1  -2  715.83   47.00
  -1  -6  -2  692.63   46.80
  -6  -1   2  655.63   46.90
   6   1   2  651.13   47.00
  -1  -6  -2  720.33   46.80
  -1  -6  -2  643.94   46.80
  -7   1  -2  655.33   47.00
  -7   1  -2  724.03   47.10
  -7   6   2  594.34   47.10
  -6  -1   2  727.03   46.80
   1   6  -2  742.73   46.70
   1  -7   2  671.33   46.80
  -6   7  -2  618.04   47.00
   7   0   2   29.10    2.50
   0  -7   2   27.00    2.20
   0   7   2   32.30    2.40
   7   0  -2   30.50    2.40
   0   7  -2   29.40    2.30
  -7   0   2   30.80    2.40
   0  -7  -2   26.70    2.30
   0   7  -2   29.70    2.30
  -7   0   2   28.90    2.40
   7   0  -2   25.90    2.40
   0  -7  -2   34.00    2.40
  -7   0  -2   28.50    2.40
  -7   0   2   29.80    2.50
   0  -7   2   26.90    2.30
  -7   0  -2   32.60    2.50
   0  -7   2   27.60    2.40
   0  -7  -2   25.30    2.30
  -7   0  -2   30.10    2.50
  -7   0  -2   32.70    2.50
   7   0   2   30.10    2.50
   0  -7   2   28.30    2.30
   0   7   2   29.30    2.40
  -7   7  -2   31.40    2.60
  -4   8   2 1118.09   75.49
   4   4   2 1245.38   75.19
  -4   8   2 1046.30   75.59
   8  -4  -2 1080.09   75.59
  -4  -4  -2 1132.59   75.19
  -8   4   2 1144.49   75.69
  -8   4  -2 1215.28   75.79
  -4  -4  -2 1179.08   75.19
   4  -8  -2 1076.39   75.59
  -8   4   2 1012.60   75.69
   4  -8   2 1038.60   75.59
   8  -4   2 1049.09   75.59
  -4  -4  -2 1195.58   75.29
   4  -8   2 1109.79   75.69
   4  -8   2 1087.29   75.59
   8  -4   2 1075.29   75.69
   8  -4   2 1161.48   75.69
  -8   4   2 1194.68   75.69
  -4   8   2  946.31   75.59
   8  -4  -2 1119.39   75.59
   4  -8  -2 1104.99   75.59
   8  -4   2 1058.99   75.59
  -4   8  -2  990.10   75.59
  -4   8  -2 1157.88   75.49
  -8   4  -2 1226.18   75.69
  -4   8   2 1049.70   75.49
  -4   8  -2  976.40   75.59
   8  -4  -2 1049.99   75.69
   8  -4  -2 1159.68   75.69
   4  -8   2 1199.28   75.59
  -4  -4  -2 1128.99   75.19
  -8   4  -2 1169.58   75.69
  -3   8  -2  444.36   31.30
   5  -8   2  504.25   31.50
  -8   3   2  427.76   31.30
   8  -5  -2  413.16   31.30
   3  -8  -2  430.96   31.40
   8  -5  -2  406.56   31.50
   3  -8  -2  443.46   31.30
   8  -5  -2  488.75   31.40
   8  -3   2  479.55   31.60
   5  -8   2  415.06   31.30
  -5  -3  -2  470.75   31.10
  -5  -3  -2  452.35   31.00
  -5  -3  -2  453.75   31.00
   5  -8   2  416.96   31.40
  -8   3   2  488.45   31.40
  -5   8   2  431.46   31.40
   5  -8   2  418.46   31.30
   8  -3   2  475.45   31.30
   8  -3   2  465.65   31.30
   3   5   2  457.85   30.90
  -5  -3  -2  494.25   31.10
   3  -8  -2  479.15   31.40
  -3   8  -2  453.35   31.00
  -3   8  -2  409.36   31.00
   8  -3   2  412.26   31.30
  -5   8   2  463.15   31.30
  -5   8   2  434.06   31.40
   3   5   2  464.65   30.90
  -5   8   2  464.35   31.30
  -3   8  -2  469.05   31.30
  -5   8  -2  437.86   31.30
   8  -5   2  451.15   31.40
  -8   3  -2  515.35   31.50
  -8   3  -2  481.45   31.40
   3  -8   2  455.35   31.40
  -3   8   2  399.66   31.30
  -5   8  -2  390.36   31.30
   5  -8  -2  432.96   31.40
   3  -8   2  444.36   31.20
   5  -8  -2  450.45   31.40
  -3   8   2  481.85   31.20
   8  -3  -2  493.25   31.50
   8  -3  -2  450.05   31.40
   5  -8  -2  471.95   31.50
  -8   3  -2  446.66   31.30
  -8   3  -2  483.45   31.40
  -8   5   2  433.26   31.30
  -3  -5  -2  485.35   30.90
   3  -8   2  469.65   31.30
   5   3   2  443.16   31.00
   5   3   2  471.55   31.00
  -3  -5  -2  425.66   31.00
  -3  -5  -2  465.95   30.90
   8  -3  -2  441.16   31.30
   8  -3  -2  470.65   31.30
   3  -8   2  455.05   31.30
   8  -5   2  492.35   31.40
  -3   8   2  478.95   31.10
  -5  -3   2  423.86   30.90
  -5   8  -2  442.16   31.40
  -8   5   2  472.75   31.50
  -3   8   2  480.15   31.40
  -3  -5  -2  454.95   30.90
  -5  -3   2  481.75   30.90
  -8   2   2 3186.28  234.48
   8  -2   2 3677.63  234.58
  -6  -2  -2 3733.63  234.28
   2  -8  -2 3299.97  234.38
   2   6   2 3949.70  234.18
   6   2  -2 3654.73  234.18
   8  -2   2 3603.74  234.58
   8  -6  -2 3091.09  234.68
  -2   8  -2 3822.72  234.58
  -6  -2  -2 3523.15  234.28
  -6   8   2 3522.25  234.48
   8  -6  -2 3197.18  234.58
   6   2  -2 3767.22  234.18
   6  -8   2 3311.47  234.68
  -6  -2  -2 3225.98  234.28
   2  -8  -2 3278.97  234.48
  -8   2   2 3913.01  234.58
   2  -8  -2 3384.76  234.38
   8  -2   2 3386.56  234.38
  -2   8  -2 2970.80  234.38
  -8   6  -2 3684.73  234.68
   2   6   2 3673.63  234.18
  -8   2   2 3728.43  234.58
  -8   6  -2 3717.33  234.68
  -6  -2  -2 3576.74  234.28
   2  -8  -2 3132.89  234.38
  -8   2   2 3426.86  234.48
   6   2   2 3718.73  234.38
  -6   8  -2 3395.16  234.48
  -6   8  -2 3539.05  234.48
  -8   2  -2 3148.19  234.48
  -8   6   2 3079.79  234.58
  -2  -6  -2 3470.95  234.18
   8  -2  -2 3720.83  234.38
   8  -6   2 3497.65  234.58
  -6   8  -2 3131.79  234.58
  -2   8   2 3379.76  233.98
  -6  -2   2 3735.43  234.18
   6   2   2 3515.35  234.28
  -2  -6  -2 3230.98  234.08
  -2  -6  -2 3935.41  234.08
   2  -8   2 3096.89  234.38
  -8   6   2 3138.09  234.48
  -8   2  -2 3020.50  234.48
  -2   8   2 3650.83  234.48
   2  -8   2 3566.34  234.38
  -6  -2   2 3567.14  234.18
  -8   2  -2 3148.68  234.48
   8  -2  -2 3421.16  234.48
   8  -6   2 3673.13  234.78
  -2   8   2 3773.72  234.58
  -8   2  -2 3666.13  234.58
   2  -8   2 2947.01  234.28
   8  -2  -2 3434.96  234.58
   2  -8   2 3219.18  234.38
  -1  -7   2  704.33   46.00
  -8   7  -2  721.53   46.50
  -8   1   2  721.83   46.40
   1   7   2  638.54   46.10
  -1  -7   2  682.63   46.10
  -8   1   2  703.13   46.40
   8  -1   2  682.23   46.50
   1  -8  -2  728.03   46.40
   8  -7  -2  640.54   46.50
  -1  -7   2  668.13   46.00
  -8   1   2  704.43   46.40
   1  -8  -2  671.13   46.30
  -7   8   2  620.44   46.50
  -7   8   2  781.02   46.70
   1   7   2  656.93   46.20
  -7  -1  -2  629.84   46.30
   8  -1   2  662.23   46.40
  -7  -1  -2  692.53   46.30
  -7  -1  -2  685.03   46.30
  -8   1   2  696.33   46.50
  -7  -1  -2  693.63   46.30
  -1  -7   2  674.03   46.10
   7  -8   2  691.83   46.60
   8  -1   2  669.33   46.20
   1  -8  -2  733.33   46.40
   7  -8   2  645.54   46.60
   8  -7  -2  587.54   46.60
   7   1  -2  687.83   46.20
   7   1  -2  711.03   46.30
   1  -8  -2  681.43   46.40
  -7   8  -2  712.83   46.50
   8  -1  -2  660.53   46.40
  -1  -7  -2  704.83   46.10
  -8   7   2  655.93   46.60
   1   7  -2  656.03   45.90
   8  -1  -2  594.64   46.30
   8  -1  -2  692.53   46.00
  -7  -1   2  709.83   46.30
  -7  -1   2  617.84   46.20
   1  -8   2  711.63   46.30
   7  -8  -2  726.63   46.60
   7   1   2  656.73   46.30
   1  -8   2  659.63   46.20
  -1   8   2  640.14   46.30
  -7  -1   2  667.53   46.30
  -7  -1   2  648.84   46.30
  -1  -7  -2  678.53   46.20
   8  -1  -2  683.63   46.00
  -8   1  -2  660.23   46.50
  -8   1  -2  714.73   46.40
  -1   8   2  648.94   46.30
  -1  -7  -2  686.23   46.20
   7   1   2  675.83   46.30
  -1  -7  -2  773.12   46.30
   7  -8  -2  630.44   46.60
  -8   1  -2  649.83   46.40
   1   7  -2  721.13   46.00
  -8   1  -2  638.24   46.40
  -7   8  -2  638.84   46.60
  -8   8  -2 1125.89   75.09
  -8   0  -2 1154.88   74.99
   0  -8  -2 1094.79   74.89
   0  -8  -2 1054.79   74.89
  -8   0  -2 1088.39   75.09
   8   0   2 1147.09   74.99
  -8   0   2 1072.29   74.99
  -8   0   2 1150.18   74.99
   0   8   2 1152.58   74.89
  -8   8   2 1051.29   75.09
   8  -8   2 1189.48   75.39
  -8   0   2 1174.98   75.09
   0  -8  -2 1125.59   74.89
   0  -8   2 1150.18   74.79
   8  -8   2 1043.40   75.19
  -8   0  -2 1058.59   74.99
   8   0   2 1124.29   75.09
   0  -8   2 1135.59   74.79
  -8   0  -2 1147.39   74.99
   8  -8  -2 1017.90   75.19
   8  -8  -2 1067.09   75.19
  -8   0   2 1070.99   74.99
  -8   8  -2 1160.68   75.29
   8   0  -2 1222.78   74.99
  -8   8   2  978.90   75.19
   0  -8   2 1142.89   74.89
   0   8  -2 1022.90   74.69
   0  -8  -2 1057.69   74.89
   0  -8   2  952.80   74.69
   8   0  -2 1127.89   75.09
   0   8   2 1057.79   74.89
   0   8  -2 1103.09   74.79
  -5  -4  -2   84.39    6.00
   4  -9  -2   77.49    6.30
   5  -9   2   84.89    6.40
  -5  -4  -2   82.39    5.80
  -5   9   2   84.29    6.30
  -4   9  -2   79.99    6.30
  -5  -4  -2   83.19    5.90
  -9   5  -2   77.59    6.40
  -9   5  -2   80.39    6.30
   4  -9  -2   78.89    6.30
   9  -5  -2   99.79    6.40
   5  -9   2   70.99    6.20
  -5  -4  -2   83.79    6.00
   4  -9  -2   79.59    6.40
   9  -4   2   82.49    6.30
   9  -5  -2   74.79    6.30
  -4   9  -2   90.99    6.40
   5  -9   2   90.39    6.40
   9  -5  -2   78.69    6.50
  -4   9  -2   81.79    6.10
  -5   9   2   86.59    6.20
  -4   9   2   87.39    6.40
   4  -9   2   87.89    6.50
  -5   9  -2   92.49    6.50
   9  -4  -2   83.79    6.20
   5   4   2   85.29    5.90
  -5   9  -2   83.89    6.20
  -5   9  -2   90.79    6.30
  -9   5   2   83.79    6.40
   9  -5   2   84.29    6.30
  -4  -5  -2   86.59    5.90
   9  -5   2   81.09    6.30
  -4   9   2   73.29    6.10
  -5  -4   2   83.29    5.80
   4  -9   2   85.19    6.40
  -9   4  -2   78.79    6.30
  -5   9  -2   86.99    6.40
   5  -9  -2   84.69    6.40
   9  -5   2   79.19    6.40
  -4   9   2   89.59    6.40
  -9   4  -2   94.19    6.50
   5   4   2   88.79    5.90
   4  -9   2   80.49    6.30
   9  -4  -2   87.39    6.30
  -9   5   2   91.69    6.40
   3  -9  -2  861.51   57.69
  -6  -3  -2  810.22   57.39
  -9   6  -2  830.32   57.89
  -6  -3  -2  926.61   57.59
   6  -9   2  817.52   57.79
   6  -9   2  821.42   57.89
  -9   3   2  841.22   57.79
   9  -3   2  866.31   57.69
  -3   9  -2  732.23   57.69
   9  -6  -2  854.31   57.79
   9  -6  -2  851.41   57.99
   3  -9  -2  905.11   57.79
  -6   9   2  725.43   57.79
  -3   9  -2  826.92   57.19
  -9   3   2  745.33   57.69
   9  -3   2  869.11   57.69
  -9   6  -2  913.51   57.89
  -6  -3  -2  809.62   57.49
  -6  -3  -2  758.22   57.39
  -6   9   2  962.50   57.99
   3  -9  -2  821.12   57.69
   3  -9  -2  837.92   57.79
  -9   3   2  880.51   57.89
  -3   9  -2  824.62   57.69
   6   3   2  826.72   57.39
   9  -6   2  866.11   57.79
  -9   3  -2  968.40   57.89
  -3   9   2  864.61   57.39
   9  -3  -2  842.82   57.59
   3  -9   2  787.02   57.79
   9  -6   2  854.41   57.99
  -3   9   2  904.21   57.79
   3  -9   2  760.92   57.69
   3  -9   2  902.61   57.79
   6  -9  -2  807.52   57.79
  -9   6   2  838.22   57.89
  -9   3  -2  845.82   57.69
   6   3   2  936.81   57.49
   9  -3  -2  877.91   57.59
  -6   9  -2  852.61   57.89
  -9   6   2  746.03   57.69
   9  -3  -2  759.52   57.69
  -3   9   2  862.11   57.79
  -6  -3   2  882.51   57.39
   3  -9   2  854.41   57.69
   9  -3  -2  840.12   57.89
   6  -9  -2  882.01   57.99
  -3  -6  -2  885.31   57.39
  -9   2   2  262.67   18.10
  -7  -2  -2  246.98   17.80
  -9   7  -2  284.37   18.40
  -9   7  -2  262.37   18.10
  -2   9  -2  266.77   18.00
  -7  -2  -2  234.38   17.80
   9  -2   2  251.47   18.00
  -9   2   2  235.28   18.00
   2  -9  -2  226.58   17.90
  -9   2   2  254.47   18.00
   7  -9   2  270.07   18.30
   2  -9  -2  261.87   18.00
   9  -7  -2  287.57   18.30
  -2   9  -2  254.17   17.90
   9  -2   2  243.38   18.10
   2  -9  -2  261.87   17.90
  -7   9   2  277.67   18.10
   9  -7  -2  256.27   18.10
   9  -2   2  227.58   17.80
   9  -2   2  248.28   17.80
   2  -9  -2  265.07   18.00
   7  -9  -2  277.97   18.30
  -2   9   2  242.08   17.90
  -9   7   2  239.68   18.00
  -7  -2   2  238.78   17.70
   9  -7   2  223.98   18.00
  -9   2  -2  247.18   18.10
   2  -9   2  239.68   17.90
  -7   9  -2  286.47   18.10
  -9   7   2  265.57   18.20
   9  -7   2  275.57   18.30
   9  -2  -2  259.47   18.10
   2  -9   2  296.67   18.00
  -2   9   2  265.57   18.00
   2  -9   2  257.77   17.90
   7   2   2  229.98   17.80
  -9   2  -2  245.18   18.00
   7  -9  -2  273.87   18.20
  -7   9  -2  294.87   18.40
   2  -9   2  240.08   17.90
  -9   8  -2   22.80    2.10
  -8   9   2   18.90    2.10
   1  -9  -2   20.40    2.00
   1  -9  -2   21.70    2.00
  -8  -1  -2   19.60    1.90
  -8   9   2   23.40    2.10
  -9   8  -2   22.40    2.30
   9  -1   2   20.80    2.00
   8  -9   2   23.80    2.20
  -9   1   2   23.50    2.10
   9  -8  -2   19.50    2.10
  -8  -1  -2   21.40    1.90
   1  -9  -2   22.80    2.00
  -9   1   2   25.80    2.20
   9  -1   2   18.20    2.00
  -9   1   2   19.30    2.00
   1  -9  -2   20.50    2.00
   8  -9   2   20.60    2.20
   9  -1  -2   18.60    2.00
   9  -1  -2   21.70    2.10
  -9   1  -2   22.30    2.20
  -9   8   2   20.80    2.10
   9  -8   2   19.90    2.10
  -8  -1   2   20.00    1.90
  -1   9   2   19.60    1.90
   9  -8   2   20.40    2.20
   8   1   2   21.40    2.00
  -1   9   2   19.90    1.90
  -8   9  -2   21.10    2.10
   8   1   2   21.20    2.00
  -9   8   2   23.80    2.30
   8  -9  -2   23.70    2.20
  -8   9  -2   24.60    2.30
  -9   1  -2   22.10    2.00
   1  -9   2   22.10    1.90
  -9   1  -2   22.00    2.10
   8  -9  -2   21.00    2.30
  -1  -8  -2   22.10    1.90
   9  -9  -2  342.27   22.00
  -9   9   2  315.47   21.90
  -9   9  -2  298.67   21.90
   9  -9   2  314.97   21.90
  -9   9   2  299.67   21.80
  -9   0  -2  348.77   21.80
  -9   0  -2  292.77   21.60
   0  -9  -2  319.47   21.50
   9   0   2  302.67   21.70
  -9   9  -2  296.37   21.70
  -9   0  -2  301.37   21.70
   9   0   2  342.77   21.80
   9  -9   2  278.87   21.90
   9  -9  -2  294.07   21.90
 -10   5   2  470.95   29.70
  10  -5   2  412.56   29.50
  -5  10  -2  385.76   29.10
   5 -10   2  403.56   29.50
  10  -5  -2  421.66   29.40
  10  -5  -2  458.85   29.70
  -5  10  -2  422.86   29.50
 -10   5  -2  434.46   29.60
  10  -5  -2  407.96   29.30
  -5  10   2  421.26   29.30
   5 -10  -2  469.25   29.70
   5 -10  -2  398.06   29.40
   5 -10   2  441.06   29.50
 -10   5  -2  424.66   29.40
  -5  10   2  437.66   29.50
  10  -5   2  376.66   29.30
 -10   6  -2 1217.58   90.29
   6 -10   2 1357.16   90.39
   6 -10   2 1445.06   90.59
  10  -4   2 1438.76   90.59
  -4  10  -2 1444.56   90.39
  -6  10   2 1395.66   90.29
 -10   6  -2 1208.88   90.39
  -4  10  -2 1198.18   90.29
  -6  10   2 1260.87   90.39
  10  -4   2 1426.26   90.29
  -6  10   2 1283.87   90.19
 -10   4   2 1263.67   90.39
  10  -6  -2 1468.25   90.39
  10  -4   2 1233.18   90.19
 -10   4   2 1402.36   90.39
   4 -10  -2 1385.46   90.49
   4 -10   2 1178.18   90.29
  -4  10   2 1183.58   89.99
  10  -6   2 1311.07   90.29
 -10   6   2 1379.66   90.39
   6 -10  -2 1270.57   90.39
   4 -10   2 1233.98   90.29
  10  -6   2 1164.18   90.39
   4 -10   2 1352.56   90.29
  10  -4  -2 1296.17   90.19
  10  -4  -2 1488.15   90.49
  -4  10   2 1341.57   90.39
  -6  10  -2 1331.67   90.29
 -10   4  -2 1458.65   90.39
  -6  10  -2 1343.57   90.39
 -10   6   2 1283.07   90.39
  10  -4  -2 1376.06   90.49
   6 -10  -2 1307.27   90.39
  -3  10  -2   47.40    4.00
 -10   3   2   51.69    4.00
 -10   3   2   47.00    4.00
   3 -10  -2   49.60    4.00
  10  -3   2   52.09    3.90
 -10   7  -2   53.99    4.10
 -10   7  -2   60.69    4.40
   3 -10  -2   49.10    4.00
   7 -10   2   44.10    4.10
  10  -3   2   47.40    4.10
  -7  10   2   52.69    4.00
  -3  10  -2   51.59    4.00
  10  -7  -2   54.49    4.40
  10  -7  -2   49.60    4.10
   3 -10  -2   44.30    4.00
  -7  10   2   48.00    4.10
  10  -3  -2   44.40    4.00
  10  -7   2   48.70    4.20
  10  -3  -2   48.70    3.80
   3 -10   2   54.09    4.00
  -3  10   2   52.49    4.00
  10  -7   2   40.90    4.00
 -10   7   2   39.40    4.00
   3 -10   2   48.80    4.00
  -3  10   2   46.10    4.00
  -7  10  -2   52.19    4.20
   7 -10  -2   48.00    4.10
 -10   3  -2   46.40    4.00
   3 -10   2   45.80    4.00
   7 -10  -2   51.39    4.20
 -10   7   2   49.90    4.10
 -10   3  -2   51.99    4.10
  -7  10  -2   43.70    3.90
  10  -2   2  595.64   40.90
  10  -8  -2  581.54   41.00
  -8  10   2  588.14   41.00
 -10   8  -2  640.54   41.10
  -8  -2  -2  580.24   40.60
 -10   8  -2  523.95   40.70
   8 -10   2  598.44   41.00
  -8  10   2  580.84   40.80
  10  -8  -2  587.54   40.90
   8 -10   2  640.54   41.00
 -10   8   2  625.34   41.00
  10  -8   2  613.34   41.10
  -8  10  -2  565.04   40.90
 -10   8   2  557.94   40.80
   8 -10  -2  564.54   40.90
   8 -10  -2  660.23   41.10
 -10   2  -2  574.04   40.80
 -10   2  -2  614.34   40.90
  -8  10  -2  550.14   40.80
  10  -8   2  609.14   40.90
  -9  10  -2  251.67   17.80
 -11   5   2   47.20    4.00
   5 -11  -2   49.40    4.20
  11  -6  -2   43.40    4.00
 -11   6  -2   47.20    4.00
  -6  11   2   50.79    4.00
 -11   6  -2   47.90    4.10
 -11   5   2   46.20    3.90
  11  -5   2   49.40    4.10
  -6  11   2   45.10    3.80
  -5  11  -2   43.90    3.90
   5 -11  -2   49.30    4.10
   6 -11   2   51.29    4.10
  11  -6  -2   44.40    3.90
   6 -11   2   37.60    3.90
  11  -5   2   50.59    4.00
  11  -6   2   46.60    3.90
  11  -5  -2   48.70    3.90
 -11   5  -2   48.50    4.00
   6 -11  -2   53.99    4.30
  11  -6   2   40.20    4.00
  -5  11   2   44.80    4.00
   5 -11   2   50.09    4.00
 -11   5  -2   44.60    4.00
 -11   6   2   48.00    4.00
   6 -11  -2   46.80    4.10
 -11   6   2   51.39    4.10
   5 -11   2   47.40    4.10
   0   0   3    0.10    0.10
   0   0  -3    0.00    0.20
   0   0   3   -0.10    0.20
   0   0  -3    0.10    0.10
   0   0  -3    0.00    0.10
   0   0   3    0.20    0.10
   0  -1   3 1008.20   71.19
   1   0   3  996.00   71.29
   0  -1  -3  997.60   71.29
   1   0   3  975.30   71.29
   0  -1   3 1075.99   71.29
   1   0   3 1084.69   71.29
  -1   1  -3 1071.29   71.29
  -1   0   3  926.81   71.29
   0   1  -3 1124.59   71.29
  -1   1  -3 1075.89   71.29
   0   1   3  919.61   71.29
   0  -1  -3 1194.98   71.29
   0   1   3 1179.48   71.29
  -1   1   3 1011.40   71.29
   0   1  -3  955.10   71.19
  -1   1   3 1144.69   71.29
   1  -1   3  986.20   71.29
   1   0   3  976.50   71.29
   1  -1   3 1093.49   71.29
   1  -1  -3 1024.90   71.39
  -1   0   3 1060.19   71.29
   0   1  -3 1005.40   71.19
  -1   1  -3  923.31   71.19
   0   1   3 1058.89   71.29
  -1   0   3 1184.58   71.29
   0  -1   3 1073.79   71.29
   1   0  -3 1058.69   71.19
   0  -1  -3  973.40   71.29
  -1   0  -3 1045.10   71.29
   1   0  -3 1011.30   71.29
   1   0  -3 1133.79   71.29
  -1   0  -3 1141.69   71.29
  -1   0  -3 1195.28   71.29
   1  -2  -3    0.10    0.20
   1   1   3    0.10    0.10
  -1   2   3    0.10    0.10
  -1   2  -3    0.10    0.10
  -2   1  -3    0.20    0.20
  -1   2  -3    0.10    0.20
  -1  -1  -3    0.20    0.10
  -2   1  -3    0.20    0.20
  -2   1  -3    0.30    0.10
  -1   2   3    0.80    0.20
  -1   2   3    0.10    0.20
  -1  -1   3    0.20    0.10
   1  -2   3    0.00    0.10
   1  -2  -3    0.20    0.20
  -1  -1  -3    0.00    0.10
   1  -2  -3    0.20    0.20
  -1  -1  -3    0.00    0.10
  -2   1  -3    0.10    0.10
   1   1  -3    0.00    0.10
  -1  -1  -3    0.10    0.10
   2  -1  -3    0.30    0.20
   1  -2  -3    0.40    0.20
  -2   1   3    0.40    0.20
   1   1  -3    0.30    0.10
   2  -1   3    0.10    0.20
  -1  -1   3    0.00    0.10
   2  -1   3    0.00    0.20
  -1   2   3    0.10    0.20
  -1   2  -3    0.10    0.10
   1   1   3    0.20    0.20
  -1  -1   3    0.20    0.10
   2  -1  -3    0.10    0.20
   1   1  -3    0.10    0.10
   2  -1  -3    0.30    0.10
  -2   1   3    0.20    0.20
   1  -2   3    0.20    0.10
   1  -2   3    0.00    0.10
   1   1   3    0.20    0.10
   0   2  -3  706.83   50.49
  -2   2  -3  681.73   50.59
  -2   0   3  760.32   50.59
  -2   0   3  685.63   50.49
   0   2   3  794.92   50.49
   0   2   3  702.83   50.59
   0  -2   3  797.72   50.49
  -2   2  -3  662.33   50.59
   0  -2  -3  696.13   50.49
   2   0  -3  676.93   50.49
   0  -2   3  719.43   50.49
   0  -2   3  732.93   50.49
   2   0   3  664.33   50.49
   0  -2  -3  744.13   50.59
  -2   0  -3  727.93   50.59
  -2   2   3  764.52   50.59
   0   2  -3  761.22   50.59
   2   0   3  819.82   50.59
   0  -2  -3  795.72   50.59
   2  -2   3  724.53   50.59
  -2   2   3  810.62   50.59
  -2   0  -3  826.02   50.59
   2  -2   3  826.82   50.59
   0   2  -3  778.62   50.49
  -2   2  -3  745.53   50.59
  -2   0  -3  714.43   50.59
   2   0   3  811.22   50.59
   2  -2   3  813.32   50.59
   2   0  -3  700.13   50.49
   0  -2   3  737.93   50.49
   0  -2  -3  688.63   50.49
   2   0  -3  641.44   50.49
   0   2   3  758.32   50.49
  -2   2  -3  721.53   50.59
   0   2   3  683.43   50.59
   2   0  -3  728.83   50.59
  -2   0   3  794.02   50.49
  -2   0   3  776.02   50.59
   2  -2  -3  853.11   50.59
   3  -1   3  369.36   27.60
  -2   3   3  393.66   27.60
   2  -3   3  388.86   27.60
  -1   3  -3  442.86   27.60
   3  -2  -3  453.25   27.70
   2   1  -3  428.76   27.50
   1   2   3  426.56   27.60
  -3   2  -3  408.96   27.70
  -1   3  -3  342.27   27.40
   2  -3   3  396.06   27.60
   2  -3   3  384.16   27.50
   2   1  -3  419.66   27.30
  -1   3  -3  383.86   27.50
   3  -2  -3  382.56   27.60
  -2  -1  -3  432.06   27.50
  -2  -1  -3  425.06   27.60
   3  -1   3  421.06   27.60
  -3   2  -3  386.16   27.60
   3  -1   3  440.16   27.60
  -1   3  -3  364.66   27.50
  -1  -2   3  393.16   27.50
  -1  -2   3  355.76   27.50
   1  -3  -3  338.87   27.50
   1   2   3  396.76   27.40
  -2   3   3  366.16   27.60
  -3   1   3  416.46   27.60
  -1  -2   3  399.36   27.40
   1   2   3  420.56   27.50
   3  -2  -3  410.36   27.60
  -2   3   3  435.16   27.60
   3  -2  -3  425.26   27.60
   2  -3   3  392.36   27.60
   1  -3  -3  400.76   27.50
   1  -3  -3  403.76   27.60
  -2  -1  -3  403.46   27.50
  -3   2  -3  387.06   27.60
  -3   1   3  383.06   27.50
   1   2   3  359.16   27.40
  -1  -2   3  409.26   27.40
  -3   1   3  443.46   27.60
  -3   1  -3  370.86   27.50
  -3   2   3  372.16   27.60
  -3   2   3  398.26   27.60
   2   1   3  404.16   27.40
   2  -3  -3  372.96   27.60
   3  -2   3  409.56   27.60
   1  -3   3  406.26   27.50
  -1  -2  -3  413.86   27.50
  -1  -2  -3  400.06   27.50
   3  -2   3  409.86   27.70
   2   1   3  443.46   27.60
   2  -3  -3  449.06   27.70
  -1   3   3  371.96   27.50
  -2  -1   3  354.36   27.40
   3  -1  -3  414.96   27.60
  -2   3  -3  414.46   27.60
   1   2  -3  438.76   27.50
  -1  -2  -3  438.46   27.50
  -2  -1   3  424.06   27.50
  -2  -1   3  442.66   27.50
  -1  -2  -3  408.86   27.50
   2  -3  -3  406.86   27.60
  -1   3   3  395.36   27.60
   2  -3  -3  449.06   27.60
  -3   1  -3  434.36   27.60
  -3   1  -3  393.76   27.60
  -2   3  -3  417.56   27.50
   1   2  -3  440.46   27.50
  -2  -1   3  366.56   27.50
   1  -3   3  438.16   27.60
   2   1   3  436.46   27.50
   1  -3   3  412.46   27.50
   3  -1  -3  361.96   27.50
   3  -1  -3  355.76   27.50
  -1   3   3  367.46   27.50
   3  -1  -3  420.46   27.60
  -3   1  -3  384.16   27.60
   3   0   3 1074.29   81.49
   3  -3   3 1184.38   81.69
  -3   3  -3 1198.78   81.69
   0   3  -3 1369.26   81.39
   3  -3   3 1090.39   81.59
   0   3  -3 1139.59   81.49
   0  -3  -3 1125.59   81.59
   3   0  -3 1279.97   81.49
   3   0   3 1125.59   81.59
   3  -3  -3 1129.29   81.69
   0  -3  -3 1023.50   81.49
   0   3   3 1222.58   81.59
  -3   3   3 1360.06   81.69
   0   3  -3 1026.70   81.49
  -3   0  -3 1265.87   81.59
   0  -3  -3 1143.09   81.49
  -3   0  -3 1203.58   81.59
   3  -3  -3 1319.17   81.79
   0  -3  -3 1297.17   81.59
   3  -3  -3 1262.57   81.69
   0   3   3 1348.37   81.49
  -3   0  -3 1320.47   81.59
   0  -3   3 1183.08   81.49
  -3   0  -3 1320.67   81.59
   3  -3   3 1218.98   81.69
   0  -3   3 1202.08   81.49
  -3   3  -3 1204.88   81.59
   3   0  -3 1171.68   81.59
  -3   0   3 1176.58   81.49
  -3   0   3 1155.08   81.49
  -3   3   3 1269.47   81.69
   3   0   3 1202.28   81.59
   0  -3   3 1130.49   81.39
   3   0  -3 1127.39   81.59
  -3   0   3 1275.07   81.59
   3   0  -3 1084.99   81.49
   0   3   3 1133.09   81.49
  -3   3  -3 1244.08   81.69
  -3   0   3 1284.77   81.59
   2  -4  -3    0.40    0.20
  -2   4  -3    1.40    0.30
  -2  -2   3    1.20    0.20
  -2  -2  -3    0.70    0.20
   4  -2  -3    0.30    0.20
  -2  -2  -3    0.90    0.20
   2  -4  -3    0.40    0.20
   1   3   3  329.37   22.20
   1   3   3  330.17   22.00
  -4   3  -3  303.47   22.30
   4  -1   3  340.67   22.30
   1  -4  -3  329.87   22.20
  -4   3  -3  341.97   22.30
   1   3   3  339.97   22.00
  -4   3  -3  355.16   22.40
  -4   1   3  340.77   22.30
   4  -1   3  348.27   22.30
   1  -4  -3  316.77   22.20
  -3  -1  -3  335.97   22.20
   3   1  -3  292.37   22.10
   3   1  -3  307.37   22.10
  -4   1   3  316.17   22.30
  -1  -3   3  349.96   22.00
  -1   4  -3  316.87   22.20
  -3  -1  -3  365.06   22.20
   4  -1   3  326.47   22.20
  -1  -3   3  369.66   22.10
  -1   4  -3  286.47   22.20
  -1   4  -3  294.07   22.10
  -1  -3   3  284.97   22.10
  -1  -3   3  329.97   22.00
   1   3   3  283.77   22.20
   4  -3  -3  332.27   22.30
  -4   3  -3  293.07   22.30
   1  -4  -3  326.27   22.20
   4  -1   3  325.87   22.20
  -4   1   3  315.37   22.20
  -4   1   3  325.07   22.30
  -1   4  -3  314.47   22.10
  -3  -1  -3  339.27   22.20
  -3  -1  -3  301.57   22.20
   4  -1  -3  301.97   22.30
  -3   4  -3  358.56   22.30
  -4   1  -3  283.97   22.30
   4  -3   3  329.37   22.40
   1   3  -3  314.77   22.10
  -3  -1   3  323.77   22.10
   1  -4   3  321.97   22.20
  -4   1  -3  320.27   22.30
   3   1   3  344.87   22.10
  -4   3   3  339.87   22.40
   1   3  -3  298.27   22.10
  -1   4   3  356.56   22.30
  -3  -1   3  313.17   22.10
  -3  -1   3  330.77   22.10
  -1  -3  -3  371.26   22.30
   1  -4   3  324.87   22.20
   3   1   3  307.27   22.20
  -3  -1   3  292.97   22.10
   4  -1  -3  322.57   22.30
  -4   3   3  360.86   22.40
  -4   3   3  286.27   22.50
   4  -1  -3  334.27   22.20
   4  -1  -3  318.37   22.20
  -4   3   3  331.17   22.30
   1  -4   3  335.27   22.20
  -1   4   3  358.86   22.20
  -1  -3  -3  336.37   22.20
  -1   4   3  299.17   22.30
   3   1   3  323.27   22.10
  -1  -3  -3  329.17   22.20
  -1  -3  -3  325.87   22.20
   4  -3   3  318.77   22.30
  -4   1  -3  326.37   22.30
   3  -4  -3  320.47   22.30
   1  -4   3  299.37   22.10
  -4   0  -3  215.48   14.10
   4  -4   3  194.78   14.20
   0   4   3  190.98   14.10
   0   4   3  213.18   13.90
   0   4   3  196.58   14.10
   4   0  -3  205.88   13.90
   4  -4  -3  188.58   14.10
  -4   0  -3  209.68   14.10
  -4   0  -3  222.48   14.10
   4   0   3  213.48   14.00
   4   0   3  223.08   14.00
  -4   0   3  206.08   14.00
   4   0  -3  210.48   14.10
   4  -4   3  197.58   14.20
  -4   4  -3  205.08   14.10
  -4   4  -3  200.58   14.20
  -4   0   3  209.38   14.10
  -4   4  -3  212.38   14.20
   0   4  -3  214.18   14.10
  -4   4   3  190.28   14.20
   4   0   3  198.78   14.10
  -4   0   3  209.98   14.00
  -4   4  -3  200.88   14.10
   4  -4  -3  216.78   14.20
   4  -4  -3  199.48   14.20
   0  -4  -3  180.98   14.00
   0  -4   3  205.28   13.90
   0   4   3  202.48   13.90
   0  -4  -3  193.58   14.10
   4   0  -3  212.18   13.90
  -4   4   3  217.38   14.20
   4  -4  -3  183.68   14.20
  -4   0  -3  197.48   14.00
   4  -4   3  210.08   14.20
   0  -4  -3  202.88   14.10
   0  -4   3  189.68   14.00
   4   0   3  202.48   14.10
   0   4  -3  204.18   14.00
   0  -4  -3  200.78   14.00
  -4   0   3  183.88   14.10
  -5   3  -3 1735.93  114.89
  -3  -2  -3 1633.44  114.69
  -5   2   3 1629.14  114.89
  -5   3  -3 1611.54  114.89
  -2   5  -3 1678.63  114.69
  -3   5   3 1642.04  114.79
  -3   5   3 1632.84  114.99
   5  -2   3 1793.82  114.89
  -2   5  -3 1661.63  114.79
  -2   5  -3 1619.64  114.89
   3  -5   3 1575.34  114.79
   2   3   3 1826.82  114.79
   5  -2   3 1850.81  114.99
   5  -3  -3 1491.75  114.89
   3  -5   3 1858.81  114.99
   2   3   3 1644.34  114.69
   2  -5  -3 1744.73  114.89
  -5   3  -3 1492.15  114.89
   5  -3  -3 1768.42  114.99
  -2  -3   3 1683.93  114.59
  -5   2   3 1850.21  114.99
  -3  -2  -3 1794.82  114.69
  -5   3  -3 1760.62  114.99
  -3  -2  -3 1535.25  114.69
   3  -5   3 1464.75  114.79
   5  -3  -3 1666.03  114.89
  -3   5   3 1623.14  114.89
   5  -2   3 1806.62  114.89
   3  -5   3 1679.33  114.89
   5  -3  -3 1749.82  114.89
  -3  -2  -3 1711.43  114.79
  -5   2   3 1575.74  114.89
  -3  -2   3 1881.91  114.59
   3  -5  -3 1804.22  114.99
  -3   5  -3 1605.14  114.79
  -5   3   3 1688.53  114.99
   2   3  -3 1661.03  114.59
  -3  -2   3 1424.86  114.59
   2  -5   3 1736.83  114.79
  -5   3   3 1667.23  114.89
   5  -2  -3 1691.83  114.79
  -5   2  -3 1612.84  114.89
   3  -5  -3 1828.42  114.99
  -3   5  -3 1507.05  114.89
   5  -3   3 1702.63  114.89
   5  -2  -3 1701.53  114.89
   3   2   3 1614.34  114.79
  -2  -3  -3 1811.02  114.69
   5  -2  -3 1843.02  114.99
   2  -5   3 1723.13  114.89
   3   2   3 1839.62  114.79
  -5   3   3 1793.52  114.89
   3  -5  -3 1634.54  114.89
   5  -3   3 1657.03  114.89
   5  -3   3 1578.34  114.89
   2  -5   3 1581.34  114.79
  -3   5  -3 1665.03  114.89
  -2  -3  -3 1921.31  114.69
  -5   2  -3 1724.93  114.89
  -5   2  -3 1924.51  114.89
   3  -5  -3 1678.83  114.89
  -2   5   3 1449.65  114.79
  -5   2  -3 1662.33  114.89
   2   3  -3 1928.91  114.59
   1  -5  -3   32.00    2.40
   5  -1   3   31.50    2.40
  -4   5   3   29.70    2.50
  -4   5   3   33.80    2.50
   4   1  -3   27.20    2.30
  -1  -4   3   29.00    2.10
  -4   5   3   28.00    2.40
   4  -5   3   30.70    2.50
   5  -1   3   30.90    2.30
   4  -5   3   31.20    2.50
   4  -5   3   31.00    2.50
  -4  -1  -3   31.00    2.40
  -1   5  -3   27.90    2.10
  -4  -1  -3   32.80    2.30
   1   4   3   27.50    2.30
   1   4   3   27.50    2.30
  -5   1   3   26.60    2.30
  -5   1   3   26.50    2.30
   5  -4  -3   31.50    2.50
   5  -4  -3   27.10    2.40
   4   1  -3   28.00    2.40
  -1  -4   3   29.00    2.20
  -4   5   3   30.40    2.50
  -5   4  -3   30.70    2.50
   5  -4  -3   29.50    2.50
   1  -5  -3   30.80    2.40
  -1  -4   3   27.50    2.20
   1  -5  -3   28.10    2.30
  -1   5  -3   29.30    2.30
   4  -5   3   26.30    2.40
  -4  -1  -3   28.70    2.30
   5  -1   3   30.90    2.50
  -5   4  -3   27.00    2.50
  -1  -4   3   32.40    2.10
  -1   5  -3   28.10    2.10
  -5   4  -3   30.30    2.40
   5  -4  -3   30.90    2.50
  -5   4  -3   23.50    2.40
  -5   4   3   25.20    2.50
  -1   5   3   27.20    2.40
  -1   5   3   30.40    2.20
   1  -5   3   29.20    2.30
   1   4  -3   29.20    2.20
  -4  -1   3   29.30    2.30
  -1  -4  -3   33.40    2.30
  -5   1  -3   25.30    2.40
  -4  -1   3   30.50    2.20
  -5   4   3   27.00    2.40
   4  -5  -3   34.30    2.60
  -1  -4  -3   32.20    2.30
   4  -5  -3   30.70    2.50
  -4  -1   3   29.50    2.30
   4  -5  -3   32.20    2.50
   4   1   3   29.30    2.30
   1   4  -3   28.50    2.20
   5  -1  -3   31.70    2.30
   4   1   3   29.90    2.10
   5  -1  -3   31.00    2.40
   1  -5   3   29.00    2.30
  -5   4   3   35.20    2.50
  -5   4   3   30.10    2.50
   1  -5   3   34.80    2.30
  -1   5   3   28.40    2.20
   5  -4   3   31.30    2.40
   4   1   3   29.00    2.30
  -4   5  -3   32.30    2.50
  -4   5  -3   29.50    2.50
   4   1   3   29.80    2.10
  -5   1  -3   33.40    2.50
   0  -5   3  500.05   36.50
   5  -5  -3  469.95   36.70
  -5   5  -3  460.75   36.70
   5   0  -3  501.55   36.60
   0  -5   3  557.94   36.40
   5   0  -3  564.94   36.30
   0  -5   3  516.85   36.50
  -5   5  -3  535.35   36.80
   0  -5  -3  589.04   36.60
  -5   5  -3  546.95   36.70
   0   5  -3  571.84   36.50
   5  -5   3  605.04   36.90
   5  -5  -3  504.35   36.70
  -5   5   3  556.94   36.70
   5  -5   3  564.24   36.80
   0  -5  -3  519.65   36.60
  -5   0  -3  597.94   36.60
   5  -5   3  521.15   36.80
   0  -5  -3  478.95   36.50
  -5   0   3  481.65   36.50
   5   0  -3  561.74   36.60
  -5   0   3  534.85   36.50
  -5   0   3  547.65   36.60
   5  -5  -3  571.74   36.80
   5   0   3  499.15   36.50
   5   0  -3  534.75   36.30
  -5   5  -3  538.05   36.70
  -5   5   3  550.14   36.80
   5  -5  -3  512.95   36.80
  -5   5   3  542.75   36.80
   0   5  -3  577.94   36.50
   0  -5   3  519.95   36.40
   0  -5  -3  529.55   36.60
   6  -3   3    0.30    0.20
   6  -3   3    0.60    0.30
  -6   3  -3    0.40    0.30
  -6   3  -3    0.10    0.20
  -6   3   3    0.30    0.30
  -6   3   3    0.40    0.30
  -3   6  -3    0.30    0.20
   3  -6  -3    0.20    0.20
  -3  -3   3    0.60    0.10
  -3   6   3    0.40    0.20
  -3   6  -3    0.20    0.20
   3   3   3    0.40    0.20
   6  -3   3    0.60    0.30
  -3   6  -3    0.10    0.20
  -6   3   3    0.40    0.30
  -3   6   3    0.10    0.20
  -3  -3   3    0.60    0.10
  -6   3  -3    1.00    0.30
  -6   3  -3    0.10    0.20
   6  -3  -3    1.50    0.40
  -3  -3  -3    0.20    0.20
   3  -6   3    0.20    0.20
  -3   6  -3    0.10    0.20
  -6   3   3    0.10    0.20
   6  -3  -3    0.30    0.20
   3  -6   3    0.10    0.20
  -3  -3  -3    1.40    0.30
   3  -6   3    0.10    0.20
   3  -6  -3    0.20    0.20
   3  -6  -3    0.40    0.30
   6  -3   3    0.10    0.20
   3  -6  -3    1.70    0.40
  -3  -3  -3    0.20    0.20
   2   4   3  555.24   38.00
  -2  -4   3  574.64   37.70
   6  -2   3  508.95   38.10
   6  -4  -3  522.15   38.10
  -4   6   3  578.34   38.10
  -6   4  -3  502.65   38.10
  -6   4  -3  560.84   38.20
   6  -2   3  568.24   38.20
  -2   6  -3  597.64   37.90
  -4  -2  -3  560.24   37.90
  -2  -4   3  590.84   37.70
   4   2  -3  529.65   37.80
   6  -4  -3  592.64   38.20
   4  -6   3  505.05   38.10
  -4   6   3  598.44   38.20
  -6   2   3  571.14   38.10
   4  -6   3  586.54   38.20
  -6   2   3  546.05   38.10
   2  -6  -3  512.45   38.10
  -6   2   3  547.15   38.10
  -4  -2  -3  467.95   37.90
  -4  -2  -3  539.75   38.00
   4   2  -3  595.34   37.80
   4  -6   3  575.34   38.10
   6  -2   3  572.64   38.10
   6  -4  -3  530.25   38.10
   6  -4  -3  592.84   38.30
  -4   6   3  591.74   38.10
   2  -6  -3  583.44   38.10
   2   4   3  556.94   37.90
  -4   6   3  549.65   38.20
   2  -6  -3  574.84   38.10
  -6   2   3  528.55   38.00
   4  -6   3  620.44   38.20
  -2   6  -3  518.15   37.80
  -4  -2  -3  587.64   37.90
  -6   4  -3  469.75   38.00
   2  -6   3  516.25   37.90
  -2  -4  -3  587.74   37.90
   2   4  -3  580.34   37.70
  -6   2  -3  535.65   38.10
   6  -2  -3  541.15   38.00
   2   4  -3  601.04   37.70
   4  -6  -3  551.34   38.10
   6  -4   3  499.15   38.10
   6  -4   3  480.25   38.00
  -6   4   3  592.44   38.20
  -6   4   3  596.34   38.30
  -6   2  -3  618.74   38.10
   6  -2  -3  580.64   38.20
   6  -2  -3  566.84   38.10
   2  -6   3  573.74   38.10
  -4   6  -3  543.35   38.10
  -4  -2   3  556.34   37.80
  -2  -4  -3  575.94   37.90
   4  -6  -3  534.65   38.10
   6  -4   3  579.04   38.20
   6  -4   3  471.45   38.10
   4   2   3  534.95   38.00
   4  -6  -3  532.35   38.20
  -2  -4  -3  525.15   37.90
  -6   2  -3  573.74   38.20
   6  -2  -3  586.24   38.00
  -2   6   3  573.64   38.10
  -4   6  -3  546.15   38.10
  -6   4   3  585.74   38.20
  -4  -2   3  524.05   37.80
  -4  -2   3  539.05   37.80
  -4   6  -3  516.75   38.10
  -4  -2   3  575.64   37.80
  -2   6   3  598.74   38.00
  -2   6   3  574.54   38.10
  -6   4   3  501.05   38.10
  -2  -4  -3  618.14   37.90
   4  -6  -3  622.84   38.30
  -4   6  -3  501.05   38.00
  -6   5  -3  462.75   30.20
  -5   6   3  452.05   30.30
  -5  -1  -3  417.06   30.10
   1   5   3  448.06   30.00
  -1   6  -3  470.55   30.10
   6  -5  -3  409.46   30.20
   6  -5  -3  414.56   30.30
  -5  -1  -3  440.16   30.00
  -1  -5   3  439.56   29.90
  -1  -5   3  418.46   29.90
   5  -6   3  436.86   30.30
  -5  -1  -3  426.16   30.10
   6  -1   3  459.65   30.10
   5   1  -3  432.16   30.00
   1  -6  -3  431.66   30.10
   6  -1   3  486.75   30.20
  -5   6   3  453.15   30.40
  -5   6   3  492.65   30.40
   5  -6   3  474.45   30.40
   5  -6   3  453.95   30.20
  -5  -1  -3  437.56   30.10
  -6   5  -3  447.06   30.20
   6  -1   3  454.85   30.20
   6  -5  -3  411.86   30.20
  -1  -5   3  434.06   29.90
  -5   6   3  483.85   30.30
   5   1  -3  443.36   30.00
   1  -6  -3  471.05   30.10
  -1  -5   3  417.66   29.80
  -6   5  -3  463.45   30.30
  -1   6  -3  396.16   30.00
  -6   5  -3  383.36   30.20
   6  -5  -3  452.25   30.40
  -6   1   3  449.36   30.20
   5  -6   3  406.56   30.20
   5   1   3  410.96   30.10
   6  -1  -3  442.06   30.20
  -6   5   3  450.05   30.30
  -6   5   3  403.26   30.20
  -6   1  -3  452.85   30.20
  -1  -5  -3  427.56   30.00
  -5  -1   3  444.86   30.00
  -1   6   3  459.25   29.90
  -6   1  -3  433.16   30.20
  -5   6  -3  450.35   30.30
   1   5  -3  434.06   29.90
  -5   6  -3  425.16   30.20
   6  -5   3  372.96   30.10
   5  -6  -3  455.15   30.40
  -6   1  -3  412.86   30.20
  -5  -1   3  451.25   30.00
   5  -6  -3  439.46   30.30
  -5   6  -3  457.95   30.20
   6  -1  -3  406.66   30.00
   1  -6   3  441.16   30.00
  -1   6   3  455.05   29.90
   5  -6  -3  425.26   30.20
  -6   1  -3  466.65   30.20
  -1  -5  -3  443.46   30.10
   5   1   3  462.65   30.20
   1  -6   3  413.56   30.10
  -5  -1   3  455.85   30.10
  -6   5   3  429.36   30.30
   1   5  -3  411.56   29.90
  -5  -1   3  486.65   30.00
   6  -1  -3  425.06   30.10
  -1  -5  -3  433.26   30.00
  -6   5   3  423.76   30.20
  -1  -5  -3  471.65   30.00
   6  -1  -3  429.66   30.00
   1  -6   3  409.46   30.00
  -6   6  -3    7.70    1.00
   6  -6  -3    9.80    1.10
   6   0   3    9.90    0.90
   6   0   3    9.60    0.80
  -6   6   3    8.80    1.10
  -6   0  -3    9.00    1.00
   0  -6  -3    7.70    0.90
  -6   0  -3    8.70    1.00
   0  -6  -3    8.00    0.90
   6   0   3    9.50    1.00
   0  -6  -3    8.10    0.90
   6  -6  -3    8.70    1.10
   6  -6   3    8.40    1.10
   0   6  -3    8.70    0.80
  -6   0   3    9.60    1.00
  -6   6  -3    8.30    1.10
  -6   6   3    8.30    1.10
  -6   6   3    7.80    1.10
   0   6   3    8.10    0.90
   6  -6   3    8.10    1.10
  -6   0  -3   10.20    1.10
   0  -6   3    8.70    0.90
  -6   6   3    8.60    1.10
   0   6   3    8.30    0.90
   0  -6   3    8.80    0.90
   6  -6   3    9.20    1.10
   0  -6   3    7.90    0.80
   6  -6  -3    8.60    1.10
   6  -6  -3    8.50    1.10
  -6   6  -3    7.80    1.10
   0  -6   3    7.60    0.80
   0   6  -3    8.70    0.90
   0  -6  -3    7.50    0.90
   6   0   3    7.90    1.00
  -6   6  -3    8.60    1.00
   6  -6   3    7.40    1.00
  -4  -3  -3  678.43   50.29
   7  -4  -3  752.42   50.69
  -7   4  -3  742.03   50.69
   4  -7   3  678.33   50.59
  -7   4  -3  774.32   50.59
  -4  -3  -3  732.93   50.39
  -4   7   3  730.73   50.69
  -7   4  -3  710.83   50.59
  -4   7   3  652.13   50.49
   3  -7  -3  806.12   50.59
   4  -7   3  795.12   50.69
   7  -3   3  785.42   50.59
   4   3  -3  731.53   50.19
   7  -3   3  734.83   50.59
   3   4   3  730.53   50.39
   7  -4  -3  734.73   50.59
  -3   7  -3  700.03   50.39
  -4   7   3  750.12   50.59
  -3   7  -3  747.33   50.39
   7  -3   3  710.73   50.59
   3   4   3  834.12   50.39
   4   3  -3  775.82   50.19
   3  -7  -3  780.92   50.69
   7  -3   3  781.92   50.69
   4  -7   3  796.62   50.69
  -4  -3  -3  793.72   50.39
  -7   4  -3  721.83   50.69
   4  -7   3  797.42   50.59
   7  -4  -3  788.52   50.69
   7  -4  -3  752.42   50.69
  -7   3   3  682.13   50.59
  -7   3   3  744.63   50.69
   3  -7  -3  731.83   50.59
  -4   7   3  770.82   50.59
  -7   3   3  781.82   50.59
  -7   3  -3  756.52   50.59
  -3   7   3  685.03   50.59
  -7   4   3  770.22   50.59
  -3  -4  -3  711.73   50.29
   7  -4   3  660.33   50.59
  -7   3  -3  777.62   50.59
   3  -7   3  753.72   50.59
  -7   4   3  621.14   50.59
  -7   4   3  754.52   50.69
  -4  -3   3  745.03   50.19
  -4   7  -3  776.42   50.69
  -4   7  -3  643.34   50.39
  -3  -4  -3  700.03   50.29
  -4   7  -3  714.63   50.59
   7  -3  -3  724.63   50.49
   3  -7   3  710.13   50.49
   3  -7   3  746.73   50.59
   3  -7   3  707.33   50.49
   4   3   3  766.82   50.39
   4   3   3  638.54   50.39
  -7   3  -3  765.22   50.69
  -3   7   3  812.22   50.69
   4  -7  -3  764.72   50.69
   7  -3  -3  755.62   50.69
   7  -3  -3  674.23   50.59
  -7   3  -3  732.23   50.69
   4  -7  -3  725.53   50.59
  -4  -3   3  795.62   50.19
   7  -3  -3  732.03   50.49
   7  -4   3  813.72   50.59
  -4  -3   3  783.62   50.19
  -7   4   3  804.42   50.69
   7  -4   3  740.23   50.69
  -4   7  -3  749.03   50.49
  -4  -3   3  784.82   50.19
  -3  -4  -3  671.73   50.29
  -3   7   3  718.13   50.69
   7  -4   3  730.43   50.59
  -3  -4  -3  720.23   50.39
  -3   7   3  775.72   50.49
   4  -7  -3  629.54   50.59
   5  -7   3  559.74   37.00
   2  -7  -3  608.24   37.10
   7  -5  -3  477.65   36.90
  -7   5  -3  475.05   37.00
   7  -2   3  536.75   37.00
  -7   2   3  536.05   36.90
  -5  -2  -3  527.05   36.70
   5  -7   3  563.14   37.10
  -2  -5   3  567.74   36.50
   5   2  -3  512.45   36.70
   2  -7  -3  557.34   36.90
  -2   7  -3  522.85   36.80
   2   5   3  502.75   36.70
  -5   7   3  577.94   37.00
   5   2  -3  565.44   36.70
  -2   7  -3  570.64   36.90
  -5  -2  -3  550.84   36.80
  -5   7   3  514.55   36.90
  -2   7  -3  536.75   36.60
   7  -2   3  535.75   37.00
  -7   5  -3  510.25   36.90
  -2   7  -3  555.64   36.50
   7  -5  -3  553.94   37.10
   2  -7  -3  516.95   36.90
   2   5   3  502.55   36.70
   7  -5  -3  555.94   37.10
  -7   5  -3  530.35   37.10
   7  -5  -3  555.24   37.00
   2  -7  -3  553.54   37.00
   7  -2   3  508.25   36.80
  -7   5  -3  572.74   37.00
  -7   2   3  530.35   36.90
  -5  -2  -3  571.54   36.80
   5  -7   3  575.44   37.00
  -5   7   3  562.54   37.10
   5  -7   3  594.34   37.10
  -5  -2  -3  568.24   36.80
  -5   7   3  498.35   37.00
  -5  -2   3  510.05   36.70
  -7   5   3  522.45   37.10
  -2  -5  -3  533.05   36.70
  -5  -2   3  554.04   36.70
  -7   2  -3  578.44   37.00
  -7   5   3  470.55   36.90
   7  -5   3  552.34   37.10
  -2   7   3  534.15   36.70
  -5  -2   3  520.35   36.70
  -7   5   3  534.85   37.10
   5   2   3  566.74   36.80
   2  -7   3  478.55   36.80
  -2   7   3  471.75   36.70
   7  -2  -3  499.55   36.80
  -2  -5  -3  554.44   36.70
   5  -7  -3  529.55   37.10
  -5  -2   3  535.35   36.60
  -2   7   3  514.55   36.90
   7  -5   3  485.85   37.00
   7  -5   3  536.95   37.00
  -7   2  -3  494.95   36.90
   5  -7  -3  557.04   37.10
   5   2   3  556.54   36.80
  -7   2  -3  543.45   37.10
   7  -2  -3  585.74   37.00
  -2   7   3  603.24   37.10
   7  -2  -3  534.45   36.80
   2  -7   3  529.85   36.90
   2  -7   3  518.05   36.80
   7  -5   3  525.35   37.10
  -7   5   3  482.55   37.00
  -5   7  -3  465.05   37.00
   5  -7  -3  600.54   37.00
  -5   7  -3  604.84   37.00
  -2  -5  -3  583.44   36.70
  -2  -5  -3  567.84   36.70
   5  -7  -3  484.35   37.00
  -7   2  -3  571.94   37.00
   7  -2  -3  560.14   37.00
  -5   7  -3  516.95   37.00
  -5   7  -3  553.44   37.00
  -1   7  -3  220.88   16.10
  -7   1   3  225.98   16.30
   7  -1   3  209.28   16.30
  -1  -6   3  239.98   16.00
  -1  -6   3  251.67   16.00
   6   1  -3  247.98   16.20
   7  -6  -3  215.58   16.40
   7  -6  -3  252.57   16.50
  -7   1   3  232.58   16.30
  -6   7   3  233.58   16.40
   1  -7  -3  206.28   16.20
   1  -7  -3  258.17   16.30
  -1  -6   3  233.68   16.00
  -6  -1  -3  212.08   16.20
  -6   7   3  213.78   16.30
   6  -7   3  256.77   16.60
  -6  -1  -3  218.18   16.10
   6  -7   3  242.58   16.40
  -7   6  -3  241.78   16.40
   1  -7  -3  255.47   16.30
  -6   7   3  257.97   16.60
  -7   1   3  238.28   16.20
   6   1  -3  228.18   16.10
   1  -7  -3  224.68   16.20
  -1  -6   3  231.48   15.90
  -6  -1  -3  232.08   16.20
  -1   7  -3  262.57   16.30
  -7   1   3  219.38   16.30
   7  -1   3  214.48   16.10
   1   6   3  211.08   16.10
   1   6   3  209.28   16.10
   6  -7   3  230.18   16.40
  -6   7   3  240.58   16.40
  -7   6   3  212.98   16.30
  -7   6   3  242.68   16.40
   7  -6   3  249.88   16.40
  -7   1  -3  242.38   16.30
  -7   1  -3  231.68   16.30
  -1  -6  -3  257.57   16.20
  -6  -1   3  224.18   16.10
  -6   7  -3  244.98   16.50
   7  -1  -3  248.08   16.10
   7  -1  -3  211.98   16.20
   1   6  -3  237.98   15.90
   1   6  -3  231.68   15.90
   1  -7   3  238.08   16.20
  -7   1  -3  219.28   16.30
   7  -1  -3  247.18   16.30
   1  -7   3  228.58   16.20
   7  -1  -3  232.58   16.00
   6  -7  -3  208.08   16.40
   6   1   3  234.58   16.20
  -6  -1   3  202.28   16.10
   6  -7  -3  223.38   16.40
  -1   7   3  227.58   16.30
  -6   7  -3  221.58   16.40
   6  -7  -3  223.48   16.40
   1  -7   3  246.68   16.10
  -1  -6  -3  224.28   16.10
  -1  -6  -3  237.68   16.20
  -6   7  -3  265.57   16.40
  -6  -1   3  242.08   16.10
  -7   6   3  242.98   16.50
   1  -7   3  233.88   16.20
  -6  -1   3  234.98   16.10
  -1   7   3  209.38   16.20
  -7   1  -3  265.37   16.50
   6   1   3  233.88   16.20
  -7   0  -3 1277.17   90.79
   7   0   3 1364.66   90.39
   7   0   3 1339.87   90.79
   7   0   3 1294.97   90.79
   0  -7   3 1386.56   90.59
   7   0   3 1384.56   90.39
  -7   7  -3 1411.06   91.29
   0   7  -3 1384.06   90.59
   7  -7  -3 1354.06   90.89
  -7   0   3 1238.78   90.69
  -7   7   3 1247.78   90.89
   0  -7  -3 1397.26   90.69
   0   7  -3 1263.87   90.59
   7  -7   3 1251.87   90.89
  -7   0  -3 1379.86   90.69
   7   0  -3 1424.16   90.69
   0  -7   3 1416.96   90.59
  -7   0   3 1248.48   90.69
  -7   0  -3 1381.26   90.79
  -7   7   3 1333.87   90.89
  -7   0   3 1377.96   90.69
   7   0  -3 1371.66   90.79
  -7   0   3 1234.88   90.69
  -7   0  -3 1208.98   90.69
   7  -7  -3 1381.06   90.99
  -4   8   3    0.10    0.30
  -8   4  -3   -0.10    0.20
   4  -8  -3    0.30    0.30
  -4   8  -3    0.00    0.10
  -4  -4  -3    0.20    0.20
  -8   4   3    0.10    0.30
   4  -8   3    1.00    0.40
   8  -4   3    0.40    0.30
   4  -8   3   -0.10    0.20
  -8   4  -3    0.10    0.30
   8  -4  -3    0.10    0.20
  -8   4   3    0.10    0.30
   8  -4   3    0.30    0.30
  -4   8   3    1.80    0.50
   4  -8  -3    0.00    0.20
   8  -4  -3    0.30    0.30
   4   4   3    0.30    0.20
   8  -4  -3    0.40    0.20
  -4   8   3    0.00    0.10
  -4   8  -3    0.70    0.40
  -8   4  -3    0.10    0.30
  -8   4   3   -0.10    0.20
  -4  -4  -3    0.10    0.20
   4  -8   3    0.60    0.30
  -4   8  -3    0.60    0.30
  -4   8   3    0.30    0.30
   4  -8   3    0.90    0.40
  -4  -4  -3    0.20    0.20
  -4  -4  -3    0.30    0.20
   8  -4   3    0.10    0.20
   5  -8   3   22.30    2.00
  -5  -3  -3   21.70    1.80
  -3   8  -3   22.20    1.70
  -3   8  -3   21.20    1.90
   3   5   3   19.20    1.70
  -3   8  -3   20.10    2.00
  -8   3   3   20.80    2.00
   5   3  -3   19.00    1.50
  -5  -3  -3   23.80    1.80
   3  -8  -3   22.50    2.00
   8  -3   3   22.50    2.10
  -5   8   3   19.10    2.00
  -5  -3  -3   21.40    1.70
   8  -5  -3   20.50    2.00
   3  -8  -3   19.90    2.00
   8  -3   3   19.70    1.90
   3  -8  -3   20.90    2.00
   5   3  -3   21.50    1.50
  -5   8   3   20.50    2.00
  -5   8   3   22.30    1.90
   3  -8  -3   19.70    2.00
   3   5   3   21.40    1.70
  -8   3   3   17.90    1.90
   8  -3   3   20.80    2.00
   8  -3   3   22.80    2.00
   5  -8   3   21.20    2.10
   8  -5  -3   20.50    2.00
   5  -8   3   21.70    2.00
  -5   8   3   17.10    2.00
   8  -3  -3   20.80    2.00
  -3   8   3   21.60    1.80
  -5  -3   3   21.10    1.50
  -5   8  -3   19.50    2.00
   3  -8   3   23.10    1.90
  -3  -5  -3   24.00    1.70
  -8   3  -3   19.90    2.00
   5   3   3   18.40    1.70
   5  -8  -3   25.70    2.20
   8  -3  -3   18.70    1.80
  -3   8   3   19.60    1.90
  -5  -3   3   21.50    1.60
  -5   8  -3   22.40    2.00
   5  -8  -3   21.60    2.00
   8  -3  -3   19.90    1.90
   8  -3  -3   21.40    2.10
  -8   3  -3   19.30    2.00
  -3  -5  -3   22.40    1.70
   3  -8   3   18.40    1.90
  -5  -3   3   21.40    1.50
  -5   8  -3   23.20    2.00
  -3  -5  -3   20.70    1.70
   3  -8   3   20.90    1.90
   8  -5   3   22.40    2.00
  -8   3  -3   22.00    2.10
  -5  -3   3   21.00    1.60
   5  -8  -3   20.20    2.10
   5   3   3   22.10    1.80
   3  -8   3   20.10    1.90
  -5   8  -3   18.40    2.00
  -3   8   3   22.20    2.00
  -8   6  -3  647.54   42.50
   2  -8  -3  556.34   42.20
  -6  -2  -3  644.64   42.10
   6   2  -3  660.83   42.00
   8  -6  -3  646.74   42.40
   2  -8  -3  687.83   42.40
   8  -6  -3  553.64   42.40
   8  -2   3  619.54   42.40
  -8   2   3  624.64   42.30
   2  -8  -3  661.93   42.30
   2  -8  -3  615.54   42.30
  -8   6  -3  575.84   42.30
   8  -2   3  582.44   42.20
  -2  -6   3  613.84   41.80
   2   6   3  637.84   42.10
   8  -2   3  619.64   42.20
   8  -2   3  521.55   42.20
  -6  -2  -3  705.33   42.30
   6   2  -3  613.04   42.00
  -2  -6   3  624.14   41.80
  -8   2   3  619.64   42.30
  -2   8  -3  558.14   42.20
   2   6   3  588.54   42.00
  -8   2   3  627.24   42.40
   2  -8   3  609.64   42.20
  -8   2  -3  615.64   42.40
  -2   8   3  632.34   41.90
  -8   6   3  627.84   42.40
  -6  -2   3  663.53   42.00
  -6   8  -3  572.44   42.30
   8  -2  -3  656.73   42.40
   8  -6   3  568.24   42.40
  -8   2  -3  537.05   42.30
   2  -8   3  615.64   42.30
  -2   8   3  613.54   41.90
  -6  -2   3  628.94   42.00
   8  -2  -3  645.34   42.10
  -6  -2   3  630.94   42.00
  -2  -6  -3  577.64   42.00
   2  -8   3  626.74   42.20
   8  -6   3  624.14   42.50
  -2  -6  -3  578.24   42.00
  -2  -6  -3  645.64   42.10
  -2   8   3  619.14   42.30
  -2   8   3  661.43   42.30
  -8   2  -3  559.64   42.20
  -6   8  -3  654.83   42.30
  -8   6   3  625.54   42.60
   2  -8   3  662.13   42.20
   8  -2  -3  576.34   42.10
   7  -8   3  132.49   10.00
  -7   8   3  140.09    9.90
   8  -1   3  131.89    9.80
  -7  -1  -3  123.79    9.70
   8  -1   3  135.99    9.80
   1  -8  -3  138.09    9.70
   1  -8  -3  138.29    9.70
   1   7   3  151.88    9.70
  -1  -7   3  141.79    9.40
  -8   1   3  131.49    9.70
  -1  -7   3  129.79    9.40
  -8   1   3  120.09    9.70
  -7  -1  -3  122.89    9.60
  -8   1   3  133.89    9.80
  -7  -1  -3  131.29    9.70
  -8   7  -3  134.09    9.80
   1   7   3  154.88    9.60
  -7  -1  -3  137.79    9.70
  -1  -7   3  138.09    9.50
  -8   1   3  135.99    9.70
   1  -8  -3  149.09    9.70
   8  -1   3  132.19    9.50
   8  -1   3  129.79    9.60
   8  -7  -3  140.39   10.00
   7  -8   3  138.59    9.90
   8  -7  -3  156.18   10.10
  -7   8   3  126.09    9.80
  -1  -7   3  133.99    9.30
   1  -8  -3  138.39    9.80
  -1  -7  -3  137.69    9.60
   7  -8  -3  139.79    9.90
  -8   1  -3  142.09    9.80
  -1  -7  -3  127.99    9.50
  -8   7   3  140.59   10.00
  -1  -7  -3  114.59    9.50
   8  -1  -3  129.39    9.30
  -7  -1   3  142.09    9.60
  -1  -7  -3  129.89    9.60
   7   1   3  145.49    9.70
  -1   8   3  142.39    9.70
   8  -7   3  135.49   10.00
   7  -8  -3  131.49   10.00
  -8   1  -3  140.59    9.80
  -7  -1   3  139.09    9.60
  -8   1  -3  134.19    9.80
   8  -1  -3  118.39    9.30
  -8   1  -3  146.69    9.80
  -7   8  -3  135.89    9.90
   1   7  -3  133.49    9.30
   7   1   3  135.89    9.70
   8  -1  -3  143.39    9.80
   1   7  -3  135.59    9.30
  -7   8  -3  134.79    9.80
   1  -8   3  134.89    9.60
  -1   8   3  126.19    9.70
   8  -1  -3  134.49    9.80
   0  -8  -3  592.74   36.50
  -8   0   3  514.65   36.40
  -8   0   3  549.54   36.50
   8  -8   3  577.64   36.70
   0   8  -3  506.35   36.20
  -8   0  -3  584.24   36.60
  -8   8   3  494.45   36.70
   0   8   3  510.95   36.40
  -8   8  -3  558.54   36.70
   0  -8  -3  513.05   36.40
   0   8  -3  494.35   36.20
  -8   0   3  542.15   36.50
   0   8   3  606.14   36.50
   0  -8   3  557.34   36.30
   8  -8  -3  512.85   36.70
  -8   0  -3  487.45   36.40
   8   0   3  555.24   36.60
  -8   0  -3  546.65   36.50
   8  -8   3  491.85   36.70
   0  -8  -3  538.25   36.40
  -8   0  -3  520.45   36.50
   8  -8  -3  508.75   36.60
   0  -8  -3  471.55   36.30
  -8   0   3  562.14   36.60
  -8   8  -3  506.95   36.50
  -8   8   3  517.15   36.70
   8   0  -3  495.15   36.40
   8   0   3  511.15   36.50
   8   0  -3  565.54   36.60
  -4   9  -3  450.35   32.60
   5  -9   3  485.35   32.70
   9  -4   3  495.35   32.60
   9  -5  -3  491.45   32.80
   5  -9   3  450.45   32.70
   4   5   3  463.45   32.20
   4  -9  -3  464.15   32.60
   9  -5  -3  523.55   32.80
   4   5   3  450.75   32.20
  -4   9  -3  453.35   32.60
  -4   9  -3  463.25   32.30
  -5  -4  -3  478.65   32.20
   9  -4   3  436.56   32.70
  -9   5  -3  488.45   32.80
  -5  -4  -3  463.45   32.30
  -4   9  -3  493.35   32.40
  -5  -4  -3  470.45   32.30
   4  -9  -3  477.35   32.70
   4  -9  -3  469.45   32.60
   9  -5  -3  455.55   32.50
  -5   9   3  420.86   32.50
  -5   9   3  462.15   32.50
  -5  -4  -3  486.35   32.30
  -5   9  -3  463.75   32.50
   4  -9   3  452.95   32.60
   4  -9   3  442.16   32.60
  -9   4  -3  504.35   32.70
   9  -5   3  462.25   32.60
   9  -5   3  515.05   33.00
   5   4   3  484.75   32.30
  -9   5   3  500.75   32.70
  -4   9   3  423.16   32.60
  -4   9   3  503.45   32.40
  -5   9  -3  446.06   32.60
  -5  -4   3  406.66   32.10
  -9   5   3  478.65   32.70
   4  -9   3  517.75   32.70
  -9   4  -3  471.65   32.70
   5   4   3  489.65   32.30
   9  -4  -3  501.45   32.80
  -4   9   3  495.05   32.50
   9  -4  -3  489.05   32.60
  -4  -5  -3  456.85   32.30
  -4   9   3  522.45   32.80
   9  -4  -3  431.96   32.50
  -5   9  -3  475.95   32.50
  -6  -3  -3   40.20    3.50
  -6  -3  -3   40.50    3.50
  -6  -3  -3   49.60    3.60
  -9   3   3   49.80    3.80
  -3   9  -3   50.39    3.90
   3  -9  -3   42.40    3.70
   6  -9   3   48.00    3.90
   6  -9   3   41.50    3.80
  -9   3   3   43.90    3.80
   9  -6  -3   47.70    3.80
   9  -3   3   41.30    3.70
   3  -9  -3   42.30    3.80
  -6   9   3   43.60    3.80
  -6  -3  -3   53.99    3.60
  -6   9   3   46.90    3.90
  -9   6  -3   42.60    3.70
   9  -3   3   46.50    3.80
  -3   9  -3   52.19    3.80
   9  -6  -3   49.10    4.00
   3  -9   3   51.39    3.80
   9  -6   3   47.90    3.80
  -3   9   3   43.00    3.50
  -3   9   3   48.60    3.80
   3  -9   3   39.90    3.70
   9  -3  -3   48.90    3.70
  -6   9  -3   44.40    3.80
   9  -3  -3   48.50    3.90
   6   3   3   50.09    3.60
   6  -9  -3   46.50    3.90
   9  -6   3   47.30    3.90
  -6   9  -3   46.90    3.70
  -9   6   3   49.30    3.90
  -9   6   3   48.10    3.90
  -6  -3   3   53.79    3.50
   9  -3  -3   44.10    3.60
   3  -9   3   48.90    3.80
  -3   9   3   46.00    3.80
   3  -9   3   41.50    3.60
   6  -9  -3   44.50    3.80
  -3   9   3   45.90    3.50
   6   3   3   46.20    3.50
   9  -2   3  163.88   12.20
  -7  -2  -3  160.58   11.90
   2  -9  -3  168.18   12.20
   7  -9   3  169.98   12.30
  -7  -2  -3  182.58   12.10
  -2   9  -3  165.58   12.10
  -9   2   3  171.48   12.20
   9  -7  -3  163.98   12.30
  -9   2   3  175.78   12.20
  -9   7  -3  190.18   12.40
  -7  -2  -3  174.78   12.00
  -7   9   3  179.48   12.30
   9  -7  -3  154.78   12.20
   2  -9  -3  169.58   12.20
   2  -9  -3  173.88   12.10
  -9   2   3  185.48   12.30
   9  -2   3  179.78   12.00
  -7   9   3  164.38   12.20
   2  -9  -3  172.88   12.10
  -7  -2  -3  166.88   12.00
   7  -9   3  178.38   12.30
  -2   9  -3  150.18   12.00
   2  -9   3  160.08   12.10
   7   2   3  182.38   12.10
   9  -7   3  148.19   12.20
   2  -9   3  163.28   12.00
  -9   7   3  161.98   12.20
  -9   2  -3  173.38   12.20
  -2  -7  -3  173.58   11.90
  -7   9  -3  175.18   12.30
  -9   7   3  177.68   12.40
  -9   2  -3  163.78   12.30
   9  -2  -3  166.98   11.90
  -2   9   3  157.88   12.10
   2  -9   3  179.58   12.00
  -9   2  -3  170.58   12.20
   9  -7   3  159.18   12.30
   7  -9  -3  163.28   12.30
   9  -2  -3  182.18   12.40
  -7  -2   3  179.68   12.00
   2  -9   3  162.68   12.10
   7   2   3  170.78   12.00
  -7   9  -3  169.58   12.20
   7  -9  -3  161.88   12.30
  -2   9   3  163.18   12.20
   9  -2  -3  193.18   12.30
  -9   1   3  605.34   36.10
  -8   9   3  546.45   36.00
  -9   8  -3  530.95   36.10
   9  -8  -3  435.86   35.90
   9  -1   3  510.75   35.90
   1  -9  -3  563.84   35.90
  -8   9   3  542.25   36.20
   9  -1   3  583.74   36.00
  -8  -1  -3  506.25   35.80
   8  -9   3  483.15   36.00
  -8  -1  -3  470.65   35.80
   1  -9  -3  539.65   35.80
  -8  -1  -3  498.35   35.70
  -9   1   3  526.15   35.90
   9  -8  -3  523.85   36.40
   8  -9   3  502.65   36.10
  -9   8  -3  506.05   35.90
  -8  -1  -3  566.74   35.80
   1  -9  -3  503.25   35.70
   1  -9  -3  552.04   35.80
  -9   1   3  491.05   35.90
  -9   8   3  534.45   36.10
  -9   1  -3  500.25   35.80
   8   1   3  510.85   35.80
  -8  -1   3  523.25   35.70
  -1   9   3  507.35   35.80
   8  -9  -3  525.85   36.00
   8   1   3  517.65   35.80
   9  -8   3  535.35   36.10
  -8   9  -3  502.05   36.00
  -1   9   3  511.15   35.80
   1  -9   3  504.15   35.60
   8  -9  -3  479.85   36.00
  -9   8   3  500.05   35.90
  -1  -8  -3  553.54   35.70
  -9   1  -3  535.55   35.90
   9  -1  -3  565.04   35.90
  -8   9  -3  509.25   35.90
   9  -1  -3  487.95   35.90
  -9   9   3  234.58   16.80
   9  -9  -3  242.78   16.80
  -9   0  -3  228.98   16.60
  -9   0  -3  227.68   16.60
   9   0   3  252.57   16.70
  -9   9   3  223.18   16.70
   0  -9  -3  236.48   16.50
  -9   9  -3  251.27   16.70
  -9   9  -3  214.88   16.80
   9  -9   3  227.98   16.80
   9  -9  -3  252.57   16.90
  -5  10   3    0.00    0.20
 -10   5  -3    0.50    0.40
  -5  10  -3    0.00    0.30
 -10   5  -3   -0.10    0.20
 -10   5   3    0.30    0.30
   5 -10   3    0.20    0.40
  10  -5  -3    0.20    0.40
   5 -10   3    0.20    0.40
   5 -10  -3    0.70    0.40
  10  -5  -3    1.60    0.50
  -5  10   3    1.90    0.50
  10  -5   3    0.10    0.20
  10  -5   3    0.50    0.30
  -5  10  -3    0.00    0.10
  10  -5  -3    0.70    0.40
  -6  10   3  234.68   17.20
  10  -4   3  222.38   17.20
  -6  10   3  244.58   17.40
  10  -6  -3  228.68   17.40
 -10   4   3  236.08   17.30
  10  -4   3  257.37   17.50
  10  -4   3  242.08   17.20
 -10   4   3  251.17   17.40
  -6  10   3  233.58   17.20
  10  -6  -3  205.18   17.20
  -4  10  -3  257.77   17.30
   6 -10   3  259.87   17.50
  -4  10  -3  249.88   17.30
   6 -10   3  251.77   17.40
 -10   6  -3  232.68   17.30
 -10   6  -3  242.08   17.30
  -6  10  -3  246.48   17.40
 -10   6   3  254.27   17.40
  -4  10   3  242.78   17.00
 -10   4  -3  271.47   17.40
  -6  10  -3  248.18   17.20
  10  -4  -3  246.58   17.40
 -10   6   3  269.87   17.40
  10  -4  -3  254.77   17.20
   4 -10   3  216.08   17.20
 -10   4  -3  255.37   17.40
   6 -10  -3  233.18   17.40
  10  -6   3  239.48   17.40
  10  -6   3  260.57   17.40
   4 -10   3  271.07   17.40
   6 -10  -3  228.08   17.30
   4 -10   3  241.58   17.40
   3 -10  -3   60.29    4.80
  -3  10  -3   63.09    4.90
   7 -10   3   58.49    5.00
 -10   3   3   58.29    4.90
   3 -10  -3   64.89    5.00
 -10   3   3   59.49    4.90
  10  -3   3   63.79    5.00
  10  -7  -3   61.79    5.10
 -10   7  -3   51.89    4.90
  -7  10   3   59.99    5.00
  -7  10   3   71.49    5.00
  -3  10  -3   60.59    4.90
  10  -7  -3   63.89    5.00
   3 -10  -3   64.69    4.90
 -10   7  -3   68.49    5.00
  10  -3   3   57.89    4.80
  10  -3  -3   57.29    4.70
  10  -7   3   61.39    5.00
 -10   3  -3   59.19    4.90
  -3  10   3   68.79    5.00
   7 -10  -3   65.59    5.10
   3 -10   3   63.39    4.80
 -10   7   3   61.69    5.00
   3 -10   3   58.69    4.80
   3 -10   3   57.49    4.90
  -3  10   3   59.09    4.90
  -7  10  -3   63.49    4.90
 -10   7   3   66.59    5.00
  10  -3  -3   62.49    5.00
 -10   3  -3   56.09    4.80
  10  -7   3   61.39    4.90
   7 -10  -3   66.59    5.10
  -8  10   3    0.70    0.40
  10  -2   3    3.00    0.80
  10  -8  -3    0.40    0.50
  -8  10   3    2.90    0.70
   8 -10   3    0.00    0.30
  10  -8  -3    0.50    0.40
  -8  -2  -3    0.40    0.30
   8 -10   3    0.50    0.40
 -10   8   3    0.40    0.50
  -8  10  -3    0.40    0.30
   8 -10  -3    0.10    0.40
 -10   2  -3    0.80    0.40
  10  -8   3    0.50    0.50
   8 -10  -3    0.40    0.40
  -8  10  -3    0.30    0.40
 -10   2  -3    2.30    0.70
   0   0   4 5701.73  403.86
   0   0  -4 6173.18  403.86
   0   0   4 6145.89  403.76
   0   0  -4 5854.31  403.76
  -1   0   4 2149.48  161.08
   1   0   4 2498.55  161.18
   1  -1   4 2470.65  161.18
  -1   0   4 2057.69  161.08
   0  -1  -4 2717.63  161.18
   0   1  -4 2089.89  161.08
  -1   1  -4 2225.78  161.08
   0  -1   4 2300.47  161.08
   0  -1   4 2639.14  161.18
   0  -1   4 2208.78  161.08
  -1   1  -4 2505.95  161.18
   1   0  -4 2325.07  161.18
   0   1   4 2471.35  161.18
   1  -1   4 2453.15  161.18
  -1   0  -4 2479.55  161.08
  -1   0  -4 2164.38  161.08
   1   0  -4 2148.39  161.08
   1  -1   4 2029.90  161.08
   1   0  -4 2710.53  161.08
  -1   0  -4 2572.74  161.18
   0  -1  -4 2617.14  161.28
   0   1  -4 2404.06  161.08
  -1   1  -4 2161.18  161.08
   1  -1   4 2181.38  161.08
   0   1   4 2527.55  161.08
   0   1   4 2179.88  161.08
   1   0   4 2538.05  161.18
   1   0   4 2656.03  161.18
   0  -1  -4 2348.67  161.08
  -1   1   4 2341.97  161.08
   0   1  -4 2253.37  161.08
  -1   0  -4 2465.25  161.18
  -1   0   4 2482.85  161.08
   0  -1   4 2379.06  161.08
  -1   1   4 2596.14  161.18
   1   0   4 2300.17  161.18
   1   1  -4 1866.01  126.79
  -2   1   4 2119.09  126.89
   1   1  -4 1724.43  126.69
  -1   2   4 1813.52  126.79
  -1  -1   4 1806.62  126.79
  -2   1  -4 1750.92  126.89
   1  -2   4 1823.82  126.89
  -2   1  -4 1837.12  126.89
   1   1   4 1803.82  126.89
  -2   1   4 1817.32  126.89
   2  -1  -4 1933.51  126.89
  -1  -1  -4 2056.39  126.89
   1  -2  -4 1949.60  126.89
   1   1   4 2053.09  126.89
   1   1   4 2154.68  126.89
   1  -2   4 1717.53  126.89
   1   1  -4 2010.00  126.79
  -1  -1  -4 1713.03  126.79
  -1  -1  -4 1641.64  126.79
  -1   2  -4 2005.70  126.79
  -1  -1   4 1944.61  126.79
   2  -1   4 2097.19  126.89
  -1   2   4 1697.63  126.89
   2  -1  -4 1942.11  126.89
  -1   2  -4 2019.50  126.89
  -1   2  -4 1903.41  126.89
  -1   2   4 1777.82  126.89
   1   1   4 1797.22  126.79
  -1  -1   4 1916.51  126.79
   1  -2  -4 1727.13  126.89
   2  -1   4 1946.71  126.89
  -2   1   4 1875.61  126.79
   1  -2   4 1838.12  126.79
  -1  -1   4 1600.44  126.69
   2  -1  -4 1595.84  126.79
  -2   1  -4 1955.00  126.89
   1  -2   4 1676.23  126.79
  -1  -1  -4 2070.79  126.89
   1  -2  -4 1855.21  126.89
   2  -1  -4 2035.00  126.89
   0  -2   4 3907.91  253.07
   2  -2   4 3271.47  252.97
   0   2   4 3985.00  253.07
   0  -2   4 3542.05  252.97
   2   0  -4 3561.14  253.07
   2   0   4 3719.73  253.07
  -2   0   4 4103.29  252.97
  -2   2  -4 3389.56  253.07
  -2   0   4 3680.53  253.07
   0  -2   4 3930.51  252.97
   0   2  -4 3225.68  252.97
   0  -2  -4 3986.70  253.17
   0   2   4 4186.68  253.07
   0   2  -4 3365.36  252.97
   2   0  -4 3576.44  253.07
   2   0   4 3990.50  253.07
  -2   0  -4 4216.38  253.17
  -2   2   4 3612.44  253.07
  -2   0  -4 4224.78  253.07
   2  -2  -4 3313.07  253.07
  -2   0  -4 3967.50  253.07
   0  -2  -4 4031.00  253.07
   0  -2   4 3847.42  253.07
   0   2   4 3630.04  252.97
  -2   0  -4 3503.95  253.07
  -2   2   4 3882.31  253.07
  -2   2   4 4254.27  253.07
  -2   2  -4 3382.46  252.97
  -2   2  -4 4273.07  253.07
   0  -2  -4 3812.72  253.07
  -2   2  -4 3494.25  253.07
   0  -2  -4 3414.26  252.97
   0   2  -4 3614.14  252.87
   2   0  -4 3450.75  252.97
   2  -2   4 3210.58  252.97
   2   0   4 4026.20  253.17
   3  -2  -4 2873.81  196.98
   3  -1   4 2979.40  196.88
  -3   2  -4 3147.29  196.98
  -1  -2   4 3003.60  196.78
   2   1  -4 2588.24  196.78
   1   2   4 3312.47  196.78
   1  -3  -4 2788.92  196.88
  -1   3  -4 2948.91  196.78
   3  -2  -4 3064.19  196.88
   1  -3  -4 2766.62  196.88
  -3   2  -4 2577.14  196.98
  -3   2  -4 2620.24  196.88
  -1   3  -4 2721.23  196.88
   2   1  -4 2814.62  196.68
  -1  -2   4 2934.61  196.88
   3  -1   4 2506.75  196.88
   1   2   4 3041.50  196.88
  -3   1   4 3240.28  196.98
   3  -2  -4 2924.91  196.88
  -2  -1  -4 2863.41  196.88
  -1   3  -4 2532.45  196.78
   3  -1   4 2574.74  196.78
  -2   3   4 2889.61  196.98
  -1  -2   4 2787.32  196.78
   2  -3   4 2999.70  196.88
   1   2   4 2656.33  196.88
   2  -3   4 3053.79  196.98
   2   1  -4 2701.73  196.78
   2   1  -4 3138.59  196.68
  -2   3   4 3325.87  196.98
  -3   1   4 2792.02  196.88
   2  -3   4 3123.39  196.88
   1   2   4 2820.12  196.78
  -2   3   4 2911.61  196.88
   2  -3  -4 2675.33  196.88
  -3   2   4 3385.16  196.98
  -3   1  -4 2960.40  196.98
   3  -2   4 3112.09  196.98
   1  -3   4 2838.32  196.88
   2   1   4 3299.17  196.88
   2  -3  -4 3000.40  196.88
  -1   3   4 2767.62  196.88
   3  -1  -4 3174.88  196.88
   1   2  -4 3027.80  196.88
   1   2  -4 3204.58  196.68
  -1  -2  -4 2979.00  196.78
  -3   1  -4 2870.91  196.88
  -3   2   4 3137.09  196.88
  -3   1  -4 2666.23  196.88
   2   1   4 2845.92  196.88
   3  -1  -4 3072.29  196.88
  -1  -2  -4 3000.60  196.88
  -3   1  -4 2824.52  196.88
   2   1   4 2503.25  196.78
  -1  -2  -4 3035.90  196.88
   3  -2   4 2653.43  196.88
  -1   3   4 2630.54  196.78
  -1  -2  -4 3214.98  196.88
  -2   3  -4 3107.19  196.88
   1  -3   4 2984.30  196.88
   3  -1  -4 2913.11  196.88
  -2  -1   4 2636.04  196.78
  -2   3  -4 3158.08  196.98
   1  -3   4 3235.58  196.88
  -3   2   4 2872.11  196.88
  -2  -1   4 2577.24  196.78
   2  -3  -4 2643.04  196.88
   1  -3   4 2781.72  196.78
   2   1   4 2773.42  196.78
   0   3  -4 1645.64  107.39
   0  -3  -4 1439.86  107.39
   0  -3   4 1436.46  107.29
  -3   3  -4 1586.74  107.59
   0  -3  -4 1626.74  107.39
  -3   0  -4 1526.95  107.49
  -3   0  -4 1556.14  107.39
   0  -3   4 1380.06  107.39
   0  -3   4 1384.16  107.39
  -3   0   4 1657.23  107.49
  -3   0  -4 1601.64  107.49
   3   0   4 1459.35  107.39
   3   0   4 1570.24  107.49
   0  -3  -4 1824.62  107.49
  -3   0   4 1421.36  107.39
   3   0  -4 1699.03  107.49
   3   0  -4 1693.43  107.29
   0   3   4 1741.93  107.39
   0   3  -4 1744.43  107.29
   0  -3  -4 1711.03  107.49
   0   3   4 1774.02  107.49
   3   0   4 1762.82  107.49
   0   3  -4 1594.64  107.29
   3   0   4 1604.04  107.49
   0  -3   4 1409.56  107.29
  -3   0   4 1553.74  107.39
  -3   0  -4 1371.66  107.39
   4  -2   4 6591.74  421.66
  -2   4  -4 6000.30  421.56
  -4   2  -4 5862.31  421.56
  -4   2  -4 5352.96  421.66
   2   2   4 6436.86  421.46
   2  -4   4 6418.86  421.56
  -2  -2  -4 6520.95  421.56
  -4   2  -4 6480.75  421.66
  -2   4  -4 6762.72  421.66
   2   2  -4 5807.72  421.46
  -2  -2   4 6032.10  421.46
  -2   4   4 6370.36  421.66
   2   2  -4 7004.80  421.46
   4  -2   4 5755.12  421.66
   2  -4   4 5262.07  421.56
   2   2   4 7224.98  421.66
   4  -2  -4 6825.12  421.56
   4  -2   4 6346.56  421.66
  -2   4  -4 5356.56  421.56
  -2  -2   4 5686.03  421.46
  -4   2  -4 7039.20  421.66
   2  -4   4 6642.14  421.66
   2  -4  -4 6743.23  421.66
  -2  -2  -4 5945.40  421.56
  -4   2   4 6040.10  421.66
  -2  -2   4 5629.94  421.36
  -2   4  -4 6140.59  421.46
  -2  -2   4 6169.68  421.46
   4  -3  -4 1407.56   90.89
  -4   1   4 1187.58   90.79
  -3  -1  -4 1138.69   90.79
   3   1  -4 1489.25   90.79
  -1   4  -4 1364.06   90.79
   1   3   4 1144.49   90.79
   1   3   4 1487.65   90.89
   1  -4  -4 1534.75   90.99
   4  -1   4 1421.66   90.79
  -4   3  -4 1270.07   90.89
   3   1  -4 1434.96   90.79
  -1   4  -4 1423.46   90.69
  -3   4   4 1323.47   90.89
   3  -4   4 1498.75   90.89
  -3  -1  -4 1431.36   90.79
   4  -3  -4 1183.78   90.89
   4  -3  -4 1411.36   90.99
  -4   3  -4 1488.05   90.89
  -4   3  -4 1281.47   90.89
  -4   1   4 1435.06   90.89
   1   3   4 1362.96   90.69
  -3  -1  -4 1344.97   90.79
   4  -3  -4 1394.36   90.89
  -1  -3   4 1377.96   90.69
  -1   4  -4 1331.67   90.69
  -4   1   4 1378.66   90.89
  -1   4  -4 1431.36   90.79
  -4   3  -4 1215.18   90.89
  -1  -3   4 1312.97   90.69
   1  -4  -4 1368.26   90.89
   1  -4  -4 1348.57   90.89
  -1  -3   4 1261.37   90.59
   3  -4   4 1418.76   90.89
   1   3   4 1518.65   90.69
  -3   4   4 1286.47   90.79
  -1  -3   4 1316.67   90.69
  -4   3   4 1276.07   90.89
  -1  -3  -4 1251.07   90.79
   1  -4   4 1363.16   90.79
   3  -4  -4 1360.86   90.89
  -1  -3  -4 1277.87   90.79
  -1   4   4 1436.36   90.79
  -1   4   4 1201.18   90.89
   3  -4  -4 1324.47   90.89
  -3   4  -4 1386.16   90.89
   4  -1  -4 1244.78   90.89
  -1   4   4 1350.46   90.89
   1   3  -4 1514.35   90.79
  -3   4  -4 1159.08   90.89
   1  -4   4 1254.47   90.79
   3  -4  -4 1252.17   90.89
  -3  -1   4 1387.26   90.79
   3   1   4 1451.25   90.89
  -4   3   4 1223.58   90.89
   1  -4   4 1287.17   90.79
  -4   3   4 1302.67   90.99
  -1   4   4 1296.47   90.79
  -4   3   4 1223.88   90.89
   3   1   4 1357.56   90.69
   3  -4  -4 1244.98   90.89
  -1  -3  -4 1364.66   90.79
  -4   1  -4 1192.08   90.79
   4  -1  -4 1243.18   90.79
   4  -1  -4 1275.77   90.89
  -3   4  -4 1332.47   90.79
   3   1   4 1415.46   90.89
   4  -3   4 1237.08   90.79
  -3  -1   4 1471.05   90.69
   4  -4   4 2465.55  177.08
   4  -4   4 2220.18  176.98
   0   4   4 2231.48  176.98
   4   0  -4 2971.80  177.08
   0   4   4 2803.92  176.88
  -4   0   4 3048.09  177.08
   4  -4   4 2537.75  177.18
  -4   0   4 2363.96  176.98
   0  -4   4 2830.72  176.88
  -4   0  -4 3042.60  177.08
   4   0  -4 2432.66  176.78
   0   4   4 2915.61  176.88
  -4   4  -4 2334.67  177.08
   0  -4  -4 2562.04  176.98
   0   4  -4 2282.37  176.88
  -4   0   4 2895.81  176.98
   0   4  -4 2643.44  176.88
  -4   4  -4 2243.68  176.98
   4  -4  -4 2370.96  177.08
   0  -4  -4 2329.37  176.98
  -4   4  -4 2519.75  177.08
  -4   4   4 2871.51  177.18
   0  -4  -4 2643.34  176.98
  -4   0   4 2875.11  177.08
   4   0   4 2874.31  176.98
   5  -2   4 1239.78   80.69
  -3   5   4 1017.00   80.69
  -5   2   4 1229.98   80.69
  -3  -2  -4 1274.37   80.59
  -5   2   4 1222.78   80.69
  -2   5  -4 1170.08   80.49
  -5   2   4 1174.38   80.69
  -3   5   4 1228.08   80.69
   2  -5  -4 1218.78   80.69
  -3   5   4 1265.77   80.79
   3  -5   4 1241.78   80.59
   2   3   4 1258.27   80.29
  -5   2   4 1250.87   80.69
   2  -5  -4 1369.56   80.89
  -5   3  -4 1111.49   80.69
   3   2  -4 1109.39   80.49
   5  -3  -4 1293.47   80.79
  -2  -3   4 1120.19   80.49
  -2  -3   4 1184.18   80.39
  -3   5   4 1056.39   80.59
   5  -3  -4 1259.27   80.69
   5  -2   4 1109.19   80.59
  -2  -3   4 1210.18   80.39
  -2   5  -4 1142.69   80.49
   5  -3  -4 1139.19   80.69
   2  -5  -4 1177.48   80.59
   5  -3  -4 1163.08   80.69
   3   2  -4 1146.49   80.49
   5  -2   4 1098.19   80.69
  -2  -3   4 1219.28   80.49
   2  -5  -4 1272.27   80.69
   5  -2   4 1256.67   80.79
  -5   3  -4 1014.70   80.69
   2   3   4 1244.28   80.59
   3  -5   4 1189.98   80.69
   3  -5   4 1165.38   80.69
  -5   3  -4 1170.78   80.79
  -3  -2  -4 1265.47   80.49
   2   3   4 1343.67   80.69
   3  -5   4 1110.59   80.69
  -3  -2  -4 1097.59   80.59
   5  -2  -4 1093.09   80.59
  -2  -3  -4 1111.29   80.49
   5  -3   4 1231.78   80.69
  -2  -3  -4 1120.99   80.59
  -2  -3  -4 1172.58   80.59
  -2   5   4  997.70   80.59
   3  -5  -4 1207.08   80.69
   3   2   4 1168.58   80.59
  -2  -3  -4 1302.47   80.59
  -3   5  -4 1131.19   80.59
  -3   5  -4 1252.67   80.79
  -5   3   4 1167.38   80.79
   3   2   4 1347.17   80.69
   5  -3   4 1295.87   80.69
  -3  -2   4 1149.98   80.49
  -3   5  -4 1163.88   80.69
  -5   3   4 1213.18   80.79
   3  -5  -4 1086.09   80.69
   3  -5  -4 1115.39   80.69
  -2   5   4 1245.28   80.69
  -3  -2   4 1249.38   80.39
  -2   5   4 1247.28   80.59
  -5   3   4 1197.98   80.69
   5  -2  -4 1243.58   80.79
  -3   5  -4 1133.49   80.59
   5  -3   4 1074.09   80.69
  -5   2  -4 1283.27   80.79
  -5   2  -4 1117.99   80.59
  -2   5   4 1183.08   80.59
   2   3  -4 1108.29   80.39
  -3  -2   4 1171.08   80.49
   2  -5   4 1173.08   80.59
   3   2   4 1258.27   80.39
   3   2   4 1272.47   80.39
   2   3  -4 1322.97   80.49
  -5   2  -4 1125.19   80.59
  -5   2  -4 1081.09   80.69
  -5   3   4 1306.97   80.79
  -3  -2   4 1072.59   80.39
   3  -5  -4 1169.08   80.69
   5  -2  -4 1134.99   80.69
   5  -2  -4 1144.49   80.59
   5  -4  -4  231.18   15.00
   5  -1   4  203.88   15.00
  -1  -4   4  216.98   14.70
  -5   4  -4  230.68   15.10
   4  -5   4  240.88   15.00
  -5   4  -4  232.88   15.00
   5  -4  -4  183.08   14.90
   1   4   4  211.68   14.90
  -1   5  -4  209.58   14.80
  -5   1   4  199.18   14.90
  -1  -4   4  218.38   14.70
   1  -5  -4  218.58   15.10
  -1  -4   4  189.28   14.70
   5  -1   4  211.38   15.00
   1   4   4  216.88   14.60
  -4  -1  -4  200.58   14.80
  -4   5   4  204.68   15.10
  -5   4  -4  185.48   14.90
  -1   5  -4  216.88   14.60
   1   4   4  219.38   14.60
  -4   5   4  186.48   15.00
   5  -1   4  226.08   14.90
   4  -5   4  235.58   15.20
  -5   1   4  231.38   15.10
   5  -1   4  199.38   14.80
   5  -4  -4  228.78   15.10
   4  -5   4  212.68   15.00
   1   4   4  228.28   14.90
  -4   5   4  234.08   15.00
  -1   5  -4  228.98   14.70
  -4   5   4  211.88   14.90
  -4  -1  -4  185.68   14.80
   4  -5   4  229.28   15.00
  -5   4  -4  187.88   15.00
   5  -4  -4  226.88   15.10
  -1  -4   4  202.78   14.70
  -5   1   4  217.88   14.90
   4   1   4  234.68   15.00
   4   1   4  189.28   14.70
   1   4  -4  238.18   14.80
  -5   1  -4  207.18   14.90
  -5   4   4  225.98   15.00
  -5   1  -4  224.58   15.00
   4  -5  -4  216.78   15.00
  -5   1  -4  204.48   14.90
  -1   5   4  192.58   14.70
   5  -1  -4  228.98   14.80
  -5   4   4  206.58   15.00
  -5   1  -4  198.08   14.90
  -5   4   4  222.18   15.00
  -4   5  -4  238.58   15.10
  -1  -4  -4  216.08   14.80
  -4  -1   4  218.58   14.80
   1   4  -4  212.38   14.70
  -5   4   4  229.08   15.10
   4  -5  -4  210.38   15.00
  -4  -1   4  209.18   14.80
  -4  -1   4  218.78   14.80
   4   1   4  214.38   14.70
  -4   5  -4  222.28   15.00
   4  -5  -4  178.48   15.00
   4   1   4  216.48   14.90
   1  -5   4  220.88   14.90
   5  -4   4  215.68   14.90
  -4   5  -4  216.28   14.90
   1  -5   4  178.98   14.80
   4  -5  -4  232.58   15.10
   5  -1  -4  205.68   14.90
  -1   5   4  190.18   14.80
  -1  -4  -4  229.18   14.80
  -4   5  -4  211.78   14.90
   1  -5   4  235.38   14.90
  -5   0   4 1553.54  103.39
  -5   5  -4 1552.74  103.49
   5   0   4 1523.95  103.49
   5   0   4 1471.05  103.39
   5   0  -4 1526.05  103.19
   0   5   4 1461.35  103.19
   5   0  -4 1453.25  103.19
   0  -5   4 1612.44  103.29
  -5   0  -4 1503.55  103.39
   0   5   4 1574.14  103.19
  -5   0   4 1558.54  103.39
  -5   0  -4 1343.17  103.39
  -5   0   4 1609.14  103.49
  -5   5   4 1570.84  103.49
  -5   0  -4 1629.64  103.59
  -5   5  -4 1421.46  103.59
   5  -5  -4 1508.55  103.49
   0  -5  -4 1331.77  103.39
   5  -5  -4 1489.85  103.59
   0  -5   4 1629.44  103.29
   5  -5   4 1425.46  103.59
   5  -5   4 1568.54  103.59
   0  -5  -4 1562.84  103.39
   5  -5  -4 1578.84  103.69
  -5   5  -4 1441.26  103.49
   0   5  -4 1386.56  103.29
   5  -5   4 1545.45  103.59
   0  -5  -4 1735.53  103.49
  -5   5   4 1613.74  103.69
   0  -5   4 1539.05  103.39
  -5   5   4 1623.64  103.59
  -5   0   4 1411.16  103.39
   5  -5  -4 1444.36  103.49
   5   0   4 1559.74  103.49
   0   5  -4 1523.85  103.29
  -5   5   4 1564.64  103.59
   3   3  -4    6.10    0.60
   3  -6  -4    5.90    0.80
   6  -3   4    6.60    0.90
   3   3  -4    6.60    0.60
   6  -3  -4    4.20    0.80
  -3  -3  -4    5.50    0.70
  -6   3  -4    6.10    0.90
   3  -6   4    6.70    0.80
  -3   6   4    6.30    0.80
  -3   6  -4    5.40    0.70
  -6   3  -4    6.30    0.90
  -3  -3  -4    7.50    0.80
   3   3   4    7.00    0.80
  -6   3  -4    6.00    0.80
   6  -3   4    6.70    0.90
  -3   6   4    5.20    0.80
   3  -6  -4    5.70    0.80
   3   3   4    6.50    0.80
   6  -3  -4    5.80    0.80
   3  -6   4    5.30    0.80
  -3  -3   4    6.20    0.60
   6  -3  -4    6.50    0.80
   6  -3  -4    6.80    0.90
  -3  -3   4    5.80    0.60
  -6   3   4    6.00    0.90
   6  -3   4    5.50    0.80
  -3   6  -4    5.40    0.80
   3  -6   4    6.40    0.80
   3  -6  -4    6.10    0.80
  -3   6   4    5.90    0.90
  -6   3   4    7.80    1.00
  -3   6  -4    6.00    0.90
  -6   3   4    6.30    0.80
  -6   3   4    5.60    0.80
   6  -3   4    6.30    0.90
  -6   3  -4    6.50    0.90
   3  -6  -4    7.10    1.00
  -3  -3  -4    7.60    0.80
  -3   6  -4    6.10    0.70
  -3   6   4    5.30    0.80
  -3  -3  -4    5.10    0.70
   3  -6   4    6.60    0.80
  -3  -3   4    5.30    0.60
  -2  -4   4 3590.84  212.48
   2  -6  -4 3159.08  212.78
   6  -4  -4 2983.80  212.68
  -4  -2  -4 3360.46  212.58
  -4   6   4 2611.44  212.78
  -2  -4   4 3424.26  212.38
   6  -4  -4 2964.60  212.78
   6  -2   4 3109.69  212.78
   4   2  -4 2902.71  212.48
  -4  -2  -4 2976.10  212.68
  -6   2   4 3311.07  212.78
  -4   6   4 2766.42  212.78
  -6   4  -4 2924.81  212.78
  -2   6  -4 3174.38  212.68
   2   4   4 3318.27  212.58
   6  -4  -4 2841.62  212.78
   4   2  -4 3578.04  212.58
   6  -2   4 3476.55  212.78
   4  -6   4 3106.89  212.78
   4  -6   4 3267.07  212.88
  -6   2   4 3509.15  212.78
   2   4   4 3349.76  212.68
  -2  -4   4 3582.54  212.48
  -6   4  -4 2703.13  212.78
  -4  -2  -4 3122.09  212.68
  -4  -2  -4 2690.73  212.58
  -6   2   4 2876.21  212.78
   2  -6  -4 2894.81  212.68
  -4   6   4 3232.68  212.78
   6  -2   4 3326.67  212.78
  -6   2   4 3349.47  212.78
  -6   4  -4 3080.69  212.68
   2  -6  -4 2764.42  212.68
  -2  -4   4 3105.99  212.38
  -2   6  -4 3518.55  212.48
   6  -4  -4 3549.15  212.88
   6  -2   4 3526.45  212.88
  -4   6   4 3391.76  212.78
   4  -6   4 2938.71  212.68
   2  -6  -4 2994.30  212.68
  -4  -2   4 3523.85  212.48
  -6   4   4 3187.08  212.78
  -2   6   4 3037.40  212.78
  -6   4   4 2940.01  212.78
  -6   4   4 3170.08  212.88
   4  -6  -4 2747.12  212.78
  -6   2  -4 3258.67  212.88
   2  -6   4 3425.36  212.68
   2  -6   4 3479.55  212.98
  -6   2  -4 2956.10  212.78
   2   4  -4 3110.79  212.38
  -4  -2   4 3110.59  212.48
   4  -6  -4 2821.32  212.68
  -6   4   4 3556.24  212.88
   2  -6   4 2853.51  212.68
  -4   6  -4 3172.98  212.68
   4   2   4 3325.17  212.68
   6  -4   4 2813.82  212.68
   6  -4   4 3082.89  212.88
   4   2   4 3093.79  212.68
  -2  -4  -4 3125.69  212.58
   6  -2  -4 3153.68  212.58
   6  -2  -4 3041.50  212.58
  -6   2  -4 2924.31  212.68
   6  -2  -4 3171.48  212.78
  -2  -4  -4 3146.99  212.58
   2   4  -4 2851.11  212.38
  -4   6  -4 3511.65  212.88
  -6   2  -4 2606.54  212.68
  -2   6   4 3196.58  212.58
  -2   6   4 3037.00  212.58
  -4  -2   4 3039.50  212.48
  -2  -4  -4 2867.41  212.58
  -2  -4  -4 3380.26  212.58
   6  -2  -4 3032.40  212.78
  -4   6  -4 3437.56  212.88
   5  -6   4 1130.19   84.79
   6  -1   4 1272.07   84.79
   1  -6  -4 1265.27   84.79
   1  -6  -4 1264.57   84.79
   6  -5  -4 1339.27   84.99
   6  -1   4 1309.87   84.69
  -5   6   4 1418.36   84.99
  -6   1   4 1282.37   84.79
   1   5   4 1201.58   84.69
   6  -5  -4 1136.69   84.79
   5   1  -4 1100.99   84.59
  -1   6  -4 1075.49   84.59
  -5   6   4 1218.48   84.89
   5  -6   4 1353.86   84.99
   1  -6  -4 1153.08   84.79
   6  -5  -4 1341.67   84.89
   1   5   4 1094.49   84.69
  -5   6   4 1273.27   84.99
   5  -6   4 1241.88   84.89
  -1   6  -4 1312.27   84.69
   5  -6   4 1420.76   84.99
  -1  -5   4 1261.17   84.59
   6  -5  -4 1212.78   84.89
  -5  -1  -4 1208.18   84.89
  -5  -1  -4 1101.89   84.69
  -6   5  -4 1227.28   84.89
  -6   1   4 1085.49   84.69
  -5   6   4 1329.77   84.89
  -6   1   4 1300.97   84.89
  -1  -5   4 1258.17   84.59
   6  -1   4 1345.97   84.89
  -6   1   4 1201.18   84.79
  -1  -5   4 1271.37   84.49
   1  -6  -4 1087.19   84.69
   5   1  -4 1215.18   84.69
  -1  -5   4 1393.16   84.49
  -5  -1   4 1285.27   84.69
   6  -5   4 1241.98   84.99
   6  -1  -4 1366.36   84.59
  -6   5   4 1415.86   84.99
   5  -6  -4 1417.46   85.09
  -5   6  -4 1219.58   84.89
   5  -6  -4 1142.69   84.79
  -5  -1   4 1157.78   84.59
  -5   6  -4 1286.77   84.79
  -1   6   4 1232.48   84.79
   6  -5   4 1295.27   85.09
  -6   1  -4 1217.28   84.79
  -6   1  -4 1317.17   84.89
  -1   6   4 1252.37   84.59
   1  -6   4 1239.88   84.59
   5   1   4 1362.76   84.49
  -1   6   4 1227.28   84.79
  -5   6  -4 1271.77   84.89
  -1   6   4 1190.48   84.59
  -6   5   4 1141.79   84.79
  -1  -5  -4 1067.19   84.69
   5   1   4 1364.46   84.79
   5  -6  -4 1133.19   84.89
  -5   6  -4 1230.98   84.79
   6  -5   4 1202.48   84.79
  -1  -5  -4 1361.96   84.69
  -1  -5  -4 1231.18   84.69
   5   1   4 1285.47   84.49
   6  -1  -4 1366.06   84.69
   1  -6   4 1282.87   84.69
   6  -5   4 1119.99   84.79
  -6   1  -4 1231.58   84.79
   1   5  -4 1355.36   84.59
  -6   5   4 1072.89   84.89
  -6   5   4 1266.07   84.89
   5  -6  -4 1227.48   84.99
   1   5  -4 1265.07   84.59
   5   1   4 1256.47   84.79
   1  -6   4 1202.68   84.69
  -6   1  -4 1360.56   84.89
  -5  -1   4 1320.47   84.59
   1  -6   4 1052.99   84.59
   6  -6   4 3771.02  301.07
   6  -6   4 3968.70  301.17
   6  -6  -4 4312.57  301.17
   6   0  -4 3713.13  300.97
   0  -6   4 4317.07  300.87
   0  -6  -4 4088.59  301.07
   0   6  -4 4202.38  300.97
  -6   6   4 4891.51  301.37
   6  -6  -4 4160.48  301.27
   6   0   4 4133.49  301.07
  -6   0  -4 4330.57  301.07
   0  -6   4 4587.44  300.97
  -6   6   4 4326.07  301.17
   6  -6   4 4418.06  301.17
   0  -6   4 4554.64  300.97
   6  -6   4 4855.21  301.17
  -6   0  -4 4819.72  301.07
  -6   6  -4 4522.65  301.27
  -6   0   4 4727.63  301.07
  -6   0  -4 4198.48  301.07
  -6   0  -4 4210.18  301.07
  -6   6  -4 4559.34  301.27
  -6   0   4 4670.13  301.07
   6  -6  -4 5060.69  301.47
   6   0   4 4705.43  300.87
  -6   6   4 4177.58  301.17
   6   0  -4 4491.15  301.07
  -6   0   4 4825.72  301.07
   6  -6  -4 4624.14  301.17
   0  -6  -4 4947.80  301.07
   6   0   4 4648.44  301.17
   7  -4  -4 1254.17   78.69
  -7   4  -4 1239.98   78.69
  -7   4  -4 1065.99   78.59
  -7   4  -4 1104.79   78.49
   3   4   4 1175.38   78.29
  -4   7   4 1185.98   78.59
   4  -7   4 1026.00   78.49
  -3  -4   4 1193.78   78.09
   4  -7   4 1193.98   78.49
  -7   3   4 1243.88   78.59
   4  -7   4 1061.59   78.39
   3  -7  -4 1225.28   78.59
   4   3  -4 1165.58   78.19
   7  -3   4 1216.68   78.59
  -7   3   4 1252.07   78.59
   3  -7  -4 1164.08   78.59
  -4  -3  -4 1208.38   78.39
  -7   3   4 1194.88   78.59
   7  -4  -4 1083.49   78.49
   7  -4  -4 1117.99   78.49
   7  -3   4 1272.87   78.69
   7  -3   4 1072.89   78.49
  -7   4  -4 1243.58   78.59
  -3  -4   4 1230.98   78.09
   7  -4  -4 1222.98   78.59
  -3  -4   4 1164.98   78.09
  -7   3   4 1131.29   78.59
  -3   7  -4 1095.79   78.29
  -3   7  -4 1106.79   78.69
   4  -7   4 1073.39   78.59
  -4   7   4 1117.19   78.59
   3   4   4 1166.78   78.39
   3  -7  -4 1069.79   78.59
  -3  -4   4 1151.68   78.09
  -4  -3  -4 1040.50   78.29
  -3   7  -4 1002.40   78.59
  -4   7   4 1167.88   78.49
  -4  -3  -4 1188.48   78.39
  -4   7   4 1047.60   78.49
   3  -7  -4 1099.19   78.59
  -4  -3  -4 1220.18   78.39
   7  -3  -4 1172.78   78.39
  -7   4   4 1238.98   78.59
  -3  -4  -4 1063.89   78.29
   4   3   4 1182.18   78.39
  -3   7   4 1224.08   78.49
  -4  -3   4 1124.19   78.19
   7  -4   4 1232.78   78.69
  -3   7   4 1068.99   78.49
   3  -7   4 1142.59   78.49
  -4   7  -4 1135.19   78.39
  -4   7  -4 1097.19   78.59
  -7   3  -4 1169.28   78.69
   4  -7  -4 1096.69   78.49
   4  -7  -4 1216.48   78.69
  -7   3  -4 1158.08   78.49
   3   4  -4 1310.57   78.09
  -3   7   4 1097.09   78.39
   3  -7   4 1168.18   78.39
  -7   3  -4 1050.09   78.49
  -3  -4  -4 1037.60   78.29
   7  -4   4 1237.68   78.59
  -4  -3   4 1135.49   78.19
  -7   4   4 1163.28   78.59
   3  -7   4  991.60   78.49
  -3  -4  -4 1141.89   78.29
  -7   4   4 1096.09   78.59
  -3   7   4 1171.38   78.59
  -4  -3   4 1235.98   78.19
   7  -4   4 1151.18   78.59
  -4   7  -4 1045.40   78.39
   7  -3  -4 1242.48   78.69
  -7   3  -4 1145.09   78.49
   4   3   4 1204.18   78.39
   7  -4   4 1158.58   78.49
   7  -3  -4 1147.59   78.59
   4  -7  -4 1195.58   78.59
   3   4  -4 1259.67   78.09
  -4   7  -4 1163.38   78.59
  -7   4   4 1004.50   78.49
  -4  -3   4 1203.98   78.19
   7  -3  -4 1203.48   78.59
  -5   7   4   71.69    5.20
   7  -2   4   73.69    5.10
  -5   7   4   74.49    5.30
   7  -2   4   63.99    5.10
  -7   2   4   60.09    5.00
   5  -7   4   65.49    5.10
  -7   5  -4   74.69    5.30
   2  -7  -4   69.09    5.00
  -5  -2  -4   63.89    4.90
   7  -5  -4   73.79    5.40
   2   5   4   56.49    4.90
   5  -7   4   57.99    5.10
   2   5   4   66.79    4.90
  -2   7  -4   73.79    5.10
  -7   2   4   60.69    5.00
  -5  -2  -4   69.39    5.00
   7  -5  -4   69.99    5.10
  -2  -5   4   66.39    4.70
  -7   5  -4   76.59    5.20
   5   2  -4   62.29    4.80
   7  -5  -4   72.39    5.20
  -2   7  -4   65.69    4.70
  -7   5  -4   59.39    5.10
  -5   7   4   70.39    5.30
   5  -7   4   67.29    5.20
  -2  -5   4   66.29    4.70
  -7   2   4   58.39    5.10
   5  -7   4   77.09    5.20
  -2   7  -4   71.59    4.70
   2  -7  -4   65.59    5.10
   5   2  -4   65.49    4.80
  -2  -5   4   63.79    4.70
  -2   7  -4   61.29    5.00
  -2  -5   4   69.89    4.70
   7  -2   4   56.49    5.10
  -7   5  -4   69.69    5.10
  -7   2   4   59.79    5.10
   2  -7  -4   64.79    5.10
   7  -5  -4   69.29    5.10
  -5   7   4   64.69    5.00
  -2  -5  -4   65.39    4.90
  -5   7  -4   68.49    5.20
   2  -7   4   70.39    5.10
  -5  -2   4   67.29    4.80
   7  -5   4   66.59    5.10
   7  -2  -4   79.99    5.40
   2  -7   4   71.29    5.00
   7  -2  -4   64.39    5.00
  -7   2  -4   60.99    5.10
   7  -5   4   69.39    5.20
   2   5  -4   73.19    4.70
   5  -7  -4   73.59    5.30
   7  -2  -4   67.09    4.90
  -2   7   4   69.39    5.00
  -7   5   4   55.39    5.10
  -5  -2   4   65.19    4.80
  -2   7   4   73.59    5.20
  -5   7  -4   74.89    5.20
  -5  -2   4   57.99    4.80
  -2   7   4   69.09    4.90
  -5   7  -4   61.49    5.10
   2   5  -4   68.79    4.70
  -7   2  -4   72.09    5.10
   5  -7  -4   71.89    5.30
  -7   5   4   57.59    5.10
  -2  -5  -4   65.89    4.90
   2  -7   4   62.99    5.00
  -2  -5  -4   67.09    4.90
  -7   5   4   58.99    5.10
   5  -7  -4   75.69    5.20
  -7   2  -4   70.69    5.20
  -7   2  -4   74.29    5.10
  -2  -5  -4   71.59    4.90
   5  -7  -4   62.39    5.10
  -7   5   4   73.49    5.30
  -5   7  -4   66.89    5.00
   2  -7   4   69.69    5.00
   7  -5   4   57.79    5.10
   7  -5   4   65.29    5.10
  -5  -2   4   60.69    4.80
  -7   1   4  166.08   11.20
  -6  -1  -4  161.48   11.10
   1  -7  -4  149.88   11.10
  -6  -1  -4  173.58   11.30
   1  -7  -4  177.98   11.30
  -1  -6   4  154.98   10.90
   6  -7   4  157.58   11.30
  -7   1   4  158.28   11.20
   1   6   4  154.68   11.10
   6   1  -4  157.28   11.10
   7  -1   4  153.78   11.30
   7  -6  -4  170.58   11.30
  -7   1   4  139.39   11.20
  -6   7   4  147.69   11.30
   7  -1   4  144.59   11.10
  -6   7   4  160.98   11.30
  -1  -6   4  153.68   10.90
   1   6   4  171.48   11.30
   1  -7  -4  147.89   11.20
  -1  -6   4  139.99   10.90
   6  -7   4  157.58   11.40
  -6   7   4  170.08   11.60
  -7   1   4  154.18   11.20
  -6  -1  -4  144.79   11.10
   1  -7  -4  167.88   11.20
   7  -1   4  156.28   11.10
  -7   1  -4  162.18   11.30
  -1   7   4  152.88   10.80
   7  -1  -4  157.58   11.20
  -6  -1   4  160.18   11.10
   1  -7   4  167.18   11.10
  -1   7   4  148.59   11.20
  -1  -6  -4  131.89   11.00
  -7   1  -4  150.28   11.30
   1  -7   4  171.68   11.10
   6   1   4  157.88   11.20
  -1  -6  -4  179.48   11.20
   1   6  -4  165.38   10.90
  -7   1  -4  172.58   11.30
   7  -1  -4  160.28   11.00
  -6   7  -4  169.58   11.40
   6  -7  -4  133.39   11.40
   6  -7  -4  140.99   11.50
  -6   7  -4  172.18   11.30
  -1   7   4  168.38   10.80
  -6  -1   4  165.88   11.20
  -6  -1   4  165.58   11.10
   1   6  -4  166.78   10.90
   6   1   4  135.79   11.10
  -6  -1   4  154.48   11.10
  -7   1  -4  163.68   11.20
   7  -1  -4  149.19   11.20
  -1  -6  -4  144.89   11.00
  -7   7  -4  614.54   44.00
   0  -7  -4  713.03   43.90
   0  -7  -4  600.64   43.80
   7   0  -4  650.83   43.90
   0   7  -4  620.34   43.70
   0   7   4  640.74   43.80
  -7   0   4  629.04   43.80
  -7   0  -4  583.94   43.80
  -7   0   4  626.84   43.80
   0   7   4  603.54   43.80
  -7   7   4  595.34   43.90
  -7   0   4  677.43   43.80
  -7   7  -4  653.23   43.90
   7  -7   4  618.44   44.00
   7   0   4  666.73   43.60
   0  -7   4  637.04   43.70
  -7   0  -4  653.13   43.80
   0  -7   4  713.13   43.70
   7   0   4  677.23   43.90
   7  -7   4  538.05   44.00
  -7   0  -4  715.03   43.90
  -7   0  -4  646.64   43.90
   0  -7   4  669.63   43.70
   0  -7   4  571.04   43.60
  -7   0   4  648.14   43.80
   0  -7  -4  653.73   43.80
   7  -7  -4  639.94   44.00
   7   0   4  590.14   43.90
   7  -7  -4  649.14   44.10
  -7   7   4  614.04   44.00
   0  -7  -4  683.13   43.80
   0   7  -4  629.84   43.60
   7   0   4  700.83   43.70
  -8   4   4 3574.74  240.28
  -4   8   4 3506.35  240.28
  -4  -4  -4 3565.44  240.08
   4  -8   4 3150.28  240.28
  -8   4   4 3312.87  240.18
  -8   4   4 3362.16  240.28
   8  -4   4 3319.17  240.18
  -4   8   4 3659.83  240.38
   4   4   4 3732.53  240.08
   8  -4  -4 3646.44  240.38
   4  -8   4 3688.43  240.18
   8  -4  -4 3550.44  240.28
  -4   8  -4 3433.16  240.08
  -4  -4  -4 3682.33  239.98
  -4  -4  -4 3646.34  239.98
  -4   8  -4 3343.17  240.18
   8  -4  -4 3396.76  240.18
  -4   8  -4 3213.28  240.08
  -4   8   4 3765.02  240.18
   4  -8   4 3204.88  240.08
  -4  -4   4 3998.50  239.78
  -4  -4  -4 3682.73  240.08
   4   4   4 3957.30  240.08
   8  -4   4 3740.83  240.28
  -4   8  -4 3625.44  240.28
   4  -8   4 3224.48  240.18
   8  -4  -4 3692.23  240.18
   8  -3   4  167.18   11.50
  -8   3   4  161.48   11.50
   3  -8  -4  161.18   11.50
  -3   8  -4  147.29   11.40
  -8   3   4  156.18   11.40
  -3  -5   4  157.58   10.90
   3  -8  -4  151.18   11.40
  -5   8   4  160.28   11.40
  -5  -3  -4  146.49   11.20
   8  -3   4  170.38   11.60
  -8   3   4  160.38   11.50
  -8   5  -4  178.08   11.60
   3   5   4  164.98   11.20
   3  -8  -4  150.68   11.40
   5  -8   4  160.38   11.50
  -5  -3  -4  169.78   11.30
  -5  -3  -4  159.88   11.30
  -3  -5   4  179.18   11.00
  -5   8   4  168.78   11.40
   5  -8   4  147.39   11.40
  -3   8  -4  152.08   11.10
   3   5   4  146.39   11.20
  -5  -3  -4  150.08   11.20
   8  -5  -4  164.68   11.60
   8  -3   4  144.49   11.30
   3  -8  -4  167.88   11.40
  -8   5  -4  176.38   11.60
  -5   8   4  161.88   11.50
   5   3  -4  156.18   11.00
   5   3  -4  152.28   11.00
   3  -8   4  159.08   11.30
  -3  -5  -4  165.08   11.20
   5   3   4  175.78   11.40
   3  -8   4  156.88   11.40
  -3   8   4  163.38   11.50
   8  -3  -4  170.68   11.30
   5   3   4  151.28   11.20
  -3  -5  -4  154.28   11.20
   8  -5   4  152.68   11.40
  -5   8  -4  157.68   11.50
  -8   3  -4  159.98   11.50
  -3   8   4  167.68   11.50
  -3  -5  -4  178.58   11.30
  -8   3  -4  164.08   11.40
   3  -8   4  150.08   11.30
  -5  -3   4  156.18   11.00
   5  -8  -4  151.08   11.60
   8  -5   4  164.48   11.60
  -5   8  -4  156.28   11.50
  -3   8   4  169.58   11.30
  -5  -3   4  155.68   11.00
   8  -3  -4  158.18   11.30
   8  -5   4  158.68   11.50
  -5   8  -4  156.78   11.30
  -5  -3   4  157.48   11.00
   5  -8  -4  161.58   11.50
  -8   3  -4  143.59   11.40
  -5  -3   4  155.88   11.10
  -3  -5  -4  160.68   11.20
  -6  -2  -4  872.11   56.69
  -6   8   4  774.42   56.89
  -2  -6   4  844.72   56.39
   2  -8  -4  904.01   56.89
  -2   8  -4  891.81   56.79
   2  -8  -4  805.82   56.79
  -8   2   4  802.32   56.89
   6   2  -4  844.02   56.59
  -6  -2  -4  843.82   56.79
   8  -2   4  839.52   56.99
  -8   6  -4  865.01   56.89
  -6  -2  -4  771.32   56.69
  -6  -2  -4  773.62   56.69
  -2   8  -4  787.62   56.79
   2   6   4  767.52   56.59
  -8   2   4  846.92   56.89
   8  -6  -4  805.52   56.99
  -2  -6   4  896.71   56.49
   8  -6  -4  720.23   56.79
   6   2  -4  906.91   56.69
   8  -2   4  904.21   56.79
  -8   6  -4  861.21   56.99
   2  -8  -4  904.51   56.89
   2   6   4  878.01   56.69
   2  -8  -4  802.62   56.89
  -8   2   4  818.32   56.79
   8  -2   4  896.01   56.89
   8  -2   4  951.90   56.89
  -6   8   4  913.31   57.09
  -8   2  -4  748.73   56.89
  -2  -6  -4  812.12   56.59
  -8   2  -4  824.82   56.89
   6  -8  -4  794.92   56.89
   8  -2  -4  771.42   56.69
   8  -6   4  895.91   56.99
  -6  -2   4  870.81   56.59
  -2  -6  -4  782.12   56.69
  -8   2  -4  831.72   56.89
   6   2   4  775.52   56.69
   8  -2  -4  891.41   56.99
  -2   8   4  794.42   56.79
  -6  -2   4  772.32   56.59
   6   2   4  875.91   56.79
  -6  -2   4  830.02   56.59
  -8   6   4  839.52   56.99
   8  -6   4  839.12   57.09
   2  -8   4  903.41   56.79
  -6  -2   4  755.22   56.59
   8  -2  -4  770.92   56.59
  -6   8  -4  852.21   56.89
   6  -8  -4  865.21   57.09
  -2  -6  -4  781.22   56.59
  -2  -6  -4  760.62   56.59
   2  -8   4  839.02   56.79
  -2   8   4  831.82   56.49
   2  -8   4  884.81   56.79
  -2   8   4  836.72   56.89
   8  -2  -4  833.32   56.89
  -2   8   4  810.12   56.49
  -8   6   4  777.52   56.89
   2  -8   4  793.62   56.69
  -7  -1  -4   78.39    5.80
   8  -7  -4   73.19    6.00
  -1  -7   4   73.69    5.50
  -7  -1  -4   70.69    5.80
  -8   7  -4   75.09    5.90
   1  -8  -4   83.29    5.80
  -8   7  -4   79.49    6.00
   1  -8  -4   85.49    5.90
   7   1  -4   75.59    5.70
   8  -1   4   84.39    5.70
  -8   1   4   89.29    6.00
  -1   8  -4   80.29    5.70
   8  -1   4   77.29    5.70
  -7  -1  -4   87.69    5.90
  -8   1   4   72.89    5.90
   7  -8   4   77.99    6.10
   1  -8  -4   75.39    5.80
  -7   8   4   87.19    6.10
  -7   8   4   76.59    5.90
   8  -7  -4   85.09    6.00
  -8   1   4   79.19    5.80
  -1   8  -4   74.19    5.70
  -1  -7   4   78.49    5.60
   8  -1   4   75.29    5.90
  -1  -7   4   81.49    5.50
  -7  -1  -4   79.39    5.80
  -8   1   4   78.59    5.90
   8  -1   4   77.89    5.90
  -8   7   4   82.59    6.10
  -1   8   4   75.99    5.80
   1   7  -4   84.49    5.50
   7   1   4   77.29    5.80
   1   7  -4   70.19    5.50
   1  -8   4   77.39    5.70
   8  -1  -4   84.09    5.50
   8  -1  -4   72.19    5.40
  -1  -7  -4   66.29    5.70
   8  -1  -4   91.49    6.10
  -7   8  -4   81.39    6.00
  -8   1  -4   83.19    5.90
   1  -8   4   71.99    5.70
   1  -8   4   71.39    5.70
   7  -8  -4   72.49    5.90
   7  -8  -4   80.29    6.10
   1  -8   4   67.99    5.70
   8  -7   4   68.09    6.00
  -1   8   4   73.09    5.80
  -7  -1   4   75.49    5.70
  -7  -1   4   81.79    5.80
   7   1   4   64.79    5.70
  -8   7   4   71.99    5.90
  -7   8  -4   70.59    5.80
   8  -1  -4   84.09    5.90
  -8   1  -4   82.99    6.00
  -8   1  -4   79.19    5.90
   8   0   4 2292.27  161.78
   0  -8  -4 2420.66  161.68
  -8   0  -4 2440.86  161.88
   0   8   4 2441.66  161.68
   0   8   4 2204.98  161.68
  -8   8   4 2067.79  161.78
   8   0  -4 2493.75  161.68
  -8   0   4 2454.35  161.78
   0  -8  -4 2655.33  161.88
  -8   0   4 2209.88  161.68
   8  -8   4 2561.74  162.18
  -8   8   4 2291.17  161.88
  -8   8  -4 2389.56  161.98
   8  -8   4 2246.28  161.88
   8   0   4 2455.25  161.78
   8   0  -4 2235.18  161.68
   8  -8  -4 2178.88  161.98
   0  -8   4 2427.76  161.48
  -8   0  -4 2586.94  161.78
  -8   0  -4 2263.47  161.78
  -8   0   4 2458.25  161.68
  -8   0   4 2453.05  161.78
  -8   8  -4 2465.95  161.88
   0  -8  -4 2410.86  161.68
   0  -8  -4 2470.15  161.68
   9  -5  -4  418.66   27.80
   4   5   4  391.56   27.50
  -4   9  -4  374.26   27.50
   9  -5  -4  336.67   27.80
  -9   4   4  410.46   27.80
   4  -9  -4  382.46   27.80
   9  -4   4  367.06   27.90
  -4   9  -4  405.56   27.80
   9  -4   4  383.96   27.70
   9  -5  -4  407.96   27.80
  -9   5  -4  411.86   27.80
  -5  -4  -4  421.66   27.60
   4  -9  -4  407.16   27.90
  -5   9   4  362.66   27.60
  -5  -4  -4  381.46   27.50
  -4   9  -4  416.36   27.90
   4   5   4  409.86   27.50
  -9   4   4  411.96   27.80
  -9   5  -4  405.96   27.90
  -5  -4  -4  365.66   27.50
  -4   9  -4  402.36   27.50
   9  -4   4  406.36   27.80
  -5  -4  -4  410.66   27.50
   9  -5   4  410.76   28.00
   4  -9   4  431.86   27.80
  -9   4  -4  433.36   27.90
   4  -9   4  392.26   27.80
   5  -9  -4  428.76   27.90
   9  -4  -4  394.16   27.70
   5  -9  -4  406.76   27.90
  -9   5   4  371.26   27.80
  -4  -5  -4  442.76   27.60
   4  -9   4  432.16   27.80
  -4   9   4  373.86   27.60
   9  -5   4  409.66   27.80
   9  -4  -4  383.56   27.70
  -5  -4   4  414.86   27.40
  -5   9  -4  399.06   27.60
  -5   9  -4  395.96   27.60
  -4   9   4  359.86   27.60
   5   4   4  396.36   27.50
   5   4   4  414.76   27.50
  -9   5   4  411.46   27.90
  -9   4  -4  427.86   27.80
  -4   9   4  400.46   27.80
   9  -3   4    0.90    0.40
   9  -6  -4    0.30    0.20
   3  -9  -4    0.50    0.30
  -3   9  -4    0.60    0.30
   3  -9  -4    1.10    0.40
   9  -3   4    0.30    0.30
  -6   9   4    0.80    0.40
  -6   9   4    3.00    0.80
   9  -3   4    0.40    0.30
   3  -9  -4    0.50    0.30
   9  -6  -4    0.30    0.30
  -9   6  -4    0.60    0.40
  -9   6  -4    0.70    0.40
  -6  -3  -4    0.50    0.30
  -9   3  -4    0.80    0.40
   9  -3  -4    0.70    0.30
   9  -3  -4    0.40    0.30
   3  -9   4    0.50    0.30
   6  -9  -4    0.60    0.40
   6  -9  -4    1.10    0.50
  -9   6   4    0.40    0.40
  -3   9   4    0.70    0.40
  -9   3  -4    2.00    0.60
   9  -6   4    0.90    0.50
   3  -9   4    0.90    0.40
  -6   9  -4    0.20    0.30
  -6  -3   4    1.80    0.40
   3  -9   4    0.90    0.40
  -3   9   4    1.80    0.60
   9  -6   4    0.50    0.40
  -9   6   4    0.90    0.40
  -6   9  -4    0.60    0.40
  -3   9   4    0.80    0.30
  -9   7  -4  135.69    9.50
   9  -7  -4  135.99    9.60
  -2   9  -4  123.29    9.20
  -9   2   4  120.39    9.30
   7  -9   4  133.79    9.60
  -9   2   4  139.29    9.50
   2  -9  -4  146.59    9.50
  -7  -2  -4  121.59    9.20
  -9   7  -4  135.39    9.40
   7  -9   4  132.89    9.50
  -7  -2  -4  122.49    9.20
  -7   9   4  125.19    9.30
  -7  -2  -4  128.89    9.20
   9  -7  -4  132.99    9.40
  -7   9   4  118.19    9.40
   2  -9  -4  127.89    9.30
  -9   2   4  134.69    9.50
  -7  -2  -4  117.89    9.20
  -2   9  -4  136.39    9.40
   9  -2   4  114.99    9.20
   2  -9  -4  116.89    9.30
   2  -9   4  130.99    9.30
   9  -2  -4  124.59    9.10
  -2  -7  -4  122.79    9.10
  -9   7   4  129.79    9.40
   7   2   4  134.29    9.30
   9  -7   4  129.59    9.50
  -7  -2   4  129.49    9.10
  -7   9  -4  113.09    9.30
  -7   9  -4  106.69    9.20
   2  -9   4  134.59    9.20
   7   2   4  145.79    9.40
  -9   7   4  123.69    9.40
   9  -7   4  121.39    9.40
  -2   9   4  144.49    9.40
  -2   9   4  132.09    9.40
   9  -2  -4  111.89    9.30
   7  -9  -4  121.39    9.50
   9  -2  -4  134.59    9.50
   2  -9   4  132.89    9.30
   7  -9  -4  132.09    9.50
   2  -9   4  127.69    9.30
  -9   8  -4  430.26   28.10
  -9   1   4  421.96   28.00
  -8   9   4  421.76   28.10
   9  -8  -4  336.17   27.90
  -8  -1  -4  378.46   27.90
   1  -9  -4  459.85   28.10
  -9   1   4  382.36   27.90
   8  -9   4  396.46   28.00
  -8  -1  -4  424.86   27.90
   8  -9   4  414.66   28.20
  -8   9   4  382.46   27.90
  -9   1   4  414.36   27.90
   9  -1   4  379.46   28.00
   1  -9  -4  430.26   28.00
  -8  -1  -4  422.66   27.90
   1  -9  -4  421.46   27.90
   9  -1   4  364.06   28.00
  -9   8  -4  388.26   27.90
   9  -1  -4  422.66   27.90
   8   1   4  392.06   27.90
   8  -9  -4  384.66   28.00
  -8   9  -4  366.76   27.90
  -9   1  -4  399.46   27.90
  -8   9  -4  403.86   28.10
  -9   8   4  371.06   28.00
   9  -1  -4  396.16   28.00
   8   1   4  403.26   27.90
   8  -9  -4  412.06   28.10
  -9   1  -4  422.06   28.00
  -9   8   4  379.96   28.00
  -1   9   4  427.56   27.90
   1  -9   4  366.56   27.70
  -8  -1   4  409.56   27.80
   9  -8   4  393.86   28.10
  -1  -8  -4  425.56   27.80
  -1   9   4  428.76   27.90
  -9   1  -4  417.46   28.00
  -9   9  -4   24.90    2.30
  -9   0  -4   23.10    2.10
   9   0   4   22.10    2.10
   9  -9   4   21.40    2.20
   0  -9  -4   23.80    2.10
  -9   9   4   20.10    2.10
   9   0   4   21.00    2.10
  -9   0  -4   18.90    2.10
   9  -9  -4   19.30    2.30
   9  -9   4   22.60    2.30
  -9   9   4   20.10    2.20
  -9   9  -4   20.50    2.10
  -9   0  -4   20.50    2.10
 -10   5   4   85.99    7.10
  -5  10   4   84.99    6.70
 -10   5  -4   94.89    6.90
  -5  10   4   92.09    6.80
  10  -5   4   80.89    6.90
 -10   5  -4   95.29    7.00
  10  -5   4   86.69    6.80
  -5  10  -4   92.49    6.90
  10  -5  -4   93.49    6.90
   5 -10  -4   95.99    7.00
   5 -10  -4   90.69    6.90
  10  -5  -4   93.09    6.80
  -5  10  -4   90.59    6.70
   5 -10   4  106.79    7.10
 -10   5   4   87.49    6.90
  -5  10   4   83.09    6.90
   5 -10   4   88.49    6.90
  -6  10   4 1164.28   80.29
   4 -10  -4 1246.08   80.29
  10  -4   4 1196.78   80.09
  -4  10  -4 1093.09   80.09
  10  -6  -4 1135.79   80.29
 -10   6  -4 1154.98   80.29
   4 -10  -4 1232.28   80.29
   6 -10   4 1005.60   80.19
  -6  10   4 1012.80   79.99
  -6  10   4 1278.57   80.19
 -10   6  -4 1279.07   80.19
  10  -4   4 1172.98   80.29
 -10   4   4 1172.48   80.19
  10  -4   4 1225.18   80.19
   6 -10   4 1187.88   80.19
  -6  10  -4 1120.19   79.99
  10  -6   4 1303.27   80.59
 -10   4  -4 1189.18   80.29
  -4  10   4 1115.99   80.19
   4 -10   4 1217.48   80.29
  10  -6   4 1123.89   80.09
   6 -10  -4 1071.59   80.29
  10  -4  -4 1134.49   80.29
 -10   6   4 1240.88   80.29
  -4  10   4 1299.07   79.99
  10  -4  -4 1203.58   79.99
   6 -10  -4 1106.39   80.19
 -10   4  -4 1030.60   80.09
 -10   6   4 1271.17   80.29
  -6  10  -4 1241.38   80.29
   7 -10   4  250.27   18.00
  -7  -3  -4  248.18   17.70
 -10   7  -4  261.67   18.10
  -7  10   4  267.57   18.10
   7 -10   4  268.27   18.10
 -10   3   4  285.87   18.00
  -7  10   4  213.48   17.80
  -3  10  -4  277.27   17.90
  10  -7  -4  232.98   18.00
  10  -3   4  260.07   18.10
 -10   3   4  235.08   17.90
  10  -7  -4  245.18   17.90
 -10   7  -4  255.57   17.90
   3 -10  -4  259.17   18.00
  10  -3   4  267.47   17.90
 -10   7   4  249.78   18.00
   7 -10  -4  262.87   18.10
   3 -10   4  252.97   17.80
  10  -7   4  276.57   18.20
  10  -3  -4  227.38   18.00
  -3  10   4  236.88   17.90
   7 -10  -4  221.58   17.90
   3 -10   4  273.27   18.00
  -7  10  -4  259.17   18.00
 -10   7   4  252.57   18.00
   3 -10   4  244.28   17.90
  10  -7   4  244.88   17.90
  -7  10  -4  265.57   17.90
 -10   3  -4  271.17   18.00
 -10   3  -4  244.68   18.00
  10  -2   4 1593.64  111.19
  -8  10   4 1636.84  111.19
   8 -10   4 1432.46  111.09
 -10   2   4 1712.23  111.09
  -8  10   4 1670.13  111.09
   8 -10   4 1698.03  111.29
   8 -10  -4 1638.64  111.29
  -8  10  -4 1450.25  111.09
 -10   2  -4 1583.24  111.09
   8 -10  -4 1474.45  111.19
 -10   2  -4 1822.02  111.29
  10  -2  -4 1781.32  111.69
  -8  10  -4 1720.23  111.09
   0   0   5    2.00    0.40
   0   0   5    1.40    0.40
  -1   1   5   17.60    1.40
   1  -1  -5   17.60    1.40
   0   1   5   16.30    1.40
  -1   1   5   14.40    1.40
  -1   0  -5   14.70    1.40
   0  -1  -5   14.40    1.40
   1  -1   5   17.70    1.40
  -1   1   5   12.80    1.30
   0  -1   5   13.50    1.30
   1  -1  -5   13.50    1.40
   1  -1   5   17.70    1.50
  -1   0  -5   16.40    1.40
   0  -1   5   15.30    1.40
   1  -1   5   19.00    1.40
   0  -1  -5   16.60    1.40
   0  -1  -5   17.80    1.40
  -1   0   5   19.70    1.50
   0   1   5   15.20    1.30
   0   1   5   17.00    1.40
  -1   1  -5   13.90    1.30
   0  -1  -5   13.70    1.40
   0   1  -5   14.60    1.30
   0   1   5   16.60    1.40
   1   0  -5   14.10    1.30
   1   0   5   16.50    1.40
  -1   0   5   17.00    1.40
   1  -1  -5   17.80    1.40
  -1   1   5   14.50    1.40
   0  -1   5   12.40    1.30
   0   1  -5   12.10    1.30
   0  -1   5   13.90    1.40
   1   0  -5   13.40    1.40
  -1   1  -5   18.20    1.40
   1   0   5   17.80    1.50
  -1   0  -5   12.70    1.30
   1   0   5   17.80    1.40
   1   0   5   13.30    1.30
  -1   1  -5   15.50    1.40
  -1   2  -5    0.60    0.30
  -1  -1   5    0.00    0.10
   2  -1  -5    1.20    0.30
  -2   1  -5    0.20    0.20
  -1   2   5    0.40    0.30
   1   1   5    0.00    0.10
  -1   2   5    0.70    0.30
  -1  -1  -5    0.30    0.20
  -1   2   5    0.50    0.20
   2  -1  -5    0.10    0.10
  -1   2   5    0.10    0.20
   1   1   5    0.10    0.10
  -1  -1   5    0.30    0.20
   1  -2   5    0.10    0.20
  -1   2  -5    0.00    0.10
  -2   1  -5    0.20    0.20
  -2   1   5    0.20    0.20
  -2   1  -5    0.30    0.20
   1  -2   5    0.00    0.10
  -1  -1  -5    0.00    0.10
   1  -2  -5    0.40    0.20
   1  -2  -5    0.00    0.20
   1  -2  -5    0.10    0.10
   1   1   5    0.30    0.20
  -1  -1  -5    0.00    0.20
  -1   2  -5    0.10    0.20
   2  -1   5    0.00    0.20
  -2   1   5    0.10    0.20
   2  -1   5    0.20    0.20
   2  -1  -5    0.20    0.20
   1   1  -5    0.10    0.10
  -2   1  -5    0.10    0.20
   2  -1   5    0.00    0.20
   1  -2  -5    0.00    0.20
   2  -1  -5    0.00    0.20
  -1  -1   5    0.60    0.20
  -1  -1  -5    1.00    0.30
   1   1  -5    0.20    0.20
   1   1   5    0.30    0.20
   1   1  -5    0.10    0.10
  -1   2  -5    0.40    0.20
   1  -2   5    0.10    0.20
   1  -2   5    0.10    0.10
   0   2   5  340.47   23.00
   2  -2   5  367.86   23.30
   0   2  -5  297.47   23.00
  -2   0  -5  315.07   23.10
  -2   0   5  387.26   23.20
  -2   0  -5  373.36   23.10
  -2   0  -5  360.66   23.10
   2   0  -5  366.46   23.00
  -2   2  -5  305.27   23.10
  -2   0   5  327.77   23.10
  -2   0  -5  352.66   23.10
   0  -2   5  369.06   23.00
   2   0  -5  295.27   23.00
   0  -2  -5  316.67   23.10
   0   2  -5  301.27   22.90
   2   0   5  293.87   23.00
   0  -2  -5  293.27   23.10
   0  -2  -5  357.96   23.10
   0   2  -5  324.67   23.00
  -2   0   5  337.77   23.10
   0   2   5  368.46   23.10
   0   2   5  356.36   23.10
   2   0  -5  339.17   23.00
   2   0   5  303.57   23.10
   2  -2   5  339.17   23.10
   2  -2  -5  344.37   23.10
   0   2  -5  307.77   23.00
   0  -2   5  357.46   23.00
   0  -2  -5  341.37   23.10
   2   0   5  341.27   23.00
   0  -2   5  340.07   23.10
  -2   0   5  319.47   23.00
   2   0  -5  387.76   23.20
  -2   2  -5  296.47   23.00
   1   2   5  220.58   16.60
  -1  -2   5  245.68   16.60
  -1  -2   5  217.18   16.60
  -1   3  -5  215.88   16.50
  -3   2  -5  207.48   16.60
   1   2   5  202.48   16.50
   2   1  -5  265.37   16.50
  -2  -1  -5  258.37   16.70
  -2   3   5  267.27   16.80
  -3   2  -5  242.38   16.60
  -1   3  -5  245.98   16.50
  -1   3  -5  257.27   16.70
  -2   3   5  264.57   16.70
  -3   1   5  245.88   16.70
  -3   2  -5  217.28   16.60
   3  -2  -5  213.28   16.70
  -3   2  -5  243.28   16.60
   1   2   5  226.28   16.70
   1   2   5  263.57   16.60
  -1  -2   5  248.38   16.60
  -1  -2   5  231.98   16.50
  -2  -1  -5  246.08   16.70
   2   1  -5  259.57   16.50
   3  -1   5  229.98   16.60
   3  -2  -5  237.38   16.70
   2   1  -5  201.78   16.50
   2  -3  -5  244.28   16.70
   1   2  -5  245.88   16.40
   2   1   5  268.47   16.70
   3  -1  -5  261.77   16.60
   1  -3   5  214.08   16.60
   1  -3   5  220.08   16.60
   1   2  -5  259.37   16.60
  -1  -2  -5  240.88   16.60
   2  -3  -5  260.57   16.70
   2  -3  -5  255.07   16.70
  -1   3   5  229.98   16.60
  -1  -2  -5  239.38   16.70
  -2  -1   5  247.78   16.60
   1  -3   5  222.98   16.50
  -3   2   5  234.48   16.70
  -2  -1   5  239.08   16.60
   1   2  -5  263.37   16.50
  -3   1  -5  225.58   16.60
   2  -3  -5  233.48   16.60
   1  -3   5  253.27   16.70
   2   1   5  245.08   16.60
   2   1   5  245.48   16.60
  -2  -1   5  233.28   16.50
  -2  -1   5  257.37   16.60
   2   1   5  231.38   16.70
  -3   2   5  265.17   16.70
   3  -2   5  228.18   16.70
   3  -2   5  231.38   16.80
   1   2  -5  252.57   16.60
  -3   3  -5   38.30    3.20
   3  -3   5   38.90    3.30
   3  -3   5   40.90    3.30
   3   0  -5   45.60    3.10
  -3   0   5   39.30    3.20
   3  -3  -5   38.90    3.20
   0  -3  -5   39.50    3.20
  -3   3   5   43.90    3.30
   0  -3   5   44.60    3.10
  -3   3   5   35.40    3.20
  -3   0   5   45.00    3.20
  -3   0  -5   40.80    3.20
   0   3   5   44.10    3.30
   0  -3   5   39.50    3.20
   0   3   5   39.00    3.10
   0   3  -5   43.90    3.00
   3   0  -5   45.50    3.20
   3   0  -5   45.70    3.20
  -3   0   5   40.30    3.20
   0  -3  -5   42.20    3.20
  -3   0   5   44.20    3.20
   0   3  -5   43.60    3.20
  -3   3   5   37.00    3.20
  -3   3  -5   44.10    3.20
  -3   3  -5   40.70    3.30
   3  -3   5   38.30    3.20
  -3   3  -5   49.10    3.30
   0  -3   5   34.80    3.10
  -3   3   5   47.20    3.30
   3  -3  -5   40.40    3.20
   0   3   5   43.70    3.20
   3   0   5   39.20    3.20
   3   0  -5   44.90    3.10
  -4   2   5    0.20    0.20
  -4   2   5    0.10    0.10
   4  -2  -5    0.20    0.20
   2   2   5    0.10    0.10
  -2   4  -5    0.50    0.30
  -4   2  -5    0.90    0.40
  -2  -2   5    0.10    0.10
  -2  -2   5    0.90    0.20
  -2   4   5    0.10    0.20
  -4   2  -5    0.30    0.20
   2  -4  -5    0.30    0.30
  -2  -2  -5   -0.10    0.10
   2   2   5    0.70    0.20
  -2  -2  -5    0.00    0.10
  -4   2  -5    0.10    0.10
  -2  -2   5    0.10    0.10
   2  -4   5    0.10    0.20
   2   2   5    0.20    0.20
   4  -2   5    0.50    0.30
   2   2   5    0.10    0.20
  -2   4  -5    0.20    0.20
   2   2  -5    0.00    0.10
   2   2  -5    0.10    0.10
  -2  -2  -5    0.00    0.10
   2  -4  -5    0.10    0.20
  -4   2  -5    0.10    0.20
   2  -4   5    0.40    0.20
   4  -2   5    0.60    0.30
   2  -4   5    0.20    0.20
  -4   2   5    0.20    0.20
  -4   2   5    0.30    0.20
   4  -2  -5    1.00    0.40
   4  -2  -5    1.30    0.40
   4  -2   5    0.60    0.30
   2  -4  -5    0.10    0.10
  -2  -2   5    0.50    0.20
  -2   4   5    0.30    0.20
   2  -4  -5    0.20    0.20
   4  -2   5    0.10    0.20
  -4   1   5  378.96   23.90
  -1   4  -5  384.16   23.80
   3  -4   5  346.57   23.90
   4  -1   5  396.26   23.90
  -1  -3   5  348.67   23.70
   4  -3  -5  311.77   23.90
   4  -1   5  353.86   24.00
   1   3   5  311.37   23.80
   4  -1   5  395.46   24.10
   1   3   5  327.87   23.90
  -1  -3   5  328.67   23.80
  -4   3  -5  322.87   24.00
  -3   4   5  303.17   23.90
   4  -3  -5  381.46   24.00
   4  -3  -5  348.77   24.00
   4  -3  -5  375.86   24.10
  -1   4  -5  351.76   23.70
   1  -4  -5  306.27   23.90
  -1  -3   5  378.26   23.90
   1  -4  -5  392.66   24.00
   3   1  -5  359.36   23.60
  -3  -1  -5  300.37   23.80
   1   3   5  385.06   23.80
  -4   3  -5  295.47   23.90
   3  -4   5  331.47   23.90
   3   1  -5  346.87   23.60
   3  -4   5  350.56   23.90
   3   1  -5  387.86   24.00
  -3  -1  -5  343.97   23.80
  -4   1   5  314.57   23.80
  -1   4  -5  333.47   23.80
  -3   4   5  328.47   24.00
   3  -4   5  315.97   23.90
  -3   4   5  348.77   23.90
   1  -4  -5  339.57   23.90
   3   1  -5  357.66   23.80
  -3   4   5  345.27   24.00
   1   3   5  333.37   23.70
  -4   3  -5  331.87   23.90
  -3  -1   5  347.47   23.80
  -1   4   5  338.87   23.90
  -1  -3  -5  368.76   23.90
   3  -4  -5  323.67   24.00
   4  -3   5  356.06   23.90
  -4   1  -5  387.66   24.00
   3  -4  -5  380.26   24.00
  -4   1  -5  358.56   24.00
  -3   4  -5  312.47   23.90
  -1   4   5  340.07   23.80
   1   3  -5  327.87   23.80
  -1   4   5  393.66   24.00
  -4   3   5  372.26   24.00
   3  -4  -5  317.07   23.90
  -3   4  -5  343.17   23.80
  -3  -1   5  338.97   23.90
   4  -1  -5  320.37   23.90
  -1  -3  -5  350.46   23.90
  -1  -3  -5  361.06   23.90
  -4   3   5  376.06   24.00
  -4   1  -5  346.67   23.90
   1  -4   5  375.56   23.90
  -3  -1   5  371.56   23.80
   3   1   5  354.16   23.80
  -4   3   5  345.17   24.00
  -3  -1   5  295.87   23.80
  -3   4  -5  361.96   24.00
  -3   4  -5  302.67   23.80
  -4   3   5  358.26   23.90
  -4   1  -5  385.56   24.00
   1  -4   5  303.37   23.80
  -4   4  -5  701.33   51.39
   0  -4   5  678.43   51.29
   0   4  -5  740.73   51.29
  -4   0  -5  799.82   51.39
  -4   0  -5  824.22   51.49
   4  -4   5  751.72   51.49
   4   0  -5  752.62   51.19
  -4   0   5  766.02   51.29
   0  -4   5  751.02   51.29
   4  -4  -5  853.01   51.59
   4  -4  -5  734.73   51.49
   4  -4  -5  725.73   51.39
   4  -4   5  735.83   51.39
   4   0   5  663.73   51.39
  -4   4   5  784.02   51.49
   0  -4   5  655.93   51.29
  -4   0   5  776.52   51.39
   0   4  -5  743.83   51.09
   4   0   5  778.72   51.29
   0   4   5  695.63   51.29
  -4   4  -5  798.82   51.49
   0  -4  -5  797.42   51.39
  -4   0  -5  851.11   51.49
  -4   0  -5  759.02   51.39
  -4   4  -5  793.12   51.49
   0  -4   5  730.43   51.19
   4  -4   5  767.22   51.49
  -4   0   5  708.53   51.29
   4   0  -5  746.63   51.39
   3  -5   5  490.35   31.80
   5  -2   5  459.85   31.90
  -5   2   5  456.65   31.90
   5  -2   5  443.46   31.90
   2  -5  -5  491.25   31.90
   2  -5  -5  464.15   31.90
   2  -5  -5  430.76   31.90
   2  -5  -5  502.65   31.90
  -5   2   5  448.46   31.90
  -5   2   5  461.15   31.90
   5  -3  -5  466.45   31.80
  -2  -3   5  469.85   31.60
   2   3   5  482.65   31.60
  -2  -3   5  479.05   31.70
  -3   5   5  463.85   32.00
  -2   5  -5  402.26   31.80
   5  -3  -5  486.95   31.90
   3  -5   5  419.26   31.80
  -3   5   5  461.55   31.90
  -2   5  -5  419.66   31.70
   5  -2   5  480.15   31.80
  -5   2   5  474.75   31.90
   3   2  -5  469.45   31.70
   3  -5   5  516.85   31.90
   5  -2   5  489.35   32.00
   5  -3  -5  428.16   31.90
  -5   3  -5  467.05   31.90
   3  -5   5  454.15   31.90
  -2  -3   5  495.95   31.70
   3   2  -5  407.56   31.70
  -5   3  -5  489.55   31.90
   2   3   5  440.06   31.60
  -2  -3   5  456.55   31.70
  -3  -2  -5  426.76   31.70
  -5   3  -5  495.45   32.00
  -3   5   5  496.25   31.90
  -2   5  -5  454.35   31.80
  -3   5   5  459.15   31.90
   5  -3  -5  479.95   32.00
   3  -5  -5  407.46   31.80
  -3   5  -5  505.45   31.90
   3   2   5  408.66   31.60
  -3  -2   5  481.75   31.70
  -2  -3  -5  480.95   31.80
   5  -2  -5  507.25   32.00
  -5   3   5  450.85   31.90
  -5   2  -5  490.35   32.00
  -3  -2   5  460.75   31.70
  -5   2  -5  425.16   31.80
  -5   2  -5  456.65   31.80
   5  -3   5  466.65   31.90
   3  -5  -5  480.35   32.00
  -3  -2   5  418.06   31.70
   5  -3   5  420.16   31.80
  -2   5   5  509.85   31.80
  -2   5   5  478.15   31.90
   5  -2  -5  446.96   31.80
  -3  -2   5  401.26   31.60
  -5   2  -5  478.05   31.90
  -5   3   5  478.95   32.00
   2  -5   5  488.15   31.80
   5  -3   5  458.65   32.00
  -3   5  -5  414.56   31.70
   5  -3   5  497.45   32.00
   2  -5   5  449.86   31.80
   2  -5   5  463.45   31.90
  -3   5  -5  479.75   31.90
  -5   3   5  520.05   31.90
   3  -5  -5  515.35   31.90
   5  -2  -5  454.45   31.90
  -5   3   5  492.95   31.90
   2   3  -5  489.45   31.70
  -2  -3  -5  465.95   31.80
   2   3  -5  489.15   31.70
   2  -5   5  440.96   31.80
  -2  -3  -5  394.16   31.80
   3   2   5  499.65   31.60
   4  -5   5  172.88   12.20
   5  -4  -5  179.18   12.10
   1  -5  -5  185.88   12.10
   5  -1   5  195.88   12.20
   4  -5   5  145.69   12.00
   1  -5  -5  173.68   12.00
  -4   5   5  199.68   12.20
   1  -5  -5  176.48   12.00
  -5   1   5  154.18   12.00
  -4   5   5  155.08   12.00
  -1   5  -5  160.68   11.80
   4   1  -5  186.28   12.00
   4  -5   5  160.48   12.00
   4  -5   5  171.58   12.10
   1  -5  -5  197.38   12.20
   4   1  -5  147.89   11.90
  -5   1   5  173.68   12.10
   1   4   5  149.19   11.70
  -5   1   5  174.58   12.00
  -5   4  -5  174.78   12.10
  -4   5   5  177.98   12.10
  -5   1   5  181.98   12.00
   5  -4  -5  187.58   12.10
   5  -1   5  155.88   11.90
   5  -1   5  180.08   12.20
   1   4   5  164.88   11.80
  -4   5   5  169.08   12.20
  -4  -1  -5  180.78   12.10
  -1   5  -5  182.68   11.80
  -1  -4   5  189.08   11.90
  -1  -4   5  183.48   11.90
  -1  -4   5  178.58   11.90
  -4  -1  -5  161.98   11.90
  -5   4  -5  166.98   12.10
  -4  -1  -5  178.28   12.00
  -5   1  -5  164.08   12.00
   5  -4   5  169.98   12.10
  -4   5  -5  153.98   12.00
   4  -5  -5  174.38   12.10
   4  -5  -5  168.28   12.20
  -1  -4  -5  167.88   12.00
  -4  -1   5  161.08   11.90
  -4   5  -5  162.88   12.10
   4   1   5  155.98   12.00
   1  -5   5  195.88   12.00
   5  -1  -5  167.48   12.00
  -1   5   5  194.68   12.10
   4   1   5  173.48   12.00
  -5   4   5  173.28   12.10
   1  -5   5  157.38   11.90
  -5   1  -5  168.68   12.10
   4   1   5  167.18   11.90
  -5   1  -5  169.78   12.10
  -5   4   5  148.09   12.00
   1   4  -5  186.08   11.90
   5  -4   5  162.88   12.00
  -1   5   5  147.79   12.00
  -1   5   5  177.18   11.90
   5  -1  -5  168.68   11.90
   5  -1  -5  167.98   12.00
  -4   5  -5  169.78   12.10
  -5   1  -5  167.48   12.00
  -1  -4  -5  151.98   11.90
  -4  -1   5  172.78   11.90
   4  -5  -5  182.68   12.20
   1   4  -5  167.88   11.90
  -5   4   5  174.48   12.10
  -1   5   5  164.48   11.90
  -5   0  -5  282.87   17.80
   5  -5   5  246.48   17.80
   0   5  -5  248.28   17.60
  -5   5  -5  277.97   17.80
   5  -5  -5  209.38   17.70
   5  -5   5  258.97   17.80
  -5   5   5  268.97   17.80
   0  -5  -5  226.28   17.70
   5  -5   5  259.97   17.90
   0   5   5  230.08   17.70
   0   5   5  234.08   17.50
   5   0   5  246.68   17.60
  -5   0  -5  262.37   17.70
   5  -5  -5  281.57   17.80
   0  -5   5  235.78   17.60
   0  -5   5  262.17   17.60
   0  -5   5  270.67   17.60
   5  -5  -5  284.37   18.00
   5   0   5  251.47   17.80
   0   5  -5  259.27   17.60
  -5   5  -5  266.57   17.90
   0   5   5  245.58   17.50
  -5   0   5  257.77   17.70
   5   0   5  282.17   17.80
  -5   5  -5  261.17   17.80
   0  -5  -5  256.47   17.70
  -5   0  -5  223.08   17.70
   5   0  -5  272.07   17.50
   5   0  -5  262.47   17.50
  -5   0  -5  248.88   17.70
  -5   5   5  237.08   17.80
  -5   5  -5  241.28   17.80
   5  -5  -5  266.67   17.90
   0  -5  -5  254.27   17.70
   6  -3  -5    0.60    0.30
  -6   3  -5   -0.10    0.20
   3   3   5    0.20    0.10
   3  -6  -5    0.00    0.20
  -3   6   5    0.00    0.20
   3  -6  -5    0.30    0.30
   3   3  -5    0.50    0.20
   6  -3   5    0.10    0.20
   3  -6   5    0.30    0.30
   3  -6   5    0.10    0.20
  -3   6   5    0.30    0.20
  -6   3  -5    0.10    0.30
   6  -3   5    0.00    0.20
  -6   3   5    0.20    0.20
   3   3  -5    0.10    0.10
  -3  -3  -5    0.10    0.20
  -3   6   5    0.10    0.30
   6  -3   5    0.10    0.20
  -3   6  -5    0.30    0.30
  -3  -3   5    0.10    0.20
  -6   3   5    0.00    0.20
  -3   6   5    0.00    0.20
   6  -3   5    0.10    0.20
   3  -6  -5    0.40    0.30
  -3  -3   5    0.20    0.20
   6  -3  -5    0.20    0.20
   6  -3  -5    0.10    0.10
  -3   6  -5    0.20    0.20
  -3  -3  -5    0.30    0.20
  -3   6  -5    0.90    0.30
  -3  -3   5    0.10    0.10
   3  -6   5    0.20    0.20
  -6   3  -5   -0.10    0.20
  -6   3   5    0.20    0.20
  -6   3   5    0.00    0.20
   6  -3  -5    0.00    0.10
  -6   3  -5    0.00    0.20
   3  -6  -5    0.10    0.20
   3  -6   5    0.10    0.20
  -2  -4   5  372.66   27.40
  -6   4  -5  366.36   27.70
   2  -6  -5  418.16   27.70
   6  -2   5  365.26   27.80
  -4  -2  -5  416.56   27.70
   4  -6   5  448.86   27.80
   2  -6  -5  335.37   27.70
   6  -4  -5  393.86   27.70
   4  -6   5  448.46   27.80
   4  -6   5  412.56   27.70
  -4   6   5  410.56   27.90
   6  -4  -5  423.56   27.80
   6  -2   5  369.46   27.70
   6  -2   5  421.96   27.70
  -2  -4   5  417.36   27.40
  -4   6   5  402.36   27.70
  -2   6  -5  424.06   27.50
  -6   2   5  428.86   27.70
  -6   2   5  431.36   27.80
   2  -6  -5  457.35   27.90
  -4  -2  -5  385.76   27.60
   6  -4  -5  415.36   27.90
  -2   6  -5  414.36   27.50
  -6   4  -5  429.46   27.80
  -6   2   5  397.06   27.70
  -6   4  -5  392.96   27.70
  -4   6   5  425.06   27.80
   4   2  -5  359.06   27.50
  -6   2   5  358.46   27.70
   4  -6   5  451.85   28.00
   2  -6  -5  409.26   27.70
   6  -2   5  422.56   27.70
   4   2  -5  400.76   27.50
  -2  -4   5  413.36   27.50
   6  -4  -5  403.56   27.70
  -2  -4   5  382.76   27.40
   6  -4   5  407.86   27.90
   4   2   5  416.36   27.40
   6  -2  -5  423.66   27.70
  -4  -2   5  375.06   27.50
  -4   6  -5  414.76   27.80
   2   4  -5  375.26   27.40
  -6   4   5  387.86   27.70
   4   2   5  388.76   27.30
  -6   2  -5  363.86   27.70
  -6   4   5  374.46   27.80
  -4  -2   5  394.86   27.50
  -6   4   5  383.96   27.80
   6  -4   5  464.05   27.90
  -4   6  -5  441.26   27.90
   6  -2  -5  419.96   27.80
   6  -2  -5  421.16   27.80
   2  -6   5  379.76   27.60
   6  -4   5  402.46   27.70
   4  -6  -5  431.76   27.90
   4  -6  -5  417.76   27.80
  -6   2  -5  377.36   27.70
  -4  -2   5  404.16   27.50
  -4   6  -5  460.65   27.80
  -2   6   5  337.57   27.50
   4  -6  -5  367.56   27.70
   4   2   5  421.56   27.70
  -2   6   5  419.76   27.70
   2  -6   5  390.96   27.70
  -6   2  -5  354.16   27.70
  -4   6  -5  369.36   27.60
   2   4  -5  353.86   27.40
  -6   2  -5  376.96   27.70
  -2  -4  -5  412.16   27.60
   2  -6   5  418.46   27.70
   4  -6  -5  382.66   27.70
   6  -4   5  347.27   27.70
   2  -6   5  399.06   27.60
   4   2   5  427.86   27.70
  -6   4   5  419.56   27.80
  -4  -2   5  385.46   27.50
  -2   6   5  404.06   27.80
  -2  -4  -5  409.36   27.60
  -5  -1  -5  921.91   54.79
  -6   1   5  816.52   54.79
  -6   1   5  872.61   54.69
   5  -6   5  804.32   54.79
  -5   6   5  850.41   54.99
   5   1  -5  799.02   54.59
   5  -6   5  865.71   54.79
  -6   5  -5  738.53   54.69
   1  -6  -5  858.31   54.79
  -1  -5   5  826.72   54.49
  -5   6   5  774.12   54.89
  -1  -5   5  874.11   54.49
  -5  -1  -5  766.62   54.59
   6  -5  -5  770.32   54.79
   6  -5  -5  690.63   54.79
   6  -5  -5  865.21   54.99
   1   5   5  762.22   54.69
   6  -1   5  750.02   54.79
  -1  -5   5  809.32   54.49
  -6   1   5  821.82   54.69
   6  -5  -5  805.62   54.79
   5  -6   5  856.01   54.99
  -5   6   5  738.73   54.79
   5  -6   5  830.22   54.79
  -1  -5   5  842.92   54.59
   6  -1   5  869.61   54.89
   1  -6  -5  855.11   54.79
   1  -6  -5  771.62   54.69
  -5  -1  -5  817.42   54.69
  -5  -1  -5  743.83   54.69
  -5   6   5  839.02   54.79
  -1   6  -5  762.72   54.59
   6  -5   5  767.62   54.89
  -5   6  -5  776.62   54.69
   5   1   5  840.52   54.49
  -5   6  -5  759.42   54.79
  -6   5   5  775.92   54.89
   5   1   5  884.91   54.79
  -1   6   5  867.11   54.79
  -1  -5  -5  861.31   54.69
   1   5  -5  874.81   54.49
  -6   5   5  756.82   54.79
  -6   1  -5  794.82   54.69
   5   1   5  730.33   54.69
   6  -5   5  730.43   54.69
  -6   5   5  764.52   54.79
  -5  -1   5  747.73   54.59
  -6   1  -5  767.02   54.69
   5  -6  -5  762.02   54.79
   5  -6  -5  722.33   54.79
  -1  -5  -5  733.73   54.79
   1  -6   5  823.12   54.59
  -1   6   5  764.62   54.79
  -5  -1   5  817.12   54.69
   5   1   5  833.52   54.49
  -5   6  -5  800.92   54.89
   6  -1  -5  753.42   54.49
   1   5  -5  756.62   54.49
   5  -6  -5  834.52   54.89
  -6   1  -5  734.23   54.69
   6  -5   5  736.93   54.79
  -1  -5  -5  754.32   54.69
  -5  -1   5  889.11   54.69
  -5   6  -5  778.82   54.69
   6  -5   5  791.52   54.79
  -1   6   5  829.42   54.59
  -5  -1   5  824.72   54.59
  -6   5   5  846.62   54.79
  -6   1  -5  840.62   54.79
  -6   0   5  171.18   12.70
  -6   0  -5  174.68   12.70
   6   0   5  157.68   12.50
  -6   6  -5  181.68   12.80
  -6   0   5  198.88   12.70
  -6   6   5  197.98   12.80
  -6   0  -5  169.08   12.70
   6   0  -5  171.68   12.70
   0  -6   5  163.98   12.50
   0  -6   5  182.38   12.60
   0   6  -5  161.18   12.50
   6  -6  -5  175.68   12.80
   0   6  -5  170.68   12.50
  -6   6  -5  170.38   12.80
  -6   0   5  191.48   12.70
   0   6   5  194.58   12.70
  -6   0   5  186.88   12.60
   6   0  -5  190.48   12.70
  -6   6  -5  178.98   12.90
   0   6   5  176.58   12.30
   6  -6   5  183.28   12.70
  -6   6  -5  190.88   12.70
  -6   6   5  192.68   12.80
   0  -6   5  170.98   12.50
   0   6   5  184.38   12.30
   0   6   5  175.58   12.70
   0  -6   5  179.98   12.60
   6   0  -5  169.68   12.30
   6  -6   5  197.38   12.90
   6  -6   5  193.58   12.80
   6  -6   5  176.28   12.90
   6   0   5  188.08   12.60
   6   0   5  192.48   12.90
   0  -6  -5  166.68   12.70
   0  -6  -5  175.68   12.70
   6   0   5  177.98   12.70
  -6   6   5  185.88   12.90
   0  -6  -5  181.98   12.70
   6  -6  -5  201.68   12.90
   6   0  -5  176.18   12.30
   6  -6  -5  165.58   12.70
   0  -6  -5  163.68   12.60
  -7   4  -5  463.55   29.60
   3  -7  -5  416.56   29.60
  -3   7  -5  457.45   29.40
   4   3  -5  472.25   29.30
   4   3  -5  415.56   29.20
   7  -4  -5  445.96   29.60
   4  -7   5  480.25   29.70
  -3  -4   5  396.26   29.20
  -4   7   5  434.06   29.60
  -7   3   5  465.55   29.60
  -7   3   5  430.06   29.70
  -4  -3  -5  356.76   29.50
  -3  -4   5  396.36   29.20
   4  -7   5  415.56   29.50
   7  -3   5  449.66   29.70
  -7   4  -5  448.36   29.70
   7  -4  -5  408.66   29.50
   3  -7  -5  432.46   29.60
   4  -7   5  379.36   29.50
  -4   7   5  419.96   29.50
   7  -4  -5  439.26   29.70
   3  -7  -5  411.46   29.50
  -7   3   5  405.76   29.60
   7  -3   5  440.46   29.60
  -3   7  -5  447.96   29.40
  -3  -4   5  410.56   29.20
  -7   3   5  457.25   29.70
  -3   7  -5  425.86   29.50
  -3   7  -5  461.95   29.60
  -3  -4   5  406.26   29.20
  -4  -3  -5  409.06   29.40
  -7   4  -5  409.26   29.60
   7  -3   5  449.36   29.60
  -4   7   5  428.16   29.70
   7  -4  -5  430.26   29.70
  -4   7   5  425.86   29.60
   4  -7   5  424.66   29.60
  -4  -3   5  412.16   29.20
  -4   7  -5  422.06   29.60
  -4  -3   5  372.96   29.20
  -7   3  -5  481.95   29.60
   3  -7   5  377.86   29.50
   3  -7   5  405.56   29.40
   7  -4   5  448.66   29.60
  -7   4   5  430.66   29.60
   4  -7  -5  416.86   29.60
  -7   4   5  447.06   29.70
  -3   7   5  388.96   29.50
  -3  -4  -5  461.55   29.40
   7  -3  -5  405.16   29.60
  -7   4   5  407.56   29.60
  -7   3  -5  451.45   29.70
   4  -7  -5  381.96   29.60
   7  -3  -5  445.76   29.50
   3   4  -5  459.95   29.20
   4  -7  -5  472.05   29.60
   4  -7  -5  462.75   29.70
   3  -7   5  386.06   29.50
  -4   7  -5  459.85   29.50
   7  -4   5  447.26   29.70
  -7   4   5  453.05   29.60
  -7   3  -5  429.96   29.60
   7  -3  -5  399.86   29.60
   3   4  -5  409.76   29.20
  -4  -3   5  378.96   29.20
  -4   7  -5  437.06   29.60
  -3   7   5  451.65   29.70
  -3   7   5  392.46   29.40
   7  -4   5  472.15   29.70
   7  -4   5  428.16   29.60
  -4  -3   5  437.36   29.30
  -3  -4  -5  458.35   29.50
   7  -3  -5  445.56   29.50
  -3   7   5  440.36   29.50
   3  -7   5  386.56   29.50
  -2  -5   5    2.90    0.40
   5   2  -5    3.60    0.50
  -2  -5   5    3.00    0.40
  -5  -2  -5    4.80    0.80
   5  -7   5    1.90    0.50
  -2  -5   5    2.80    0.40
  -5   7   5    2.30    0.50
  -2   7  -5    2.10    0.50
   7  -2   5    2.40    0.60
   2  -7  -5    2.80    0.60
   7  -5  -5    2.40    0.60
   5  -7   5    4.10    0.90
   5  -7   5    2.30    0.60
  -5  -2  -5    2.20    0.50
   5   2  -5    2.50    0.50
   7  -5  -5    3.00    0.80
  -2   7  -5    2.80    0.60
  -7   2   5    2.40    0.60
  -2  -5   5    2.80    0.40
  -5   7   5    2.40    0.60
   2  -7  -5    2.20    0.50
   2  -7  -5    4.40    0.80
   7  -5  -5    2.40    0.60
  -7   2   5    3.10    0.70
  -7   2   5    3.10    0.60
  -7   2   5    2.40    0.60
  -5   7   5    3.60    0.70
  -5  -2  -5    3.50    0.60
  -5  -2  -5    2.60    0.60
  -2   7  -5    3.30    0.40
   7  -2   5    2.10    0.60
  -2   7  -5    2.50    0.40
  -5   7   5    3.60    0.80
   2  -7   5    3.70    0.60
   5  -7  -5    2.80    0.70
   2  -7   5    3.40    0.60
  -7   2  -5    2.70    0.60
   5   2   5    3.00    0.60
   2   5  -5    2.30    0.40
  -5   7  -5    2.90    0.60
  -2   7   5    2.10    0.50
   2  -7   5    2.80    0.60
  -5  -2   5    3.70    0.50
  -7   5   5    1.90    0.60
  -5  -2   5    3.00    0.50
  -5   7  -5    2.80    0.60
   5  -7  -5    2.60    0.70
  -2   7   5    3.40    0.70
  -2  -5  -5    2.30    0.50
  -5   7  -5    4.10    0.80
  -7   2  -5    3.50    0.70
   7  -5   5    2.30    0.60
  -7   2  -5    3.70    0.80
  -2   7   5    1.90    0.50
  -7   2  -5    1.80    0.50
  -5  -2   5    2.50    0.50
   7  -2  -5    3.30    0.60
   5  -7  -5    2.80    0.60
  -2   7   5    2.90    0.50
  -5  -2   5    2.00    0.40
  -5   7  -5    2.00    0.60
  -2  -5  -5    2.40    0.50
   5   2   5    2.60    0.50
   2  -7   5    4.10    0.70
  -7   1   5  292.37   20.90
   7  -6  -5  303.97   21.00
   7  -6  -5  284.67   21.20
  -6  -1  -5  297.67   20.80
  -6  -1  -5  325.17   20.90
   1  -7  -5  307.37   21.00
   1   6   5  316.27   20.90
   7  -1   5  299.77   20.80
  -1  -6   5  274.77   20.70
  -7   1   5  282.77   20.90
  -1   7  -5  297.97   20.80
   1  -7  -5  294.57   20.90
  -1  -6   5  284.17   20.70
  -7   6  -5  310.97   21.00
  -6  -1  -5  300.07   20.90
  -6  -1  -5  331.67   20.90
   7  -1   5  328.97   21.10
  -7   1   5  333.07   21.00
   1   6   5  329.27   20.90
  -1  -6   5  293.27   20.70
  -7   6  -5  271.57   21.00
   7  -1   5  327.67   21.10
  -6   7   5  271.77   21.00
  -7   1   5  339.07   21.10
   1  -7  -5  311.87   21.00
  -1  -6  -5  295.27   20.90
   7  -1  -5  320.47   21.00
  -7   6   5  287.67   21.00
  -1  -6  -5  274.47   20.80
  -7   1  -5  286.17   20.90
  -7   1  -5  306.47   21.00
   1  -7   5  296.37   20.90
   1  -7   5  308.97   20.80
  -7   6   5  282.87   21.10
  -7   1  -5  326.87   21.00
  -6   7  -5  320.37   21.00
   6   1   5  275.37   20.90
  -1   7   5  320.97   20.70
  -1   7   5  279.97   20.90
  -6  -1   5  294.47   20.80
   6   1   5  284.77   20.60
   1   6  -5  315.57   20.70
   1   6  -5  319.77   20.70
   6   1   5  280.77   20.90
   7  -6   5  319.97   21.20
  -1   7   5  270.17   20.90
  -1   7   5  312.47   20.70
  -1  -6  -5  294.37   20.80
  -1  -6  -5  304.17   20.80
   1  -7   5  297.17   20.80
   7  -1  -5  302.27   20.70
   7  -6   5  278.57   21.00
   6   1   5  289.67   20.60
   0  -7   5  571.34   43.00
   7   0  -5  656.43   43.20
   0  -7   5  681.63   43.10
  -7   0   5  634.34   43.20
  -7   0  -5  626.44   43.30
   7  -7  -5  626.24   43.50
  -7   0  -5  641.84   43.20
   0  -7   5  566.24   43.10
   0  -7  -5  599.74   43.20
   0  -7  -5  543.85   43.20
  -7   0  -5  593.44   43.30
   7  -7   5  573.84   43.40
   7   0   5  686.73   43.10
   7   0   5  731.43   43.50
   0   7  -5  662.23   43.10
   0  -7   5  579.74   43.00
  -7   0  -5  663.43   43.30
  -7   7   5  680.13   43.40
  -7   7  -5  613.94   43.40
   0  -7  -5  657.03   43.30
   7   0   5  635.54   43.00
   0  -7  -5  546.25   43.20
  -7   0   5  619.54   43.20
   7   0  -5  672.93   43.30
  -7   0   5  669.13   43.30
   0   7   5  701.23   43.30
   7   0   5  674.13   43.30
   0   7  -5  633.44   43.10
  -7   7   5  555.14   43.30
  -7   0   5  626.04   43.20
   0   7   5  664.53   43.30
   7  -7  -5  563.44   43.30
  -7   7  -5  668.03   43.30
  -4  -4  -5    0.10    0.20
   4   4  -5    0.10    0.10
  -8   4  -5   -0.10    0.20
  -4  -4   5    0.10    0.10
   4  -8  -5    0.20    0.30
  -4   8  -5    2.50    0.70
   8  -4  -5    0.20    0.20
  -4   8   5    0.10    0.30
  -4  -4   5    0.00    0.10
  -8   4  -5    0.10    0.20
   4  -8  -5    0.70    0.40
  -4  -4   5    0.10    0.10
  -4   8   5    1.20    0.40
   4   4  -5    0.10    0.10
   8  -4   5    0.30    0.30
  -4   8  -5    0.20    0.20
   8  -4  -5    0.20    0.20
   8  -4   5    0.40    0.30
   4  -8   5    0.10    0.30
   4  -8   5    1.60    0.50
   4  -8   5    0.20    0.30
  -4   8   5    0.00    0.10
  -4   8  -5    0.60    0.30
  -4   8   5    0.20    0.30
  -8   3   5  325.37   25.60
   8  -5  -5  368.16   25.60
   8  -5  -5  372.96   25.60
   8  -3   5  367.26   25.50
  -8   5  -5  339.67   25.60
  -3  -5   5  375.26   25.20
  -8   5  -5  372.36   25.60
  -5  -3  -5  368.06   25.40
  -8   3   5  351.86   25.60
  -5  -3  -5  362.06   25.50
  -5  -3  -5  414.96   25.50
  -3   8  -5  371.06   25.60
  -3  -5   5  383.96   25.10
  -5  -3  -5  349.17   25.30
  -5   8   5  395.96   25.60
  -3   8  -5  374.46   25.30
   3  -8  -5  366.86   25.60
   3  -8  -5  349.67   25.60
  -3  -5   5  355.06   25.10
  -3  -5   5  367.26   25.20
   8  -5  -5  368.36   25.70
   5   3  -5  382.26   25.20
   5  -8   5  322.17   25.70
   5   3  -5  380.96   25.20
   5  -8   5  355.96   25.70
  -3   8  -5  363.06   25.30
   3  -8  -5  381.46   25.70
  -3   8  -5  393.46   25.60
  -8   3   5  373.56   25.60
   3   5  -5  378.36   25.10
  -3   8   5  340.77   25.60
   3   5  -5  368.76   25.10
  -5   8  -5  380.76   25.50
   8  -5   5  350.86   25.70
  -8   5   5  357.26   25.60
  -5  -3   5  382.56   25.30
   8  -3  -5  362.46   25.50
  -3  -5  -5  380.56   25.40
   8  -3  -5  381.16   25.50
   3  -8   5  372.66   25.50
  -3   8   5  374.76   25.40
  -3   8   5  402.56   25.70
  -5  -3   5  373.46   25.20
  -5  -3   5  393.06   25.20
   5   3   5  344.07   25.40
  -5   8  -5  343.97   25.60
   3  -8   5  337.47   25.50
  -8   5   5  367.46   25.70
   3  -8   5  349.57   25.50
   3  -8   5  361.46   25.60
   8  -5   5  352.76   25.60
   5   3   5  392.76   25.50
  -5   8  -5  381.46   25.50
  -3   8   5  411.36   25.60
   8  -2   5  618.94   37.50
  -6  -2  -5  476.85   37.30
  -2  -6   5  544.15   37.00
   6   2  -5  544.15   37.20
  -6   8   5  564.54   37.60
   6   2  -5  534.55   37.30
  -2  -6   5  556.34   37.10
   6  -8   5  512.95   37.60
  -8   6  -5  526.65   37.60
   8  -2   5  567.94   37.40
   2  -8  -5  521.05   37.40
   2  -8  -5  517.85   37.40
  -8   2   5  602.04   37.50
   8  -2   5  583.24   37.60
  -6  -2  -5  557.34   37.30
   6  -8   5  482.75   37.40
  -2  -6   5  552.94   37.00
  -6  -2  -5  579.54   37.40
  -8   2   5  548.15   37.50
  -2   8  -5  557.14   37.40
   8  -2   5  567.84   37.60
  -6  -2  -5  485.85   37.30
  -8   6  -5  573.24   37.50
   2   6   5  559.44   37.30
   2  -8  -5  560.84   37.50
   8  -6  -5  494.75   37.40
  -2  -6   5  525.75   37.10
   2  -8  -5  518.05   37.40
  -6  -2   5  527.75   37.20
  -6  -2   5  516.45   37.20
   2  -8   5  569.74   37.40
   6   2   5  506.55   37.30
  -2   8   5  531.35   37.50
  -8   2  -5  553.24   37.60
  -6  -2   5  548.95   37.20
   8  -6   5  554.84   37.50
   8  -6   5  521.95   37.60
   2   6  -5  537.05   37.00
   2   6  -5  550.24   37.00
   8  -2  -5  552.84   37.20
  -8   2  -5  461.55   37.40
  -2   8   5  568.84   37.20
   8  -2  -5  574.24   37.30
   8  -2  -5  589.44   37.60
  -2  -6  -5  551.14   37.30
  -8   6   5  489.25   37.50
  -8   6   5  572.64   37.60
   2  -8   5  482.45   37.30
   2  -8   5  556.14   37.30
   2  -8   5  567.84   37.40
   8  -2  -5  546.85   37.40
  -2  -6  -5  590.04   37.30
  -2   8   5  529.25   37.10
  -6  -2   5  621.14   37.30
  -2   8   5  512.25   37.50
  -8   2  -5  569.54   37.50
  -6   8  -5  514.75   37.40
   6   2   5  556.04   37.50
   1  -8  -5  154.48   10.40
   8  -7  -5  129.09   10.50
   1  -8  -5  137.79   10.40
  -8   7  -5  152.38   10.60
  -7   8   5  152.68   10.50
   8  -1   5  151.98   10.20
  -7  -1  -5  138.19   10.40
   7  -8   5  150.48   10.50
   8  -1   5  139.89   10.50
   1  -8  -5  129.19   10.30
  -7   8   5  144.59   10.60
  -8   1   5  141.89   10.40
   8  -1   5  137.39   10.50
  -7  -1  -5  143.19   10.40
  -1   8  -5  167.78   10.40
  -1  -7   5  153.78   10.10
   7  -8   5  135.09   10.60
   1   7   5  136.49   10.30
   7   1  -5  144.29   10.30
  -8   7  -5  153.38   10.50
   1   7   5  161.58   10.40
   1  -8  -5  138.39   10.40
  -8   1   5  143.69   10.40
   7   1  -5  157.18   10.30
  -8   1   5  143.49   10.40
  -1   8  -5  155.18   10.30
  -7  -1  -5  139.69   10.30
   8  -7  -5  140.49   10.50
  -7  -1  -5  136.79   10.30
   7   1   5  139.99   10.40
  -1  -7  -5  136.49   10.30
   7  -8  -5  145.19   10.60
  -8   7   5  131.99   10.40
  -7   8  -5  149.59   10.60
  -7  -1   5  139.09   10.20
   1  -8   5  154.48   10.30
   1  -8   5  146.69   10.20
  -7  -1   5  142.19   10.30
  -8   1  -5  154.48   10.50
  -1   8   5  144.09   10.40
  -8   1  -5  136.99   10.40
   8  -1  -5  146.79   10.00
  -1  -7  -5  130.19   10.20
   1  -8   5  145.49   10.30
  -8   1  -5  137.49   10.40
   1   7  -5  128.09   10.00
  -1   8   5  125.99   10.30
  -7  -1   5  152.18   10.40
   7   1   5  140.59   10.40
  -7  -1   5  142.09   10.30
   7  -8  -5  142.39   10.50
   1   7  -5  151.18   10.10
   8  -7   5  130.69   10.50
  -7   8  -5  151.38   10.40
   8  -1  -5  143.59   10.40
  -1  -7  -5  154.48   10.40
   8  -7   5  146.69   10.50
  -1  -7  -5  151.38   10.30
  -8   7   5  138.39   10.50
   1  -8   5  157.38   10.30
  -8   0  -5   69.79    5.60
   8   0   5   74.09    5.70
   0  -8  -5   77.99    5.60
   0   8   5   70.19    5.60
  -8   0  -5   72.89    5.70
   8   0  -5   74.09    5.50
   0   8   5   78.89    5.60
   0  -8  -5   77.89    5.70
   8  -8   5   72.69    5.70
   8  -8   5   76.49    5.90
  -8   0   5   61.79    5.50
  -8   8  -5   87.59    6.00
  -8   0  -5   80.19    5.70
  -8   8   5   72.49    5.70
   0  -8   5   71.29    5.40
  -8   0   5   74.19    5.60
   8   0  -5   64.79    5.50
  -8   0   5   65.09    5.50
   0  -8  -5   67.99    5.50
  -8   0   5   64.79    5.50
   0  -8  -5   87.19    5.80
  -8   8  -5   78.39    5.70
  -8   8   5   71.19    5.80
   8  -8  -5   74.59    5.70
   8  -8  -5   71.69    5.80
   8   0   5   73.89    5.70
  -4   9  -5  310.27   19.70
  -9   5  -5  289.97   19.80
  -4   9  -5  287.57   19.60
  -4   9  -5  276.77   19.40
   9  -4   5  282.47   19.60
   5  -9   5  264.67   19.60
   9  -4   5  281.27   19.60
   4  -9  -5  272.57   19.80
  -9   5  -5  270.97   19.60
  -5  -4  -5  254.37   19.30
  -9   4   5  263.17   19.60
   9  -5  -5  249.38   19.70
   9  -5  -5  249.48   19.70
   5  -9   5  266.97   19.70
  -5  -4  -5  302.47   19.40
   9  -4   5  260.27   19.70
  -5  -4  -5  302.17   19.50
   9  -5   5  271.67   19.60
   5  -9  -5  283.67   19.80
   4  -9   5  257.37   19.50
   9  -4  -5  318.77   19.60
   4  -9   5  267.67   19.60
   9  -5   5  244.98   19.70
   9  -4  -5  297.97   19.80
  -5   9  -5  273.47   19.60
  -9   5   5  289.07   19.70
  -9   4  -5  284.37   19.60
  -5   9  -5  303.77   19.60
  -4   9   5  291.47   19.60
   5   4   5  305.27   19.50
   4  -9   5  279.27   19.60
  -4   9   5  275.77   19.40
  -9   5   5  272.57   19.70
  -9   4  -5  296.67   19.80
  -6  -3  -5   62.39    4.90
  -6  -3  -5   60.89    4.90
   3  -9  -5   64.59    5.10
  -6   9   5   63.29    5.20
  -9   6  -5   62.89    5.10
   9  -3   5   59.99    5.00
   3  -9  -5   59.89    5.10
  -3   9  -5   62.49    5.00
  -6  -3  -5   59.09    4.90
   9  -6  -5   70.19    5.30
  -3   9  -5   67.39    5.10
   3  -9  -5   67.89    5.20
   6  -9   5   58.69    5.20
  -9   3   5   65.19    5.30
   9  -6  -5   64.59    5.10
  -6  -3  -5   76.09    5.10
  -9   6  -5   67.29    5.20
   9  -3   5   68.89    5.20
  -9   3   5   68.29    5.30
  -6   9  -5   57.19    5.30
   9  -6   5   61.79    5.10
  -9   3  -5   68.39    5.20
  -9   6   5   60.59    5.10
  -3   9   5   59.59    4.80
  -9   6   5   69.29    5.20
   6  -9  -5   62.59    5.10
   3  -9   5   60.99    5.00
   9  -6   5   56.79    5.10
  -3   9   5   70.39    5.20
  -9   3  -5   61.79    5.00
  -3   9   5   70.89    5.20
  -3  -6  -5   63.89    4.90
   6  -9  -5   67.69    5.30
   9  -3  -5   75.99    5.60
  -6   9  -5   68.09    5.10
   9  -3  -5   68.79    5.00
   6   3   5   66.49    5.00
  -6  -3   5   70.99    4.90
   3  -9   5   70.29    5.10
   6   3   5   64.49    5.10
   3  -9   5   68.49    5.10
   9  -3  -5   56.89    4.90
  -2   9  -5   65.79    5.30
  -9   2   5   80.69    5.90
  -9   2   5   76.89    5.60
   9  -2   5   68.59    5.50
  -9   7  -5   71.59    5.60
   7  -9   5   73.79    5.60
   9  -2   5   64.39    5.50
  -7   9   5   64.69    5.50
   9  -2   5   65.89    5.30
   2  -9  -5   70.99    5.50
  -7  -2  -5   80.39    5.60
   2  -9  -5   67.49    5.40
  -2   9  -5   72.99    5.40
   9  -7  -5   66.59    5.60
  -7  -2  -5   69.99    5.40
   7  -9   5   66.39    5.60
  -7  -2  -5   71.69    5.40
   2  -9  -5   70.59    5.50
  -9   2   5   73.89    5.50
  -7   9   5   77.39    5.50
  -9   7  -5   62.69    5.40
   9  -7  -5   62.89    5.40
  -7  -2  -5   75.29    5.40
  -9   7   5   71.19    5.50
   2  -9   5   71.99    5.40
  -9   7   5   72.89    5.60
  -2   9   5   71.29    5.50
   9  -7   5   67.69    5.50
   2  -9   5   73.89    5.30
   7  -9  -5   77.59    5.60
  -7  -2   5   65.99    5.20
   7   2   5   67.19    5.40
   9  -2  -5   61.79    5.50
   7   2   5   75.19    5.40
   9  -7   5   74.49    5.70
  -7   9  -5   70.49    5.60
   2  -9   5   69.39    5.40
   2  -9   5   65.39    5.40
  -9   2  -5   74.29    5.60
   9  -2  -5   69.69    5.20
  -9   2  -5   60.89    5.40
  -2  -7  -5   74.49    5.30
  -2   9   5   72.59    5.50
   7  -9  -5   73.29    5.70
  -9   1   5  302.07   21.60
   8  -9   5  313.07   21.70
   1  -9  -5  297.77   21.60
   8  -9   5  323.67   21.80
   9  -8  -5  335.07   21.80
  -9   8  -5  322.97   21.90
  -8  -1  -5  333.37   21.70
  -8   9   5  299.87   21.60
   9  -8  -5  311.17   21.90
   1  -9  -5  273.57   21.50
  -8   9   5  315.47   21.90
  -9   8  -5  313.37   21.60
  -9   1   5  327.27   21.70
   1  -9  -5  303.27   21.60
  -9   1   5  276.87   21.50
  -8  -1  -5  323.17   21.60
  -8  -1  -5  297.87   21.50
  -9   8   5  311.37   21.70
   8  -9  -5  322.17   21.80
   8   1   5  308.77   21.60
  -1   9   5  298.67   21.60
   8   1   5  277.97   21.50
  -9   8   5  319.47   21.80
  -8   9  -5  305.97   21.60
   9  -1  -5  290.57   21.60
  -8  -1   5  307.77   21.50
  -1  -8  -5  287.17   21.50
   9  -1  -5  290.47   21.60
   1  -9   5  321.37   21.40
  -1   9   5  330.27   21.70
   9  -8   5  332.37   21.90
   9   0   5   31.10    2.80
  -9   9  -5   33.40    3.00
  -9   0  -5   27.60    2.70
   5 -10  -5    0.00    0.30
  -5  10  -5    0.20    0.20
 -10   5  -5    0.30    0.40
   5 -10  -5    0.10    0.30
  -5  10   5    0.80    0.40
 -10   5  -5    0.40    0.30
  -5  10  -5    0.20    0.30
   5 -10   5    0.40    0.40
  10  -5   5    0.20    0.30
   5 -10   5    0.60    0.40
 -10   5   5    0.10    0.30
  10  -5   5    0.20    0.30
 -10   5   5    0.10    0.30
  10  -5  -5    0.20    0.30
  10  -5  -5    0.10    0.20
  10  -4   5   73.59    5.60
  -6  -4  -5   64.29    5.20
 -10   6  -5   54.99    5.30
   6 -10   5   65.59    5.40
  -6  10   5   72.09    5.50
  -6  10   5   76.59    5.40
 -10   6  -5   64.39    5.40
  10  -4   5   84.09    5.70
 -10   4   5   63.49    5.40
 -10   4   5   71.39    5.50
  10  -6  -5   69.59    5.40
  10  -4   5   67.49    5.30
  10  -6  -5   58.09    5.50
   4 -10  -5   63.29    5.40
   6 -10   5   71.49    5.60
 -10   4  -5   68.99    5.40
   6 -10  -5   64.99    5.50
  10  -6   5   65.99    5.60
  -4  10   5   59.99    5.10
  -4  10   5   78.89    5.60
  10  -4  -5   65.79    5.30
 -10   4  -5   71.49    5.50
  10  -6   5   75.09    5.50
  -6  10  -5   62.59    5.30
   6 -10  -5   83.99    5.70
 -10   6   5   73.29    5.60
 -10   6   5   77.69    5.60
   7 -10   5  239.38   18.00
  -7  -3  -5  259.47   17.70
  10  -3   5  257.17   18.10
   3 -10  -5  265.37   18.00
  10  -7  -5  248.58   17.90
   7 -10   5  221.68   17.90
  -7  10   5  263.07   18.10
  10  -3   5  239.68   17.80
  -7  10   5  217.58   17.80
   3 -10  -5  292.97   18.10
 -10   3   5  265.67   18.00
 -10   3   5  239.48   17.90
  10  -7  -5  271.87   18.20
  10  -7   5  266.97   18.00
  -3  10   5  250.77   17.90
  10  -3  -5  278.07   18.20
 -10   3  -5  279.47   18.00
  -7  10  -5  232.28   17.80
  -7  10  -5  210.58   17.80
 -10   3  -5  264.47   18.00
   3 -10   5  242.28   17.80
   7 -10  -5  249.18   18.00
 -10   7   5  228.38   17.90
 -10   7   5  258.97   18.00
   7 -10  -5  291.17   18.40
   0   0  -6  752.42   51.29
   0   1  -6    4.10    0.60
  -1   0   6    5.40    0.80
  -1   0   6    5.80    0.70
   0   1  -6    5.20    0.70
   0  -1   6    3.90    0.60
   1  -2  -6 4139.69  275.87
   1  -2   6 4573.04  275.87
   2  -1  -6 3401.46  275.77
  -2   1   6 4072.79  275.87
   2  -1   6 4003.00  275.87
   1   1  -6 3837.52  275.77
   2  -1  -6 3503.25  275.77
  -1   2   6 4617.34  275.87
  -1   2   6 4635.14  275.97
  -1  -1   6 4458.05  275.77
   1   1  -6 4194.98  275.87
  -2   1  -6 3682.23  275.77
   1  -2  -6 4284.77  275.97
   2  -1   6 3441.36  275.77
   2  -1  -6 3471.45  275.77
   1   1   6 4201.08  275.87
   1   1  -6 4045.20  275.67
  -2   1  -6 3876.11  275.77
  -2   1   6 4306.27  275.97
  -2   1  -6 4176.58  275.87
  -2   1  -6 3859.51  275.87
   2  -1   6 4071.09  275.97
   1  -2  -6 4543.15  275.87
   1   1  -6 3992.00  275.77
  -1  -1  -6 3942.21  275.77
  -1   2   6 4582.64  275.87
   0   2  -6 4897.71  377.06
   0  -2   6 5926.21  377.16
  -2   0  -6 5273.07  377.16
   2   0  -6 5794.72  377.06
   2   0   6 6045.30  377.16
  -2   2   6 5651.83  377.16
   0   2  -6 4862.81  376.96
  -2   2  -6 6027.60  377.26
  -2   0  -6 6253.27  377.16
   2  -2  -6 6177.98  377.16
   0  -2  -6 5915.21  377.26
   2   0   6 5233.78  377.16
  -2   0  -6 5629.24  377.16
   0  -2   6 5371.16  377.16
  -2   2  -6 5509.75  377.16
   2  -2  -6 5200.68  377.26
  -2   2   6 5536.65  377.16
  -2   0   6 6230.38  377.16
   2   0   6 6109.79  377.26
   0   2   6 5609.24  377.06
   0   2   6 5382.76  377.16
   0   2   6 5427.76  377.16
   0  -2   6 5067.29  377.06
  -2   2  -6 5823.42  377.16
  -2   0  -6 5347.46  377.16
   0   2   6 6152.78  377.16
   0  -2  -6 5148.78  377.16
  -2   2   6 5349.26  377.16
   2  -2   6 5829.42  377.16
   2  -2   6 4964.20  377.16
   2  -2  -6 4980.70  377.16
   2   1  -6  505.05   30.40
   1   2   6  430.76   30.50
   3  -2  -6  412.96   30.50
   1   2   6  396.96   30.50
  -1   3  -6  469.75   30.40
  -3   1   6  487.05   30.50
  -1  -2   6  434.06   30.50
   1  -3  -6  465.25   30.50
   2   1  -6  438.66   30.30
   3  -1   6  431.86   30.50
   3  -2  -6  441.86   30.50
   1   2   6  430.96   30.40
   2   1  -6  443.76   30.40
  -2   3   6  434.76   30.50
  -2  -1  -6  409.26   30.40
  -3   2  -6  415.06   30.50
  -2   3   6  442.06   30.40
  -2   3   6  374.76   30.50
  -2  -1  -6  470.05   30.60
   3  -2  -6  466.95   30.50
  -2  -1  -6  427.46   30.50
  -3   2  -6  457.05   30.40
  -3   1   6  467.25   30.50
   1  -3  -6  447.56   30.50
   2  -3   6  393.56   30.40
  -3   2  -6  470.05   30.50
  -1  -2   6  472.85   30.50
   3  -1   6  407.76   30.40
  -3   1   6  426.36   30.50
  -3   1   6  412.16   30.40
   1  -3  -6  409.26   30.50
   2  -3   6  456.65   30.40
   3  -1   6  464.85   30.40
   3  -2  -6  411.66   30.40
   1  -3  -6  502.85   30.60
   3  -1   6  481.75   30.50
  -3   2   6  475.75   30.50
   2  -3  -6  395.16   30.50
   3  -1  -6  458.45   30.50
  -3   1  -6  446.26   30.50
   1   2  -6  422.76   30.40
  -2  -1   6  454.15   30.40
   1   2  -6  457.65   30.30
  -2   3  -6  433.66   30.50
  -3   2   6  423.66   30.40
   2  -3  -6  405.66   30.50
   2   1   6  457.85   30.50
  -1  -2  -6  457.45   30.50
  -1  -2  -6  496.65   30.60
  -3   1  -6  395.26   30.50
  -3   1  -6  495.55   30.60
   1   2  -6  431.86   30.30
  -1   3   6  457.55   30.60
   3  -1  -6  437.36   30.50
   3  -2   6  384.16   30.40
  -2   3  -6  416.26   30.50
  -1  -2  -6  484.65   30.50
   1  -3   6  441.26   30.40
   1   2  -6  485.65   30.50
  -2   3  -6  484.75   30.50
   2  -3  -6  439.66   30.50
  -1   3   6  437.36   30.50
  -3   1  -6  444.36   30.40
   2   1   6  482.85   30.50
  -3   2   6  485.75   30.50
   3  -1  -6  459.75   30.50
  -2  -1   6  400.26   30.40
  -2  -1   6  465.35   30.40
   2   1   6  432.06   30.50
  -3   2   6  422.26   30.50
   3  -3   6 3191.38  197.48
   0   3   6 2834.82  197.38
  -3   0   6 2695.43  197.28
   0   3   6 2534.65  197.18
   3   0   6 3295.77  197.28
  -3   3   6 2625.24  197.38
   3   0  -6 3240.68  197.28
  -3   0  -6 3021.00  197.28
   3  -3  -6 2820.32  197.28
  -3   3   6 2995.20  197.38
   0  -3   6 3220.78  197.28
   0   3  -6 2788.82  197.08
   3  -3   6 2943.11  197.28
  -3   0  -6 3004.70  197.28
   0  -3  -6 2997.70  197.38
   0   3   6 3085.59  197.28
   0  -3  -6 2778.42  197.28
  -3   3   6 3270.27  197.38
  -3   0  -6 2545.05  197.28
  -3   3  -6 2918.51  197.38
  -3   3   6 2883.11  197.38
   0   3   6 2741.03  197.28
   0   3  -6 2914.71  197.18
   3   0   6 3061.49  197.38
  -3   3  -6 2823.62  197.28
   3   0  -6 2615.64  197.18
   0  -3  -6 2720.93  197.38
  -3   3  -6 2644.24  197.28
  -3   3  -6 3005.80  197.38
   0   3  -6 3138.09  197.38
   2  -4   6  211.18   14.90
   4  -2  -6  236.58   15.00
  -2   4  -6  222.58   14.90
  -4   2  -6  190.08   14.90
   4  -2  -6  203.28   14.90
  -4   2   6  212.38   15.00
  -2   4   6  232.58   15.00
   2   2   6  241.28   15.10
   2  -4  -6  227.98   15.10
  -2   4  -6  215.78   15.00
  -4   2  -6  226.08   15.00
   4  -2  -6  211.48   15.00
   4  -2  -6  205.38   15.00
   2   2  -6  216.68   14.70
   2  -4   6  204.48   15.00
   2   2   6  236.58   15.00
   4  -2   6  240.88   15.10
   4  -2   6  204.88   15.10
   2   2  -6  208.98   14.70
  -2   4   6  226.78   15.00
  -2   4   6  205.28   15.00
  -2   4   6  224.88   15.10
  -2  -2   6  181.58   14.80
   2  -4   6  212.68   15.00
   4  -2   6  203.98   14.90
   2   2  -6  180.18   14.80
  -4   2  -6  184.98   14.90
   2  -4  -6  222.78   15.10
  -2  -2   6  213.88   14.90
  -2  -2  -6  213.28   15.00
   2  -4  -6  230.08   15.00
   2  -4   6  218.98   15.00
  -2   4  -6  183.08   14.90
  -4   2   6  185.28   14.90
  -4   2   6  210.18   15.00
  -4   2   6  240.08   15.20
   2  -4  -6  232.78   15.00
   4  -2   6  231.68   15.00
   2   2  -6  222.18   14.90
  -4   3  -6   31.50    2.90
  -3  -1  -6   34.10    2.80
  -4   3  -6   36.30    3.00
   4  -3  -6   32.50    2.90
   4  -3  -6   35.20    2.90
  -1  -3   6   34.00    2.80
  -1  -3   6   37.30    2.80
  -3   4   6   35.50    2.90
   1  -4  -6   36.30    2.90
   4  -1   6   34.70    2.90
  -4   3  -6   36.70    2.90
  -3  -1  -6   34.10    2.80
  -4   1   6   34.90    2.90
   4  -3  -6   36.20    2.90
   4  -1   6   30.10    2.80
  -4   1   6   35.80    2.80
   1   3   6   32.10    2.80
   4  -1   6   31.60    2.80
   4  -3  -6   33.20    2.90
  -3  -1  -6   33.10    2.80
   3  -4   6   41.30    3.00
   1   3   6   34.50    2.70
  -4   1   6   33.30    2.90
  -3   4   6   36.70    3.00
   1   3   6   34.90    2.90
  -3  -1  -6   36.80    2.90
   3  -4   6   39.60    2.90
  -3   4   6   32.00    2.80
   4  -1   6   33.40    2.80
   3   1  -6   34.80    2.60
   3   1  -6   38.90    3.00
  -1  -3   6   36.40    2.80
  -4   1   6   31.60    2.80
   1  -4  -6   41.40    2.90
  -3   4  -6   32.50    2.80
  -4   1  -6   34.70    2.90
   4  -3   6   38.60    2.90
   4  -1  -6   35.80    2.90
  -3   4  -6   33.20    2.80
  -1  -3  -6   40.40    2.90
   1  -4   6   35.50    2.80
   1   3  -6   35.80    2.60
   3   1   6   33.30    2.80
   3   1   6   36.80    2.80
  -3   4  -6   37.30    2.90
   1  -4   6   41.90    2.90
  -4   3   6   34.60    2.80
  -4   3   6   30.40    2.90
  -3  -1   6   37.50    2.80
   1   3  -6   36.30    2.80
   3  -4  -6   33.70    2.90
   4  -1  -6   32.90    2.80
  -4   1  -6   38.70    2.90
  -1   4   6   39.30    2.90
  -4   1  -6   41.80    3.00
   3  -4  -6   32.70    2.90
  -1  -3  -6   35.30    2.80
  -3  -1   6   33.40    2.80
  -3   4  -6   31.80    2.80
  -1  -3  -6   34.80    2.90
  -1   4   6   37.90    2.90
   4  -1  -6   34.90    2.90
  -1  -3  -6   37.90    2.90
   4  -3   6   34.90    2.90
  -4   3   6   30.10    2.80
   3   1   6   33.00    2.90
   1   3  -6   35.70    2.80
  -1   4   6   37.20    2.80
   4  -1  -6   40.60    2.80
   3   1   6   36.00    2.90
  -3  -1   6   40.50    3.00
  -4   3   6   37.90    2.90
  -4   4  -6 3593.04  285.37
   4  -4  -6 4064.99  285.37
   4  -4   6 3963.20  285.47
  -4   4  -6 4670.33  285.37
  -4   0  -6 4313.77  285.37
   0  -4  -6 4057.49  285.37
   4  -4   6 3773.82  285.37
   0  -4  -6 4475.65  285.47
   0  -4  -6 4510.35  285.37
   0  -4   6 3874.01  285.17
   4   0  -6 3998.20  285.17
   4   0  -6 3812.92  285.27
   0   4  -6 4487.15  285.07
   4  -4   6 4293.97  285.47
  -4   0   6 4689.03  285.47
   0  -4   6 4020.70  285.27
  -4   0  -6 3682.43  285.37
   0   4   6 4053.19  285.27
  -4   0  -6 4527.45  285.57
  -4   4   6 4080.29  285.47
   4   0   6 4436.86  285.47
   4  -4  -6 4141.69  285.47
  -4   0   6 3853.91  285.27
  -4   0   6 4242.68  285.37
  -4   4  -6 4667.93  285.37
   0   4   6 3796.72  285.37
   0  -4  -6 4257.97  285.37
  -4   4  -6 4609.04  285.47
   0   4  -6 4453.55  285.17
  -4   0  -6 4271.97  285.37
   4   0   6 4751.02  285.57
  -4   4   6 4415.26  285.47
   5  -3  -6    8.10    1.00
   2   3   6    7.30    0.90
   2  -5  -6   11.10    1.10
  -2  -3   6    9.90    0.90
   3  -5   6    8.90    1.00
   2   3   6    8.70    0.90
  -2   5  -6   10.50    1.00
  -3   5   6    9.60    1.10
  -2   5  -6    7.50    1.00
   2  -5  -6   10.00    1.10
  -3  -2  -6    7.10    1.00
   5  -3  -6    9.40    1.10
   2   3   6    7.80    0.80
  -5   2   6    9.90    1.10
   2  -5  -6    9.40    1.00
  -3   5   6    6.20    1.00
  -5   2   6    9.50    1.10
  -3   5   6    9.10    1.10
   3  -5   6    6.80    1.10
   5  -2   6    8.60    1.10
   5  -3  -6    8.70    1.00
   2   3   6    7.80    1.00
   5  -2   6    9.70    1.10
  -3  -2  -6    8.80    1.00
   3   2  -6    8.30    0.90
  -2   5  -6    8.80    0.90
   5  -2   6    8.90    1.00
  -5   3  -6    8.70    1.10
   5  -3  -6    9.60    1.10
   3  -5   6    8.40    1.10
   3  -5   6    7.80    1.00
  -5   2   6    7.60    1.00
  -5   3  -6    8.60    1.00
  -5   2   6    8.40    1.00
   5  -2   6    8.00    1.00
   2  -5  -6    8.20    1.00
  -3   5   6    9.40    1.00
  -5   3  -6    8.10    1.10
  -2   5  -6    8.80    1.00
   3   2  -6    7.80    0.90
  -2  -3  -6   10.10    1.10
   5  -3   6    9.30    1.10
  -5   3   6    7.30    1.00
  -2   5   6    8.10    1.00
  -2   5   6    7.80    1.00
  -2  -3  -6    8.60    1.00
  -2  -3  -6    8.30    1.00
  -2  -3  -6   10.00    1.00
  -3   5  -6    9.00    1.00
  -3  -2   6    7.40    0.90
  -3   5  -6    7.50    0.90
  -5   2  -6    9.20    1.10
   5  -2  -6    7.70    1.00
   5  -2  -6    7.60    0.90
  -3   5  -6    8.60    1.00
  -5   2  -6    8.60    1.10
  -5   3   6    8.10    1.10
   3  -5  -6    7.40    1.00
   3   2   6    7.80    1.00
   2  -5   6    7.80    0.90
   2  -5   6    9.20    1.00
   3  -5  -6   10.10    1.10
   5  -3   6    8.40    1.00
   5  -3   6    7.90    1.00
  -5   3   6    8.10    1.00
  -5   2  -6    7.20    1.00
  -3  -2   6    8.40    0.90
   5  -2  -6    8.90    1.00
   3  -5  -6    8.40    1.00
   3   2   6    7.60    0.90
   2  -5   6    7.70    1.00
   2  -5   6    7.40    1.00
   5  -2  -6    9.40    1.20
  -2   5   6    8.20    0.90
  -5   2  -6    9.10    1.00
  -3   5  -6    8.80    1.00
   2   3  -6    8.00    0.90
   5  -3   6    9.30    1.10
  -2   5   6    7.60    1.00
  -3  -2   6    8.50    0.90
   3   2   6    9.10    1.00
  -5   1   6 2223.28  159.08
  -1   5  -6 2007.10  158.98
  -1   5  -6 2100.89  158.98
  -4   5   6 2202.38  159.08
   5  -1   6 2349.76  158.98
  -4  -1  -6 2490.45  158.98
   4  -5   6 2420.06  159.18
  -4   5   6 2391.86  159.18
  -4   5   6 2255.27  159.18
  -1   5  -6 2114.79  158.78
   5  -4  -6 2396.96  159.08
   4   1  -6 2599.84  158.68
  -1  -4   6 2506.35  159.08
   1  -5  -6 2305.07  159.18
   1   4   6 2355.86  159.08
   4  -5   6 2399.86  159.08
   4   1  -6 2575.34  158.68
  -5   1   6 2503.05  159.08
   1  -5  -6 2651.14  159.28
  -1  -4   6 2150.78  158.88
  -4  -1  -6 2174.58  159.08
   4  -5   6 2322.57  159.18
  -5   1   6 2041.30  159.08
  -4  -1  -6 2129.79  158.98
   5  -1   6 2450.35  159.18
  -1   5  -6 2272.87  158.88
   5  -4  -6 2442.86  159.28
   5  -4  -6 2335.67  159.08
   5  -1   6 2186.58  159.08
  -5   4  -6 2062.89  159.08
  -1  -4   6 2050.09  158.88
   1   4   6 2450.15  158.88
   1   4   6 2379.86  159.08
  -4  -1  -6 2609.64  159.08
   5  -4  -6 2173.88  159.18
   5  -1   6 2467.85  159.08
  -5   1   6 2359.66  159.08
  -5   1  -6 2384.46  159.08
  -1   5   6 2186.38  158.98
   4   1   6 2586.24  159.28
   5  -4   6 2454.95  159.18
   5  -4   6 2580.44  159.38
  -5   4   6 2622.94  159.28
   5  -1  -6 2673.03  159.18
   4   1   6 2547.15  159.18
  -1  -4  -6 2366.46  159.08
   1  -5   6 2290.77  159.08
  -5   4   6 2491.15  159.18
   1  -5   6 2210.68  158.98
  -5   4   6 2183.38  159.08
   4  -5  -6 2265.87  159.08
   4  -5  -6 2177.88  159.18
  -4   5  -6 2411.76  159.08
  -4   5  -6 2371.96  159.18
  -4  -1   6 2164.18  158.88
   4   1   6 2166.38  158.98
   5  -4   6 2522.05  159.08
   1   4  -6 2223.18  158.98
  -5   1  -6 2446.96  159.18
  -1  -4  -6 2402.76  159.08
  -5   1  -6 2344.67  159.08
   1  -5   6 2385.06  158.98
  -5   1  -6 2225.18  159.08
  -1   5   6 2440.66  159.18
   4  -5  -6 2619.84  159.38
  -4   5  -6 2297.57  159.08
  -1   5   6 2417.36  159.18
   5  -1  -6 2433.56  158.98
  -5   4   6 2550.94  159.18
   5  -1  -6 2476.45  159.18
   1   4  -6 2240.18  158.88
  -4   5  -6 2110.69  159.08
   5  -4   6 2029.70  159.08
   5   0  -6 1178.98   81.69
   0   5   6 1304.87   82.09
   5  -5   6 1211.58   81.99
   5   0   6 1120.49   81.99
   0   5   6 1210.48   81.79
   0   5   6 1219.48   81.99
  -5   0  -6 1246.58   81.99
   0  -5   6 1229.88   81.79
  -5   5  -6 1086.39   81.99
   5  -5  -6 1105.29   81.99
   0  -5  -6 1192.58   81.99
  -5   0  -6 1252.27   81.99
  -5   5  -6 1228.48   81.99
   5  -5  -6 1186.58   81.99
  -5   5  -6 1355.36   82.09
  -5   0  -6 1158.98   81.99
   0  -5  -6 1313.27   81.99
   0  -5  -6 1200.58   81.89
  -5   0   6 1217.78   81.89
  -5   0   6 1171.58   81.89
   5  -5  -6 1100.39   81.99
   0  -5  -6 1346.67   82.09
   5   0  -6 1081.59   81.69
   5  -5   6 1276.77   81.99
   5   0  -6 1313.47   81.99
  -5   0   6 1045.10   81.79
  -5   5  -6 1133.29   81.89
  -5   0   6 1242.18   81.99
   5  -5  -6 1181.18   82.09
   5   0   6 1380.26   82.09
  -5   0  -6 1156.28   81.89
  -5   5   6 1217.18   81.99
   5  -5   6 1060.39   81.99
   0  -5   6 1219.18   81.89
   6  -3   6 2500.65  178.68
   3  -6   6 2776.02  178.68
  -6   3  -6 2701.43  178.68
  -3   6   6 2592.14  178.78
  -3  -3  -6 2663.43  178.68
  -3   6   6 2664.73  178.78
   3   3   6 2849.22  178.38
   3   3  -6 2259.97  178.48
  -3  -3   6 2924.01  178.48
   6  -3  -6 2907.41  178.88
  -3  -3   6 2683.43  178.48
  -6   3   6 2461.75  178.68
  -3  -3  -6 2641.24  178.68
  -3   6  -6 2340.97  178.58
  -6   3  -6 2346.77  178.68
   3  -6   6 2519.15  178.78
  -6   3  -6 2587.44  178.68
  -6   3  -6 2724.53  178.78
   6  -3  -6 2389.86  178.68
  -3   6  -6 2451.55  178.48
   6  -3   6 2260.87  178.68
  -3   6  -6 2718.03  178.68
  -6   3   6 3000.10  178.88
  -6   3   6 2583.94  178.78
   6  -3   6 2401.66  178.78
   3   3   6 2665.03  178.38
   6  -3  -6 2740.63  178.78
   3   3   6 2935.11  178.78
   3  -6  -6 2742.13  178.88
  -3   6   6 2723.13  178.68
  -3  -3   6 2663.03  178.58
  -3  -3  -6 2711.03  178.68
   3  -6   6 2339.77  178.58
   3  -6  -6 2579.34  178.68
  -3   6  -6 2959.30  178.78
   3  -6   6 2718.53  178.78
   3  -6  -6 2786.12  178.78
  -6   3   6 2580.54  178.68
   6  -3   6 3045.40  178.88
   3   3  -6 2746.43  178.58
   3   3   6 2549.15  178.68
   6  -3  -6 2224.98  178.58
  -2   6  -6 3029.80  200.58
  -4   6   6 3339.27  200.58
  -4  -2  -6 3154.68  200.48
  -4   6   6 2908.11  200.68
   4   2  -6 2722.03  200.28
   6  -4  -6 2647.44  200.58
   2   4   6 2899.61  200.48
  -4   6   6 3103.89  200.58
   2  -6  -6 2836.72  200.48
  -4  -2  -6 2596.34  200.48
   6  -2   6 2745.13  200.58
   2  -6  -6 2948.30  200.58
  -2   6  -6 3221.78  200.28
  -4  -2  -6 3156.28  200.48
  -6   4  -6 2696.33  200.48
  -6   4  -6 2892.01  200.58
  -6   2   6 2827.72  200.48
  -6   2   6 3339.37  200.58
   4   2  -6 2870.01  200.38
   6  -2   6 3077.39  200.48
   6  -2   6 3199.58  200.48
   4  -6   6 3183.88  200.58
  -6   4  -6 2912.81  200.48
  -4  -2  -6 2868.41  200.48
   4  -6   6 2693.53  200.58
  -2   6  -6 3089.79  200.38
  -6   4  -6 2916.41  200.58
   4  -6   6 2873.21  200.48
   4  -6   6 2514.95  200.48
  -2  -4   6 2754.42  200.28
  -2   6  -6 2737.13  200.48
  -4   6   6 3237.88  200.68
   2  -6  -6 2903.21  200.48
   6  -4  -6 2856.01  200.48
   2   4   6 2972.10  200.48
   6  -4  -6 2884.01  200.48
   2  -6  -6 3153.98  200.58
  -6   2   6 2688.43  200.48
  -6   4   6 3221.88  200.68
  -2   6   6 3344.57  200.78
  -2  -4  -6 3161.98  200.48
   6  -2  -6 3092.59  200.58
  -6   2  -6 3241.28  200.68
  -4  -2   6 3086.79  200.38
   4  -6  -6 2682.73  200.58
  -2   6   6 2741.93  200.48
  -4   6  -6 3114.19  200.58
   6  -4   6 2826.22  200.48
   6  -2  -6 3226.18  200.48
   2  -6   6 3157.88  200.48
  -2   6   6 3102.59  200.48
   4  -6  -6 3337.47  200.68
   4   2   6 3009.20  200.28
  -4   6  -6 3211.78  200.58
   4  -6  -6 2749.92  200.58
   6  -2  -6 2824.32  200.38
   2  -6   6 3195.78  200.58
   6  -4   6 2636.84  200.48
   2   4  -6 3096.29  200.28
  -2   6   6 2912.61  200.48
  -4  -2   6 2822.62  200.28
  -4  -2   6 2920.11  200.38
  -6   4   6 2712.53  200.48
  -6   4   6 2902.81  200.48
   4   2   6 3132.49  200.58
  -2  -4  -6 2696.33  200.38
   6  -4   6 2728.13  200.58
  -6   2  -6 3171.18  200.58
  -4  -2   6 2829.92  200.38
   2  -6   6 2773.92  200.38
  -6   4   6 3365.86  200.78
  -6   2  -6 2527.05  200.38
   4   2   6 3287.27  200.58
   4  -6  -6 2777.62  200.58
   6  -2  -6 3229.88  200.68
  -6   2  -6 2721.53  200.48
  -2  -4  -6 2689.43  200.38
   1  -6  -6    2.00    0.50
  -5  -1  -6    2.20    0.50
  -5  -1  -6    2.40    0.60
  -6   5  -6    2.20    0.60
  -1  -5   6    2.60    0.50
   1  -6  -6    1.70    0.50
  -1   6  -6    3.00    0.60
  -1   6  -6    2.30    0.50
   6  -1   6    2.00    0.50
   5  -6   6    1.70    0.50
  -5  -1  -6    1.90    0.50
  -6   1   6    2.40    0.50
  -1  -5   6    3.50    0.60
   1  -6  -6    2.70    0.60
  -6   5  -6    1.00    0.40
  -1   6  -6    2.40    0.30
  -5   6   6    2.30    0.60
  -5   6   6    2.50    0.60
  -5   6   6    2.60    0.50
   6  -1   6    3.00    0.70
  -1   6  -6    2.50    0.30
   5   1  -6    2.70    0.60
   6  -5  -6    2.30    0.60
   5  -6   6    2.40    0.60
   1   5   6    2.70    0.40
   1   5   6    2.40    0.40
   1   5   6    3.80    0.70
   1  -6  -6    2.50    0.60
   6  -5  -6    1.90    0.60
   5   1  -6    2.30    0.50
   5  -6   6    2.40    0.50
  -6   1   6    2.50    0.60
   6  -5  -6    1.60    0.50
  -6   1   6    2.50    0.50
  -1  -5   6    3.20    0.60
   6  -1   6    2.60    0.60
   6  -5  -6    3.10    0.70
  -6   1   6    2.60    0.60
  -1  -5   6    2.80    0.50
  -5   6   6    2.10    0.60
   5  -6   6    2.20    0.60
  -5  -1   6    2.50    0.50
   5  -6  -6    2.60    0.60
   1  -6   6    4.80    0.80
  -5  -1   6    4.60    0.80
   6  -5   6    2.00    0.50
   5   1   6    3.50    0.50
  -1  -5  -6    1.70    0.50
  -6   1  -6    3.30    0.70
   6  -5   6    2.00    0.50
  -5   6  -6    2.80    0.60
  -6   5   6    2.10    0.60
  -5  -1   6    2.40    0.50
  -6   1  -6    1.90    0.50
   6  -5   6    2.50    0.60
   5  -6  -6    3.20    0.80
   6  -1  -6    1.50    0.50
  -6   1  -6    2.80    0.60
  -1  -5  -6    3.20    0.70
   5  -6  -6    1.90    0.50
  -1  -5  -6    2.40    0.60
  -1   6   6    2.50    0.50
  -6   1  -6    2.80    0.60
   1  -6   6    2.10    0.50
  -6   5   6    2.30    0.60
   5   1   6    2.00    0.50
   5   1   6    2.00    0.50
   6  -1  -6    2.70    0.50
   6  -1  -6    3.20    0.70
  -6   5   6    3.20    0.70
  -5   6  -6    1.90    0.50
  -5   6  -6    1.80    0.50
  -5   6  -6    2.70    0.60
   1   5  -6    2.50    0.40
  -1  -5  -6    3.90    0.70
   1   5  -6    1.70    0.40
   5   1   6    2.40    0.50
  -1   6   6    2.70    0.50
   6   0  -6 1096.29   71.49
   0  -6  -6 1080.79   71.99
   0   6   6 1145.09   71.69
   0   6   6 1019.90   71.99
   6   0  -6  957.20   71.89
   6   0   6 1050.49   71.79
  -6   0   6 1021.10   71.89
  -6   0   6 1103.49   71.89
   0  -6   6 1152.58   71.79
   6   0   6 1140.89   72.09
  -6   0  -6 1187.08   71.99
  -6   0  -6  893.71   71.89
   6   0  -6 1084.09   71.89
   0  -6  -6 1093.99   71.89
   0  -6  -6 1103.69   71.99
  -6   0   6  959.30   71.89
  -6   0   6 1069.49   71.89
   0  -6   6  954.50   71.79
   6   0   6 1049.20   71.79
   6   0  -6 1035.70   71.49
   0   6   6 1076.79   71.69
  -6   0  -6 1017.20   71.89
  -6   6  -6  976.90   71.89
   0  -6  -6 1090.29   71.89
   6   0   6  986.90   71.99
   0   6   6 1067.19   71.99
  -6   0  -6 1074.99   71.99
   4   3  -6  260.37   17.80
  -7   3   6  242.28   18.10
  -4   7   6  251.77   18.10
   4  -7   6  238.98   18.00
   3   4   6  275.57   18.10
   3  -7  -6  281.87   18.20
   4  -7   6  283.37   18.20
   7  -4  -6  279.47   18.20
   3  -7  -6  268.07   18.10
  -3   7  -6  228.68   18.00
   4   3  -6  258.47   17.80
  -3  -4   6  252.67   17.80
  -3   7  -6  256.17   17.90
   3   4   6  253.67   18.00
  -3   7  -6  263.17   17.90
   3  -7  -6  227.48   18.00
   7  -3   6  272.77   18.10
  -4   7   6  251.27   18.00
  -7   3   6  263.07   18.20
  -3  -4   6  267.57   17.80
  -7   3   6  267.67   18.10
  -4  -3  -6  250.37   18.00
  -4   7   6  217.88   18.00
   7  -3   6  261.97   18.20
  -4  -3  -6  251.97   18.00
  -4  -3  -6  264.17   18.00
   7  -4  -6  243.98   18.20
   7  -3   6  241.68   18.20
   3  -7  -6  250.87   18.20
  -4  -3  -6  276.47   18.00
   4  -7   6  242.48   18.10
   4  -7   6  274.37   18.10
  -3  -4   6  230.38   17.80
   3  -7   6  274.17   18.00
  -7   4   6  270.07   18.20
   7  -3  -6  291.87   18.20
  -3  -4  -6  251.77   18.00
  -3  -4  -6  261.97   17.90
   4   3   6  251.57   18.00
  -4  -3   6  226.08   17.80
  -7   3  -6  285.17   18.10
   4  -7  -6  232.78   18.10
  -3  -4  -6  285.07   18.10
  -4  -3   6  280.47   17.90
  -3   7   6  256.97   18.20
  -4   7  -6  214.38   17.90
  -3   7   6  276.97   18.10
  -3   7   6  245.08   18.00
   3   4  -6  278.07   17.80
   4  -7  -6  284.87   18.30
  -3  -4  -6  255.87   18.00
   3  -7   6  231.38   18.00
  -4   7  -6  273.97   18.20
   3   4  -6  272.27   17.80
   3  -7   6  253.97   18.00
  -7   3  -6  218.08   18.10
   4  -7  -6  258.67   18.20
  -7   3  -6  258.47   18.20
  -3   7   6  260.97   18.10
  -4  -3   6  249.48   17.80
   4   3   6  278.47   18.10
   7  -3  -6  263.67   18.20
   3  -7   6  256.47   18.10
   7  -3  -6  254.37   18.00
  -7   4   6  283.27   18.20
  -2  -5   6  784.32   50.79
   5  -7   6  708.13   51.09
  -7   2   6  737.63   50.99
  -2  -5   6  664.43   50.79
   5  -7   6  789.12   51.09
   7  -5  -6  791.82   51.09
  -7   5  -6  806.32   51.09
  -2   7  -6  813.02   51.09
  -2   7  -6  686.43   50.89
  -5  -2  -6  654.23   50.89
   2   5   6  734.83   50.99
  -5   7   6  783.72   51.09
   5   2  -6  726.43   50.79
  -7   2   6  779.22   51.09
   2  -7  -6  781.22   50.99
  -5  -2  -6  730.33   50.89
   7  -2   6  830.92   50.99
   7  -2   6  803.42   51.19
   7  -2   6  791.02   51.19
  -2  -5   6  768.22   50.79
   5  -7   6  711.03   50.99
  -7   5  -6  681.33   51.09
   2  -7  -6  684.03   50.99
   5   2  -6  706.83   50.89
  -2   7  -6  673.83   50.69
  -5  -2  -6  783.42   50.99
  -5  -2  -6  775.42   50.99
  -2   7  -6  718.93   50.69
   5   2   6  699.93   50.99
  -5  -2   6  693.03   50.79
   2  -7   6  741.83   50.99
   2   5  -6  712.23   50.69
   7  -2  -6  810.52   50.99
   5   2   6  751.52   51.09
   2  -7   6  682.13   50.99
  -2   7   6  800.02   51.19
  -5  -2   6  668.73   50.79
  -2   7   6  758.02   51.09
  -7   2  -6  774.72   50.99
   7  -2  -6  652.03   50.79
  -2  -5  -6  754.92   50.89
  -5  -2   6  802.72   50.89
  -7   2  -6  802.32   51.09
  -2  -5  -6  777.12   50.99
  -2   7   6  750.62   50.79
   5   2   6  770.62   50.59
  -2  -5  -6  758.52   50.99
  -5   7  -6  715.33   50.99
   7  -2  -6  700.63   51.09
  -7   2  -6  711.13   51.09
   5   2   6  747.53   50.59
  -5  -2   6  723.83   50.89
  -2  -5  -6  780.72   50.99
   7  -5   6  759.82   51.29
  -5   7  -6  763.72   51.09
   7  -5   6  726.23   51.09
   2   5  -6  762.92   50.69
  -5   7  -6  793.82   50.99
  -5   7  -6  737.63   51.39
  -6   7   6  294.67   21.20
  -7   6  -6  308.67   21.30
  -1  -6   6  331.07   20.90
  -7   1   6  300.17   21.10
  -6  -1  -6  324.77   21.10
  -7   1   6  269.27   21.00
   6  -7   6  286.87   21.10
   1   6   6  309.37   21.10
   1  -7  -6  313.37   21.10
   1  -7  -6  258.27   21.00
   6   1  -6  289.57   21.00
   7  -1   6  340.67   21.20
   1   6   6  312.67   21.10
  -6   7   6  285.97   21.10
   7  -6  -6  311.47   21.30
  -6  -1  -6  313.57   21.10
  -1  -6   6  309.27   20.90
  -1  -6   6  271.87   20.90
   7  -6  -6  322.47   21.20
  -1  -6   6  296.57   20.80
   7  -1   6  306.87   21.00
   1  -7  -6  279.77   21.10
   6   1  -6  310.87   21.00
  -6  -1  -6  298.37   21.10
  -6  -1  -6  312.07   21.00
   7  -1   6  288.47   21.00
   1  -7  -6  289.47   21.00
  -7   6  -6  291.67   21.10
  -1   7  -6  319.27   21.00
  -7   1   6  302.17   21.10
   6  -7   6  308.97   21.30
  -7   6   6  316.97   21.30
  -1   7   6  286.97   20.80
   6   1   6  286.37   21.10
   1  -7   6  291.77   21.00
  -1  -6  -6  260.37   21.00
  -1  -6  -6  305.97   21.10
   1  -7   6  275.07   20.90
  -6   7  -6  273.07   21.20
  -6   7  -6  313.77   21.10
  -1   7   6  324.37   21.20
  -7   1  -6  302.77   21.10
  -6  -1   6  304.87   21.00
   1   6  -6  302.47   20.90
  -6  -1   6  301.87   21.00
   6  -7  -6  285.77   21.20
   7  -6   6  291.77   21.10
   6  -7  -6  302.67   21.20
   7  -1  -6  298.97   20.80
  -1   7   6  308.87   20.90
  -6  -1   6  308.67   21.00
  -6   7  -6  297.57   21.20
  -1  -6  -6  344.47   21.10
  -1  -6  -6  315.57   21.10
  -7   6   6  300.97   21.10
   7  -1  -6  305.67   21.10
  -7   1  -6  330.77   21.10
  -6  -1   6  288.77   21.00
   7  -1  -6  286.87   20.80
  -1   7   6  315.77   21.20
   1  -7   6  306.57   21.00
   6   1   6  315.27   21.10
  -7   1  -6  309.17   21.30
   6   1   6  288.97   20.80
   1   6  -6  303.27   20.80
   7  -6   6  315.77   21.30
   1  -7   6  340.27   21.10
   7  -1  -6  316.27   21.10
   7   0   6   29.40    2.40
   7  -7  -6   27.80    2.60
   7  -7   6   33.60    2.70
  -7   0  -6   31.40    2.60
  -7   7  -6   30.10    2.70
  -7   7  -6   30.40    2.60
  -7   0  -6   23.60    2.50
   0  -7  -6   31.50    2.70
  -7   0   6   28.10    2.50
   0  -7  -6   32.00    2.60
   0  -7   6   32.30    2.40
   7   0   6   28.80    2.60
   7  -7  -6   29.70    2.70
  -7   7   6   29.20    2.70
   0  -7   6   24.50    2.50
   0  -7  -6   30.60    2.60
  -7   0   6   29.20    2.50
  -7   0   6   31.70    2.60
   0  -7  -6   29.70    2.60
   7  -7   6   26.70    2.70
   0   7   6   25.90    2.50
   7   0   6   29.90    2.40
  -7   0  -6   27.40    2.60
   7   0  -6   28.40    2.50
  -7   0   6   30.90    2.60
  -7   7   6   29.20    2.60
   7   0  -6   31.00    2.60
   7   0   6   29.30    2.60
   0   7   6   23.40    2.50
   4   4  -6  951.40   64.89
  -4  -4  -6  907.01   65.09
  -4  -4   6  986.80   64.99
  -4  -4   6  903.61   64.89
   4  -8   6  971.70   65.39
  -8   4  -6  874.11   65.19
  -4   8  -6  963.70   65.19
  -8   4  -6  855.11   65.29
  -4  -4  -6  956.00   65.19
   4  -8   6  970.10   65.29
   8  -4   6  962.90   65.29
  -4   8  -6 1016.50   65.09
  -4   8   6 1044.50   65.29
  -4   8  -6  989.00   65.29
   4  -8   6 1058.89   65.39
   4   4   6  882.01   65.09
  -4   8   6  833.92   65.09
  -8   4   6  933.61   65.29
   4   4  -6  985.20   64.89
  -4  -4   6  916.61   64.89
   8  -4  -6 1013.80   65.29
  -4  -4   6  982.50   64.99
   8  -4   6  948.41   65.29
   4   4   6  934.81   65.19
  -4  -4  -6  872.71   65.09
   8  -4  -6  996.40   65.49
   8  -4   6  960.40   65.39
  -8   4   6  968.70   65.29
  -4   8  -6  996.10   65.39
  -4  -4  -6 1030.10   65.29
   3   5   6   68.29    5.10
  -8   5  -6   68.79    5.30
  -5   8   6   70.09    5.10
  -3  -5   6   65.09    4.80
   5   3  -6   59.59    4.80
  -5   8   6   69.19    5.30
  -8   3   6   63.49    5.10
  -3   8  -6   58.59    4.80
  -5  -3  -6   63.49    5.10
  -5  -3  -6   65.89    5.00
   3  -8  -6   57.19    5.10
  -5  -3  -6   63.69    5.00
   3  -8  -6   63.39    5.20
  -8   3   6   81.59    5.60
  -3  -5   6   73.39    4.80
  -3  -5   6   67.99    4.80
  -3   8  -6   71.39    5.20
   3   5   6   60.09    5.00
  -5   8   6   68.39    5.20
   5   3  -6   75.19    4.90
  -8   5  -6   59.19    5.10
   3  -8  -6   65.79    5.20
   8  -3   6   68.59    5.40
   8  -3   6   67.39    5.20
  -3   8  -6   69.49    5.10
   8  -5  -6   58.99    5.10
  -3   8  -6   70.69    5.00
   5   3   6   56.49    5.10
   3  -8   6   76.49    5.30
  -5  -3   6   66.19    4.90
   8  -5   6   62.89    5.20
  -8   3  -6   61.59    5.20
   8  -3  -6   62.79    5.00
   5   3   6   65.99    5.10
  -5   8  -6   68.99    5.00
   3   5  -6   66.39    4.80
   3  -8   6   74.49    5.20
   5  -8  -6   69.09    5.20
  -3  -5  -6   70.79    5.10
  -5  -3   6   65.09    4.90
  -3  -5  -6   65.19    5.00
  -3   8   6   57.29    5.20
  -8   5   6   71.39    5.30
   3  -8   6   56.99    5.00
   3   5  -6   69.39    4.80
  -3  -5  -6   67.29    5.00
  -5  -3   6   65.19    4.90
  -3   8   6   73.19    5.10
  -3  -5  -6   56.29    5.00
   8  -3  -6   60.79    5.00
  -5  -3   6   67.79    4.90
   5  -8  -6   66.99    5.30
  -8   5   6   68.99    5.20
  -3   8   6   66.99    5.10
  -8   3  -6   68.29    5.20
  -5   8  -6   71.79    5.10
   8  -5   6   67.29    5.30
  -8   6  -6 1860.61  116.49
   2  -8  -6 1834.62  116.29
   8  -2   6 1761.52  116.19
   8  -6  -6 1680.23  116.19
  -8   6  -6 1743.03  116.19
  -6  -2  -6 1797.92  116.19
  -6  -2  -6 1725.23  116.09
  -2   8  -6 1702.73  116.09
   6  -8   6 1668.73  116.39
   2  -8  -6 1845.12  116.29
   2   6   6 1592.44  116.09
  -2   8  -6 1868.11  116.29
   2  -8  -6 1518.15  116.19
  -2  -6   6 1629.64  115.89
   2   6   6 1814.62  116.19
  -6   8   6 1796.32  116.29
  -6   8   6 1690.83  116.29
   8  -2   6 1876.11  116.19
  -2  -6   6 1728.83  115.89
   6  -8   6 1549.84  116.19
  -8   2   6 1863.71  116.39
   8  -6  -6 1714.03  116.39
  -6  -2  -6 1668.33  116.09
  -8   2   6 1569.94  116.19
  -2  -6  -6 1719.23  116.09
  -2  -6  -6 1735.33  116.09
   2   6  -6 1677.83  115.79
   8  -2  -6 1906.91  116.39
  -2   8   6 1714.23  115.99
   6   2   6 1677.43  116.19
   2   6  -6 1908.51  115.89
   6  -8  -6 1470.25  116.19
   2  -8   6 1786.02  116.19
   2  -8   6 1521.45  116.09
   8  -6   6 1782.42  116.39
  -6   8  -6 1627.74  116.29
  -2   8   6 1790.92  115.99
  -6   8  -6 1461.35  116.09
  -6  -2   6 1690.93  115.99
   6   2   6 1721.43  116.19
  -2  -6  -6 1616.24  116.09
   8  -6   6 1714.93  116.29
   6  -8  -6 1579.74  116.29
  -8   6   6 1581.74  116.19
   2  -8   6 1842.82  116.09
   2  -8   6 1830.22  116.19
  -8   6   6 1662.33  116.29
  -2   8   6 1757.22  116.29
  -2   8   6 1519.85  116.19
   8  -2  -6 1545.45  116.19
  -2  -6  -6 1825.32  116.09
  -6   8  -6 1669.13  116.09
  -8   7  -6  888.81   62.29
   7  -8   6  898.81   62.29
  -8   7  -6  792.72   62.09
  -7   8   6  784.42   62.09
   8  -7  -6  860.21   62.39
   7  -8   6  952.00   62.39
  -7  -1  -6  832.92   62.09
   8  -1   6  968.80   62.09
  -8   1   6  920.11   62.19
   1   7   6  841.62   62.09
  -8   1   6  968.70   62.19
  -1  -7   6  895.41   61.89
   1  -8  -6  999.00   62.29
  -7  -1  -6  979.40   62.29
  -7   8   6  862.51   62.29
  -1   8  -6  896.01   62.09
   1   7   6  912.41   62.09
   1  -8  -6  935.21   62.19
  -1   8  -6  822.12   61.99
   8  -1   6  962.10   62.09
  -7  -1  -6  972.60   62.19
   8  -7  -6  870.81   62.19
   7   1  -6  943.11   62.09
   1  -8  -6  954.90   62.19
   7   1  -6  968.50   62.09
  -8   1   6  879.51   62.19
   7  -8  -6  991.20   62.49
   1  -8   6  925.91   62.09
  -7  -1   6  949.40   62.09
  -1  -7  -6  806.92   62.09
   8  -7   6  954.30   62.39
  -8   1  -6  954.10   62.19
   8  -1  -6  907.51   62.19
   7   1   6  905.71   62.19
  -7  -1   6  946.71   62.09
   1  -8   6  865.71   62.09
  -1   8   6  936.91   62.29
  -1   8   6 1008.80   62.39
   7  -8  -6  892.11   62.39
   8  -7   6  881.01   62.19
  -7  -1   6  972.50   62.09
  -8   7   6  936.91   62.39
  -8   1  -6  984.20   62.29
  -1  -7  -6  920.11   62.09
   1  -8   6  844.32   61.99
   7   1   6  853.31   62.19
  -7  -1   6  967.40   62.09
  -1  -7  -6  928.21   62.09
   8  -1  -6  869.01   62.19
  -1  -7  -6  870.51   62.09
   1  -8   6  890.91   61.99
  -7   8  -6  803.82   62.19
  -7   8  -6  866.61   62.09
  -8   0   6 1248.98   76.99
   8   0  -6 1127.59   76.99
   8  -8   6 1056.69   77.09
  -8   8  -6  973.30   76.99
   0  -8   6 1234.78   76.79
  -8   8   6 1144.79   77.19
  -8   0  -6 1120.39   76.99
   0  -8  -6 1133.09   76.99
   0   8   6 1192.38   76.99
   8   0  -6 1166.98   76.99
  -8   0   6 1075.09   76.89
   8  -8   6 1119.39   77.19
  -8   0   6 1082.79   76.99
   0   8   6 1094.99   76.99
  -8   0  -6 1054.29   76.89
   0  -8  -6 1223.48   76.99
  -8   0  -6 1102.09   77.09
  -8   8  -6 1160.68   76.99
   8   0   6 1189.88   77.09
   8   0   6 1117.69   77.09
   0  -8  -6 1163.18   77.09
  -8   8   6 1076.79   76.99
   8  -8  -6 1085.19   77.19
  -9   5  -6   53.49    4.00
  -4   9  -6   48.50    3.70
   4   5   6   52.29    3.90
   4  -9  -6   46.30    4.00
  -5   9   6   47.10    4.00
   9  -4   6   43.40    3.90
   5  -9   6   46.60    4.00
   9  -5  -6   55.79    4.30
  -5   9   6   49.20    3.90
   4  -9  -6   51.39    4.10
  -5  -4  -6   49.20    3.80
  -5  -4  -6   42.90    3.80
  -9   5  -6   48.70    4.00
   9  -5  -6   47.90    3.90
   9  -4   6   51.99    4.10
  -5  -4  -6   52.59    3.90
  -9   4   6   44.50    4.00
  -5  -4  -6   51.29    3.90
  -9   4   6   46.80    4.00
   5  -9   6   47.50    4.10
   9  -4  -6   43.70    4.00
   9  -5   6   43.90    3.90
   9  -4  -6   47.20    3.90
  -4   9   6   47.10    4.00
   5   4   6   53.09    3.90
  -9   5   6   51.19    4.10
  -5   9  -6   46.60    3.80
  -9   4  -6   49.60    4.10
  -9   5   6   47.10    4.00
   5   4   6   48.40    3.90
  -5   9  -6   48.40    3.90
  -4   9   6   42.30    3.80
  -5   9  -6   45.90    4.00
   5  -9  -6   48.50    4.10
  -9   4  -6   49.80    4.00
   9  -5   6   50.59    4.10
  -4  -5  -6   48.20    3.80
   9  -4  -6   53.09    3.90
  -4   9   6   45.40    3.90
   9  -6  -6  413.86   28.20
   9  -3   6  409.66   28.40
  -3   9  -6  389.56   28.10
  -9   6  -6  391.76   28.30
  -6  -3  -6  403.26   28.10
  -6   9   6  413.76   28.30
  -6  -3  -6  433.36   28.10
  -9   3   6  441.86   28.30
   6  -9   6  430.76   28.30
   6  -9   6  391.06   28.30
   9  -3   6  398.56   28.10
   9  -6  -6  378.46   28.30
  -9   3   6  416.26   28.30
  -9   6  -6  441.86   28.30
  -6  -3  -6  420.36   28.00
  -3   9  -6  413.86   28.20
  -6  -3  -6  391.86   28.10
   9  -3  -6  389.36   28.10
  -6   9  -6  373.06   28.10
   9  -6   6  384.06   28.20
   6  -9  -6  411.06   28.30
  -6  -3   6  369.76   27.90
  -9   3  -6  434.56   28.30
   9  -3  -6  425.16   28.10
   6   3   6  412.86   28.10
  -9   3  -6  406.86   28.30
   3  -9   6  396.06   28.20
  -3   9   6  404.06   28.00
   6  -9  -6  383.86   28.30
   3  -9   6  376.96   28.20
   3  -9   6  377.06   28.10
   6   3   6  423.26   28.20
  -9   6   6  411.06   28.40
  -9   6   6  404.96   28.20
  -6   9  -6  398.96   28.10
   9  -6   6  458.05   28.50
   9  -3  -6  427.26   28.40
  -3  -6  -6  389.66   28.00
   7  -9   6  403.36   27.90
  -7  -2  -6  428.06   27.70
   2  -9  -6  430.36   27.80
   9  -7  -6  344.97   27.70
   9  -2   6  377.66   27.60
  -2   9  -6  426.26   27.80
  -2   9  -6  371.26   27.60
  -7  -2  -6  416.46   27.70
   9  -7  -6  394.56   27.90
  -9   7  -6  377.16   27.80
  -7  -2  -6  391.46   27.60
  -7   9   6  421.06   27.90
   2  -9  -6  414.86   27.80
   9  -2   6  418.76   27.90
   2  -9   6  377.06   27.60
   2  -9   6  402.26   27.70
  -7   9  -6  360.56   27.60
  -7  -2   6  387.26   27.50
  -9   2  -6  371.46   27.70
  -2   9   6  384.86   28.00
  -7   9  -6  388.76   27.80
   9  -7   6  400.66   27.90
   7   2   6  391.76   27.70
   2  -9   6  402.46   27.70
   7   2   6  429.86   27.70
  -9   7   6  384.56   27.90
   9  -7   6  376.76   27.70
   7  -9  -6  422.86   27.90
  -9   7   6  365.56   27.70
   7  -9  -6  426.76   28.00
  -2  -7  -6  463.45   27.70
  -2   9   6  405.76   27.80
  -9   2  -6  407.26   27.80
  -8   9   6    0.70    0.40
   9  -8  -6    1.20    0.50
  -9   8  -6    0.70    0.40
   9  -8  -6    0.50    0.40
  -9   8  -6    1.00    0.50
   8  -9   6    0.80    0.50
   9  -1   6    2.50    0.70
  -9   1   6    1.10    0.40
  -8  -1  -6    1.30    0.50
  -8   9   6    0.70    0.40
   8  -9   6    0.70    0.40
   1  -9  -6    0.60    0.40
  -8  -1  -6    0.80    0.40
   1  -9  -6    0.50    0.30
  -9   1   6    0.80    0.40
  -8  -1  -6    0.40    0.30
   9  -8   6    0.20    0.40
  -8   9  -6    0.90    0.50
  -9   1  -6    1.70    0.60
  -1   9   6    0.60    0.40
  -9   1  -6    0.60    0.40
  -9   8   6    0.60    0.40
   8   1   6    0.50    0.40
   8  -9  -6    1.10    0.50
   1  -9   6    0.60    0.30
   9  -1  -6    0.40    0.30
   8   1   6    0.60    0.40
   8  -9  -6    0.60    0.40
  -1   9   6    0.90    0.40
  -9   8   6    2.00    0.70
  -8   9  -6    0.90    0.40
   9  -1  -6    0.60    0.40
 -10   5  -6  936.91   63.79
   5 -10  -6  959.20   63.99
  10  -5  -6  953.30   63.99
 -10   5   6  952.00   63.89
  -5  10   6  843.02   63.79
  -5  10   6  920.31   63.69
   5 -10   6  934.01   63.89
  10  -5   6  978.80   63.89
 -10   5  -6  989.70   63.99
   5 -10   6  926.91   63.89
  -5  10  -6  803.62   63.79
  10  -5   6  980.90   63.99
   5 -10  -6  923.41   63.79
 -10   5   6  945.91   63.89
  -4  10  -6  983.50   66.59
   6 -10   6 1010.40   66.79
  10  -6  -6  945.91   66.79
  10  -6  -6  934.41   66.69
 -10   4   6  938.31   66.59
   4 -10  -6  910.61   66.59
  -6  10   6  922.31   66.69
  10  -4   6 1074.69   66.89
  10  -4   6  949.31   66.59
 -10   6  -6 1046.40   66.79
  -6  10   6 1022.50   66.49
   4 -10  -6 1045.30   66.79
   6 -10   6  945.81   66.69
 -10   4   6  974.40   66.69
  10  -6   6 1026.30   66.69
  -6  10  -6 1075.99   66.59
 -10   4  -6  916.61   66.69
  -4  10   6  949.11   66.69
   6 -10  -6  946.81   66.69
   4 -10   6  937.21   66.59
 -10   6   6  856.61   66.59
  10  -4  -6  925.71   66.69
 -10   6   6  893.41   66.59
  -6  10  -6 1060.09   66.79
   6 -10  -6 1002.60   66.69
  10  -4  -6 1066.79   66.59
   4 -10   6 1020.20   66.79
 -10   4  -6  926.41   66.59
  10  -6   6  916.01   66.69
   0   0  -7    0.30    0.20
   0   0   7    0.20    0.20
   0   0  -7    0.10    0.20
   0   0  -7    0.00    0.10
   0   0   7    1.20    0.40
   0   0  -7    0.10    0.20
   0   0   7    0.40    0.30
   1  -1  -7   41.50    3.30
   0   1  -7   39.70    3.30
   1  -1   7   43.00    3.30
   1   0  -7   46.00    3.30
   1   0   7   43.60    3.30
  -1   0  -7   41.70    3.20
  -1   0   7   39.00    3.20
   1  -1  -7   42.20    3.30
   1  -1   7   34.40    3.20
   0   1   7   36.60    3.20
   0   1   7   41.40    3.30
   0  -1  -7   42.40    3.30
   0   1   7   40.70    3.30
  -1   1  -7   46.10    3.30
  -1   0  -7   40.00    3.20
   0  -1   7   42.40    3.20
   0   1  -7   40.10    3.30
  -1   0   7   35.20    3.20
  -1   0   7   38.90    3.30
  -1   0   7   42.80    3.30
   0  -1   7   42.60    3.30
   0  -1   7   43.00    3.40
  -1   0  -7   47.20    3.40
   0  -1  -7   46.30    3.30
   1  -1  -7   40.00    3.20
   0   1   7   37.20    3.30
   1   0   7   42.00    3.20
   1  -1   7   41.70    3.30
  -1   1  -7   42.10    3.30
  -1   1   7   42.00    3.30
   1   0  -7   39.30    3.20
  -1   1   7   42.90    3.30
   0   1  -7   46.40    3.20
  -1   1   7   45.10    3.40
   1   0  -7   46.20    3.30
  -1   1   7   36.40    3.20
  -1   1  -7   42.10    3.30
  -1   0  -7   43.80    3.30
   1   0   7   38.00    3.30
   1   1  -7    0.20    0.20
   1  -2   7    0.10    0.20
   1   1   7    0.20    0.20
  -2   1   7    0.10    0.20
  -2   1  -7    0.20    0.20
   2  -1   7    0.20    0.20
  -2   1  -7    0.10    0.20
  -2   1   7    0.60    0.30
   2  -1  -7    0.00    0.20
   2  -1   7    1.10    0.40
  -1   2   7    0.00    0.10
  -1  -1   7    0.20    0.20
  -1  -1   7    0.40    0.20
  -2   1   7    0.20    0.20
   1   1   7    0.00    0.20
  -1  -1  -7    0.30    0.20
  -1  -1   7    0.00    0.20
  -1   2   7    0.10    0.20
   1   1  -7    0.00    0.20
   2  -1  -7    0.00    0.20
   1   1   7    0.20    0.30
  -1   2   7    0.20    0.20
   1  -2  -7    0.30    0.30
  -1  -1  -7    0.10    0.20
   1   1   7    0.20    0.20
  -1   2  -7    0.00    0.20
  -1  -1   7    0.10    0.20
   1  -2  -7    0.00    0.20
  -2   1   7    0.60    0.30
  -2   1  -7    0.30    0.30
   2  -1  -7    0.30    0.20
  -1   2  -7    0.10    0.10
  -1   2  -7    0.30    0.30
   1  -2   7    0.10    0.20
   1   1  -7    0.30    0.20
   1  -2  -7    0.60    0.30
  -1  -1  -7    0.40    0.20
  -1  -1  -7    0.30    0.30
   1  -2   7    0.10    0.20
   2  -1  -7    0.10    0.20
   1  -2  -7    0.20    0.20
  -1   2   7    0.20    0.20
   1   1  -7    0.20    0.20
   0   2   7  685.13   45.10
  -2   2  -7  594.54   45.10
  -2   2  -7  693.73   45.20
   0  -2  -7  719.83   45.30
   2  -2   7  614.24   45.20
  -2   0  -7  721.83   45.20
   0   2   7  570.14   45.20
   2   0   7  607.94   45.20
  -2   2  -7  682.53   45.20
   2  -2   7  727.63   45.30
   0  -2  -7  666.03   45.20
   0   2  -7  577.84   45.10
   2   0   7  653.73   45.30
   2   0   7  615.84   45.20
  -2   2   7  703.33   45.30
   2   0  -7  638.54   45.20
   2   0  -7  678.23   45.20
   0   2  -7  709.53   45.20
  -2   0  -7  672.93   45.20
   0   2  -7  688.93   45.10
   0  -2  -7  720.63   45.30
  -2   0   7  613.44   45.20
   2  -2  -7  650.73   45.20
   0  -2  -7  687.53   45.20
  -2   0   7  583.64   45.10
  -2   2  -7  659.73   45.30
   2  -2   7  568.94   45.10
   2  -2  -7  687.53   45.20
  -2   2   7  741.03   45.40
  -2   0  -7  694.03   45.30
   0  -2   7  620.14   45.10
   2   0   7  708.33   45.20
  -2   0   7  663.03   45.20
  -2   0   7  648.54   45.10
   0  -2   7  674.43   45.20
   2  -2  -7  693.03   45.30
   2  -2  -7  627.44   45.20
  -2   2   7  632.34   45.20
  -2   2   7  759.22   45.20
   2   0  -7  587.34   45.00
   0   2  -7  616.84   45.10
   0   2   7  698.53   45.30
  -2   0  -7  671.83   45.20
   2  -3   7  253.27   19.10
   3  -2  -7  301.07   19.10
  -1   3  -7  242.98   19.00
  -3   2  -7  278.97   19.10
   3  -1   7  285.67   19.10
  -2   3   7  297.07   19.20
   1  -3  -7  306.87   19.20
   3  -1   7  284.17   19.10
  -1   3  -7  255.67   19.00
   1  -3  -7  279.17   19.10
  -3   1   7  280.17   19.00
   1   2   7  261.97   19.10
  -3   1   7  265.47   19.10
  -3   1   7  280.27   19.10
  -2  -1  -7  288.47   19.00
   2  -3   7  321.57   19.10
   1  -3  -7  243.98   19.00
   1  -3  -7  305.37   19.20
   2   1  -7  294.37   19.10
   3  -2  -7  243.68   19.00
  -3   1   7  283.77   19.10
   3  -2  -7  276.57   19.10
  -3   2  -7  251.97   19.10
   1   2   7  270.87   19.10
  -2   3   7  248.18   19.00
   2  -3   7  302.17   19.10
   2   1  -7  270.17   19.00
   2   1  -7  281.47   18.90
   2  -3   7  257.07   19.00
  -2  -1  -7  312.17   19.20
  -2  -1  -7  267.77   19.10
  -2  -1  -7  281.07   19.10
  -1   3  -7  240.98   18.90
   1   2   7  286.77   19.00
   3  -1   7  253.57   19.00
   3  -1   7  236.38   19.00
  -1  -2   7  296.67   19.10
  -3   2  -7  299.67   19.10
   3  -2  -7  231.68   19.00
   1   2   7  263.27   19.00
  -1  -2   7  242.38   19.00
  -1  -2   7  310.97   19.00
  -2   3   7  300.07   19.20
  -2   3  -7  250.07   18.90
   2  -3  -7  245.18   19.00
   2  -3  -7  288.67   19.10
   1  -3   7  285.27   19.00
  -3   1  -7  232.58   19.00
   1  -3   7  249.97   18.90
  -1  -2  -7  277.87   19.10
   3  -1  -7  277.07   19.10
  -3   1  -7  240.88   19.00
   1  -3   7  290.27   19.10
  -3   2   7  286.47   19.00
   1   2  -7  267.87   19.00
   1   2  -7  312.67   19.00
  -2  -1   7  293.97   19.10
  -1   3   7  256.77   19.00
   3  -1  -7  265.77   19.10
   2  -3  -7  240.68   19.10
  -1  -2  -7  289.97   19.10
  -3   1  -7  289.77   19.10
   2   1   7  268.47   19.10
  -1   3   7  302.07   19.10
   3  -2   7  260.67   19.00
  -1   3   7  302.57   19.10
  -2   3  -7  272.77   19.10
  -3   2   7  281.77   19.10
   2   1   7  274.07   19.10
   1  -3   7  271.77   19.10
  -1  -2  -7  285.87   19.10
   2   1   7  286.77   19.10
  -3   1  -7  288.67   19.10
   2   1   7  260.27   18.90
  -2   3  -7  290.57   19.00
   1   2  -7  277.87   19.00
  -2   3  -7  228.88   19.00
   3  -1  -7  299.97   19.00
  -2  -1   7  243.58   19.00
  -1  -2  -7  268.97   19.10
   3  -1  -7  251.17   19.00
  -1   3   7  287.57   19.20
  -3   2   7  295.27   19.20
   0  -3  -7   82.09    5.70
   3   0   7   71.69    5.60
   3  -3  -7   83.99    5.70
  -3   3   7   77.39    5.80
  -3   3  -7   75.79    5.70
   3  -3   7   63.49    5.60
   3  -3   7   66.29    5.70
  -3   0   7   75.69    5.70
   0   3  -7   78.19    5.70
   3   0  -7   75.29    5.70
   0   3   7   79.59    5.70
   3   0   7   87.49    5.80
   3   0  -7   84.99    5.60
  -3   0  -7   62.99    5.60
  -3   3  -7   79.19    5.70
   3  -3   7   70.89    5.70
   0  -3   7   76.69    5.60
   0  -3   7   82.29    5.60
  -3   0   7   66.49    5.60
   0   3   7   80.59    5.60
   0  -3   7   77.39    5.70
   3   0   7   85.39    5.70
  -3   3  -7   87.79    5.70
  -3   0   7   70.29    5.60
   3   0  -7   76.19    5.60
   0  -3  -7   71.49    5.70
  -3   3   7   75.89    5.70
   0   3  -7   78.39    5.60
  -3   0  -7   70.49    5.70
  -3   3   7   72.19    5.60
  -3   0  -7   76.19    5.70
   0   3   7   81.79    5.70
  -3   3  -7   78.19    5.70
   3   0   7   79.59    5.70
   0  -3   7   69.59    5.60
   0  -3  -7   69.49    5.60
   0  -3  -7   84.89    5.70
  -3   0   7   76.49    5.60
  -3   0  -7   73.99    5.60
  -4   2  -7    0.30    0.20
   2   2   7    0.10    0.20
   4  -2  -7    0.10    0.20
   2   2  -7    0.30    0.20
   2  -4  -7    0.40    0.30
   2  -4   7    0.10    0.20
  -2  -2   7    0.10    0.20
  -2  -2  -7    0.00    0.20
   4  -2  -7    1.00    0.40
   4  -2   7    0.10    0.30
   4  -2   7    0.50    0.30
   2   2  -7    0.10    0.10
   2  -4   7    0.40    0.30
  -2   4   7    0.10    0.20
  -4   2   7   -0.10    0.10
  -4   2  -7    0.10    0.20
   2  -4   7    0.00    0.10
   2  -4  -7    0.10    0.20
  -4   2   7    0.40    0.30
   4  -2  -7    0.10    0.20
   2   2   7    0.20    0.30
   2   2  -7    0.10    0.10
   4  -2   7    0.00    0.20
   2  -4   7   -0.10    0.10
   2  -4  -7    0.20    0.20
  -2   4   7    0.20    0.20
  -2  -2   7    0.10    0.20
   4  -2  -7    0.10    0.20
  -4   2   7    0.30    0.30
  -2  -2  -7    0.50    0.30
  -2   4  -7    0.50    0.30
  -2   4  -7    0.80    0.30
  -2   4  -7    0.10    0.10
   2   2   7    0.80    0.30
  -2  -2  -7    0.00    0.10
  -2  -2  -7    0.10    0.20
  -2   4  -7    0.30    0.20
  -4   2   7    0.10    0.20
   2  -4  -7    0.40    0.30
   3  -4   7  263.57   17.90
   3   1  -7  227.98   17.60
  -1   4  -7  240.28   17.80
  -1  -3   7  233.38   17.60
  -3  -1  -7  271.07   17.90
  -4   1   7  233.78   17.70
   4  -3  -7  264.97   17.80
   4  -3  -7  253.57   17.80
   1   3   7  281.17   17.70
   3  -4   7  257.87   17.70
   3   1  -7  256.47   17.80
   1  -4  -7  229.68   17.80
  -3  -1  -7  236.48   17.70
  -3   4   7  266.47   17.80
  -3   4   7  226.88   17.90
  -3   4   7  290.17   18.00
   3   1  -7  277.57   17.80
  -1   4  -7  241.78   17.70
   4  -1   7  264.67   17.80
   4  -3  -7  251.37   17.90
  -4   1   7  218.08   17.70
   1  -4  -7  253.57   17.90
  -4   3  -7  247.68   17.80
  -4   1   7  280.07   17.90
   1  -4  -7  228.38   17.80
   4  -1   7  235.08   17.80
   1   3   7  222.58   17.80
   3   1  -7  245.68   17.60
  -1   4  -7  259.67   17.80
   3  -4   7  243.18   17.90
  -3  -1  -7  227.48   17.70
   4  -3  -7  243.68   17.80
  -3  -1  -7  251.77   17.80
   4  -1   7  257.37   17.80
   1  -4  -7  264.77   17.90
   3  -4   7  266.07   17.80
   1  -4   7  282.97   17.80
  -3   4  -7  258.97   17.90
  -3   4  -7  260.37   17.80
   4  -3   7  227.18   17.80
  -1  -3  -7  281.97   17.90
   3  -4  -7  280.17   18.00
  -4   3   7  272.27   17.90
   1   3  -7  272.37   17.50
   4  -1  -7  254.17   17.80
   1  -4   7  290.57   17.90
  -3   4  -7  264.97   17.80
  -1  -3  -7  230.88   17.80
   3  -4  -7  279.07   17.90
  -4   1  -7  258.77   17.80
  -3   4  -7  258.87   17.70
  -4   1  -7  258.97   17.90
   1  -4   7  255.97   17.80
  -1   4   7  263.37   17.80
   3   1   7  259.87   17.70
   3  -4  -7  263.37   17.80
  -1   4   7  254.87   17.70
  -1   4   7  248.68   17.80
   1   3  -7  213.88   17.80
   3   1   7  225.58   17.80
  -3  -1   7  289.17   17.80
   4  -1  -7  260.87   17.70
   3  -4  -7  271.87   17.90
   4  -1  -7  269.97   17.90
   1   3  -7  233.18   17.50
   3   1   7  269.27   17.90
   4  -3   7  244.48   17.80
  -4   3   7  277.47   17.90
   1   3  -7  227.38   17.70
   1  -4   7  293.47   17.80
   4  -3   7  263.57   18.00
  -3  -1   7  258.97   17.80
  -4   1  -7  271.37   17.80
   0   4  -7  803.32   50.49
  -4   0  -7  770.22   50.79
  -4   4   7  733.33   50.79
   4   0   7  770.62   50.69
  -4   0   7  767.32   50.69
  -4   0  -7  788.32   50.79
   0  -4  -7  759.92   50.79
  -4   4  -7  729.63   50.79
   4   0   7  796.12   50.79
   0   4   7  764.72   50.79
   4   0   7  753.72   50.79
   4  -4   7  815.72   50.79
   4   0  -7  770.62   50.79
  -4   4   7  665.63   50.79
  -4   4   7  792.42   50.79
  -4   4  -7  776.02   50.79
  -4   0   7  667.53   50.69
  -4   4   7  755.32   50.79
   0   4   7  755.02   50.59
   0   4  -7  671.33   50.49
  -4   4  -7  653.03   50.69
   4  -4   7  752.12   50.79
  -4   0  -7  697.73   50.69
  -4   4  -7  782.72   50.69
   4  -4  -7  777.32   50.79
   0  -4   7  813.82   50.69
   0  -4   7  745.43   50.59
   0  -4   7  677.23   50.69
   0  -4   7  772.72   50.69
   0   4  -7  773.22   50.69
   4   0  -7  754.62   50.79
  -4   0   7  707.83   50.69
   0  -4  -7  643.94   50.69
   0  -4  -7  757.62   50.79
   4   0   7  669.63   50.59
  -4   0  -7  720.63   50.79
   4  -4   7  671.93   50.79
   4   0  -7  812.62   50.59
   0   4   7  691.93   50.69
   0   4  -7  722.93   50.69
   0  -4  -7  725.83   50.69
   5  -2   7   38.60    3.00
   3   2  -7   34.40    2.50
  -3  -2  -7   39.00    3.00
  -5   3  -7   39.50    2.90
  -5   2   7   38.60    2.90
  -5   3  -7   33.70    3.00
  -2   5  -7   34.40    2.70
  -3   5   7   30.70    3.00
  -5   3  -7   32.80    2.90
   3   2  -7   35.20    2.50
  -5   2   7   36.90    3.00
   2  -5  -7   40.00    3.00
   3  -5   7   32.20    2.90
   2  -5  -7   34.40    2.90
   3   2  -7   37.30    2.80
  -2   5  -7   35.80    2.90
   2   3   7   33.30    2.90
  -3   5   7   34.30    2.90
  -5   2   7   35.50    2.90
  -2   5  -7   31.70    2.80
  -2  -3   7   36.20    2.80
   5  -3  -7   37.00    2.90
   2  -5  -7   41.20    3.00
  -5   2   7   40.10    3.00
   2   3   7   31.60    2.90
   5  -3  -7   33.50    2.90
   3  -5   7   35.00    2.90
  -3   5   7   35.80    3.00
   2   3   7   33.30    2.70
   3  -5   7   36.20    2.90
   5  -2   7   35.60    2.90
   5  -2   7   32.10    2.80
  -3   5   7   33.30    2.90
  -2  -3   7   34.10    2.80
   2  -5  -7   33.90    2.90
  -5   3  -7   30.50    2.90
  -3  -2  -7   35.00    2.80
   3  -5   7   35.90    2.80
   5  -2   7   32.40    2.90
   5  -3  -7   29.10    2.90
   2   3   7   35.50    2.80
  -3  -2  -7   37.10    2.90
   5  -3  -7   33.50    2.90
   5  -2  -7   36.00    2.80
  -5   2  -7   35.40    2.90
  -5   3   7   41.40    3.00
   2  -5   7   35.10    2.90
   5  -3   7   36.80    3.00
  -3   5  -7   32.40    2.80
  -2  -3  -7   34.70    3.00
  -3   5  -7   29.10    2.80
  -3   5  -7   38.50    3.00
  -3   5  -7   31.30    2.90
   3   2   7   34.70    2.70
  -5   3   7   38.10    2.90
  -3  -2   7   36.00    2.80
   2  -5   7   29.20    2.80
  -2  -3  -7   30.80    2.80
   3   2   7   36.10    2.80
  -5   2  -7   33.60    2.90
   2  -5   7   36.80    3.00
   5  -2  -7   29.90    2.90
   2   3  -7   34.50    2.40
   3  -5  -7   31.70    2.90
   3   2   7   38.10    3.00
   3   2   7   35.10    2.90
   2  -5   7   35.30    2.80
  -2   5   7   39.00    3.10
   3  -5  -7   38.30    3.00
  -5   2  -7   35.60    2.90
  -3  -2   7   34.40    2.80
  -2   5   7   30.90    2.90
  -2  -3  -7   37.20    2.90
  -5   3   7   36.20    3.00
   5  -3   7   32.10    2.90
  -5   2  -7   39.70    3.10
  -2   5   7   33.20    2.80
   5  -2  -7   35.10    2.90
   5  -2  -7   36.50    2.90
  -2   5   7   32.30    2.90
   5  -3   7   32.40    2.90
   5  -3   7   36.40    2.90
  -4  -1  -7  102.89    8.00
   4   1  -7  111.39    8.00
   1   4   7  111.19    8.10
   4   1  -7  109.99    7.70
   5  -1   7  117.49    8.00
  -4  -1  -7  123.09    8.20
  -5   1   7  115.49    8.00
   1  -5  -7  107.39    8.00
   4  -5   7  112.29    8.00
  -1  -4   7  107.89    7.80
  -5   1   7  108.99    8.00
  -4  -1  -7  120.99    8.10
  -1   5  -7  114.99    7.80
   4   1  -7  107.59    8.00
  -1  -4   7  116.09    8.00
  -5   1   7  103.09    8.00
   1   4   7  109.39    8.00
   1   4   7  108.49    7.90
   4  -5   7  101.99    8.10
  -4   5   7  118.59    8.10
  -4   5   7  117.59    8.20
   5  -1   7  119.19    8.10
  -4   5   7  120.49    8.20
   1  -5  -7  119.99    8.10
   1  -5  -7  126.99    8.10
  -5   1   7  104.79    8.00
   1  -5  -7  102.49    8.00
   1   4   7   91.39    7.80
   5  -1   7  106.39    8.10
   5  -4  -7   98.69    8.10
   5  -4  -7  117.19    8.10
   4   1  -7  115.59    7.70
   4  -5   7  110.99    8.00
  -5   4  -7  101.79    8.00
  -5   4  -7  113.49    8.00
   5  -4  -7  115.09    8.10
  -4   5   7  106.89    8.10
  -4  -1  -7  111.69    8.00
   5  -1   7  113.09    8.20
   4  -5   7  112.09    8.10
  -1   5   7   99.09    8.00
  -5   1  -7  116.69    8.10
  -4   5  -7  104.39    8.00
   1  -5   7  101.99    8.00
   4   1   7  119.49    8.10
   1   4  -7  121.19    8.00
   4  -5  -7  111.89    8.10
  -5   4   7   94.89    8.00
  -5   1  -7  105.69    8.10
  -4   5  -7  113.39    8.00
  -4  -1   7  109.99    8.00
  -1   5   7  110.69    8.00
   5  -1  -7  113.59    8.00
   1  -5   7   94.69    8.00
   4   1   7  110.59    8.10
   5  -4   7  121.49    8.10
   4  -5  -7  113.39    8.20
  -1   5   7  103.09    7.90
  -4   5  -7  114.29    8.10
  -4  -1   7  107.09    8.00
  -5   4   7  104.29    8.10
   5  -4   7   90.39    8.00
  -1   5   7  116.09    8.10
  -5   4   7  109.69    8.00
  -4  -1   7  111.19    7.90
   5  -4   7  103.59    8.10
  -5   4   7  101.79    8.00
   4  -5  -7  109.29    8.10
   1   4  -7  108.09    7.50
  -1  -4  -7  115.09    8.00
   1  -5   7  118.89    7.90
   4  -5  -7  116.09    8.10
  -5   1  -7  117.79    8.00
   5  -1  -7  111.49    8.00
   1   4  -7  102.89    7.50
  -4   5  -7  108.19    8.10
  -5   1  -7  118.69    8.10
   0  -5   7  380.96   25.50
   0  -5  -7  354.46   25.60
   0  -5  -7  351.16   25.70
  -5   0  -7  376.36   25.70
  -5   0   7  332.07   25.60
   0   5   7  389.66   25.60
   5   0  -7  361.16   25.40
   5  -5   7  417.26   25.80
  -5   5  -7  360.96   25.70
  -5   5  -7  338.07   25.60
   0  -5   7  353.36   25.50
   0   5   7  370.56   25.70
  -5   0   7  402.36   25.60
  -5   0  -7  393.26   25.60
  -5   0   7  383.16   25.60
  -5   5  -7  390.46   25.80
   0   5  -7  427.76   25.70
   5  -5  -7  344.77   25.80
  -5   5   7  365.26   25.70
   0   5   7  364.36   25.50
  -5   0  -7  396.56   25.70
  -5   0  -7  361.46   25.60
   0   5  -7  375.26   25.20
   5  -5   7  365.16   25.70
  -5   0   7  385.36   25.70
   5  -5   7  346.97   25.60
   0   5   7  314.27   25.60
   0  -5  -7  383.46   25.80
   5   0   7  377.36   25.60
   5   0   7  369.76   25.80
   0   5  -7  380.46   25.60
   5  -5  -7  404.56   25.80
  -5   5  -7  344.97   25.60
   5   0   7  341.47   25.70
   0  -5   7  370.46   25.60
   0  -5   7  422.76   25.70
   0  -5  -7  355.36   25.60
   5   0  -7  353.36   25.60
   5   0  -7  357.66   25.70
  -6   3   7    0.10    0.30
  -3  -3  -7    0.10    0.20
  -6   3   7    0.20    0.30
  -3  -3   7    0.40    0.30
  -6   3  -7    0.10    0.20
  -3  -3  -7    0.00    0.20
  -3   6   7    0.00    0.20
  -6   3  -7   -0.10    0.30
  -3   6  -7    0.90    0.30
   6  -3  -7    0.00    0.20
   3   3   7    0.10    0.30
   3  -6  -7    1.40    0.50
   3  -6  -7    0.20    0.30
  -6   3   7    0.10    0.20
   6  -3  -7    0.30    0.30
  -6   3  -7    0.20    0.30
   3  -6   7    0.10    0.20
   6  -3   7   -0.10    0.30
   3  -6  -7    0.40    0.30
  -3  -3  -7    0.80    0.30
  -6   3  -7    0.40    0.30
  -3   6   7    0.10    0.30
   3  -6   7    0.00    0.20
  -6   3   7    0.50    0.40
  -3   6  -7    0.20    0.30
   3  -6  -7    0.10    0.20
  -3   6   7    0.90    0.40
   3  -6   7    0.00    0.20
   3  -6   7    0.10    0.20
   3   3   7    0.10    0.20
  -3  -3   7    0.20    0.20
  -3   6  -7    0.20    0.20
   6  -3   7    0.20    0.20
  -3   6  -7    0.30    0.30
   6  -3   7    0.20    0.30
   6  -3  -7    1.10    0.40
   6  -3   7    0.20    0.30
  -2  -4   7  258.47   18.60
   2  -6  -7  280.07   19.00
   6  -4  -7  294.97   19.10
  -4  -2  -7  270.57   18.90
  -6   4  -7  263.77   18.90
  -4  -2  -7  300.67   19.00
  -4   6   7  282.07   19.00
  -6   4  -7  272.57   18.90
  -6   2   7  270.87   18.90
  -2  -4   7  280.27   18.70
   6  -4  -7  288.87   18.90
  -4  -2  -7  261.67   18.80
   4  -6   7  226.08   18.90
   6  -4  -7  276.97   19.00
  -2   6  -7  273.17   18.90
  -4  -2  -7  279.77   18.90
   2  -6  -7  266.07   18.90
   2  -6  -7  283.97   18.90
  -6   2   7  316.27   19.20
   2  -6  -7  268.17   19.00
   4   2  -7  269.27   18.80
   4   2  -7  297.37   18.80
   4  -6   7  272.27   18.90
  -4   6   7  286.47   18.90
   6  -2   7  272.97   18.90
  -2   6  -7  247.28   18.90
  -6   2   7  255.57   18.80
   6  -2   7  293.27   19.00
   6  -2   7  297.57   19.00
  -6   2   7  260.37   18.90
   4  -6   7  294.87   18.90
  -2   6  -7  269.57   18.70
  -4   6   7  279.67   18.90
   2   4   7  289.17   18.90
   2   4   7  254.17   18.60
   6  -4  -7  261.27   18.80
  -6   4   7  269.27   18.90
  -6   4   7  259.67   18.90
  -6   2  -7  260.67   18.80
  -4   6  -7  237.78   18.70
  -4  -2   7  272.07   18.80
  -6   2  -7  287.47   18.90
  -2   6   7  264.47   18.80
   4  -6  -7  298.77   19.20
  -2   6   7  233.88   18.90
   6  -2  -7  235.08   18.80
  -4   6  -7  257.27   18.80
   4  -6  -7  237.18   18.90
   4   2   7  241.88   18.80
   6  -2  -7  251.87   18.70
   6  -2  -7  260.17   18.90
  -2  -4  -7  255.07   18.80
  -4   6  -7  284.97   19.00
  -4   6  -7  273.87   18.90
  -6   2  -7  250.07   18.90
  -6   2  -7  289.27   19.20
   2  -6   7  265.07   18.80
   6  -4   7  252.97   18.80
  -4  -2   7  295.97   18.80
   2  -6   7  271.27   18.90
   2  -6   7  269.97   18.90
   4   2   7  266.27   18.70
  -2  -4  -7  262.77   18.80
   6  -4   7  276.07   18.90
  -2   6   7  284.27   19.00
  -2  -4  -7  250.47   18.80
  -4  -2   7  276.47   18.80
   4  -6  -7  268.97   18.90
   2  -6   7  284.07   18.90
  -6   4   7  255.97   19.00
   4   2   7  250.07   18.60
   6  -4   7  283.47   19.10
   4   2   7  283.07   18.90
  -1   6  -7  940.31   65.79
   5  -6   7 1033.40   65.89
   6  -5  -7 1031.10   65.89
   1  -6  -7  911.81   65.79
  -5  -1  -7  942.61   65.79
  -5  -1  -7 1017.50   65.89
  -6   1   7  854.41   65.69
  -6   1   7  849.72   65.79
  -1   6  -7 1068.49   65.49
  -1   6  -7 1004.60   65.49
  -5   6   7 1039.30   65.89
  -5  -1  -7  892.31   65.79
   6  -1   7  921.81   65.89
   6  -1   7 1051.69   65.89
  -5  -1  -7  939.51   65.69
   1  -6  -7  852.51   65.79
  -1   6  -7  949.31   65.79
   1  -6  -7  858.31   65.79
  -6   1   7  943.61   65.79
   5  -6   7 1015.80   65.99
  -6   1   7  909.01   65.79
  -1  -5   7 1030.50   65.69
   5   1  -7 1026.60   65.79
   5   1  -7  867.51   65.69
   1   5   7  897.21   65.79
   1   5   7  944.91   65.79
   1   5   7  957.10   65.59
   6  -1  -7 1003.00   65.69
  -1  -5  -7  915.41   65.79
  -1  -5  -7  986.20   65.79
  -6   1  -7 1046.30   65.99
  -6   1  -7 1002.30   65.89
   6  -1  -7  991.50   65.69
  -5   6  -7 1009.10   65.79
  -5   6  -7  992.40   65.79
  -5  -1   7  839.12   65.69
   1  -6   7  956.00   65.69
  -6   1  -7 1020.50   65.79
  -1   6   7  970.30   65.69
   1  -6   7  970.00   65.79
  -1  -5  -7 1080.59   66.09
   1  -6   7 1013.80   65.79
   6  -1  -7  939.41   65.79
  -5  -1   7 1040.10   65.79
  -6   1  -7 1012.70   65.89
  -1  -5  -7 1004.70   65.89
  -5  -1   7  953.10   65.69
   5   1   7 1012.50   65.69
  -5   6  -7  969.10   65.89
   6  -1  -7  875.31   65.79
   5   1   7  858.11   65.69
  -5  -1   7  990.40   65.79
   5   1   7  902.51   65.79
   1  -6   7  980.20   65.79
  -6   0   7  265.07   19.80
   0   6   7  293.07   19.70
   0   6  -7  284.67   19.80
   0  -6   7  269.17   19.70
   0   6   7  279.67   20.00
   0   6   7  296.87   20.00
   0  -6   7  265.17   19.80
   0   6  -7  272.17   19.80
   6   0  -7  291.67   19.90
   6   0   7  299.47   20.00
   0   6   7  284.27   19.70
   6   0  -7  285.87   19.90
  -6   0  -7  295.17   20.00
   0  -6  -7  265.87   20.00
  -6   6  -7  289.67   20.10
   6  -6   7  281.87   20.00
   0  -6  -7  307.97   20.00
   0  -6   7  292.67   19.90
   6   0  -7  288.07   19.60
  -6   0  -7  263.77   19.90
  -6   0   7  299.67   20.00
   0  -6   7  302.57   19.90
   0  -6  -7  313.97   20.00
   6  -6  -7  281.77   20.10
   0  -6  -7  308.17   19.90
   6   0  -7  281.77   19.60
  -6   6  -7  306.77   20.00
   6  -6   7  294.47   20.20
  -6   0  -7  297.37   20.20
   6   0   7  280.07   19.90
  -6   0   7  239.88   19.80
  -6   6   7  288.67   20.00
  -6   0  -7  292.17   19.90
  -6   0   7  256.87   19.80
   6   0   7  281.37   19.80
  -3   7  -7  476.65   33.30
   3   4   7  519.15   33.40
   4  -7   7  463.75   33.40
   7  -3   7  490.15   33.30
  -4   7   7  455.85   33.30
  -7   3   7  514.75   33.40
   3   4   7  458.35   33.30
   3  -7  -7  481.75   33.40
   4  -7   7  457.35   33.40
   3  -7  -7  503.45   33.40
  -3  -4   7  492.75   33.10
  -7   3   7  519.75   33.40
   3  -7  -7  454.75   33.40
  -7   4  -7  483.75   33.40
  -3   7  -7  521.45   33.20
  -7   3   7  534.55   33.60
  -4   7   7  497.25   33.40
  -4  -3  -7  466.05   33.30
   3   4   7  485.35   32.90
  -3  -4   7  507.65   33.20
   7  -4  -7  479.95   33.30
  -4  -3  -7  456.25   33.30
  -3   7  -7  545.95   33.50
  -3  -4   7  495.05   33.10
   3   4   7  476.25   32.90
  -3  -4   7  498.15   33.10
  -4  -3  -7  422.66   33.20
  -7   4  -7  480.45   33.40
  -4  -3  -7  464.35   33.20
  -3  -4  -7  528.35   33.40
   3  -7   7  501.85   33.40
   4   3   7  466.75   32.90
  -3   7   7  462.55   33.20
   3   4  -7  453.65   33.10
   7  -4   7  498.85   33.40
   4   3   7  485.25   32.90
   7  -4   7  407.26   33.40
  -4   7  -7  457.25   33.40
   3   4  -7  496.95   33.20
  -4   7  -7  489.65   33.20
   7  -3  -7  474.15   33.20
   4   3   7  436.66   33.20
  -4   7  -7  460.95   33.30
   7  -3  -7  442.36   33.40
  -3   7   7  539.15   33.60
  -3   7   7  525.25   33.40
   3  -7   7  525.05   33.30
  -3  -4  -7  448.36   33.20
  -4   7  -7  481.05   33.40
   7  -3  -7  485.55   33.40
  -3  -4  -7  509.35   33.20
  -4  -3   7  433.36   33.10
   4   3   7  407.56   33.30
   7  -3  -7  423.96   33.30
  -4  -3   7  555.24   33.30
  -3  -4  -7  524.95   33.40
   3  -7   7  515.25   33.40
  -3   7   7  497.85   33.40
   2   5   7    5.90    0.60
   2  -7  -7    5.60    0.90
  -2  -5   7    5.90    0.70
   7  -5  -7    6.60    1.00
  -7   2   7    5.10    0.90
  -7   5  -7    5.10    0.90
   2  -7  -7    7.00    1.00
   2   5   7    5.30    0.90
  -7   2   7    7.20    1.00
   7  -5  -7    6.70    0.90
   2   5   7    6.10    0.60
   5   2  -7    6.70    0.90
  -5   7   7    4.90    0.90
  -7   2   7    6.40    1.00
  -2   7  -7    5.90    0.90
   5   2  -7    5.80    0.80
   2  -7  -7    4.90    1.00
  -5  -2  -7    7.00    1.00
  -5   7   7    5.80    1.00
  -5  -2  -7    5.50    0.90
  -5   7   7    5.70    1.00
  -2   7  -7    6.50    1.00
  -2   7  -7    6.00    0.70
  -2  -5   7    7.00    0.80
   2   5   7    5.40    0.90
  -2  -5   7    6.50    0.80
   7  -2   7    6.00    0.90
  -7   5  -7    6.60    1.00
  -5  -2  -7    6.20    0.90
  -5  -2  -7    6.30    0.90
   2  -7   7    5.90    0.90
  -2  -5  -7    8.30    1.00
   7  -2  -7    6.20    0.80
   5   2   7    6.00    1.00
  -2  -5  -7    5.50    0.80
   2   5  -7    5.20    0.70
  -2   7   7    5.40    0.80
  -2   7   7    6.00    1.00
   2  -7   7    5.40    0.80
   2   5  -7    7.00    0.80
  -5  -2   7    5.90    0.80
   5   2   7    5.70    0.70
  -7   5   7    6.70    1.00
   7  -5   7    6.40    1.00
  -5  -2   7    4.90    0.80
  -5   7  -7    5.30    0.80
   7  -5   7    6.30    1.00
  -2   7   7    6.40    0.90
   2  -7   7    6.30    0.90
  -7   5   7    4.20    0.80
  -5  -2   7    5.40    0.80
  -5  -2   7    5.10    0.80
  -2  -5  -7    5.30    0.80
   7  -2  -7    5.20    0.90
   5  -7  -7    7.20    1.10
  -2   7   7    6.50    1.10
   7  -2  -7    6.90    1.00
  -2  -5  -7    5.90    0.90
   7  -2  -7    6.10    0.90
   5   2   7    7.30    1.00
  -7   6  -7  134.09   10.50
  -1   7  -7  140.29   10.50
  -6   7   7  149.29   10.60
  -1  -6   7  156.88   10.40
  -6  -1  -7  150.08   10.60
   7  -1   7  150.88   10.50
   6   1  -7  137.09   10.50
   1   6   7  143.59   10.10
   1  -7  -7  124.69   10.50
  -6  -1  -7  156.08   10.60
  -1   7  -7  141.29   10.50
  -7   6  -7  136.29   10.60
  -7   1   7  158.68   10.70
   1   6   7  157.78   10.60
  -6  -1  -7  158.78   10.60
   1  -7  -7  145.39   10.60
   1   6   7  144.29   10.10
   6   1  -7  160.38   10.50
   6  -7   7  157.68   10.80
   7  -1   7  127.79   10.40
   7  -1   7  136.09   10.60
   7  -6  -7  127.69   10.60
  -7   1   7  143.69   10.50
   6  -7   7  129.39   10.50
  -7   1   7  146.19   10.50
   1  -7  -7  146.99   10.60
   1   6   7  162.18   10.70
  -1  -6  -7  161.18   10.60
  -7   1  -7  138.99   10.50
   1  -7   7  135.59   10.40
  -7   6   7  162.88   10.70
  -7   1  -7  137.69   10.60
  -1   7   7  134.69   10.30
  -6   7  -7  165.58   10.80
  -1  -6  -7  147.69   10.50
   7  -1  -7  146.09   10.60
  -1   7   7  150.08   10.60
   7  -1  -7  125.19   10.30
   6  -7  -7  154.58   10.80
   6   1   7  151.88   10.60
  -7   6   7  156.88   10.70
   7  -1  -7  157.88   10.60
  -1  -6  -7  161.78   10.60
   1  -7   7  151.58   10.60
   7  -6   7  132.89   10.70
   6  -7  -7  140.19   10.60
  -6  -1   7  152.18   10.50
   7  -1  -7  152.08   10.30
  -1   7   7  161.48   10.70
  -1  -6  -7  144.69   10.50
   6   1   7  143.99   10.30
   6   1   7  145.09   10.60
  -6  -1   7  135.39   10.40
   1  -7   7  140.09   10.50
  -6  -1   7  153.58   10.50
  -6  -1   7  127.99   10.40
   1  -7   7  162.08   10.60
  -7   7   7  181.58   12.50
   0  -7  -7  178.88   12.50
   0  -7  -7  168.88   12.40
   7   0  -7  183.28   12.50
   7   0  -7  148.09   12.40
   0   7   7  193.88   12.60
  -7   7   7  178.68   12.60
   7   0   7  178.98   12.60
   7  -7   7  164.08   12.60
   0  -7   7  177.88   12.30
   7   0   7  182.18   12.60
  -7   0   7  175.08   12.40
   7   0   7  177.28   12.30
   0  -7   7  174.08   12.40
  -7   0   7  173.08   12.50
   0   7  -7  170.28   12.30
  -7   0   7  169.18   12.40
   7  -7   7  148.99   12.50
  -7   7  -7  185.98   12.50
   0   7   7  185.38   12.50
   0  -7   7  188.08   12.40
  -7   7  -7  155.08   12.50
  -7   0   7  173.18   12.40
   7  -7  -7  144.39   12.50
  -7   0  -7  192.08   12.60
   0  -7  -7  194.68   12.60
   0  -7   7  173.18   12.40
  -7   0  -7  169.78   12.50
  -7   0  -7  179.88   12.50
   0   7  -7  179.88   12.30
   0   7   7  162.48   12.00
  -8   4   7    0.20    0.20
   8  -4  -7    0.10    0.20
  -8   4  -7    0.10    0.20
  -4  -4   7    0.00    0.20
  -4   8  -7    0.50    0.30
   8  -4  -7    0.00    0.30
   4  -8  -7    0.00    0.30
   4  -8  -7    0.40    0.30
  -4   8  -7    0.90    0.40
  -4  -4   7    0.00    0.20
  -4   8   7    1.30    0.50
  -4   8   7    0.10    0.30
  -4  -4   7    0.90    0.30
  -8   4  -7    0.80    0.40
  -4  -4  -7    0.10    0.20
   4   4  -7    0.10    0.10
   4   4   7    0.00    0.20
   4   4   7    0.30    0.30
   8  -4   7    0.20    0.30
  -4  -4  -7    0.10    0.20
   8  -4  -7    0.00    0.30
  -4  -4  -7    0.20    0.30
   4  -8   7    0.00    0.30
  -4  -4   7    0.40    0.30
  -4  -4  -7    0.10    0.20
  -5  -3  -7  495.75   33.00
   8  -3   7  502.85   33.10
  -3   8  -7  443.26   32.70
   8  -5  -7  480.35   33.00
  -5  -3  -7  463.05   33.00
  -8   3   7  417.66   32.90
  -3   8  -7  438.06   32.80
  -8   5  -7  454.75   33.00
  -5   8   7  461.65   33.00
  -5  -3  -7  528.55   33.10
  -3  -5   7  487.05   32.70
   8  -5  -7  515.25   33.20
  -5  -3  -7  526.75   33.00
   8  -3   7  521.95   33.10
  -8   5  -7  461.35   33.10
  -3   8  -7  448.86   33.00
  -8   3   7  467.15   33.10
   3   5   7  433.66   32.90
   3   5   7  425.66   32.90
   5  -8   7  439.26   33.00
   5  -8   7  437.56   33.10
  -3   8  -7  464.45   33.00
   8  -3   7  517.25   33.30
  -5   8   7  498.15   33.20
  -8   3  -7  483.25   33.10
   5  -8  -7  551.94   33.40
  -8   3  -7  463.25   33.00
   5  -8  -7  517.95   33.20
  -5   8  -7  470.55   33.10
  -8   5   7  413.96   32.90
  -5  -3   7  465.45   32.80
   8  -3  -7  504.45   33.00
   3   5  -7  473.25   32.70
  -3  -5  -7  527.55   33.00
  -3  -5  -7  414.86   32.90
   5   3   7  451.55   33.00
   8  -5   7  534.35   33.20
   8  -5   7  536.15   33.40
  -3  -5  -7  512.75   33.00
   3  -8   7  477.15   33.00
  -3  -5  -7  470.35   32.90
   8  -3  -7  484.35   33.10
  -3   8   7  491.35   33.00
  -5   8  -7  508.55   33.00
   8  -3  -7  498.05   32.90
   5   3   7  472.35   33.00
  -8   5   7  476.35   33.10
   3   5  -7  473.15   32.70
   3  -8   7  444.56   33.00
  -5  -3   7  493.05   32.90
   3  -8   7  468.15   33.10
  -3   8   7  453.35   32.90
   8  -2   7  394.26   27.00
   6  -8   7  321.57   26.80
  -2   8  -7  382.36   26.70
   6   2  -7  375.46   26.60
  -8   6  -7  397.76   26.80
  -8   6  -7  407.76   27.00
   8  -6  -7  404.76   27.00
   2  -8  -7  367.46   26.80
   6  -8   7  396.96   26.90
  -8   2   7  412.36   26.90
   8  -6  -7  346.07   26.80
  -8   2   7  378.66   26.80
  -2  -6   7  367.96   26.50
  -6  -2  -7  403.76   26.80
  -2   8  -7  356.16   26.70
  -6  -2  -7  370.66   26.80
  -6  -2  -7  360.76   26.80
   2   6   7  419.86   26.90
   8  -2   7  393.76   26.70
   8  -2   7  431.96   26.80
  -6   8   7  375.76   26.90
  -6   8   7  348.57   26.70
   2   6   7  338.37   26.70
   2  -8  -7  385.36   26.90
   6   2  -7  357.96   26.60
   6  -8  -7  397.96   27.00
   8  -6   7  376.66   26.80
   6  -8  -7  420.26   27.00
  -2   8   7  375.56   26.60
  -8   2  -7  410.66   26.90
  -8   6   7  354.56   26.80
   2  -8   7  427.66   26.80
   8  -2  -7  357.26   26.80
   2  -8   7  398.06   26.80
   2  -8   7  396.56   26.80
  -6  -2   7  390.66   26.60
  -6   8  -7  408.06   26.90
  -2  -6  -7  423.96   26.80
  -2  -6  -7  375.16   26.80
  -2  -6  -7  392.66   26.70
   6   2   7  416.26   26.80
  -6  -2   7  407.66   26.70
  -6  -2   7  384.76   26.60
  -8   6   7  383.66   26.90
  -2  -6  -7  417.86   26.80
   8  -2  -7  364.96   26.60
   8  -2  -7  358.06   26.60
  -6  -2   7  365.06   26.60
   8  -6   7  388.16   27.00
   6   2   7  402.46   26.80
  -7  -1  -7   63.29    4.90
  -1   8  -7   64.49    4.70
  -1   8  -7   63.19    4.80
  -8   7  -7   53.49    4.70
  -8   1   7   65.29    4.90
   1   7   7   55.39    4.70
   7  -8   7   66.99    5.00
   7  -8   7   52.79    4.90
   8  -7  -7   58.39    5.00
   1  -8  -7   64.59    4.90
   7   1  -7   63.19    4.80
   7   1  -7   59.89    4.70
  -8   7  -7   58.29    4.90
  -7   8   7   58.59    4.90
   8  -1   7   58.89    4.70
  -7  -1  -7   59.59    4.80
   8  -1   7   68.49    4.80
   1  -8  -7   62.19    5.00
   8  -1   7   60.69    5.00
   1  -8  -7   60.89    4.80
  -7  -1  -7   65.99    4.90
   1   7   7   59.19    4.80
  -7   8   7   54.79    4.80
  -1  -7   7   60.29    4.60
   8  -7  -7   66.19    4.90
  -8   1   7   61.29    4.80
  -8   1   7   61.49    5.00
  -7  -1   7   68.39    4.90
   7  -8  -7   59.89    4.90
  -8   7   7   51.29    4.80
  -1  -7  -7   64.19    4.80
   1  -8   7   65.79    4.70
   7   1   7   60.09    4.80
  -1  -7  -7   63.79    4.80
  -7   8  -7   63.49    4.80
   8  -7   7   61.59    4.90
  -8   1  -7   61.99    4.80
   1  -8   7   64.29    4.80
   7   1   7   60.49    4.80
  -1   8   7   64.69    4.90
   8  -1  -7   55.69    4.80
  -7  -1   7   53.89    4.70
  -7  -1   7   63.99    4.80
   7  -8  -7   56.39    4.90
   1  -8   7   61.69    4.80
   8  -7   7   60.99    5.00
  -8   7   7   64.09    4.90
  -8   1  -7   59.69    4.90
  -7   8  -7   58.99    4.90
   8  -1  -7   60.59    4.90
  -1  -7  -7   60.59    4.80
   1  -8   7   65.19    4.80
  -1   8   7   57.39    4.80
   0  -8  -7    9.60    1.30
   8  -8  -7    8.70    1.30
   8   0  -7    9.20    1.20
  -8   8   7    7.70    1.20
  -8   0  -7    8.60    1.20
   0  -8  -7    8.50    1.20
   0  -8  -7   10.80    1.40
  -8   8  -7    8.30    1.20
   0   8   7    8.70    1.20
   0  -8   7    7.60    1.00
   8  -8   7    7.30    1.40
  -8   8  -7    6.10    1.20
  -8   0   7    9.50    1.20
   8  -8   7    8.30    1.20
   0   8   7    8.70    1.20
   8   0  -7    8.40    1.10
  -8   0   7    7.20    1.10
  -8   8   7    7.80    1.20
  -8   0   7   10.60    1.20
  -5  -4  -7   68.89    5.40
   5  -9   7   67.69    5.40
   4  -9  -7   57.59    5.30
   9  -5  -7   73.49    5.60
  -9   5  -7   71.19    5.50
   5  -9   7   69.69    5.50
  -4   9  -7   58.49    5.10
   9  -4   7   57.09    5.40
  -9   5  -7   67.69    5.40
  -5   9   7   64.79    5.90
  -5   9   7   68.09    5.60
  -9   4   7   69.89    5.40
  -9   4   7   68.09    5.40
   4  -9  -7   67.69    5.50
  -4   9  -7   71.69    5.40
  -5   9   7   69.69    5.30
   9  -4   7   71.39    5.40
  -5  -4  -7   70.99    5.50
   9  -5  -7   69.39    5.40
   4   5   7   76.19    5.90
  -5  -4  -7   70.49    5.30
  -5   9  -7   66.19    5.40
  -9   5   7   67.39    5.40
   9  -4  -7   73.09    5.40
  -4   9   7   73.39    5.50
   5   4   7   64.39    5.30
   9  -5   7   68.19    5.40
   9  -4  -7   77.29    5.50
   9  -4  -7   71.59    5.50
  -9   4  -7   73.09    5.50
  -9   5   7   70.99    5.40
   4  -9   7   67.59    5.40
  -4  -5  -7   81.69    5.40
   4  -9   7   63.49    5.40
   5   4   7   66.69    5.30
  -5   9  -7   63.59    5.20
  -9   4  -7   66.89    5.40
   5  -9  -7   71.89    5.60
   9  -5   7   62.69    5.50
  -4   9   7   76.09    5.40
  -6  -3  -7    4.60    0.90
  -3   9  -7    3.40    0.80
   9  -3   7    2.20    0.70
   6  -9   7    3.20    0.80
  -9   6  -7    4.00    1.00
  -6  -3  -7    4.20    0.80
   3  -9  -7    2.20    0.70
  -6   9   7    2.10    0.70
   9  -6  -7    1.90    0.60
  -3   9  -7    3.20    0.80
  -9   3   7    2.80    0.70
  -6   9   7    1.60    0.60
   9  -6  -7    3.20    0.90
   6  -9   7    1.80    0.60
  -9   3   7    3.70    0.80
   9  -3   7    1.90    0.60
   9  -3   7    3.20    0.80
  -6  -3  -7    2.20    0.60
  -6   9  -7    2.70    0.60
   9  -6   7    2.00    0.60
   6   3   7    2.80    0.70
   9  -3  -7    3.20    0.70
  -6   9  -7    3.40    0.80
  -3   9   7    3.00    0.80
  -6   9  -7    1.90    0.60
   3  -9   7    2.60    0.70
  -9   6   7    2.60    0.70
   6  -9  -7    3.10    0.80
  -9   3  -7    2.50    0.70
  -9   6   7    2.40    0.70
   3  -9   7    3.10    0.70
  -9   3  -7    3.20    0.80
  -3   9   7    2.40    0.60
   6  -9  -7    2.40    0.70
   9  -3  -7    3.50    0.90
   6   3   7    1.80    0.60
   9  -6   7    2.10    0.70
   3  -9   7    2.50    0.60
  -6  -3   7    2.80    0.60
  -9   7  -7  147.39   11.30
   7  -9   7  159.78   11.50
  -2   9  -7  184.08   11.50
  -7   9   7  160.08   11.40
   9  -7  -7  157.18   11.30
  -9   7  -7  147.19   11.40
  -9   2   7  153.08   11.30
   9  -7  -7  133.19   11.40
  -7  -2  -7  162.28   11.30
  -7   9   7  150.88   11.40
  -7  -2  -7  171.18   11.30
  -2   9  -7  132.09   11.30
   7  -9   7  157.38   11.40
   9  -2   7  147.89   11.40
  -9   2   7  165.68   11.40
  -7  -2  -7  160.18   11.30
   2  -9  -7  159.18   11.40
   2  -9  -7  171.58   11.50
   9  -7   7  162.48   11.50
  -7   9  -7  165.88   11.30
   9  -2  -7  162.28   11.40
  -9   2  -7  168.08   11.40
   7  -9  -7  131.69   11.30
   7   2   7  163.18   11.40
   7   2   7  146.29   11.30
   9  -7   7  145.29   11.30
  -9   2  -7  151.98   11.30
  -9   7   7  148.49   11.40
  -7   9  -7  139.19   11.30
   2  -9   7  165.28   11.30
  -9   7   7  150.58   11.30
  -2   9   7  158.88   11.40
  -7  -2   7  159.68   11.20
   9  -1   7  298.67   22.00
  -9   1  -7  306.17   21.90
  -8   9  -7  294.27   21.80
  -9   1  -7  349.07   22.00
   0   0  -8 5882.91  424.26
   0   0   8 6796.42  424.26
   0   0   8 6023.30  424.26
   0   0  -8 6282.77  424.26
   0   0   8 6263.87  424.26
   0   0  -8 6353.26  424.26
  -1   1   8 1711.73  126.79
   0  -1   8 2091.49  127.09
  -1   0   8 1988.80  126.99
   0   1   8 1801.72  126.99
   1   0  -8 1820.72  126.89
  -1   1  -8 1823.92  126.89
   0  -1  -8 1705.23  126.89
   1  -1   8 1776.32  126.89
   0  -1  -8 1661.63  126.89
   1   0   8 2137.89  127.29
  -1   0  -8 1560.24  126.89
   1   0  -8 1731.13  126.79
   0   1  -8 1774.32  126.89
   0   1   8 1821.62  126.89
  -1   1   8 2077.59  126.99
  -1   0  -8 1802.42  126.89
  -1   1   8 2027.40  126.99
   0  -1   8 1697.03  126.79
  -1   0   8 1789.52  126.89
   0  -1   8 1989.80  126.99
   1   0  -8 1800.62  126.89
  -1   1   8 1934.31  126.99
  -1   1  -8 2148.39  127.09
  -1   0  -8 1818.22  126.99
  -1   0  -8 1648.94  126.79
   1  -1  -8 2003.80  126.99
   1  -1  -8 1966.50  127.09
   1   0   8 2153.48  127.19
  -1   1  -8 1946.91  126.99
   1  -1  -8 1824.62  126.89
   1  -1   8 2003.20  126.99
   0   1  -8 1941.91  126.89
  -1   1  -8 1873.31  126.89
   0   1  -8 1742.33  126.89
   0  -1   8 1953.40  126.89
   0   1  -8 2046.50  126.89
   1  -1  -8 1926.01  126.89
  -1   0   8 1935.01  126.89
  -1   0   8 1658.33  126.89
   1   0  -8 1727.43  126.89
   0  -1  -8 1809.22  126.89
   2  -1  -8 1134.29   82.19
  -2   1  -8 1288.67   82.19
   1  -2  -8 1224.58   82.19
  -1   2  -8 1097.89   81.99
  -2   1   8 1175.38   82.19
   2  -1  -8 1294.17   82.09
   1  -2   8 1234.58   82.09
   1  -2   8 1127.69   82.09
   1   1   8 1203.08   82.29
  -1   2  -8 1247.38   82.19
  -1  -1  -8 1187.08   82.19
  -2   1   8 1381.56   82.29
  -1  -1  -8 1111.89   82.09
  -2   1   8 1380.06   82.19
   1   1  -8 1062.89   81.99
  -2   1  -8 1157.68   82.09
  -1   2   8 1200.68   82.09
  -1  -1   8 1332.27   82.19
  -1  -1   8 1190.48   82.19
  -1   2   8 1182.58   82.19
   1   1   8 1193.28   82.19
   1   1   8 1318.07   82.19
   1  -2  -8 1132.69   82.19
   1  -2   8 1316.57   82.29
  -1  -1  -8 1260.17   82.19
   1  -2  -8 1206.18   82.19
  -1   2   8 1357.46   82.19
   1   1  -8 1179.18   81.99
   1   1  -8 1025.40   82.09
  -1  -1  -8 1178.98   82.19
  -1   2  -8 1278.27   82.19
  -1  -1   8 1235.08   82.09
  -2   1  -8 1086.09   82.09
  -2   1  -8 1074.19   82.09
   2  -1   8 1222.18   82.19
  -2   1   8 1086.29   82.09
   2  -1  -8 1194.28   82.09
   1  -2   8 1104.99   82.09
  -1  -1   8 1196.58   82.09
   1  -2  -8 1265.27   82.19
  -1   2  -8 1284.77   82.19
   2  -1  -8 1131.99   82.19
   1   1   8 1360.06   82.19
   0   2   8 1851.61  118.79
  -2   2  -8 1539.75  118.79
   2   0   8 1643.04  118.69
   2   0   8 1934.71  118.89
   0   2   8 1558.64  118.79
   2   0   8 1479.55  118.79
   2  -2   8 1799.12  118.69
   0  -2  -8 1864.11  118.89
  -2   2  -8 1621.24  118.69
  -2   0  -8 1625.84  118.69
  -2   2   8 1768.92  118.79
   2   0  -8 1624.14  118.69
   0  -2   8 1767.82  118.79
   0   2  -8 1801.02  118.69
   0   2  -8 1684.33  118.59
   0   2  -8 1828.72  118.79
   2  -2   8 1884.81  118.79
   2   0  -8 1889.81  118.79
  -2   0   8 1942.11  118.79
  -2   0  -8 1488.35  118.69
  -2   2  -8 1753.82  118.69
  -2   0   8 1567.64  118.69
   0   2  -8 1825.12  118.79
   2   0  -8 1792.52  118.69
   2   0   8 1591.64  118.69
   2  -2  -8 1795.92  118.69
   2  -2  -8 1732.83  118.69
   2  -2  -8 1838.02  118.79
   0   2   8 1872.31  118.69
   0  -2   8 1652.03  118.69
  -2   2  -8 1701.43  118.79
   0  -2  -8 1752.82  118.79
   0  -2  -8 1612.14  118.79
   2  -2   8 1832.62  118.79
  -2   0   8 1917.31  118.69
   0  -2   8 1916.71  118.89
   2  -2  -8 1860.51  118.89
  -2   2   8 1722.63  118.69
   0  -2  -8 1621.74  118.69
  -2   0   8 1826.92  118.79
  -2   2   8 1648.73  118.79
  -2   2   8 1993.50  118.89
  -3   1   8 1417.46  105.39
  -3   1   8 1711.33  105.59
   3  -2  -8 1546.45  105.49
  -1  -2   8 1555.44  105.39
  -2  -1  -8 1617.84  105.39
   2  -3   8 1402.56  105.49
   2   1  -8 1792.02  105.59
  -2  -1  -8 1506.65  105.39
  -1  -2   8 1447.16  105.39
   2  -3   8 1410.36  105.39
  -2  -1  -8 1590.24  105.49
   1   2   8 1630.64  105.39
  -1  -2   8 1436.86  105.49
   1  -3  -8 1423.66  105.49
  -3   1   8 1594.94  105.49
  -2   3   8 1528.95  105.49
  -2   3   8 1318.97  105.39
   3  -2  -8 1295.27  105.39
  -3   2  -8 1579.34  105.39
  -3   2  -8 1552.74  105.39
   2  -3   8 1595.74  105.49
  -1   3  -8 1434.16  105.29
   1   2   8 1429.76  105.49
  -3   1   8 1555.14  105.49
   2  -3   8 1443.96  105.39
   1   2   8 1749.92  105.49
   1   2   8 1521.25  105.49
   3  -1   8 1765.02  105.59
  -1   3  -8 1530.45  105.39
   1  -3  -8 1549.84  105.49
   1  -3  -8 1672.83  105.49
   3  -2  -8 1750.32  105.59
  -2  -1  -8 1587.24  105.49
   2   1  -8 1534.75  105.29
   3  -1   8 1697.63  105.49
   3  -2  -8 1335.57  105.29
   2   1  -8 1451.05  105.39
  -2   3   8 1368.46  105.39
  -2   3   8 1637.34  105.49
   1  -3  -8 1607.84  105.59
  -1   3  -8 1542.25  105.49
  -1   3  -8 1646.74  105.49
  -3   1  -8 1601.94  105.59
  -2  -1   8 1629.44  105.49
   3  -1  -8 1674.83  105.49
  -1   3   8 1662.13  105.59
   1  -3   8 1507.55  105.39
   1   2  -8 1667.43  105.29
  -3   2   8 1787.92  105.59
  -2   3  -8 1541.95  105.39
  -3   1  -8 1680.33  105.49
   3  -1  -8 1594.14  105.49
   3  -1  -8 1564.94  105.49
  -3   1  -8 1501.45  105.39
   1   2  -8 1401.36  105.39
   1  -3   8 1572.64  105.49
   2   1   8 1446.76  105.49
  -2   3  -8 1449.06  105.39
   2   1   8 1670.43  105.39
   2  -3  -8 1540.75  105.49
  -1  -2  -8 1613.14  105.49
  -1   3   8 1442.76  105.39
   2   1   8 1567.44  105.49
   2  -3  -8 1386.16  105.49
  -3   2   8 1672.43  105.49
   3  -1  -8 1617.64  105.39
   3  -2   8 1550.64  105.39
   1  -3   8 1407.56  105.29
  -2  -1   8 1525.25  105.39
  -3   2   8 1402.36  105.39
   1   2  -8 1363.06  105.19
   2   1   8 1790.92  105.49
  -3   2   8 1710.43  105.49
  -1   3   8 1774.72  105.49
  -2  -1   8 1477.65  105.39
  -1   3   8 1568.14  105.49
   1   2  -8 1456.35  105.39
  -2   3  -8 1602.34  105.39
  -2  -1   8 1325.47  105.39
  -1  -2  -8 1598.24  105.49
  -3   3  -8  639.44   45.40
   3   0  -8  642.44   45.40
  -3   0   8  603.74   45.40
   3  -3   8  660.63   45.50
   3   0  -8  570.14   45.40
   3   0   8  769.52   45.70
   3  -3  -8  651.33   45.40
  -3   3  -8  575.94   45.30
  -3   3  -8  732.43   45.70
   0   3  -8  583.04   45.20
   0   3  -8  710.93   45.30
   0   3   8  696.73   45.50
  -3   3   8  664.73   45.50
  -3   0  -8  699.93   45.50
  -3   0  -8  647.74   45.40
  -3   3   8  620.54   45.40
   3  -3  -8  686.33   45.60
   3   0   8  684.53   45.50
   0  -3  -8  617.64   45.50
   0  -3   8  636.04   45.30
   0  -3   8  746.83   45.60
  -3   3   8  556.04   45.40
   3   0   8  703.23   45.40
   0   3  -8  607.14   45.40
   3   0   8  746.43   45.60
  -3   0  -8  634.84   45.50
  -3   0   8  670.23   45.40
   0  -3   8  694.33   45.40
  -3   0  -8  669.03   45.50
  -3   3   8  708.33   45.50
   0  -3   8  760.02   45.50
   3  -3   8  713.23   45.60
   3   0  -8  666.03   45.50
   0   3   8  702.13   45.40
   0  -3  -8  569.94   45.40
   0   3   8  683.93   45.50
  -3   3  -8  578.34   45.40
  -3   0   8  669.13   45.40
   3  -3   8  710.83   45.50
   0   3   8  699.13   45.40
   0  -3  -8  637.54   45.50
   2  -4  -8 5002.50  333.17
   2   2   8 4410.16  333.17
   2   2  -8 5117.59  333.17
  -2  -2  -8 4852.71  333.17
   2  -4  -8 5546.64  333.27
   2  -4  -8 5010.10  333.27
  -2  -2  -8 4686.93  333.07
   4  -2   8 4946.60  333.27
  -2  -2  -8 4290.37  333.07
  -4   2  -8 4827.02  333.27
   4  -2   8 4784.02  333.27
   2   2  -8 4654.73  333.17
  -2   4   8 4371.36  333.07
  -4   2  -8 4438.66  333.17
  -2  -2   8 5028.20  333.07
  -2   4   8 5068.59  333.17
  -2   4  -8 4842.82  333.07
   4  -2  -8 4343.97  333.07
  -2  -2  -8 4790.92  333.17
   2   2   8 5574.04  333.07
   4  -2   8 5193.88  333.17
   2   2  -8 4736.03  332.97
  -4   2  -8 5049.39  333.17
  -2  -2   8 5157.08  333.17
   4  -2  -8 4469.55  333.07
   2  -4  -8 5252.27  333.17
   2   2   8 4358.16  333.17
   2  -4   8 5348.27  333.17
   4  -2   8 5063.09  333.17
   4  -2  -8 4566.94  333.17
   2  -4   8 5092.49  333.17
  -4   2  -8 5527.45  333.27
   2  -4   8 4769.52  333.17
  -4   2   8 4814.32  333.27
  -4   2   8 5277.37  333.27
   2  -4   8 5265.87  333.27
  -4   2   8 5480.45  333.27
  -1   4  -8  964.30   63.59
  -1  -3   8  951.40   63.79
   3   1  -8  981.60   63.39
   1   3   8 1013.10   63.79
  -1  -3   8  981.00   63.49
   4  -1   8 1035.70   63.59
   1  -4  -8  837.42   63.59
  -3   4   8  951.80   63.69
   1   3   8  857.31   63.49
  -3  -1  -8 1014.60   63.69
   3  -4   8  983.30   63.69
  -1   4  -8  883.81   63.39
  -3   4   8  954.20   63.69
   3   1  -8  951.20   63.39
  -4   1   8  955.80   63.59
   1   3   8  796.42   63.49
   4  -1   8 1021.40   63.79
   1  -4  -8  988.30   63.69
   1  -4  -8 1003.70   63.79
   4  -3  -8 1003.70   63.69
  -1   4  -8  954.90   63.69
  -1  -3   8 1025.90   63.49
   1   3   8  974.10   63.69
  -4   1   8  950.90   63.69
   4  -1   8 1011.60   63.69
   3   1  -8  797.22   63.49
  -1  -3   8  865.51   63.59
  -3   4   8  856.81   63.69
   4  -3  -8  873.01   63.59
  -3  -1  -8  835.32   63.49
  -3  -1  -8  912.71   63.59
  -3   4   8  848.92   63.49
   3  -4   8  886.81   63.59
   1  -4  -8  953.60   63.59
  -4   1   8  970.70   63.69
   4  -3  -8  950.80   63.69
   3  -4   8 1018.20   63.79
  -3  -1  -8  822.32   63.59
   4  -1   8  932.21   63.69
   3  -4   8  828.32   63.49
  -3  -1   8  884.41   63.49
  -3  -1   8  847.22   63.49
   4  -1  -8  941.81   63.49
  -3   4  -8  915.51   63.59
   3   1   8  883.11   63.59
   3   1   8  914.11   63.49
   3   1   8 1013.60   63.69
  -3   4  -8  872.61   63.69
  -3   4  -8  779.72   63.49
  -1  -3  -8 1045.70   63.69
  -4   3   8  966.10   63.59
  -4   3   8  934.01   63.79
  -3  -1   8  879.71   63.59
  -1   4   8  833.22   63.59
   3   1   8  936.81   63.69
  -4   1  -8 1006.40   63.59
  -1   4   8  948.11   63.59
  -4   1  -8  983.30   63.69
  -4   1  -8  923.31   63.59
   1  -4   8 1003.70   63.69
  -3  -1   8  837.32   63.49
   1   3  -8  847.12   63.29
   1  -4   8 1055.69   63.69
  -1  -3  -8  985.40   63.69
   3  -4  -8  939.01   63.69
   3  -4  -8 1006.30   63.79
  -1   4   8  855.51   63.49
  -1  -3  -8 1020.50   63.69
   1  -4   8  897.21   63.59
   4  -1  -8  877.01   63.59
   4  -1  -8 1018.30   63.69
   1   3  -8  945.61   63.59
   3  -4  -8  991.20   63.69
  -1   4   8  941.51   63.69
  -4   1  -8  828.12   63.59
   1  -4   8  885.91   63.49
  -4   3   8  881.51   63.59
   3  -4  -8  912.11   63.69
   1   3  -8  957.80   63.59
   4  -3   8  975.30   63.59
   4  -3   8  952.80   63.59
   0   4   8 1113.09   87.09
  -4   4  -8 1208.48   87.19
   0  -4   8 1282.27   87.19
   0   4  -8 1391.76   87.09
  -4   4   8 1334.77   87.29
  -4   4   8 1220.58   87.19
   0   4   8 1201.48   87.29
  -4   0   8 1346.97   87.29
   4   0  -8 1093.69   87.19
  -4   0   8 1301.27   87.29
   4  -4   8 1378.96   87.49
  -4   0  -8 1256.27   87.29
  -4   4  -8 1301.87   87.19
  -4   4  -8 1190.68   87.29
  -4   4  -8 1238.58   87.29
   0   4  -8 1303.97   86.99
   4  -4   8 1149.29   87.29
   4   0   8 1253.37   87.29
   0  -4   8 1439.76   87.19
  -4   0   8 1287.57   87.29
   4   0  -8 1314.67   87.29
   0  -4  -8 1398.46   87.39
   4   0  -8 1161.98   86.99
   4  -4   8 1296.97   87.29
   0  -4  -8 1332.17   87.29
   0  -4  -8 1080.09   87.19
   4   0  -8 1312.67   87.09
  -4   4   8 1314.97   87.39
   0   4   8 1277.97   87.29
  -4   0  -8 1381.66   87.29
   0  -4  -8 1406.86   87.39
  -4   0  -8 1274.37   87.29
   4   0   8 1408.76   87.19
   4   0   8 1168.98   87.29
   0  -4   8 1355.76   87.29
   4  -4  -8 1305.47   87.29
   4  -4  -8 1227.08   87.29
   0   4   8 1392.36   87.19
  -2   5  -8  840.12   57.29
  -5   3  -8  829.02   57.39
   5  -2   8  950.30   57.39
  -3  -2  -8  899.11   57.29
   3   2  -8  862.71   56.89
  -5   2   8  731.33   57.19
  -3  -2  -8  751.62   57.19
   2  -5  -8  869.91   57.39
   5  -3  -8  819.92   57.29
   2  -5  -8  811.22   57.29
   2  -5  -8  767.72   57.19
  -5   3  -8  852.71   57.29
   3   2  -8  877.51   56.89
   3  -5   8  933.81   57.29
  -5   2   8  875.11   57.39
  -3  -2  -8  874.41   57.29
   5  -2   8  785.82   57.39
   5  -3  -8  833.92   57.29
   5  -3  -8  851.01   57.39
   5  -3  -8  828.92   57.39
   2   3   8  824.92   57.39
   3  -5   8  864.81   57.29
   3   2  -8  905.51   57.29
  -5   2   8  887.61   57.39
  -5   3  -8  845.22   57.29
  -2  -3   8  787.92   57.19
  -2  -3   8  858.31   57.19
  -2  -3   8  751.32   57.19
   5  -2   8  854.61   57.29
  -2  -3   8  908.31   57.19
   5  -2   8  723.63   57.29
  -3   5   8  879.51   57.29
  -3   5   8  807.02   57.19
  -3  -2  -8  736.03   57.29
  -3   5   8  895.41   57.39
   2   3   8  869.31   57.09
   2   3   8  741.23   57.19
   3  -5   8  754.32   57.19
   3   2  -8  845.92   57.19
  -2   5  -8  810.92   57.29
  -3   5   8  774.42   57.39
   3  -5   8  864.41   57.39
  -2   5  -8  876.51   57.19
  -2   5   8  862.91   57.29
   5  -2  -8  946.21   57.39
   2   3  -8  846.12   56.89
  -2   5   8  786.82   57.19
   2  -5   8  867.31   57.29
   2   3  -8  868.51   57.19
   3   2   8  888.91   57.39
  -3   5  -8  939.11   57.39
  -2  -3  -8  881.61   57.19
  -3  -2   8  780.82   57.19
   5  -2  -8  787.62   57.19
  -5   3   8  708.13   57.29
  -3  -2   8  867.11   57.29
   3   2   8  812.02   57.09
  -5   2  -8  863.11   57.29
   5  -2  -8  885.31   57.39
   2   3  -8  837.02   56.89
  -2  -3  -8  728.13   57.29
  -5   3   8  868.71   57.29
   5  -3   8  896.01   57.29
  -5   2  -8  852.71   57.29
   5  -3   8  730.33   57.19
   5  -2  -8  817.52   57.19
   2  -5   8  786.82   57.29
   3   2   8  885.81   57.19
   3  -5  -8  827.92   57.29
   3  -5  -8  777.72   57.29
  -5   3   8  792.52   57.29
   2  -5   8  775.62   57.09
   3  -5  -8  788.82   57.29
  -3   5  -8  798.62   57.29
  -3  -2   8  876.21   57.19
   3   2   8  849.02   57.39
   5  -3   8  833.82   57.29
  -3   5  -8  819.22   57.09
  -2   5   8  925.71   57.39
  -2  -3  -8  863.31   57.29
  -5   2  -8  965.30   57.49
  -5   2  -8  925.61   57.29
   4  -5   8  124.29   10.00
  -4   5   8  143.99   10.20
  -1   5  -8  132.99   10.00
  -4  -1  -8  127.99   10.00
  -4  -1  -8  137.49   10.00
  -1  -4   8  126.69    9.90
  -4   5   8  124.39   10.00
  -5   1   8  137.49   10.00
   5  -4  -8  132.79   10.10
  -1   5  -8  146.29    9.90
   4   1  -8  162.48    9.90
  -5   4  -8  141.49   10.10
  -1  -4   8  148.09   10.00
   5  -1   8  136.89   10.00
  -1  -4   8  139.79   10.10
   1   4   8  138.59   10.10
  -1  -4   8  130.89   10.00
  -5   4  -8  128.89   10.00
  -5   1   8  154.98   10.20
  -5   1   8  131.09   10.10
   1   4   8  130.19    9.90
  -1   5  -8  136.69   10.00
  -4  -1  -8  161.98   10.20
   5  -1   8  126.69   10.10
   4  -5   8  144.09   10.20
   1   4   8  131.99   10.00
   4  -5   8  134.19   10.00
   4   1  -8  127.89   10.00
   4   1  -8  158.88   10.30
   1  -5  -8  146.79   10.10
   1  -5  -8  159.18   10.30
   1  -5  -8  149.19   10.20
   1  -5  -8  134.39   10.20
   1   4   8  139.99    9.90
   5  -4  -8  152.28   10.10
  -4   5   8  162.98   10.40
  -5   4  -8  146.09   10.10
   5  -4  -8  134.89   10.20
   5  -4  -8  150.88   10.20
  -1   5  -8  131.99    9.80
   5  -1   8  131.79   10.20
  -4   5   8  134.99   10.10
   1   4  -8  144.09   10.00
  -1   5   8  147.79   10.10
  -4   5  -8  130.79   10.30
   5  -1  -8  147.99   10.20
  -1   5   8  118.59   10.10
  -4   5  -8  147.29   10.10
  -4   5  -8  134.39   10.00
   4  -5  -8  144.29   10.20
   1  -5   8  143.29   10.00
  -5   4   8  135.39   10.20
   5  -4   8  136.99   10.10
  -5   4   8  143.79   10.10
   1  -5   8  149.79   10.10
  -5   4   8  132.99   10.10
   4   1   8  152.28   10.20
  -4  -1   8  143.99   10.10
  -5   1  -8  135.79   10.10
  -5   1  -8  152.08   10.30
   5  -4   8  125.49   10.00
  -5   1  -8  134.39   10.10
   4  -5  -8  157.88   10.20
   4  -5  -8  132.49   10.10
   5  -1  -8  126.39    9.90
   5  -1  -8  146.99   10.10
   5  -4   8  149.19   10.10
  -4   5  -8  145.99   10.10
  -4  -1   8  135.69   10.00
  -4  -1   8  140.59   10.10
   4   1   8  153.88   10.20
  -1   5   8  140.89   10.00
   1   4  -8  141.89    9.70
   4  -5  -8  136.69   10.20
   5  -4   8  141.59   10.20
  -5   1  -8  124.69   10.00
  -5   4   8  158.78   10.20
   1  -5   8  144.79   10.00
   1  -5   8  137.79   10.10
  -1  -4  -8  128.79   10.00
  -1  -4  -8  139.39   10.10
   4   1   8  151.48   10.10
   5  -1  -8  127.49    9.90
   1   4  -8  131.59   10.00
   1   4  -8  127.79    9.60
   0  -5  -8  446.36   28.10
   5   0  -8  383.76   27.70
  -5   0  -8  402.16   28.10
   0  -5  -8  451.85   28.30
   0  -5   8  421.46   28.00
   0   5  -8  416.16   28.00
   5   0  -8  349.17   27.70
   0   5  -8  390.76   27.60
   0   5  -8  381.96   27.60
  -5   5  -8  399.66   28.00
  -5   0   8  407.66   28.00
   5   0   8  354.76   28.00
   0   5  -8  379.76   27.90
   5   0  -8  408.26   28.00
   5   0   8  441.56   28.10
  -5   0   8  368.06   27.90
  -5   0   8  392.56   28.00
  -5   0   8  407.56   28.00
   0   5   8  406.56   28.10
   0  -5  -8  467.65   28.50
   0  -5   8  394.96   28.00
  -5   0  -8  370.96   28.00
  -5   0  -8  421.26   28.10
   0  -5   8  414.66   27.90
  -5   0  -8  428.66   28.00
   5   0  -8  415.76   28.00
   0  -5  -8  434.46   28.00
   0   5   8  389.86   27.90
   3  -6   8   46.40    4.00
  -3  -3  -8   49.80    4.10
  -3   6   8   49.99    4.10
  -6   3   8   51.49    4.00
  -3   6   8   41.20    3.90
   3   3   8   55.09    4.20
  -3  -3   8   48.40    3.90
  -3  -3   8   51.19    4.00
  -3   6  -8   56.69    4.00
   6  -3  -8   51.99    4.20
  -6   3   8   49.60    4.10
   3   3  -8   52.49    4.00
   3  -6   8   53.89    4.10
  -3   6  -8   50.29    4.00
  -3  -3  -8   50.69    4.00
   6  -3  -8   48.80    4.10
   3  -6  -8   48.60    4.10
  -3  -3   8   53.09    3.90
   6  -3  -8   50.89    4.00
  -3  -3   8   51.59    3.90
  -3  -3  -8   44.80    3.90
  -3   6  -8   47.80    3.90
   3  -6   8   50.39    4.10
  -3   6  -8   44.20    4.00
   3  -6  -8   49.50    4.10
   3   3   8   49.90    3.80
   3   3   8   52.19    4.10
   6  -3  -8   52.79    4.00
   3   3   8   50.39    3.90
   6  -3   8   54.29    4.10
   3   3  -8   54.99    4.00
  -6   3   8   54.59    4.20
  -3   6   8   52.09    4.10
   4  -6   8 1811.52  107.19
   2  -6  -8 1530.25  106.99
   2   4   8 1448.96  106.69
   2   4   8 1672.53  106.99
  -4  -2  -8 1660.13  106.89
   2   4   8 1708.33  106.89
  -2  -4   8 1572.44  106.89
   6  -4  -8 1557.04  106.99
   6  -2   8 1499.65  106.89
  -2  -4   8 1597.14  106.89
  -4   6   8 1595.64  107.09
   4  -6   8 1546.75  106.99
  -2  -4   8 1529.65  106.89
   4   2  -8 1548.05  106.89
  -6   2   8 1492.65  106.99
   6  -2   8 1594.74  106.99
  -2   6  -8 1498.45  106.69
   2  -6  -8 1549.34  107.09
  -4  -2  -8 1355.76  106.89
  -4  -2  -8 1503.45  106.99
  -6   4  -8 1476.55  106.89
   4   2  -8 1670.73  106.89
   6  -2   8 1771.42  107.49
  -6   2   8 1470.75  106.89
  -6   2   8 1666.03  107.09
  -2   6  -8 1414.46  106.99
  -2   6  -8 1643.44  106.99
   2   4   8 1590.74  106.99
  -2  -4   8 1516.75  106.79
   4  -6   8 1681.73  107.09
  -6   4  -8 1362.56  106.99
  -4  -2  -8 1331.87  106.89
   2   4  -8 1563.04  106.89
   2  -6   8 1666.43  106.99
  -4   6  -8 1416.76  106.89
  -2   6   8 1702.03  107.29
  -2  -4  -8 1368.86  106.89
  -2  -4  -8 1455.35  106.89
   2  -6   8 1637.04  106.99
  -6   2  -8 1532.05  106.99
   2  -6   8 1524.65  106.89
   4   2   8 1528.85  106.79
  -2   6   8 1623.54  107.19
  -4  -2   8 1522.25  106.89
  -4  -2   8 1348.47  106.79
  -2   6   8 1761.82  107.19
  -2   6   8 1552.14  106.89
   6  -2  -8 1754.82  107.29
  -4   6  -8 1540.75  106.89
  -4   6  -8 1736.43  107.19
   6  -2  -8 1554.84  106.89
  -4  -2   8 1730.03  106.89
   2   4  -8 1505.35  106.89
   4   2   8 1736.33  107.09
   6  -2  -8 1587.94  107.09
  -6   2  -8 1638.34  107.29
  -2  -4  -8 1489.25  106.99
  -4  -2   8 1673.53  106.89
   2  -6   8 1580.14  106.99
   6  -4   8 1607.34  106.99
  -2  -4  -8 1802.82  107.09
   6  -2  -8 1511.05  106.89
   1  -6  -8  679.43   54.09
   6  -1   8  752.92   53.99
   6  -5  -8  751.62   53.99
  -5   6   8  837.92   54.19
  -6   5  -8  813.52   54.19
   5   1  -8  798.82   53.59
  -1  -5   8  840.32   54.09
  -5  -1  -8  697.53   53.99
   6  -5  -8  860.21   54.29
  -5  -1  -8  820.92   54.09
   1   5   8  735.73   53.79
  -6   1   8  810.42   53.99
  -1   6  -8  803.42   53.99
  -6   1   8  794.62   54.09
   1   5   8  831.22   53.89
  -1  -5   8  677.33   53.79
  -6   1   8  851.61   54.09
   6  -1   8  847.12   54.19
   5  -6   8  781.52   53.99
   1   5   8  830.22   54.09
   5  -6   8  764.02   54.29
   5   1  -8  697.43   53.99
  -5   6   8  725.33   53.99
   1  -6  -8  838.52   54.19
   5   1  -8  823.72   53.59
  -1   6  -8  788.52   53.99
  -6   1   8  742.23   53.99
   1   5   8  801.92   54.09
   5   1  -8  823.42   53.99
   6  -1   8  756.42   54.29
  -1  -5   8  814.22   53.89
  -5  -1  -8  831.22   54.09
  -1  -5   8  814.12   53.99
   1  -6  -8  867.81   54.09
  -6   5   8  761.82   54.09
  -1   6   8  710.83   53.89
   6  -5   8  771.32   54.09
  -1  -5  -8  715.83   53.99
   6  -1  -8  843.42   53.89
   6  -1  -8  774.62   54.09
   1  -6   8  843.82   54.09
  -1  -5  -8  880.91   54.09
   5  -6  -8  819.92   54.19
   1  -6   8  820.12   53.89
   1   5  -8  807.02   53.89
  -1  -5  -8  675.33   53.99
  -6   1  -8  809.42   54.09
  -6   1  -8  753.92   53.99
   6  -1  -8  824.12   54.09
   1  -6   8  720.53   53.89
   5   1   8  908.81   53.99
   6  -5   8  817.62   54.19
  -1  -5  -8  843.12   54.09
   5   1   8  770.12   54.09
  -6   5   8  701.23   53.99
   5   1   8  789.32   54.09
  -5  -1   8  794.92   53.99
  -5  -1   8  773.12   53.89
  -5  -1   8  746.83   53.99
   5   1   8  809.82   53.99
  -5   6  -8  714.03   53.99
   1  -6   8  811.12   53.99
  -5  -1   8  826.52   53.99
   6   0   8 2498.55  176.78
   6   0  -8 2687.83  176.88
  -6   0  -8 2283.47  176.78
  -6   6  -8 2579.74  176.78
   0  -6   8 2812.82  176.78
   6  -6   8 2690.03  176.88
  -6   0   8 2874.21  176.88
   0   6  -8 2599.74  176.68
   6   0   8 2666.43  176.68
  -6   0   8 2664.73  176.88
   0   6   8 2606.74  176.58
   0   6   8 2826.02  176.98
  -6   6  -8 2481.35  176.88
   0  -6  -8 2348.17  176.78
   0  -6   8 2685.83  176.78
   0   6   8 2565.84  176.88
  -6   0  -8 2426.26  176.78
   6  -6   8 2366.06  176.98
  -6   0   8 2863.91  176.88
   0   6  -8 2422.06  176.68
  -6   0   8 2662.53  176.78
  -6   0  -8 2326.57  176.78
   0  -6   8 2940.41  176.68
  -6   6   8 2704.93  176.88
   0  -6  -8 2548.05  176.88
   0  -6  -8 2526.85  176.88
   6   0   8 2588.44  176.88
   6  -6  -8 2759.02  176.88
   0   6   8 2546.65  176.78
  -3  -4   8  507.35   33.60
  -4  -3  -8  525.35   33.90
   7  -3   8  481.25   33.80
  -4   7   8  509.85   33.80
  -3  -4   8  493.05   33.60
   7  -4  -8  477.35   33.70
  -3  -4   8  448.26   33.60
   4   3  -8  513.15   33.70
  -3   7  -8  426.16   33.70
   7  -4  -8  410.36   33.80
  -4   7   8  495.55   33.90
  -3  -4   8  514.55   33.60
  -4  -3  -8  448.76   33.70
  -3   7  -8  471.95   33.80
   7  -4  -8  458.85   33.70
   7  -3   8  498.85   33.80
   3   4   8  470.85   33.40
  -7   4  -8  557.44   34.10
  -4   7   8  497.25   33.80
  -4  -3  -8  513.75   33.70
   7  -3   8  503.15   34.00
  -3   7  -8  526.25   33.70
   3   4   8  538.45   33.90
   3   4   8  514.55   33.90
   3  -7  -8  452.95   34.10
   4   3  -8  548.15   33.70
  -7   4  -8  479.45   33.80
  -7   3  -8  484.55   33.80
  -3  -4  -8  449.26   33.70
  -4  -3   8  417.16   33.60
  -3   7   8  475.55   33.90
   3   4  -8  502.55   33.60
  -7   4   8  484.95   33.80
  -4   7  -8  486.05   33.60
  -3   7   8  570.04   34.00
  -4  -3   8  489.75   33.60
   7  -3  -8  523.65   33.80
   7  -3  -8  529.45   33.80
  -3  -4  -8  447.36   33.80
   4   3   8  478.55   33.50
  -4   7  -8  502.55   33.70
   4  -7  -8  474.95   33.90
   7  -4   8  510.65   33.80
   4   3   8  477.95   33.80
   3   4  -8  480.35   33.60
  -7   3  -8  506.45   33.80
  -3  -4  -8  432.06   33.60
  -4  -3   8  430.66   33.50
  -7   4   8  538.45   33.90
   3  -7   8  507.85   33.90
  -3   7   8  490.55   33.70
   4  -7  -8  484.15   33.80
   3  -7   8  538.65   33.90
   4   3   8  443.26   33.80
  -4  -3   8  502.75   33.70
   4   3   8  470.35   33.50
   5   2  -8   11.70    1.30
   5  -7   8   11.40    1.40
   2   5   8   11.00    1.40
  -2  -5   8   11.90    1.30
  -5  -2  -8   10.70    1.40
   5  -7   8   11.90    1.50
   7  -5  -8   14.30    1.50
  -5  -2  -8   11.80    1.40
  -7   2   8   12.20    1.40
  -7   2   8   12.80    1.40
   5   2  -8   12.10    1.30
  -2   7  -8   11.10    1.30
   7  -2   8    9.90    1.30
   7  -2   8   12.60    1.50
  -5   7   8   10.90    1.40
  -2  -5   8   12.00    1.20
  -2  -5   8   13.00    1.30
  -2   7  -8   11.40    1.20
  -7   5  -8   11.90    1.40
  -2  -5   8   10.90    1.20
  -7   5  -8    9.90    1.40
  -5  -2  -8   11.00    1.40
   2   5   8   10.60    1.10
  -2   7  -8   10.20    1.30
   2  -7  -8   14.70    1.70
  -2   7  -8   11.40    1.10
  -7   5   8   13.80    1.60
  -5  -2   8   11.10    1.30
  -5  -2   8   11.60    1.30
   2   5  -8   13.40    1.30
   2  -7   8   11.80    1.40
   7  -5   8   16.50    1.70
   2  -7   8   10.80    1.30
   2  -7   8   11.40    1.30
  -5   7  -8   12.60    1.50
  -7   2  -8   10.00    1.40
  -2   7   8   11.90    1.30
  -5   7  -8   14.40    1.50
  -2  -5  -8   15.00    1.50
   5  -7  -8   12.60    1.50
  -2  -5  -8    9.70    1.30
  -2   7   8   11.90    1.30
   5  -7  -8   11.10    1.50
  -5  -2   8   10.60    1.30
   5   2   8   13.10    1.50
   5   2   8   11.40    1.40
   7  -5   8   11.80    1.40
   7  -2  -8   10.30    1.20
  -5  -2   8   12.10    1.30
  -5   7  -8   11.80    1.30
   7  -2  -8   12.20    1.40
   5   2   8   12.60    1.20
  -2  -5  -8   13.30    1.40
   2   5  -8    8.80    1.20
  -7   5   8   13.60    1.50
   7  -2  -8   13.00    1.30
  -7   2  -8   11.60    1.40
  -7   6  -8   78.39    6.30
   1  -7  -8   84.99    6.30
   1  -7  -8   89.19    6.50
   1   6   8   76.39    6.30
  -1  -6   8   74.69    6.20
   1   6   8   90.59    6.40
  -7   1   8   74.59    6.30
   6   1  -8   88.99    6.40
  -1   7  -8   80.39    6.20
  -7   6  -8   91.19    6.50
   7  -1   8   85.89    6.40
  -6  -1  -8   91.49    6.40
   7  -1   8   83.49    6.20
   7  -6  -8   72.99    6.20
   6  -7   8   87.99    6.50
  -6   7   8   75.99    6.30
   7  -6  -8   90.59    6.50
  -1  -6   8   79.59    6.20
   7  -1   8   93.19    6.40
  -1  -6   8   85.89    6.20
  -6  -1  -8   82.79    6.30
  -1  -6   8   89.39    6.20
  -1   7  -8   71.19    6.20
   6  -7   8   84.59    6.40
  -6  -1  -8   78.69    6.30
   6   1  -8   79.99    6.20
  -7   1   8   82.69    6.40
   1  -7  -8   82.59    6.30
   6   1   8   84.39    6.10
  -7   6   8   89.09    6.50
  -6  -1   8   78.79    6.20
   6   1   8   77.49    6.30
   1   6  -8   91.09    6.20
   6   1   8   78.79    6.30
  -6  -1   8   83.19    6.20
  -1   7   8   89.49    6.20
  -6   7  -8   77.09    6.40
   7  -6   8   86.09    6.50
  -1  -6  -8   82.19    6.30
  -1  -6  -8   88.19    6.40
   7  -1  -8   74.29    6.30
  -1  -6  -8   87.09    6.30
  -6  -1   8   85.99    6.20
  -1   7   8   88.09    6.40
   1  -7   8   85.09    6.30
   6  -7  -8   74.99    6.40
   6  -7  -8   84.79    6.40
  -1   7   8   87.89    6.50
  -1   7   8   84.79    6.20
   7  -1  -8   81.09    6.10
  -7   6   8   72.29    6.20
  -7   1  -8   83.39    6.40
   1  -7   8   87.29    6.30
  -7   1  -8   80.89    6.30
   7  -1  -8   74.49    6.00
   7  -6   8   87.69    6.40
  -6   7  -8   81.19    6.30
   1   6  -8   82.09    6.10
   1  -7   8   87.39    6.20
   7  -1  -8   83.99    6.40
  -6  -1   8   87.09    6.20
  -7   7   8  500.95   32.50
  -7   7  -8  413.66   32.30
   7  -7   8  476.25   32.30
   7  -7   8  523.35   32.70
  -7   0   8  512.05   32.40
   7   0  -8  496.35   32.30
   0  -7  -8  497.95   32.30
   0  -7  -8  454.65   32.30
   7   0   8  432.06   32.10
   7  -7  -8  469.35   32.40
   0  -7   8  448.56   32.20
  -7   7   8  455.35   32.30
   0  -7   8  469.15   32.20
   0   7   8  474.25   32.30
   7   0  -8  438.76   32.30
   0   7  -8  440.66   32.10
  -7   0   8  464.75   32.30
   0  -7  -8  483.85   32.30
   7   0   8  475.95   32.10
   7  -7  -8  474.15   32.30
   0   7  -8  490.85   32.20
   0   7   8  413.56   32.30
  -7   0   8  433.36   32.20
   0  -7   8  487.25   32.10
   0  -7   8  480.85   32.20
   0   7   8  421.86   31.90
  -4   8  -8 1804.92  137.99
  -4   8   8 2079.49  138.19
   8  -4  -8 2013.60  138.29
  -8   4   8 1856.21  138.19
   8  -4   8 1804.12  138.29
  -4   8   8 2067.79  138.29
  -4  -4  -8 1929.41  138.19
  -4  -4  -8 1809.02  138.09
   8  -4  -8 2223.28  138.29
   4  -8  -8 2019.90  138.29
  -4  -4   8 2220.48  138.09
   4  -8  -8 2134.99  138.29
   4   4   8 2091.59  138.19
  -8   4  -8 1992.20  138.19
   8  -4   8 2012.70  138.29
  -8   4   8 2025.70  138.29
   4  -8   8 2347.07  138.49
  -4   8   8 1977.40  138.29
  -4  -4  -8 2147.79  138.29
  -4   8  -8 2120.69  138.29
   4  -8   8 2165.18  138.39
  -8   4  -8 1725.03  138.19
   8  -4  -8 2059.69  138.49
  -4   8  -8 2071.69  138.09
   4   4   8 2136.29  138.29
  -8   3   8  150.38   11.10
  -3   8  -8  147.79   10.80
   8  -5  -8  151.88   11.10
  -5  -3  -8  153.48   11.00
  -3  -5   8  149.79   10.90
   3  -8  -8  150.08   11.10
  -8   5  -8  170.78   11.20
  -8   3   8  125.79   11.00
  -5   8   8  156.28   11.10
   3  -8  -8  145.59   11.10
   5  -8   8  152.38   11.20
   5   3  -8  142.39   10.90
   8  -5  -8  168.78   11.30
  -5  -3  -8  136.59   11.00
   5  -8   8  149.09   11.10
   3   5   8  146.29   11.10
   8  -3   8  133.99   11.00
   5   3  -8  153.68   10.90
  -8   5  -8  164.78   11.30
  -3   8  -8  163.58   11.20
   8  -3   8  165.18   11.30
  -5  -3  -8  151.98   11.10
   3   5   8  146.79   11.10
  -3  -5  -8  167.98   11.10
   5   3   8  143.29   11.10
  -8   5   8  158.58   11.10
  -8   3  -8  163.08   11.10
   3  -8   8  168.78   11.20
  -3   8   8  147.09   11.20
   8  -3  -8  170.28   11.30
   8  -5   8  144.99   11.10
  -3   8   8  155.08   10.90
  -8   5   8  139.09   11.10
  -3   8   8  161.98   11.10
  -5   8  -8  150.38   10.90
  -8   3  -8  156.78   11.20
   8  -3  -8  162.28   11.20
  -3  -5  -8  168.18   11.10
   5  -8  -8  130.89   11.00
   3  -8   8  151.88   11.10
  -5   8  -8  179.68   11.20
  -5  -3   8  153.18   10.90
   8  -5   8  143.19   11.20
  -3  -5  -8  158.08   11.10
   5  -8  -8  146.69   11.20
   8  -3  -8  152.28   11.00
   5   3   8  164.58   11.20
  -5  -3   8  139.89   10.90
   6   2  -8  606.54   39.40
   6  -8   8  567.64   39.80
  -2  -6   8  561.64   39.20
  -6  -2  -8  645.04   39.70
   2   6   8  634.84   39.60
   8  -6  -8  598.64   39.60
  -6  -2  -8  572.54   39.50
  -8   2   8  528.05   39.50
  -6   8   8  593.84   39.50
  -6   8   8  549.54   39.60
   6   2  -8  563.64   39.40
   8  -2   8  596.24   39.60
   8  -2   8  600.24   39.50
  -2   8  -8  587.54   39.60
  -2   8  -8  541.15   39.50
  -8   2   8  553.84   39.50
  -6  -2  -8  634.14   39.60
   8  -6  -8  553.24   39.60
   8  -2   8  509.95   39.60
   6  -8   8  569.94   39.60
   2  -8  -8  573.74   39.50
   2  -8  -8  616.94   39.70
  -8   6  -8  600.24   39.70
   2   6   8  591.24   39.60
  -6  -2   8  508.35   39.30
   8  -2  -8  528.25   39.50
  -2   8   8  604.14   39.60
  -8   6   8  599.84   39.60
   8  -2  -8  571.64   39.30
   2  -8   8  577.94   39.50
   2  -8   8  501.15   39.40
  -8   2  -8  591.54   39.60
  -2  -6  -8  507.45   39.40
  -2  -6  -8  580.54   39.50
  -2   8   8  543.35   39.30
   8  -6   8  567.84   39.70
   6  -8  -8  510.95   39.50
   6   2   8  536.95   39.50
  -6  -2   8  573.54   39.60
  -6  -2   8  582.14   39.40
  -8   6   8  578.84   39.60
   6   2   8  577.74   39.60
   2  -8   8  632.54   39.60
  -6   8  -8  549.74   39.40
  -8   2  -8  584.54   39.50
  -2  -6  -8  586.44   39.50
  -6   8  -8  593.94   39.60
   6  -8  -8  581.24   39.70
   8  -1   8    8.60    1.30
   7   1  -8    6.60    1.10
  -8   7  -8    8.10    1.20
  -1   8  -8    9.10    1.10
   8  -7  -8   11.00    1.30
  -1   8  -8    7.50    1.10
  -7   8   8    7.70    1.20
   7  -8   8    9.50    1.20
  -8   1   8    8.10    1.20
   8  -1   8    7.60    1.00
   7   1  -8    7.50    1.10
   8  -7  -8    9.60    1.40
   7  -8   8    8.40    1.30
   1   7   8    7.90    1.20
  -7   8   8    6.40    1.20
   1   7   8    8.20    1.10
  -8   7  -8   12.20    1.40
   8  -1  -8    9.60    1.30
   1  -8   8    7.30    1.10
  -7   8  -8    8.70    1.10
   8  -7   8    7.60    1.10
  -7  -1   8    9.70    1.20
   1  -8   8    5.90    1.00
   1  -8   8    8.90    1.20
   7  -8  -8    7.90    1.30
  -1  -7  -8    8.80    1.20
  -8   7   8    7.20    1.20
  -8   1  -8    8.00    1.10
  -7  -1   8    6.70    1.10
  -7  -1   8    7.20    1.10
   8  -7   8    7.00    1.20
  -1  -7  -8    9.50    1.30
   7  -8  -8    7.30    1.30
  -1  -7  -8    7.40    1.10
  -7   8  -8    8.30    1.30
  -8   1  -8    8.40    1.20
   0   8   8 1190.98   85.19
   0  -8  -8 1250.47   85.29
   8   0  -8 1324.07   85.29
   8   0   8 1171.78   85.29
  -8   8  -8 1173.68   85.19
   8   0  -8 1249.07   85.29
  -8   0  -8 1317.37   85.29
  -8   0  -8 1068.69   85.19
  -8   0   8 1332.97   85.29
  -8   8  -8 1413.96   85.79
   9  -4   8  175.28   14.40
   4  -9  -8  185.78   14.50
   4  -9  -8  197.68   14.50
   9  -5  -8  191.78   14.60
  -9   5  -8  198.58   14.60
  -9   4   8  211.98   14.50
   9  -5  -8  170.68   14.40
  -5  -4  -8  223.88   14.50
   9  -4   8  206.58   14.70
  -5   9   8  227.28   15.20
   5  -9   8  203.68   14.60
  -4   9  -8  204.78   14.50
  -9   4   8  205.78   14.60
  -4   9   8  187.68   14.50
  -4   9   8  204.18   14.40
   5  -9  -8  216.08   14.60
  -5   9  -8  207.28   14.40
  -9   5   8  212.88   14.50
   9  -5   8  199.58   14.50
   5  -9  -8  207.08   14.70
  -9   4  -8  207.68   14.50
   4  -9   8  212.18   14.60
  -9   5   8  207.58   14.60
   5   4   8  219.58   14.60
   4  -9   8  209.78   14.50
   9  -4  -8  174.38   14.40
   9  -4  -8  215.68   14.50
   9  -5   8  204.18   14.60
  -9   4  -8  197.58   14.60
   5   4   8  168.58   14.30
  -5   9  -8  228.58   14.70
  -4   9   8  210.98   14.50
   3  -9  -8    1.10    0.50
  -9   3   8    1.10    0.60
  -9   6  -8    1.40    0.60
  -9   3   8    0.90    0.40
   3  -9  -8    0.80    0.50
   9  -3   8    0.90    0.50
  -6  -3  -8    1.80    0.60
  -6   9   8    0.90    0.50
  -6  -3  -8    1.00    0.50
  -6  -3  -8    1.20    0.50
   9  -6  -8    0.90    0.50
   6  -9   8    1.10    0.50
  -6   9   8    1.10    0.60
   9  -3   8    1.00    0.40
   9  -6  -8    1.20    0.50
   6  -9   8    1.00    0.50
  -9   6   8    0.60    0.40
   6   3   8    1.40    0.60
  -3   9   8    1.10    0.50
   6  -9  -8    1.40    0.60
   9  -6   8    0.60    0.40
   6  -9  -8    0.80    0.50
   6   3   8    1.20    0.50
  -9   6   8    0.70    0.40
   9  -3  -8    0.80    0.40
   3  -9   8    0.60    0.40
  -9   3  -8    0.90    0.40
  -3   9   8    1.00    0.40
  -6   9  -8    3.00    0.60
   9  -6   8    1.50    0.60
  -6   9  -8    1.40    0.50
  -9   3  -8    0.90    0.50
   9  -2   8   36.60    3.10
   7  -9   8   33.30    3.10
   7  -9   8   31.50    3.20
  -7   9   8   33.00    3.10
   9  -2   8   32.30    3.20
   2  -9  -8   34.80    3.20
  -9   2   8   36.90    3.10
   2  -9  -8   37.70    3.20
  -9   2   8   39.00    3.20
  -9   2  -8   37.60    3.20
   9  -2  -8   33.90    3.20
  -2   9   8   36.90    3.20
  -9   2  -8   35.80    3.20
  -7   9  -8   33.10    3.20
  -7   9  -8   33.80    3.00
   0   0  -9    0.20    0.20
   0   0   9    0.10    0.20
   1  -1  -9  284.87   18.70
  -1   0  -9  261.37   18.60
  -1   0  -9  291.17   18.80
  -1   0   9  234.68   18.50
   0  -1   9  286.87   18.60
   0  -1   9  251.27   18.60
   0  -1   9  293.57   18.70
   0   1  -9  284.17   18.50
  -1   1   9  282.47   18.60
  -1   1  -9  252.17   18.60
  -1   1  -9  284.97   18.70
   1   0  -9  287.97   18.60
   0  -1   9  224.88   18.60
   0  -1  -9  256.57   18.60
  -1   0   9  270.47   18.60
  -1   1  -9  279.77   18.60
   0   1  -9  254.77   18.60
   0   1   9  235.98   18.60
  -1   1  -9  280.37   18.60
  -1   0  -9  287.77   18.60
   0   1  -9  260.87   18.60
   0   1   9  291.37   18.70
   1  -1  -9  243.88   18.50
   0  -1  -9  261.97   18.60
   0  -1  -9  279.67   18.80
  -1   1   9  270.37   18.60
   0  -1  -9  229.38   18.50
  -1   1   9  268.37   18.70
  -1   0   9  256.87   18.70
   0   1   9  271.57   18.60
   0   1  -9  254.47   18.50
   1  -1  -9  265.57   18.70
   1  -1  -9  274.37   18.60
  -1   1   9  258.27   18.60
   1  -1   9  277.47   18.60
   1  -1   9  283.37   18.70
   1   0  -9  239.48   18.50
   1  -1   9  294.67   18.70
   0   1   9  270.07   18.60
  -1   0  -9  263.97   18.60
  -1   0   9  224.88   18.50
  -1  -1  -9    0.20    0.20
   1  -2  -9    0.30    0.30
  -1  -1  -9    0.00    0.20
   1   1  -9    0.10    0.20
   1   1   9    0.30    0.30
  -1  -1   9    0.10    0.20
   1  -2  -9    0.10    0.20
  -1   2  -9    1.30    0.50
  -2   1   9    0.10    0.20
   1   1  -9    0.00    0.20
   2  -1   9    0.10    0.30
   2  -1  -9    0.20    0.30
  -1   2  -9    0.60    0.40
  -2   1  -9    1.10    0.40
  -2   1   9    0.10    0.30
   1   1  -9    0.00    0.20
  -1  -1  -9    0.20    0.20
  -2   1  -9    0.00    0.30
  -1   2  -9    0.10    0.20
  -1   2   9    0.00    0.20
  -1   2   9    1.60    0.50
  -1  -1   9    0.10    0.20
   1   1  -9   -0.10    0.10
   2  -1  -9    0.20    0.30
   1  -2  -9    0.30    0.30
  -1  -1   9    0.10    0.20
   1  -2   9    0.00    0.20
   1  -2   9    0.10    0.30
  -2   1  -9    1.20    0.40
   1  -2  -9    0.10    0.20
   1  -2   9    0.00    0.30
   1   1   9    0.10    0.20
  -1   2  -9    0.10    0.20
   1  -2   9    0.00    0.20
   1   1   9    0.10    0.20
  -2   1   9    0.10    0.20
   2  -1  -9    0.30    0.20
  -1  -1   9    0.00    0.20
   1   1   9    0.20    0.20
  -2   1  -9    0.30    0.30
   2   0  -9   22.50    2.00
   2  -2   9   21.80    1.90
   2   0   9   25.10    2.20
   0   2  -9   22.90    1.90
  -2   0   9   23.70    2.00
   2   0  -9   20.70    1.90
   2   0  -9   19.80    1.80
  -2   0   9   21.70    2.00
  -2   2   9   23.00    2.10
  -2   2   9   19.70    2.00
   0  -2   9   17.80    1.90
  -2   0   9   19.10    2.00
   2   0   9   22.90    2.00
   0  -2  -9   25.30    2.10
   0   2   9   23.20    1.90
  -2   2  -9   19.50    1.90
  -2   2  -9   20.60    1.90
   2  -2   9   19.30    1.90
  -2   2   9   19.20    1.90
   2  -2   9   21.70    2.00
  -2   2   9   20.70    1.90
  -2   0  -9   22.90    2.00
   2  -2  -9   22.70    2.10
   0   2  -9   18.60    1.90
   0  -2   9   22.80    2.00
   0  -2  -9   21.90    2.00
   0   2   9   24.20    2.10
   0   2   9   20.70    2.10
   0  -2  -9   18.40    2.00
  -2   0  -9   21.30    2.00
  -2   0  -9   22.80    2.00
  -2   0   9   18.50    1.90
   2  -2   9   20.50    2.00
   2  -2  -9   17.80    1.90
   2  -2  -9   20.00    1.90
  -2   2  -9   22.90    2.00
   2   0   9   17.90    2.00
   2  -2  -9   17.60    2.00
   0   2  -9   20.10    2.00
   0  -2  -9   18.50    1.90
   0  -2   9   22.50    2.00
   0   2  -9   20.80    1.90
   0   2   9   23.30    2.00
   2   0  -9   17.60    1.90
   2   0   9   20.50    2.00
   0  -2   9   22.50    1.90
  -2  -1  -9  104.59    7.10
   3  -1   9   98.89    7.00
  -1  -2   9   80.69    6.80
  -3   1   9   97.89    6.90
  -1   3  -9   87.99    6.70
   3  -2  -9   88.79    6.80
   2   1  -9   92.59    6.90
  -3   2  -9   98.79    6.90
   3  -2  -9   84.69    6.90
   3  -2  -9   86.19    6.90
   1   2   9   97.59    6.90
  -2   3   9   87.29    6.80
   3  -1   9   83.09    6.80
  -1  -2   9   94.59    6.80
   3  -1   9   94.59    6.90
   1  -3  -9  104.69    7.10
   3  -2  -9   96.09    6.90
  -1  -2   9   88.79    6.80
  -2  -1  -9   78.79    6.80
  -1   3  -9   92.69    6.90
   2  -3   9   87.99    6.90
  -2   3   9   93.69    6.90
   2   1  -9   97.69    6.70
  -2  -1  -9   87.79    6.90
  -1   3  -9   92.79    6.80
   1   2   9   97.99    7.00
  -2   3   9   76.29    6.80
  -3   1   9  100.59    7.00
  -2  -1  -9   93.99    6.80
   2  -3   9   90.59    6.80
   2  -3   9   83.49    6.80
   3  -1   9   95.59    6.80
  -2   3   9   90.49    6.90
   2  -3   9   95.99    6.80
   1   2   9   86.69    6.80
   1  -3  -9   94.99    6.90
   1  -3  -9   98.49    6.90
   1   2   9   90.79    6.80
  -1  -2   9   99.69    6.80
  -3   1   9   88.89    6.80
   2   1  -9   94.09    6.70
  -3   1   9   85.29    6.80
  -1   3   9   74.89    6.70
  -1  -2  -9   99.79    6.90
  -2  -1   9   91.09    6.80
   3  -1  -9   92.49    6.90
  -3   1  -9   86.09    6.80
   1  -3   9   89.19    6.90
   1  -3   9   91.59    6.90
  -1  -2  -9   96.89    6.90
  -3   1  -9   83.49    6.90
  -1   3   9   89.99    6.80
   3  -2   9  101.59    7.00
   1  -3   9   75.49    6.70
  -1   3   9   88.19    6.90
   2   1   9   95.19    6.90
   1   2  -9   95.69    6.90
  -3   1  -9   85.69    6.80
  -3   1  -9   95.79    6.90
   2  -3  -9  104.79    6.90
  -2  -1   9   89.59    6.90
   1   2  -9   92.09    6.70
  -2  -1   9   91.19    6.90
   1   2  -9   96.09    6.90
  -1   3   9  108.69    7.10
   3  -1  -9  102.09    6.90
   3  -1  -9   91.89    6.80
   2  -3  -9   94.99    6.90
  -2  -1   9   87.99    6.80
  -2   3  -9   95.69    6.80
  -2   3  -9   97.09    6.80
  -2   3  -9   95.39    6.90
   2   1   9  102.49    7.00
  -1  -2  -9   91.39    6.90
  -1  -2  -9   96.89    6.90
   2  -3  -9   79.79    6.80
   3  -2   9   85.19    6.90
  -3   2   9  100.09    7.00
  -3   2   9  101.79    7.00
   3  -2   9   90.39    6.90
   2   1   9   91.49    6.90
  -3   2   9  103.39    6.90
   1   2  -9  101.29    6.80
  -3   2   9   89.09    6.80
   0   3   9  155.48   11.70
   3  -3   9  170.58   11.80
   0   3  -9  185.18   11.80
  -3   3  -9  163.98   11.70
   3  -3  -9  177.88   11.90
   0   3   9  179.28   11.80
   0  -3   9  157.78   11.70
   3   0   9  165.88   11.80
  -3   0   9  171.68   11.80
   0  -3   9  176.38   11.70
   3   0   9  148.09   11.70
  -3   3   9  157.28   11.70
   0   3  -9  144.39   11.60
   0  -3  -9  193.38   11.90
   3   0  -9  181.68   11.90
   3   0  -9  160.38   11.70
   0   3  -9  174.58   11.60
  -3   0   9  146.59   11.70
   3  -3  -9  162.98   11.80
   0  -3   9  165.78   11.80
  -3   0  -9  168.38   11.80
  -3   3   9  187.98   12.00
   0  -3  -9  170.78   12.00
  -3   0   9  179.48   11.80
   0   3  -9  172.58   11.80
  -3   3  -9  163.28   11.80
   3   0   9  182.28   11.90
  -3   0  -9  137.39   11.80
   0  -3  -9  158.18   11.80
   0  -3  -9  186.38   11.90
   0   3   9  146.49   11.80
   3  -3   9  161.68   11.80
   3   0   9  139.19   11.80
  -3   3   9  143.29   11.70
  -3   3   9  180.28   12.00
  -3   3  -9  149.29   11.70
  -3   3  -9  151.98   11.80
  -3   0   9  144.69   11.70
   3   0  -9  175.18   11.70
   3  -3  -9  158.78   11.80
  -3   0  -9  165.78   11.80
   3  -3   9  156.18   11.90
   0   3   9  173.28   11.90
   3  -3   9  184.38   11.90
   2   2  -9    0.70    0.30
  -4   2  -9    0.20    0.30
  -4   2   9    0.20    0.20
   2  -4   9    0.00    0.20
  -4   2   9    0.10    0.30
  -2   4  -9    0.10    0.20
   2   2  -9    0.10    0.20
  -2  -2  -9   -0.10    0.20
  -2  -2  -9    0.00    0.20
  -2  -2  -9    0.20    0.20
   2  -4   9   -0.10    0.30
  -2  -2   9    0.20    0.20
   4  -2  -9    0.20    0.30
  -2   4   9    0.00    0.20
  -2  -2   9    0.20    0.20
   2  -4  -9    0.80    0.40
  -2  -2   9    1.40    0.40
   2  -4   9    0.20    0.30
   2   2   9    0.00    0.20
  -2   4  -9    0.10    0.20
   2  -4  -9   -0.10    0.30
   4  -2  -9    0.00    0.20
   2   2  -9    0.00    0.10
   2   2  -9    0.10    0.30
   2  -4  -9    0.00    0.20
   2  -4   9    0.10    0.20
   4  -2   9    0.10    0.20
  -2  -2  -9    1.30    0.50
  -4   2  -9    0.30    0.30
   2   2   9    0.80    0.50
  -2   4   9    0.30    0.30
  -2   4   9    0.10    0.20
   4  -2   9    0.10    0.30
  -2  -2   9    0.50    0.30
  -4   2   9    0.30    0.20
  -4   2  -9    0.10    0.30
  -4   2  -9    0.00    0.20
   2   2   9    0.10    0.20
  -2   4  -9    0.80    0.30
   2  -4  -9    0.00    0.30
   2   2   9    0.20    0.20
  -4   2   9    0.00    0.20
  -2   4   9    0.00    0.30
   4  -2  -9    0.30    0.30
   4  -2   9    0.30    0.30
   4  -3  -9  198.88   13.00
   1  -4  -9  174.28   13.00
   3  -4   9  192.78   13.10
  -3  -1  -9  205.68   13.10
  -1  -3   9  169.88   12.80
   3   1  -9  171.88   12.90
   3  -4   9  186.38   12.90
  -4   3  -9  199.38   13.00
  -4   3  -9  190.08   12.90
   4  -3  -9  196.08   13.10
  -3  -1  -9  200.28   13.00
  -4   1   9  188.68   12.90
  -1   4  -9  171.48   13.00
   1   3   9  200.58   13.10
  -1  -3   9  175.48   13.00
   4  -1   9  166.28   13.00
   4  -3  -9  194.28   13.10
   1  -4  -9  192.88   13.00
  -4   3  -9  166.88   13.00
   4  -1   9  203.68   13.20
  -1  -3   9  178.78   13.00
   4  -1   9  206.38   13.00
   1  -4  -9  173.58   13.00
   1   3   9  188.48   12.90
  -3  -1  -9  197.68   13.10
   1   3   9  169.48   12.90
  -4   1   9  154.78   12.90
   3   1  -9  150.58   12.80
   3  -4   9  164.08   12.90
  -1  -3   9  175.08   12.90
  -1   4  -9  163.68   12.80
   3  -4   9  174.28   12.90
   1   3   9  181.08   13.00
   1  -4  -9  207.18   13.20
  -3   4   9  165.98   12.90
   4  -1   9  185.38   12.90
  -3   4   9  190.98   13.10
  -3   4   9  191.08   13.00
  -3  -1  -9  176.48   12.90
  -1   4  -9  191.88   13.00
  -4   1   9  192.58   13.00
   1   3  -9  162.68   12.70
  -1  -3  -9  186.88   13.00
  -4   1  -9  169.88   12.90
  -4   1  -9  181.78   13.00
   4  -3   9  182.58   12.90
  -1  -3  -9  190.48   13.10
   1  -4   9  183.98   12.90
  -1  -3  -9  164.08   13.00
   3  -4  -9  200.08   13.00
   3  -4  -9  180.08   13.00
   3   1   9  192.28   12.90
  -3  -1   9  178.78   12.90
   1  -4   9  187.88   12.90
   4  -1  -9  202.88   13.10
   4  -1  -9  203.18   13.00
   4  -1  -9  152.38   12.80
  -1   4   9  181.58   12.90
  -4   3   9  197.48   13.00
   3   1   9  177.68   13.00
  -1  -3  -9  152.58   12.80
   3   1   9  179.48   13.10
  -1   4   9  161.38   12.90
   4  -3   9  194.68   13.00
   1   3  -9  168.18   12.70
   1  -4   9  172.48   13.00
  -3   4  -9  189.38   12.90
   4  -3   9  172.08   13.00
  -3   4  -9  189.48   13.00
   4  -1  -9  186.88   13.00
  -3  -1   9  205.38   13.00
  -4   3   9  171.28   13.00
   1  -4   9  186.08   12.90
  -4   3   9  185.98   13.10
   4  -3   9  165.88   13.00
   3  -4  -9  194.08   13.10
   3  -4  -9  161.18   13.00
  -4   1  -9  168.78   12.90
  -3   4  -9  171.78   12.90
  -4   1  -9  207.48   13.10
  -3   4  -9  184.58   13.00
  -1   4   9  195.28   13.20
   0  -4  -9  149.79   10.30
  -4   0  -9  148.59   10.20
  -4   0  -9  141.19   10.30
   0  -4   9  129.79   10.20
   4   0  -9  164.68   10.40
  -4   4   9  126.29   10.30
   4  -4   9  159.18   10.50
   4  -4  -9  129.79   10.20
  -4   0  -9  168.28   10.50
  -4   4   9  127.59   10.20
   4  -4   9  131.79   10.20
   4   0   9  152.38   10.30
   0  -4   9  161.08   10.40
  -4   4  -9  145.89   10.20
  -4   0   9  151.08   10.30
   0   4  -9  139.59   10.20
   0  -4  -9  139.59   10.30
   0  -4  -9  137.99   10.30
   0   4   9  139.39   10.30
   4  -4  -9  136.29   10.20
   4   0  -9  142.69   10.30
   0  -4  -9  118.89   10.20
   0  -4   9  145.59   10.10
   4  -4  -9  132.09   10.40
  -4   0   9  152.18   10.20
   0   4   9  160.58   10.20
   0   4  -9  143.09   10.20
  -4   4  -9  153.38   10.30
   0   4  -9  129.89   10.00
   0   4   9  131.49   10.20
   0  -4   9  138.59   10.20
   0   4  -9  151.58   10.10
   4   0   9  124.99   10.10
   4   0   9  128.69   10.30
  -4   0  -9  144.79   10.30
  -4   4  -9  144.59   10.30
   0   4   9  135.19   10.30
   4   0  -9  147.99   10.10
  -2   5  -9  855.51   58.59
  -3  -2  -9  941.41   58.59
   5  -3  -9  862.91   58.49
  -2  -3   9  839.92   58.49
   3  -5   9  750.92   58.59
   3  -5   9  908.61   58.69
   2   3   9  876.31   58.49
   3   2  -9  880.81   58.59
  -2  -3   9  858.61   58.59
  -5   2   9  761.52   58.49
  -3  -2  -9  869.41   58.69
   5  -3  -9  910.91   58.59
   2  -5  -9  839.02   58.69
   2   3   9  834.02   58.69
  -5   2   9  867.21   58.69
  -2  -3   9  906.71   58.59
   2  -5  -9  797.22   58.59
   2  -5  -9  909.71   58.69
   2   3   9  818.32   58.69
  -5   2   9  977.20   58.69
  -3   5   9  898.71   58.59
   5  -2   9  895.91   58.59
  -2   5  -9  838.32   58.49
   5  -2   9  909.01   58.59
  -2  -3   9  942.31   58.49
  -3  -2  -9  890.81   58.59
  -2   5  -9  843.92   58.39
   3  -5   9  861.51   58.59
   2   3   9  879.31   58.49
  -3  -2  -9  820.42   58.49
  -2   5  -9  881.51   58.59
  -3   5   9  800.12   58.59
   3   2  -9  854.31   58.29
   3   2  -9  838.42   58.49
  -3  -2   9  937.51   58.59
   2  -5   9  848.52   58.59
  -5   3   9  776.62   58.59
  -2   5   9  852.81   58.59
   2   3  -9  872.31   58.59
  -3   5  -9  895.91   58.69
  -3  -2   9  777.62   58.39
  -3  -2   9  881.91   58.59
  -2   5   9  920.71   58.59
   3   2   9  818.12   58.39
   5  -2  -9  800.42   58.59
  -3   5  -9  766.92   58.49
   3   2   9  836.62   58.69
   2  -5   9  854.01   58.49
   2   3  -9  881.51   58.19
  -3  -2   9  886.51   58.49
   3   2   9  844.12   58.49
  -2   5   9  873.71   58.69
   2   3  -9  861.31   58.59
   5  -3   9  860.31   58.69
  -2  -3  -9  851.81   58.59
   2  -5   9  881.91   58.49
  -2  -3  -9  785.12   58.59
  -2  -3  -9  887.61   58.59
   5  -2  -9  900.51   58.69
   5  -2  -9  797.32   58.49
  -5   3   9  731.83   58.49
  -3   5  -9  844.92   58.39
  -3   5  -9  814.12   58.49
   2   3  -9  866.41   58.19
   2  -5   9  840.02   58.69
   1   4   9    2.70    0.60
  -1  -4   9    2.20    0.60
   4   1  -9    2.30    0.50
  -1  -4   9    3.00    0.70
  -5   4  -9    2.70    0.80
  -1   5  -9    1.60    0.40
   5  -1   9    1.50    0.60
   1  -5  -9    2.00    0.60
  -4  -1  -9    3.20    0.70
   5  -1   9    1.90    0.50
   5  -1   9    1.70    0.50
  -4  -1  -9    1.60    0.50
   1  -5  -9    1.80    0.60
   1   4   9    2.20    0.60
   1   4   9    2.40    0.60
  -1   5  -9    1.90    0.50
   5  -4  -9    2.30    0.60
  -1  -4   9    2.10    0.60
  -4  -1  -9    2.10    0.60
  -4   5   9    1.60    0.60
   1  -5  -9    1.90    0.60
  -5   1   9    1.40    0.50
  -1  -4   9    2.50    0.60
   4   1  -9    1.70    0.40
  -5   1   9    1.30    0.50
   4   1  -9    1.70    0.50
  -4   5   9    2.70    0.70
  -5   4  -9    2.00    0.60
   1   4   9    1.80    0.40
  -1   5   9    1.60    0.50
   4  -5  -9    1.40    0.50
   1  -5   9    1.90    0.60
   1  -5   9    2.20    0.50
   1  -5   9    1.60    0.50
   1   4  -9    1.90    0.40
   1   4  -9    1.40    0.30
  -1   5   9    1.40    0.50
   4  -5  -9    1.60    0.50
   5  -1  -9    1.80    0.50
   5  -1  -9    2.00    0.60
  -5   1  -9    2.30    0.60
  -4  -1   9    2.40    0.60
  -4   5  -9    1.20    0.40
  -1   5   9    2.10    0.50
   4   1   9    1.80    0.50
  -1   5   9    2.20    0.60
   4   1   9    1.50    0.60
   1   4  -9    2.30    0.60
  -5   4   9    1.70    0.60
  -5   1  -9    4.70    0.90
   5  -1  -9    2.20    0.60
  -1  -4  -9    1.60    0.50
   4   1   9    2.10    0.60
   5  -4   9    1.70    0.50
  -4   5  -9    1.90    0.50
  -4  -1   9    1.40    0.50
  -4  -1   9    2.10    0.50
   5  -1  -9    1.30    0.40
   4   1   9    1.90    0.60
   5  -4   9    1.20    0.50
   0  -5   9   92.29    7.00
   0  -5  -9   86.29    7.00
  -5   0  -9  106.29    7.10
   0   5   9   82.79    6.90
   0   5  -9   83.69    6.90
  -5   0   9   97.99    7.00
  -5   0   9   91.39    7.00
   0   5  -9   80.29    6.90
  -5   5  -9   92.49    7.10
   5   0  -9   94.49    7.00
  -5   0   9   81.29    6.90
   0   5  -9   98.89    6.70
   0  -5   9  104.39    7.10
   5  -5   9   88.59    7.10
  -5   0  -9   87.69    7.00
  -5   0   9   98.99    7.10
   0  -5   9  108.79    7.10
  -5   5  -9  106.09    7.10
   5   0   9   95.39    7.10
  -5   5   9   92.29    7.10
   5  -5  -9  104.99    7.10
   0   5   9   87.19    7.10
   0   5   9  106.19    7.20
   5   0  -9  100.99    6.80
   0  -5  -9   79.69    7.00
   0   5   9   92.69    6.90
   5  -5   9   90.59    7.00
   5   0   9  100.69    7.00
   0  -5   9   96.29    6.90
  -3   6  -9    0.10    0.20
   3  -6  -9    0.30    0.30
   6  -3   9    0.10    0.20
   3   3   9    0.30    0.20
   3  -6  -9    0.10    0.30
  -6   3  -9   -0.10    0.20
   6  -3  -9    0.00    0.20
  -6   3  -9    0.50    0.40
  -3  -3  -9    0.20    0.30
  -3  -3   9    0.00    0.20
  -3  -3   9    0.20    0.20
   6  -3  -9    0.00    0.20
  -3  -3   9    0.40    0.30
  -6   3   9    0.40    0.40
  -6   3   9    0.00    0.20
  -3  -3   9    0.30    0.20
  -3   6  -9    0.20    0.20
  -3  -3  -9    0.90    0.40
   3   3  -9    2.30    0.60
   3  -6   9    0.00    0.30
  -3   6  -9    0.20    0.30
   3   3   9    0.80    0.40
   3   3   9    0.50    0.30
   6  -3   9    0.20    0.30
  -3   6  -9    0.10    0.20
  -3  -3  -9    0.00    0.30
   3   3   9    1.60    0.50
  -3   6   9    0.10    0.20
   4   2  -9  229.58   15.70
  -2  -4   9  236.88   16.20
   4   2  -9  244.28   16.20
  -4   6   9  237.08   16.20
  -4  -2  -9  248.28   16.30
  -4   6   9  255.27   16.40
   4  -6   9  204.78   16.20
  -2   6  -9  248.68   16.10
   6  -4  -9  227.18   16.20
   6  -2   9  253.27   16.30
  -2  -4   9  204.58   16.10
   6  -4  -9  200.98   16.20
   2   4   9  247.78   16.30
  -2   6  -9  238.08   16.20
   6  -2   9  193.38   16.20
   4   2  -9  220.48   15.70
  -4  -2  -9  237.58   16.20
   2   4   9  223.68   16.00
   2   4   9  203.18   16.20
  -2   6  -9  232.48   16.20
  -2  -4   9  194.08   16.00
   2   4   9  213.68   16.00
   4  -6   9  204.48   16.20
  -6   2   9  242.08   16.30
   6  -2   9  245.58   16.20
   4   2  -9  245.78   16.20
  -2  -4   9  230.78   16.10
  -6   4  -9  241.58   16.30
  -4  -2  -9  234.48   16.30
  -2   6  -9  210.68   15.90
  -6   4  -9  245.28   16.20
   2  -6   9  238.78   16.20
   6  -4   9  214.38   16.20
   6  -2  -9  234.98   16.30
  -2  -4  -9  220.38   16.20
   2   4  -9  226.08   16.10
   4   2   9  218.78   16.10
  -6   4   9  209.98   16.20
  -6   2  -9  253.67   16.30
  -6   4   9  240.18   16.30
   4   2   9  238.28   16.30
  -4  -2   9  241.58   16.10
  -6   2  -9  230.78   16.20
  -2  -4  -9  241.48   16.30
  -4   6  -9  230.48   16.30
   6  -2  -9  198.58   16.00
   4  -6  -9  252.17   16.30
   2  -6   9  244.98   16.30
   4   2   9  258.07   16.40
   6  -2  -9  199.68   16.10
   4  -6  -9  252.57   16.40
  -2  -4  -9  211.18   16.20
   4   2   9  233.28   16.00
  -4  -2   9  243.28   16.20
   6  -4   9  209.28   16.30
   2   4  -9  197.98   16.10
  -4  -2   9  242.08   16.30
  -4  -2   9  240.48   16.20
   2  -6   9  226.88   16.20
   5   1  -9  174.38   12.00
  -6   1   9  177.68   12.50
   5  -6   9  180.48   12.50
   5  -6   9  179.58   12.60
  -6   5  -9  154.18   12.30
   1   5   9  191.68   12.60
  -1  -5   9  174.38   12.40
   6  -1   9  166.78   12.50
  -5  -1  -9  186.08   12.50
   1   5   9  162.38   12.40
  -6   1   9  178.98   12.40
  -5   6   9  156.28   12.30
  -1   6  -9  182.48   12.20
  -1  -5   9  178.98   12.40
  -6   1   9  187.98   12.50
  -6   5  -9  170.08   12.50
   5   1  -9  176.48   12.00
  -1  -5   9  194.98   12.30
  -5   6   9  168.78   12.50
   6  -1   9  187.28   12.50
   1   5   9  150.78   12.20
   1   5   9  180.08   12.20
   5   1  -9  170.08   12.40
   1  -6  -9  194.48   12.60
   6  -5  -9  160.18   12.40
  -5  -1  -9  178.48   12.40
   6  -5  -9  176.08   12.50
  -1   6  -9  195.58   12.50
  -5  -1  -9  189.58   12.50
  -1  -5   9  188.48   12.40
  -1   6  -9  170.98   12.30
  -6   1  -9  176.58   12.50
   5   1   9  145.19   12.60
  -5  -1   9  173.98   12.40
  -6   1  -9  164.28   12.40
  -1   6   9  179.68   12.30
   5   1   9  158.98   12.30
   5   1   9  168.28   12.50
  -1   6   9  158.08   12.30
   5  -6  -9  173.88   12.50
   6  -1  -9  180.18   12.30
   5   1   9  174.68   12.30
   6  -1  -9  144.59   12.40
  -5   6  -9  176.98   12.50
   6  -1  -9  183.88   12.50
  -6   5   9  157.18   12.40
   1  -6   9  144.79   12.30
  -6   5   9  152.98   12.40
   1  -6   9  179.38   12.40
  -1  -5  -9  177.48   12.40
  -5  -1   9  185.08   12.40
   5  -6  -9  175.58   12.50
  -5  -1   9  162.48   12.30
   6  -5   9  179.18   12.60
   1  -6   9  168.88   12.40
  -1  -5  -9  195.08   12.60
   6  -1  -9  178.28   12.30
   1   5  -9  164.08   12.30
   6  -5   9  156.38   12.30
  -5  -1   9  174.78   12.40
   1   5  -9  164.28   12.30
  -1  -5  -9  183.38   12.60
   0  -6   9    6.20    1.00
  -6   0   9    6.20    1.00
   6   0  -9    6.70    1.00
  -6   6  -9    8.00    1.00
  -6   0   9    5.20    1.00
   6  -6   9    7.10    1.30
   0  -6   9    6.20    1.00
   0  -6  -9    7.30    1.20
   0   6   9    5.90    1.10
   0  -6   9    7.70    1.10
   6   0   9    6.40    1.00
   0   6   9    7.20    1.00
   0   6   9    6.30    0.90
   0   6  -9    5.90    1.10
   6   0  -9    6.20    0.80
   6  -6  -9    7.00    1.00
   6   0   9    6.90    0.90
  -6   0   9    6.20    1.00
  -6   0  -9    6.50    1.00
   6   0   9    7.80    1.20
   6  -6   9    9.00    1.20
   6   0  -9    6.30    0.80
  -6   6  -9    8.70    1.30
  -6   0  -9    7.60    1.20
   0   6  -9    8.20    1.10
  -6   6   9    7.00    1.00
   6   0  -9    6.50    1.10
   0  -6  -9    5.70    1.00
   0  -6   9    6.20    0.90
   4  -7   9  213.88   15.00
   3   4   9  206.98   14.60
  -3  -4   9  202.38   14.70
  -3  -4   9  219.08   14.80
  -7   3   9  189.28   14.80
  -3  -4   9  208.18   14.70
   7  -3   9  201.68   14.80
  -7   4  -9  196.18   14.90
  -3  -4   9  184.28   14.70
  -4   7   9  221.98   15.00
   4   3  -9  212.88   14.80
   7  -3   9  205.78   15.00
  -7   3   9  208.18   14.90
   3   4   9  228.58   15.00
   4   3  -9  223.28   14.80
  -4   7   9  200.28   14.80
  -3   7  -9  234.18   14.90
  -3   7  -9  217.58   14.70
  -7   4  -9  209.78   14.80
  -4  -3  -9  207.58   14.90
   7  -4  -9  222.28   14.90
   4  -7   9  211.38   14.90
   3   4   9  239.58   15.10
   3   4   9  206.38   14.50
   3  -7  -9  214.08   15.10
  -7   4   9  221.88   15.00
  -3   7   9  218.58   14.90
   7  -4   9  190.58   14.80
   4   3   9  200.18   14.60
  -3  -4  -9  192.38   14.80
  -4   7  -9  204.18   14.80
  -3  -4  -9  226.08   14.90
   4   3   9  225.28   15.00
  -4  -3   9  216.08   14.80
  -4  -3   9  234.88   14.90
   4   3   9  205.28   14.90
   7  -4   9  211.68   15.00
   7  -3  -9  198.08   14.70
  -4  -3   9  203.68   14.70
  -3   7   9  214.58   14.80
   3   4  -9  208.38   14.70
  -3   7   9  174.98   14.80
   4   3   9  181.48   14.60
   7  -3  -9  216.78   15.00
   3   4  -9  200.48   14.70
  -7   3  -9  205.38   14.90
   4  -7  -9  205.48   14.90
  -4  -3   9  196.58   14.70
  -3  -4  -9  217.08   15.00
  -7   4   9  207.38   14.90
   4  -7  -9  218.48   15.00
  -7   3  -9  198.68   14.80
   5   2  -9  115.79    8.20
   5   2  -9  105.19    8.10
  -5  -2  -9  110.19    8.20
   2   5   9  108.29    8.30
  -5  -2  -9  107.99    8.30
   7  -5  -9  108.59    8.40
   7  -2   9  105.09    8.20
  -2  -5   9  123.69    8.10
  -2   7  -9  111.59    7.90
  -7   5  -9  109.49    8.40
   7  -5  -9  110.19    8.30
  -2  -5   9  118.39    8.20
  -2   7  -9  116.49    8.30
   5  -7   9  120.59    8.30
   2  -7  -9  112.29    8.40
   2   5   9   96.39    8.20
   7  -2   9  110.89    8.20
  -7   2   9  109.79    8.20
  -2  -5   9  118.39    8.20
  -2  -5   9  114.59    8.10
   2  -7  -9  122.99    8.40
  -7   2   9  105.69    8.20
  -5  -2  -9   95.69    8.10
   5  -7   9  100.79    8.30
   7  -2   9  109.49    8.40
  -2   7  -9  117.99    8.30
  -5   7   9  109.29    8.20
   2   5   9  101.29    7.90
  -5   7   9  104.79    8.30
  -7   2  -9  117.29    8.30
   7  -5   9  106.69    8.20
  -2   7   9   93.99    8.10
   7  -2  -9  108.79    8.30
  -5   7  -9  119.99    8.40
  -7   5   9  119.79    8.40
   5  -7  -9  113.89    8.30
   2  -7   9  118.59    8.30
  -7   5   9  104.49    8.20
  -5   7  -9  114.49    8.30
  -5  -2   9  114.29    8.20
  -5  -2   9  103.19    8.10
   5  -7  -9  115.19    8.40
  -5  -2   9  109.29    8.20
   7  -5   9  115.79    8.60
  -7   2  -9  113.59    8.30
  -2  -5  -9  110.49    8.30
   7  -2  -9  108.29    8.10
   2   5  -9  101.39    8.10
   2  -7   9  106.59    8.30
   7  -2  -9  117.99    8.10
   5   2   9  107.29    8.00
  -2   7   9  118.39    8.40
   2   5  -9  111.29    8.10
  -2  -5  -9  119.69    8.30
  -2   7   9  111.79    8.10
   5   2   9  119.39    8.50
  -2  -5  -9  107.59    8.30
   5   2   9  123.79    8.60
   2  -7   9  119.79    8.30
   1   6   9  183.08   12.80
  -1  -6   9  166.48   12.40
  -1  -6   9  169.98   12.60
   7  -1   9  157.68   12.60
  -7   6  -9  160.88   12.60
   7  -6  -9  159.38   12.70
  -6   7   9  184.38   12.70
  -1   7  -9  180.08   12.60
  -1  -6   9  184.68   12.60
   1   6   9  173.68   12.70
   6   1  -9  174.48   12.60
   6  -7   9  145.69   12.70
  -1   7  -9  197.58   12.80
   7  -6  -9  175.78   12.70
  -7   6  -9  188.18   12.80
   7  -1   9  168.18   12.70
   1   6   9  181.68   12.40
   6  -7   9  171.08   12.70
  -6   7   9  185.28   12.80
   1  -7  -9  183.48   12.80
  -1  -6   9  145.89   12.50
   6   1  -9  181.18   12.70
   1  -7  -9  151.28   12.70
   1   6  -9  182.88   12.60
   6   1   9  152.48   12.50
   1  -7   9  184.08   12.60
  -6   7  -9  181.88   12.80
   6   1   9  178.88   12.50
  -1  -6  -9  186.58   12.70
  -1   7   9  186.78   12.60
   1  -7   9  169.18   12.60
  -1   7   9  181.28   12.80
   1  -7   9  188.98   12.80
  -1  -6  -9  200.08   12.90
   7  -1  -9  159.08   12.40
  -1   7   9  165.68   12.50
   6  -7  -9  180.48   12.80
   7  -6   9  194.78   13.00
  -6  -1   9  173.38   12.60
  -6   7  -9  160.68   12.50
  -1  -6  -9  176.68   12.70
  -6  -1   9  191.68   12.70
   7  -6   9  173.28   12.70
  -7   1  -9  204.78   12.90
  -7   6   9  191.08   12.80
  -7   1  -9  165.38   12.70
   1   6  -9  179.98   12.50
  -7   6   9  180.48   12.70
  -6  -1   9  187.58   12.70
   0  -7   9  887.01   57.19
   7   0   9  814.72   57.29
   7  -7  -9  914.81   57.39
   7   0  -9  847.42   57.19
   7   0  -9  890.61   57.29
   7   0   9  806.42   56.99
   7  -7  -9  801.82   57.19
  -7   0  -9  896.01   57.29
  -7   0  -9  851.61   57.19
   0  -7   9  781.82   57.09
  -7   0   9  806.92   57.19
  -7   0   9  788.72   57.09
  -7   7   9  778.72   57.19
   0  -7   9  872.41   57.19
   7  -7   9  809.82   57.19
   0   7  -9  815.22   57.09
  -7   0   9  866.41   57.09
  -7   7  -9  785.92   57.09
   0   7  -9  856.21   57.09
  -7   7  -9  811.82   57.29
  -4  -4  -9   -0.10    0.20
  -8   4   9   -0.20    0.30
  -4  -4  -9    0.10    0.30
   4  -8  -9    0.20    0.30
  -4   8  -9    0.10    0.20
   8  -4   9    0.20    0.20
   4   4   9    0.00    0.30
  -4   8   9    0.00    0.20
   4   4   9    0.90    0.40
   4  -8  -9    0.10    0.40
   4  -8   9    0.00    0.30
  -8   4   9    0.40    0.40
  -4   8  -9    1.50    0.50
  -4   8   9    0.10    0.30
  -4  -4   9   -0.10    0.20
   8  -4  -9   -0.10    0.10
  -8   4  -9    0.10    0.20
   8  -4   9   -0.10    0.30
  -4   8  -9    0.30    0.30
  -8   4  -9    0.20    0.40
  -4  -4  -9    0.20    0.30
   8  -4  -9   -0.10    0.20
  -8   5  -9   21.70    2.20
  -5  -3  -9   28.10    2.60
   3  -8  -9   19.50    2.30
   8  -5  -9   24.50    2.40
  -8   5  -9   26.70    2.50
   3  -8  -9   25.10    2.40
  -5   8   9   25.90    2.30
  -8   3   9   23.40    2.30
  -3   8  -9   21.90    2.10
  -5   8   9   27.90    2.50
  -3  -5   9   25.10    2.20
  -5  -3  -9   23.80    2.30
  -5  -3  -9   25.50    2.30
   5  -8   9   24.10    2.40
   5  -8   9   25.10    2.50
   3   5   9   26.70    2.40
  -3   8  -9   24.10    2.30
   8  -3   9   28.00    2.70
  -8   3   9   25.10    2.30
   3   5   9   25.00    2.40
   8  -5  -9   24.90    2.30
   8  -3   9   25.00    2.30
  -8   3  -9   28.80    2.60
  -5  -3   9   25.60    2.30
   3  -8   9   24.00    2.40
  -3  -5  -9   23.40    2.40
  -3  -5  -9   23.50    2.30
  -5   8  -9   25.40    2.20
   3  -8   9   26.10    2.40
  -3   8   9   21.70    2.10
   8  -5   9   24.50    2.40
   5   3   9   24.50    2.40
  -3  -5  -9   24.10    2.30
  -8   5   9   19.10    2.30
  -5   8  -9   22.00    2.30
  -8   3  -9   24.60    2.40
   8  -3  -9   22.90    2.20
  -3   8   9   21.40    2.30
  -8   5   9   25.00    2.30
   8  -3  -9   20.70    2.30
   8  -5   9   26.80    2.60
  -5   8  -9   24.10    2.40
   8  -3  -9   24.70    2.30
   5  -8  -9   18.80    2.30
   5  -8  -9   25.20    2.40
  -3   8   9   21.00    2.20
   6  -8   9  299.27   21.80
   8  -2   9  320.97   21.80
   8  -6  -9  298.07   21.60
   2   6   9  305.37   21.60
   2  -8  -9  317.27   21.80
  -2  -6   9  316.87   21.40
  -2   8  -9  296.67   21.60
   6  -8   9  313.07   21.70
   8  -2   9  297.97   21.50
  -8   2   9  303.47   21.60
   2   6   9  328.47   21.70
  -6   8   9  325.77   21.80
  -8   6  -9  278.77   21.50
   8  -6  -9  309.17   21.80
  -8   2   9  313.27   21.60
   8  -2   9  312.27   21.60
   2  -8  -9  303.07   21.60
  -8   6  -9  323.77   21.80
  -2  -6  -9  301.77   21.60
  -2  -6  -9  343.67   21.70
   2  -8   9  311.77   21.60
  -6   8  -9  322.07   21.60
  -2   8   9  324.77   21.50
  -8   2  -9  267.57   21.50
   8  -2  -9  333.17   21.50
  -6   8  -9  307.47   21.70
   6  -8  -9  317.77   21.70
   6  -8  -9  298.17   21.70
   8  -2  -9  329.57   21.80
  -2   8   9  330.37   21.70
  -8   2  -9  304.97   21.70
  -8   6   9  257.87   21.50
   8  -6   9  330.37   21.90
  -8   6   9  278.57   21.60
   2  -8   9  305.17   21.70
   8  -6   9  274.07   21.60
  -2  -6  -9  299.47   21.60
  -7   8   9  103.19    8.00
  -8   1   9  112.29    8.10
  -7  -1  -9  117.39    8.20
  -8   1   9  103.29    8.00
  -7  -1  -9  117.69    8.10
   7  -8   9  112.59    8.20
   7  -8   9  119.09    8.30
   1  -8  -9  113.79    8.10
   8  -7  -9  109.59    8.10
   8  -1   9   89.29    7.80
   8  -1   9  108.89    8.30
  -8   7  -9  113.19    8.30
   1  -8  -9  105.79    8.20
   7   1   9  103.59    8.10
  -7   8  -9   99.29    7.90
  -1   8   9  106.69    8.10
  -8   1  -9  118.09    8.10
  -8   1  -9   91.59    8.00
   8  -1  -9  100.09    8.00
  -7   8  -9   99.29    8.10
   4  -9  -9  340.17   23.90
   9  -4   9  365.16   24.10
  -5   9   9  366.66   23.80
   9  -5  -9  319.77   23.90
  -4   9  -9  350.46   23.90
   5  -9   9  342.27   24.00
  -9   4   9  337.77   23.90
   9  -4   9  348.37   23.80
   5  -9   9  307.47   23.80
  -9   4   9  352.86   23.80
   4  -9  -9  327.77   23.90
  -9   4  -9  326.47   23.90
   5  -9  -9  343.57   23.90
   9  -5   9  327.17   23.80
  -9   5   9  329.87   23.80
   5  -9  -9  353.16   24.00
  -5   9  -9  370.46   23.70
   9  -4  -9  339.77   24.00
  -4   9   9  330.27   23.70
  -5   9  -9  309.87   23.80
   9  -4  -9  332.77   23.70
  -9   5   9  325.17   23.90
  -4   9   9  346.77   24.00
   4  -9   9  347.67   23.90
   4  -9   9  353.36   23.90
   0   0 -10  272.47   18.40
   0   0  10  270.47   18.50
   0   0  10  242.98   18.30
   0   0 -10  269.27   18.30
   0   0  10  243.78   18.30
   0   0 -10  273.47   18.50
   0   1 -10   12.40    1.50
   0  -1 -10   14.30    1.60
   1   0 -10   14.40    1.40
  -1   1 -10   16.60    1.70
   1   0  10   10.20    1.30
  -1   1 -10   13.60    1.50
   1  -1 -10   13.40    1.40
   0   1  10   13.90    1.50
  -1   1 -10   13.50    1.40
   1  -1  10   13.10    1.60
   1   0 -10   15.20    1.50
   0  -1 -10   13.60    1.50
   0   1  10   12.50    1.50
  -1   0 -10   13.20    1.40
   0  -1  10   14.30    1.60
  -1   0  10   15.40    1.50
   1   0 -10   15.40    1.50
   0   1 -10   16.10    1.50
   0   1 -10   12.40    1.40
   1  -1  10   11.60    1.50
  -1   0 -10   16.50    1.50
   1  -1 -10   13.40    1.50
  -1   1  10   16.70    1.70
  -1   0  10   11.50    1.40
  -1   0 -10   10.60    1.40
  -1   0 -10   15.80    1.70
   0  -1  10   12.50    1.40
  -1   1 -10   15.60    1.60
   1  -1 -10   13.20    1.50
   0  -1  10   14.30    1.40
   0  -1 -10   14.10    1.60
   1  -1  10   12.60    1.40
  -1   0  10   10.60    1.40
  -1   1  10   11.30    1.30
  -1   1  10   13.10    1.50
   1   0 -10   14.00    1.50
   0  -1  10   14.30    1.60
   0  -1 -10   13.40    1.40
   0   1 -10   13.50    1.40
  -1   0  10   14.30    1.50
   1  -1 -10   10.00    1.40
   1  -1  10   14.70    1.50
   1   1 -10 2972.40  199.88
   1   1  10 2470.65  199.78
   1   1  10 3323.57  199.98
   2  -1 -10 3115.09  199.98
   2  -1  10 2682.03  199.78
  -1   2  10 2539.55  199.78
  -1   2 -10 2909.51  199.78
  -1   2 -10 2741.43  199.88
  -1   2 -10 2784.22  199.88
  -1   2 -10 2638.04  199.78
   1  -2 -10 3093.39  199.88
   1   1 -10 2741.83  199.68
   1   1  10 3227.78  199.98
  -1   2  10 2650.03  199.88
  -1  -1 -10 3030.80  199.98
  -1  -1 -10 3292.67  199.98
  -1  -1  10 2763.62  199.88
   1  -2 -10 2610.44  199.88
   2  -1  10 3038.20  200.08
   1   1 -10 3006.40  199.78
   1  -2 -10 2491.85  199.78
  -1  -1  10 3204.48  199.88
  -2   1  10 2800.52  199.78
  -2   1  10 2721.63  199.78
  -2   1  10 2899.01  199.88
   1  -2  10 3219.28  199.88
   1  -2  10 3394.46  200.08
   2  -1 -10 3299.77  199.88
   2  -1 -10 2681.13  199.78
  -1  -1  10 3301.97  199.88
   1   1  10 2837.42  199.78
   1   1 -10 2896.61  199.78
  -2   1  10 2608.44  199.88
  -2   1 -10 3136.19  199.78
  -1   2  10 3299.77  199.88
  -1   2  10 3309.87  199.88
   1  -2  10 3280.87  199.98
  -2   2 -10 2596.44  176.08
   0  -2 -10 2745.53  176.38
   0  -2  10 2586.34  176.08
   0   2 -10 2326.87  176.08
  -2   0 -10 2391.66  176.18
   2  -2  10 2671.53  176.18
   2  -2 -10 2818.12  176.28
   2   0  10 2838.12  176.28
  -2   0  10 2874.71  176.28
   2  -2  10 3002.10  176.38
   2   0 -10 2490.15  176.18
  -2   2  10 2737.93  176.18
   0  -2  10 2902.11  176.28
   2   0 -10 2286.97  175.98
  -2   0  10 2640.24  176.18
   2   0 -10 2453.35  176.18
  -2   2  10 2468.35  176.28
  -2   0 -10 2278.07  176.08
  -2   0 -10 2777.92  176.28
  -2   2 -10 2618.24  176.18
  -2   0  10 2282.87  176.08
   0   2  10 2865.91  176.18
   0  -2 -10 2769.82  176.18
   2   0  10 2574.94  176.28
   0   2 -10 2963.50  176.18
   0   2 -10 2350.56  175.98
   2  -2  10 2563.74  176.08
  -2   0 -10 2385.36  176.08
   0  -2 -10 2523.55  176.18
   2   0 -10 2662.43  176.08
   0   2  10 2320.27  176.18
   2   0  10 2486.85  176.08
   0   2  10 2797.82  176.18
   0   2 -10 2543.95  176.18
   0   2  10 2586.14  176.28
   2  -2 -10 2754.12  176.18
   2  -2  10 2523.55  176.18
  -2   2  10 2696.53  176.18
   0  -2  10 2656.33  176.18
   2  -2 -10 2433.96  176.08
  -2   2 -10 2553.94  176.28
   2   0  10 2432.36  176.28
  -2   0  10 2398.76  176.08
   1   2  10  117.89    8.10
   1  -3 -10   91.19    8.00
   3  -1  10  112.49    8.20
  -1   3 -10  113.89    8.10
  -1   3 -10  122.79    8.10
   3  -2 -10  111.79    8.20
   2   1 -10  109.99    8.00
   1  -3 -10  102.49    8.10
   2  -3  10  121.19    8.10
   1  -3 -10  122.09    8.20
   3  -1  10  119.79    8.30
   3  -2 -10  104.49    8.00
   2  -3  10   98.49    8.10
  -1  -2  10  108.49    8.00
   2   1 -10  110.09    8.10
  -3   1  10   95.89    8.00
   3  -1  10   92.79    8.00
   2   1 -10  119.09    8.20
   2   1 -10  103.79    7.90
   3  -1  10  111.39    8.20
  -2  -1 -10  105.69    8.00
  -2  -1 -10  122.99    8.20
   1   2  10  113.49    8.10
  -1  -2  10  117.69    8.10
  -1  -2  10  121.39    8.20
  -3   2 -10  108.69    8.00
   2  -3  10  102.19    8.00
  -3   2 -10   98.59    8.00
  -3   1  10   98.49    8.00
  -2   3  10  121.99    8.20
  -2   3  10  103.49    8.00
  -1   3 -10  119.29    8.20
  -2  -1 -10  104.79    8.10
  -3   1  10  112.89    8.10
  -1  -2  10  114.89    8.10
  -3   1  10   95.49    8.10
  -2  -1 -10  107.69    8.10
   1   2  10  118.29    8.10
   3  -2 -10   90.29    7.90
   3  -2 -10  114.19    8.20
   1   2  10  115.99    8.20
  -2   3  10  108.19    8.10
   2  -3  10  129.39    8.20
  -2  -1  10  102.49    8.10
  -1  -2 -10   97.29    8.00
  -2   3 -10  118.69    8.10
  -2   3 -10  120.49    8.20
  -3   1 -10  107.59    8.10
   1   2 -10  125.99    8.30
  -3   1 -10  120.19    8.10
   2  -3 -10   95.69    8.00
  -1   3  10  116.19    8.10
   3  -2  10  115.39    8.20
   3  -2  10   96.19    8.00
  -3   2  10  108.39    8.00
  -1  -2 -10  110.59    8.10
   2  -3 -10  102.19    8.00
   1  -3  10  118.59    8.20
  -1  -2 -10  117.69    8.10
   1   2 -10  111.19    8.00
   1   2 -10  112.89    7.90
   2  -3 -10  107.39    8.20
  -3   2  10  114.99    8.10
   1  -3  10  103.29    8.00
  -2   3 -10  113.59    8.10
  -1   3  10  107.19    8.10
  -1   3  10  110.09    8.20
   2   1  10  119.69    8.10
  -2   3 -10  104.89    8.00
   3  -1 -10  105.09    8.00
  -3   1 -10  104.49    8.00
   3  -1 -10   94.99    7.90
  -3   1 -10  110.59    8.20
  -1  -2 -10  116.79    8.20
   3  -1 -10  112.79    8.20
  -2  -1  10  127.79    8.30
   3  -2  10  110.39    8.10
   2  -3 -10  101.49    8.10
  -3   2  10  111.09    8.20
   1  -3  10  113.89    8.10
   3  -1 -10  101.39    8.10
   2   1  10  109.59    8.00
   1   2 -10   93.99    8.00
   2   1  10  119.49    8.30
  -2  -1  10  104.09    8.00
   3  -2  10  102.19    8.00
   3   0  10 2510.65  172.78
   3   0  10 2318.97  172.78
  -3   3 -10 2321.37  172.68
   3   0 -10 2637.74  172.78
   0   3 -10 2683.63  172.78
   0   3  10 2658.63  172.88
   3   0  10 2756.52  172.68
   0  -3  10 2680.43  172.68
   3  -3 -10 2298.87  172.68
  -3   3 -10 2559.94  172.78
  -3   0  10 2659.53  172.68
   0  -3  10 2163.08  172.68
   0  -3 -10 2825.02  172.88
   3   0 -10 2694.83  172.68
   3  -3  10 2741.53  172.78
  -3   0 -10 2865.41  172.88
  -3   0 -10 2457.85  172.78
  -3   0  10 2519.95  172.78
   0  -3  10 2369.56  172.78
   0  -3 -10 2629.54  172.98
   0   3  10 2621.44  172.68
   3   0 -10 2705.93  172.78
   3  -3 -10 2184.18  172.68
   0   3  10 2311.17  172.68
  -3   0  10 2413.96  172.68
  -3   0 -10 2367.66  172.78
   0   3 -10 2648.24  172.78
   0   3  10 2201.58  172.68
   3   0  10 2599.94  172.78
   0   3 -10 2689.93  172.68
   3  -3  10 2575.54  172.78
   3   0 -10 2499.75  172.58
  -3   3 -10 2659.43  172.68
   0  -3  10 2581.54  172.68
  -3   0  10 2530.15  172.78
  -3   3  10 2679.33  172.88
   2  -4  10  357.26   22.10
  -2  -2  10  319.87   22.10
  -2  -2  10  306.37   22.00
   2   2  10  356.76   22.10
   2   2  10  307.07   22.20
   4  -2 -10  330.37   22.20
  -2   4 -10  331.97   22.10
   2   2  10  322.07   22.10
  -2  -2  10  319.87   22.10
  -4   2  10  308.57   22.00
  -4   2  10  287.17   22.10
  -2  -2 -10  316.87   22.00
   2  -4  10  331.97   22.20
  -2  -2 -10  313.97   22.10
  -2   4  10  274.67   22.00
   2   2 -10  294.27   21.90
   2   2  10  348.37   22.20
  -2   4 -10  312.57   22.10
   4  -2 -10  332.37   22.10
   4  -2 -10  315.37   22.00
  -2   4 -10  289.37   21.90
  -2  -2 -10  287.47   22.10
   2  -4  10  315.47   22.10
  -4   1  10   55.59    4.60
   1  -4 -10   52.59    4.90
   4  -3 -10   71.99    4.80
   1  -4 -10   51.49    4.60
  -4   3 -10   62.59    5.00
  -1  -3  10   56.59    4.70
  -1  -3  10   62.29    4.60
   3   1 -10   59.89    4.50
  -1  -3  10   60.69    4.60
   3   1 -10   68.19    4.70
   4  -1  10   62.29    4.70
  -3  -1 -10   58.49    4.70
  -3  -1 -10   68.39    4.90
  -1   4 -10   61.89    4.70
  -1   4 -10   59.09    4.70
  -3  -1 -10   51.79    4.60
   1   3  10   62.99    4.70
   1   3  10   56.99    4.60
   1   3  10   48.50    4.50
  -4   1  10   59.99    4.80
  -4   3 -10   51.29    4.70
   1   3  10   65.49    4.80
  -1   4 -10   60.09    4.60
   3   1  10   58.79    4.90
  -1   4  10   59.39    4.60
   4  -3  10   67.49    5.00
   1   3 -10   64.19    4.70
   4  -1 -10   60.39    4.60
  -1  -3 -10   58.29    4.70
  -3  -1  10   62.69    4.70
  -3  -1  10   51.39    4.50
   3  -4 -10   68.89    5.00
   1  -4  10   59.09    4.70
  -3   4 -10   54.69    4.50
  -1   4  10   51.49    4.80
  -3  -1  10   58.09    4.70
   1   3 -10   54.89    4.40
   1   3 -10   57.79    4.70
   3   1  10   58.99    4.60
  -1   4  10   68.09    4.80
   3   1  10   53.99    4.60
  -1  -3 -10   49.70    4.60
   1  -4  10   58.19    4.70
   1  -4  10   62.29    4.70
  -1  -3 -10   65.29    4.80
   3   1  10   55.89    4.90
  -3   4 -10   63.29    4.60
   4  -1 -10   62.99    4.70
   4  -1 -10   57.19    4.60
   4  -4  10 2471.65  169.68
   0  -4  10 2090.39  169.38
   0   4 -10 2596.14  169.38
   0  -4  10 2415.46  169.48
   4   0  10 2656.23  169.68
   4  -4 -10 2297.87  169.48
  -4   4  10 2549.65  169.48
   0   4  10 2657.53  169.58
   0  -4 -10 2200.68  169.48
   4   0  10 2461.75  169.38
   4   0 -10 2658.03  169.38
   0   4  10 2366.26  169.38
  -4   0  10 2726.53  169.68
   0  -4  10 2494.65  169.58
   0  -4 -10 2333.67  169.48
  -4   4  10 2678.33  169.68
   4   0 -10 2614.54  169.38
   0   4  10 2555.34  169.58
   0   4 -10 2280.47  169.48
   0   4 -10 2361.46  169.48
  -4   0  10 2575.54  169.48
   0  -4  10 2409.86  169.48
   4   0 -10 2611.44  169.58
  -4   4 -10 2390.56  169.38
  -4   0  10 2830.02  169.78
   0   4 -10 2514.95  169.28
   4  -4 -10 2616.94  169.68
   4  -4  10 2499.15  169.48
   3   2 -10   64.09    4.50
   5  -2  10   45.40    4.50
  -5   3 -10   50.59    4.50
  -3  -2 -10   47.50    4.40
  -2  -3  10   57.49    4.40
  -3  -2 -10   61.79    4.50
   2  -5 -10   55.29    4.60
   3   2 -10   56.29    4.20
   3   2 -10   55.29    4.20
   2   3  10   55.79    4.80
   2  -5 -10   59.29    4.60
  -2  -3  10   61.29    4.60
   2   3  10   59.49    4.40
  -2   5 -10   48.70    4.30
  -2   5 -10   62.79    4.60
   5  -3 -10   52.09    4.50
  -3   5  10   55.49    4.50
  -2  -3  10   53.49    4.40
   2   3  10   48.40    4.40
   2   3  10   54.89    4.40
   5  -3 -10   56.79    4.50
   3   2 -10   61.39    4.50
  -2   5 -10   59.89    4.40
   5  -2  10   58.39    4.50
   5  -3 -10   50.09    4.50
  -5   3 -10   58.59    4.50
  -2   5 -10   61.89    4.60
  -3  -2  10   59.49    4.50
  -2   5  10   64.29    4.70
   5  -2 -10   56.59    4.50
   3   2  10   57.19    4.40
  -3  -2  10   63.89    4.60
   3  -5 -10   55.49    4.60
   3   2  10   64.29    4.50
   2  -5  10   52.09    4.50
  -3  -2  10   58.99    4.40
  -5   3  10   56.79    4.60
   2  -5  10   54.99    4.50
  -2  -3 -10   62.99    4.60
   2   3 -10   52.69    4.10
   2   3 -10   47.40    4.40
   3   2  10   66.99    4.70
   2   3 -10   67.29    4.30
  -5   3  10   59.09    4.50
  -3   5 -10   58.99    4.40
   5  -3  10   55.19    4.70
  -3  -2  10   54.59    4.50
  -5   2 -10   48.80    4.40
  -5   2 -10   54.99    4.50
   2   3 -10   46.00    4.40
  -2   5  10   50.19    4.60
   3  -5 -10   58.59    4.50
  -2  -3 -10   54.39    4.50
   5  -3  10   55.59    4.50
   5  -2 -10   60.99    4.50
  -1  -4  10 1322.27   82.59
  -1   5 -10 1168.88   82.29
  -1  -4  10 1371.86   82.79
   1   4  10 1281.67   82.69
  -4   5  10 1200.18   82.49
   4   1 -10 1148.99   82.29
   1   4  10 1138.69   82.39
  -4   5  10 1145.49   82.69
   5  -4 -10 1021.60   82.59
   4   1 -10 1198.88   82.59
  -1   5 -10 1271.17   82.59
   5  -1  10 1086.79   82.59
  -5   1  10 1288.67   82.59
  -1  -4  10 1154.58   82.39
  -1   5 -10 1180.48   82.39
   4  -5  10 1124.99   82.59
   5  -4 -10 1334.57   82.69
  -5   4 -10 1361.26   82.89
   4  -5  10 1255.57   82.59
   4   1 -10 1051.69   82.29
   5  -1  10 1282.97   82.59
   1  -5 -10 1285.97   82.89
   1   4  10 1203.18   82.49
  -1  -4  10 1185.58   82.49
   5  -1  10 1269.97   82.59
  -5   4 -10 1091.29   82.49
  -1   5 -10 1250.07   82.59
   4  -5 -10 1184.28   82.69
   5  -1 -10 1152.28   82.39
  -4   5 -10 1194.78   82.49
  -1   5  10 1169.58   82.49
  -5   4  10 1206.48   82.49
   5  -4  10 1369.86   82.99
   5  -1 -10 1259.67   82.49
   1  -5  10 1212.98   82.59
   4   1  10 1296.27   82.49
   1   4 -10 1269.87   82.59
  -4  -1  10 1324.87   82.59
  -4   5 -10 1122.59   82.59
  -5   4  10 1017.50   82.59
   5  -4  10 1224.28   82.59
   4   1  10 1281.77   82.59
   1   4 -10 1091.79   82.49
   1  -5  10 1169.68   82.49
  -1   5  10 1258.77   82.69
  -5   1 -10 1126.19   82.49
   1  -5  10 1156.88   82.59
  -4  -1  10 1266.37   82.69
   5  -1 -10 1286.97   82.79
   1   4 -10 1203.68   82.19
   4  -5 -10 1171.88   82.59
   1   4 -10 1267.07   82.29
  -4  -1  10 1254.77   82.59
  -5   1 -10 1175.38   82.59
   0  -5  10    5.80    0.90
   5  -5  10    7.10    1.20
   0   5 -10    5.40    0.90
   0   5 -10    6.80    0.80
   5   0 -10    5.30    0.80
  -5   5 -10    6.60    1.10
   5   0  10    5.20    1.00
   0   5 -10    5.20    0.70
   5  -5 -10    7.60    1.20
  -5   5  10    5.10    1.00
   5  -5  10    9.00    1.20
   5   0 -10    5.80    0.90
  -5   0  10    4.40    1.00
  -5   0  10    5.00    0.90
  -5   0 -10    4.10    0.90
   0   5  10    4.10    0.80
   5   0 -10    6.50    1.00
  -5   5 -10    5.40    1.00
   5   0  10    5.20    0.90
  -5   0  10    6.10    0.90
   5   0 -10    4.60    0.70
   5  -5 -10    6.10    1.20
   0   5 -10    6.70    1.00
   0  -5  10    5.80    1.00
  -5   0 -10    7.60    1.20
  -3  -3  10  526.95   36.40
   3  -6 -10  491.35   36.40
   3   3 -10  545.75   35.80
  -6   3 -10  480.45   36.30
   3  -6  10  563.94   36.40
  -3   6  10  527.35   36.40
   3   3 -10  589.04   36.40
   3   3  10  573.84   36.30
  -3   6 -10  519.55   36.20
  -3   6  10  495.95   36.50
  -3  -3  10  516.65   36.30
   3  -6  10  505.25   36.60
  -3  -3  10  540.15   36.50
  -3  -3  10  555.94   36.30
   6  -3 -10  554.54   36.40
   3   3 -10  477.55   36.30
   6  -3 -10  557.34   36.50
   6  -3  10  526.35   36.30
  -6   3  10  545.05   36.40
  -6   3 -10  509.35   36.40
  -3   6 -10  547.75   36.40
   6  -3 -10  499.65   36.30
   6  -3  10  518.75   36.50
  -6   3  10  500.65   36.40
   3  -6 -10  532.15   36.40
   3   3  10  499.85   36.20
   2  -6 -10 1260.37   84.89
  -2   6 -10 1340.87   85.09
   2   4  10 1263.17   84.69
  -2  -4  10 1320.77   84.79
  -2  -4  10 1214.58   84.89
   4  -6  10 1243.48   84.79
   4   2 -10 1188.58   84.69
   4  -6  10 1280.17   84.89
  -2   6 -10 1176.88   84.49
  -2  -4  10 1281.27   84.69
  -6   4 -10 1220.18   84.79
   4   2 -10 1241.08   84.29
   4   2 -10 1201.58   84.69
  -6   4 -10 1290.37   84.79
   6  -4 -10 1054.59   84.69
   6  -4 -10 1277.77   84.89
  -4   6  10 1369.26   84.99
  -2  -4  10 1171.18   84.69
   6  -2  10 1148.79   84.89
   2   4  10 1274.77   84.59
  -4   6  10 1401.86   84.79
   6  -2  10 1297.17   84.79
   2  -6  10 1185.68   85.09
  -2   6  10 1257.57   84.79
  -4  -2  10 1208.48   84.69
   4  -6 -10 1091.39   84.79
  -2   6  10 1317.77   84.89
  -6   4  10 1337.57   84.89
  -6   4  10 1300.87   84.89
  -4  -2  10 1344.77   84.89
   2  -6  10 1240.78   84.79
  -4   6 -10 1084.19   84.59
  -6   2 -10 1281.77   84.89
  -4  -2  10 1298.97   84.79
   6  -2 -10 1171.68   84.89
   6  -2 -10 1272.87   84.69
   6  -2 -10 1248.18   84.69
   2   4 -10 1209.68   84.69
   4  -6 -10 1289.57   84.99
  -4   6 -10 1253.57   84.69
  -6   2 -10 1242.18   84.79
   6  -4  10 1217.28   84.89
   4   2  10 1100.99   84.59
   6  -4  10 1221.78   84.69
  -5  -1 -10    3.70    0.80
  -5   6  10    3.30    0.80
   1  -6 -10    3.40    0.80
   6  -1  10    3.90    0.90
   6  -5 -10    2.80    0.70
   5  -6  10    3.60    0.80
  -1   6 -10    2.60    0.50
   6  -5 -10    3.60    0.90
  -1  -5  10    2.70    0.70
  -1  -5  10    4.30    0.90
   6  -1  10    3.60    0.80
   5   1 -10    2.90    0.70
  -1  -5  10    3.50    0.80
  -5   6  10    3.90    0.80
   6  -1  10    3.60    0.80
   1  -6 -10    3.80    0.90
  -6   5 -10    4.20    0.90
  -1   6 -10    2.80    0.70
   1   5  10    2.80    0.60
  -6   5 -10    3.20    0.80
   1   5  10    3.40    0.60
  -1   6 -10    3.80    0.80
  -5  -1 -10    4.40    0.90
   5   1 -10    2.20    0.60
   5   1 -10    4.10    0.60
   5   1  10    3.40    0.80
   1  -6  10    3.50    0.80
  -1   6  10    3.50    0.80
   6  -1 -10    4.00    0.70
  -6   5  10    3.80    0.80
   1   5 -10    2.80    0.70
   5  -6 -10    2.00    0.70
   5  -6 -10    2.70    0.70
   5   1  10    2.60    0.60
  -6   1 -10    3.80    0.80
   1   5 -10    5.00    0.90
   6  -1 -10    5.10    0.90
  -5  -1  10    4.40    0.80
  -6   5  10    2.20    0.70
   5   1  10    3.40    0.70
  -5   6 -10    3.90    0.80
  -5   6 -10    2.90    0.70
  -5  -1  10    3.20    0.80
  -5  -1  10    6.20    0.90
   6  -5  10    2.30    0.70
  -1   6  10    3.20    0.80
  -6   1 -10    3.20    0.70
   1  -6  10    3.90    0.80
   0   6  10  289.77   20.20
   6   0 -10  319.87   20.20
   0   6 -10  330.97   20.50
   0   6  10  292.97   20.30
   0   6  10  305.47   20.50
   6  -6  10  252.37   20.30
   0   6 -10  298.87   20.40
  -6   6  10  302.47   20.40
  -6   6 -10  253.77   20.30
   6  -6  10  280.07   20.60
   0  -6  10  318.67   20.50
  -6   0  10  260.27   20.30
  -6   6 -10  293.67   20.50
   6   0  10  274.97   20.50
   0  -6  10  290.97   20.50
   0  -6  10  313.07   20.50
  -6   6  10  287.97   20.50
   0  -6 -10  254.67   20.40
   0  -6 -10  304.47   20.50
   6   0  10  323.67   20.60
  -6   0 -10  284.47   20.40
   6   0 -10  250.27   20.40
  -6   0 -10  274.37   20.40
  -6   0  10  321.57   20.50
  -3   7 -10    2.90    0.70
  -3   7 -10    1.00    0.40
  -3  -4  10    1.20    0.50
   3  -7 -10    1.00    0.50
   4   3 -10    1.60    0.50
   7  -3  10    0.50    0.40
   3  -7 -10    1.20    0.50
   7  -4 -10    1.20    0.50
   7  -3  10    1.00    0.50
   4   3 -10    0.90    0.40
  -7   4 -10    1.30    0.60
   3   4  10    1.90    0.50
  -4   7  10    0.80    0.40
  -3  -4  10    2.00    0.60
   4  -7  10    1.20    0.50
  -7   3  10    1.30    0.50
   7  -4 -10    1.00    0.40
   4  -7  10    0.70    0.50
  -3   7 -10    1.00    0.40
   3   4 -10    1.30    0.50
  -4   7 -10    0.90    0.40
   4  -7 -10    1.20    0.50
  -7   3 -10    0.60    0.30
   3   4 -10    1.30    0.50
   3  -7  10    1.00    0.50
   7  -4  10    0.80    0.50
  -4  -3  10    2.60    0.60
   7  -3 -10    1.30    0.50
   4   3  10    1.10    0.30
  -7   3 -10    1.00    0.50
  -3   7  10    1.70    0.50
   4  -7 -10    1.20    0.50
  -4  -3  10    1.30    0.50
  -4   7 -10    0.90    0.40
  -3   7  10    0.40    0.40
   7  -4  10    0.90    0.40
   7  -3 -10    1.00    0.50
   7  -3 -10    1.00    0.40
  -7   4  10    0.70    0.40
  -7   4  10    0.60    0.40
   3  -7  10    1.20    0.50
  -4   7 -10    1.70    0.60
  -4  -3  10    1.30    0.50
   5   2 -10  594.94   46.70
  -2  -5  10  684.33   46.80
   2   5  10  651.03   46.60
  -5   7  10  722.13   47.00
   7  -5 -10  653.63   47.00
  -7   2  10  664.93   46.80
   2  -7 -10  597.84   46.90
   5   2 -10  707.23   46.90
   7  -2  10  699.33   47.00
  -7   2  10  739.93   47.00
  -2  -5  10  651.63   46.80
   7  -5 -10  706.63   46.90
  -5  -2 -10  744.43   47.00
  -5  -2 -10  742.63   46.90
  -2   7 -10  726.33   46.60
  -5   7  10  729.93   46.90
   7  -2  10  616.74   46.70
   2  -7 -10  609.74   46.90
  -7   5 -10  793.32   47.30
   5  -7  10  699.43   46.90
   5  -7  10  655.43   47.00
  -2   7  10  724.53   46.90
  -2   7  10  797.32   47.00
  -5  -2  10  624.14   46.80
   5  -7 -10  678.83   47.00
  -7   5  10  689.53   47.00
   2   5 -10  712.33   46.80
   7  -2 -10  701.13   47.00
  -5   7 -10  679.63   46.80
  -5  -2  10  674.23   46.80
  -2   7  10  704.73   47.00
   2   5 -10  712.43   46.90
   5   2  10  634.14   46.90
  -5  -2  10  612.04   46.70
  -7   5  10  578.74   46.80
  -5   7 -10  706.13   47.00
   5   2  10  691.53   46.70
  -7   2 -10  674.93   46.90
   5  -7 -10  666.53   46.90
   7  -2 -10  615.24   46.70
  -7   2 -10  602.14   46.80
   7  -5  10  652.53   46.80
   7  -5  10  798.92   47.40
  -1  -6  10  215.38   14.40
   7  -6 -10  187.28   14.50
  -1   7 -10  190.18   14.30
  -6  -1 -10  203.48   14.40
   6   1 -10  206.28   14.40
  -7   6 -10  201.98   14.30
  -6   7  10  195.78   14.50
   1  -7 -10  222.98   14.60
  -1  -6  10  214.98   14.50
  -6  -1 -10  198.68   14.40
  -7   1  10  196.18   14.30
   1  -7 -10  229.78   14.80
   7  -1  10  209.18   14.50
  -6   7  10  202.88   14.40
  -1   7 -10  204.08   14.40
   7  -1  10  220.58   14.40
   6  -7  10  189.18   14.40
   1   6  10  198.58   14.40
   6   1 -10  234.58   14.70
  -7   6 -10  167.88   14.40
   6  -7  10  217.88   14.70
   1   6  10  205.68   14.10
  -1  -6  10  220.88   14.40
   1   6 -10  216.98   14.40
   1   6 -10  197.78   14.30
   7  -1 -10  168.98   14.10
   6  -7 -10  205.48   14.50
  -7   1 -10  198.78   14.40
   7  -1 -10  206.38   14.50
  -7   6  10  202.38   14.50
   6   1  10  190.58   14.20
   7  -6  10  211.48   14.60
   6   1  10  226.18   14.60
   7  -6  10  200.88   14.40
  -1  -6 -10  179.88   14.40
  -6   7 -10  189.08   14.40
  -6  -1  10  204.38   14.40
   1  -7  10  190.28   14.30
   1  -7  10  221.58   14.50
   1  -7  10  179.38   14.30
   6  -7 -10  195.18   14.40
  -1  -6 -10  174.38   14.30
  -1   7  10  200.28   14.20
  -6  -1  10  191.48   14.40
  -6   7 -10  212.38   14.30
  -7   6  10  172.98   14.30
  -7   1 -10  195.78   14.40
  -6  -1  10  196.78   14.40
  -7   0 -10    6.90    1.20
  -7   0  10    8.00    1.30
  -7   7 -10    5.40    1.00
  -7   0 -10    7.10    1.10
   7   0  10    7.10    1.10
  -7   7 -10    6.00    1.10
   7  -7  10    7.00    1.10
   7   0  10    8.00    1.10
   0  -7  10    6.80    1.20
   7  -7  10    4.80    1.10
   0   7  10    7.30    1.10
   0  -7 -10    6.90    1.20
   0  -7 -10    9.60    1.30
  -8   4 -10  209.88   16.30
  -4   8 -10  250.87   16.60
   8  -4 -10  219.58   16.50
  -4  -4 -10  261.07   16.70
  -4   8  10  196.78   16.30
   4  -8  10  241.78   16.60
  -4   8  10  236.28   16.60
   4   4  10  241.78   16.50
   8  -4  10  233.48   16.60
   4  -8  10  231.28   16.50
  -8   4 -10  234.98   16.50
  -8   4  10  241.78   16.60
   8  -4 -10  197.38   16.30
  -4   8 -10  217.28   16.20
   4  -8 -10  226.28   16.50
  -4  -4 -10  249.08   16.60
   8  -4  10  217.78   16.40
   4  -8 -10  259.17   16.70
  -8   5 -10  185.38   13.70
  -5  -3 -10  189.58   13.50
   3   5  10  200.48   13.70
   3  -8 -10  200.78   13.70
   8  -5 -10  187.38   13.70
  -5   8  10  176.78   13.60
   8  -3  10  179.68   13.70
  -8   3  10  174.58   13.50
   5  -8  10  179.78   13.50
   8  -5 -10  166.58   13.50
  -5  -3 -10  192.48   13.60
  -3   8 -10  186.08   13.60
  -5   8  10  162.28   13.40
   5  -8  10  182.28   13.70
  -8   3  10  194.88   13.70
   8  -3  10  190.48   13.50
   3  -8 -10  201.78   13.70
  -3   8  10  172.38   13.70
  -8   5  10  202.18   13.70
   5  -8 -10  194.48   13.70
  -3  -5 -10  187.08   13.60
  -8   3 -10  198.38   13.60
  -8   5  10  194.58   13.60
   3  -8  10  211.98   13.80
  -3   8  10  186.18   13.50
  -5   8 -10  163.18   13.30
  -3   8  10  188.28   13.40
   8  -3 -10  203.98   13.70
   3  -8  10  208.18   13.80
   5   3  10  201.58   13.80
  -5   8 -10  184.38   13.60
  -3  -5 -10  204.98   13.60
   8  -5  10  185.48   13.70
   8  -3 -10  199.48   13.50
  -8   3 -10  177.08   13.60
   8  -3 -10  172.48   13.40
   8  -2  10 1482.45  101.49
   8  -2  10 1445.96  101.69
  -6   8  10 1453.45  101.49
  -8   2  10 1660.33  101.79
   2  -8 -10 1456.55  101.69
   2   6  10 1705.13  101.89
   8  -6 -10 1241.58  101.49
   6  -8  10 1422.26  101.69
   6  -8  10 1394.96  101.49
  -2   8 -10 1639.94  101.69
   2  -8 -10 1495.75  101.59
  -8   2  10 1481.05  101.49
  -6  -2 -10 1503.75  101.59
   8  -2 -10 1326.87  101.29
  -2   8  10 1437.46  101.39
   2  -8  10 1627.64  101.79
  -6   8 -10 1577.24  101.69
  -8   2 -10 1498.45  101.59
   6   2  10 1480.85  101.69
  -2   8  10 1508.05  101.59
  -6   8 -10 1565.54  101.49
   2  -8  10 1516.95  101.59
  -2  -6 -10 1337.07  101.49
  -8   2 -10 1497.45  101.59
   0   0 -11    0.00    0.30
   0   0  11    0.10    0.20
   0   0 -11    0.00    0.20
   0   0  11    0.20    0.30
   0   0 -11    0.00    0.30
  -1   0  11   21.10    1.90
  -1   1 -11   17.40    1.90
  -1   1 -11   17.80    1.80
   1  -1  11   15.80    1.90
   0  -1  11   20.10    2.00
   0   1 -11   21.30    1.90
   0   1  11   18.80    1.90
  -1   1  11   16.80    1.90
  -1   0  11   17.40    1.90
   1   0 -11   22.20    2.10
   1  -1 -11   20.20    1.90
   1   0  11   20.00    2.00
   0   1 -11   22.70    2.10
   1   0 -11   21.10    2.00
   0   1 -11   17.40    1.90
  -1   0  11   18.00    1.90
   1  -1 -11   18.40    1.90
   1   0 -11   21.20    1.90
   1  -1  11   19.60    1.90
  -1   1 -11   17.80    2.00
   0  -1  11   26.30    2.30
   1   0 -11   21.20    2.00
   0  -1  11   19.80    1.90
  -1   1  11   19.10    1.90
   0   1  11   13.70    2.00
   0   1 -11   21.80    2.10
   1  -1 -11   21.20    2.00
  -1   0 -11   20.70    2.00
   2  -1 -11    0.10    0.20
   1  -2  11    0.00    0.30
   1   1 -11    0.00    0.20
   1  -2  11    0.00    0.20
  -1  -1  11    0.00    0.20
   1   1 -11    0.10    0.30
  -1   2 -11    0.00    0.20
   1   1 -11    0.10    0.20
  -1  -1  11    0.00    0.30
  -1   2 -11    0.30    0.30
   2  -1 -11    0.00    0.30
   1   1  11    0.10    0.30
   1   1 -11    0.10    0.20
   0   2 -11   34.30    3.10
   0  -2  11   39.20    3.20
   2   0 -11   36.50    3.10
   0   2 -11   37.60    3.00
   0   2 -11   28.30    2.90
   2   0 -11   38.20    3.00
   0  -2  11   36.50    3.10
  -2   0  11   33.90    3.00
   0  -2  11   38.50    3.10
  -2   2 -11   29.40    3.00
  -2   0  11   35.00    3.10
   0   2  11   34.30    3.10
   2   0 -11   39.60    3.20
   0   2 -11   32.70    3.00
   2   0  11   37.60    3.10
  -2   0  11   41.40    3.10
  -2   3  11  111.09    8.70
  -1  -2  11  121.89    8.80
   2   1 -11  125.49    8.80
  -1   3 -11  110.29    8.70
   1  -3 -11  124.79    8.90
  -1  -2  11  123.89    9.00
  -3   2 -11  136.79    8.90
   3  -2 -11  104.49    8.90
   1   2  11  112.29    8.80
  -2   3  11  120.29    8.90
  -3   2 -11  111.39    8.90
   1  -3 -11  112.29    8.90
   2   1 -11  118.29    8.90
   3  -1  11  105.69    8.80
   3  -1  11  122.39    8.80
   3  -2 -11  119.79    8.80
  -1   3 -11  119.29    8.80
  -1  -2  11  140.89    9.10
  -1   3  11  117.69    8.90
  -2  -1  11  112.39    8.80
   2   1  11  121.19    8.90
   1  -3  11  108.09    8.80
   1  -3  11  122.89    9.00
  -2   3 -11  122.29    8.80
   2  -3 -11  126.79    8.90
   2  -3 -11  114.39    8.90
   3  -2  11   99.99    8.70
  -2  -1  11  140.69    9.00
   1   2 -11  130.69    9.00
  -2  -1  11  128.49    8.90
  -1   3  11  114.89    8.80
   3  -1 -11  126.89    8.80
   1   2 -11  131.99    8.80
  -3   1 -11  125.49    8.90
  -3   1 -11  129.89    9.10
  -3   2  11  125.89    8.90
   1   2 -11  122.39    8.90
   0   3 -11   29.90    2.70
   3  -3  11   28.90    2.70
  -3   0 -11   26.20    2.70
   3   0 -11   30.70    2.60
   3   0 -11   31.90    2.60
   3   0  11   25.00    2.70
   0  -3 -11   27.60    2.70
  -3   0 -11   28.00    2.60
  -3   3  11   27.60    2.60
   3   0 -11   30.60    2.70
   0   3 -11   31.40    2.60
  -3   3  11   31.10    2.70
  -3   0  11   32.50    2.70
   3  -3 -11   27.80    2.60
   0  -3 -11   31.60    2.70
   3  -3 -11   26.90    2.70
   3   0  11   29.60    2.60
   3   0  11   30.10    2.70
  -3   0  11   30.90    2.70
   0  -3  11   30.70    2.80
   0   3  11   32.60    2.70
   0   3  11   30.70    2.80
   0   3 -11   31.40    2.50
   0  -3  11   30.90    2.70
   0  -3  11   26.90    2.70
  -3   3 -11   30.70    2.70
   0   3 -11   32.90    2.70
  -2  -2  11    0.20    0.30
   2  -4  11    0.00    0.30
   2  -4  11    0.30    0.40
  -2  -2  11    0.30    0.30
   2   2  11    0.10    0.30
  -4   2  11    1.00    0.40
  -2   4  11    0.00    0.30
   2  -4 -11    0.10    0.20
   4  -2 -11    0.10    0.20
   4  -2  11    1.20    0.50
   2   2 -11    0.10    0.20
  -4   2  11    0.20    0.20
   2   2  11    0.20    0.30
   4  -2  11    0.00    0.30
  -2  -2 -11    0.00    0.30
  -2   4  11    0.30    0.30
  -4   2 -11    0.20    0.30
  -4   2 -11   -0.10    0.30
  -2  -2  11    0.30    0.20
   4  -2 -11    1.80    0.50
  -2  -2 -11    0.00    0.20
   2   2 -11    0.10    0.30
  -2   4 -11   -0.10    0.20
   2   2 -11    0.10    0.20
   2  -4 -11    1.10    0.50
   4  -2 -11    0.00    0.30
  -1  -3  11   72.19    6.00
   1   3  11   81.59    6.00
  -4   3 -11   83.99    6.00
   3  -4  11   75.09    6.10
   4  -3 -11   75.39    6.20
   3   1 -11   89.29    6.00
   4  -3 -11   81.49    6.10
  -3  -1 -11   83.29    6.10
  -3   4  11   78.09    6.10
   1  -4 -11   81.49    6.10
  -1   4 -11   74.09    5.90
  -3   4  11   67.19    5.90
  -4   3 -11   78.29    6.10
   3   1 -11   72.29    5.80
  -1  -3  11   76.99    5.90
  -3  -1 -11   79.29    6.00
  -1  -3  11   83.79    6.10
   1  -4 -11   86.79    6.20
   4  -1  11   80.49    6.20
   3   1 -11   73.29    6.00
   4  -1  11   78.89    6.00
   3  -4  11   77.39    6.00
  -1  -3 -11   83.39    6.10
   3  -4 -11   79.39    6.20
  -1   4  11   65.89    6.00
   3   1  11   78.09    6.30
   4  -1 -11   88.59    6.10
  -1   4  11   67.49    5.90
  -4   3  11   64.69    5.90
  -4   3  11   85.19    6.10
   1   3 -11   82.09    6.10
   1   3 -11   78.19    5.90
   1   3 -11   87.39    6.10
  -3  -1  11   80.99    6.10
   4  -3  11   79.19    6.00
  -3   4 -11   79.29    6.10
   3  -4 -11   81.29    6.00
  -4   1 -11   79.49    6.00
   4  -3  11   73.29    6.10
  -3   4 -11   76.19    5.90
  -3  -1  11   86.09    6.10
   4  -1 -11   82.09    5.90
   3   1  11   72.29    6.00
  -1  -3 -11   74.39    6.00
  -3  -1  11   77.99    6.00
   1   3 -11   82.69    5.80
   4   0  11  189.78   13.70
   4   0  11  186.58   13.50
   0   4  11  214.18   13.80
   4  -4 -11  181.98   13.60
   0   4  11  166.08   13.50
   0  -4 -11  179.78   13.70
   0   4 -11  194.38   13.70
  -4   0 -11  208.48   13.80
   4  -4 -11  203.98   13.80
   4   0 -11  202.98   13.60
   4   0  11  208.08   13.80
   0   4  11  176.88   13.60
   4  -4  11  170.38   13.60
  -4   4 -11  190.38   13.60
   0   4 -11  198.88   13.40
   0   4 -11  203.98   13.90
   0  -4  11  197.78   13.70
   0  -4  11  164.28   13.60
  -4   4  11  190.38   13.70
  -4   0 -11  193.78   13.70
   4   0 -11  201.08   13.50
   0   4 -11  187.78   13.50
  -4   4 -11  197.68   13.70
   0  -4  11  176.98   13.60
  -2  -3  11  125.69    9.70
  -5   2  11  129.89    9.70
  -2   5 -11  138.79    9.60
   3  -5  11  138.19    9.70
   2  -5 -11  142.09    9.80
  -3  -2 -11  149.99    9.80
  -3  -2 -11  133.09    9.80
  -2   5 -11  129.59    9.60
   5  -2  11  130.09    9.70
  -2  -3  11  132.49    9.80
   5  -3 -11  136.89    9.70
   3  -5  11  130.69    9.90
   2   3  11  139.39    9.70
   3   2 -11  123.09    9.40
  -5   2  11  131.49    9.80
  -5   3 -11  130.39    9.80
  -2  -3  11  120.99    9.60
   2  -5 -11  117.99    9.80
   5  -3 -11  137.29    9.90
  -3   5  11  121.89    9.70
   2   3  11  124.89    9.80
   5  -2  11  156.18   10.10
  -2   5 -11  146.49    9.90
   3   2 -11  136.59    9.70
   3   2 -11  122.99    9.70
  -3   5  11  120.69    9.70
  -5   3  11  135.69    9.70
  -3   5 -11  117.39    9.70
   5  -3  11  129.69    9.70
   5  -2 -11  144.19   10.00
   3   2  11  130.79    9.70
  -2  -3 -11  148.09    9.80
   2   3 -11  144.99    9.80
  -3  -2  11  121.09    9.70
  -2   5  11  136.49    9.80
   2   3 -11  147.79    9.90
   3  -5 -11  134.89    9.80
   3  -5 -11  116.69    9.80
  -2  -3 -11  121.69    9.80
  -3  -2  11  143.69    9.70
  -3   5 -11  132.59    9.60
  -3  -2  11  125.89    9.70
  -5   2 -11  158.28   10.00
  -5   2 -11  124.39    9.70
   3   2  11  131.89    9.80
  -2   5  11  134.09    9.60
   5  -2 -11  124.19    9.60
   5  -3  11  141.59   10.00
   2   3 -11  118.89    9.40
   2   3 -11  130.89    9.50
  -5   3  11  143.49   10.00
   5  -4 -11    3.20    0.80
   4  -5  11    3.40    0.70
  -5   4 -11    4.50    0.90
   4   1 -11    3.50    0.80
  -1  -4  11    4.80    0.90
   1  -5 -11    5.00    1.00
   4   1 -11    3.90    0.70
  -5   4 -11    4.60    0.90
   4   1 -11    4.30    0.90
   4  -5  11    5.30    1.00
  -5   1  11    4.30    0.80
  -4   5  11    4.00    0.80
  -5   1  11    3.40    0.80
   1  -5 -11    2.80    0.70
  -4  -1 -11    4.30    0.90
  -1   5 -11    3.50    0.70
  -1   5 -11    4.10    0.70
   5  -1  11    3.90    0.90
   1   4  11    3.90    0.90
  -1  -4  11    4.50    0.90
   5  -4 -11    4.70    0.90
   1   4  11    5.50    0.90
  -4   5  11    2.80    0.80
  -4  -1 -11    3.40    0.80
   5  -1  11    5.00    0.90
  -5   4  11    3.70    0.90
   1   4 -11    3.30    0.60
   4  -5 -11    4.20    0.90
   5  -1 -11    6.20    0.90
   4  -5 -11    4.00    0.90
   5  -1 -11    3.70    0.70
  -4  -1  11    3.60    0.80
  -5   4  11    4.20    0.90
  -1   5  11    4.60    0.90
   1   4 -11    5.00    0.70
   1   4 -11    5.10    1.00
   1   4 -11    3.30    0.80
   5  -4  11    4.90    0.90
   5  -4  11    4.00    0.90
  -5   1 -11    5.60    1.00
   4   1  11    4.80    1.00
  -4   5 -11    4.70    0.90
  -1   5  11    3.50    0.70
  -4  -1  11    3.50    0.70
  -5   1 -11    3.60    0.80
  -4   5 -11    4.20    0.90
   4   1  11    4.90    0.90
   4   1  11    3.80    0.90
  -4  -1  11    4.20    0.90
  -1   5  11    4.40    0.90
   0  -5  11  172.88   13.20
  -5   0 -11  160.18   13.10
   5   0  11  203.18   13.30
   5   0  11  187.48   13.30
   0  -5 -11  196.88   13.30
   0   5  11  179.88   13.20
   0   5  11  176.78   13.30
   5  -5 -11  179.98   13.30
  -5   5 -11  190.48   13.20
   5  -5 -11  175.78   13.20
   0   5 -11  195.18   13.30
   5   0  11  183.58   13.10
   5  -5  11  189.58   13.30
   5  -5  11  176.28   13.30
   5   0 -11  194.28   13.10
   5   0 -11  191.18   13.00
   0   5 -11  197.88   13.30
   0  -5  11  179.58   13.20
   0   5 -11  170.78   12.90
  -5   5 -11  189.18   13.30
  -5   0 -11  170.98   13.20
   0  -5  11  190.28   13.20
   3  -6  11    0.30    0.40
  -3   6  11    0.00    0.20
   3   3  11    0.10    0.30
  -3  -3  11    0.10    0.20
  -6   3 -11    0.50    0.40
  -6   3  11    0.20    0.30
   3   3 -11    0.20    0.30
   3  -6 -11    0.20    0.40
  -3   6 -11    0.30    0.30
   6  -3 -11    0.00    0.30
  -3   6  11    0.20    0.40
   6  -3 -11    0.00    0.20
  -3   6 -11    0.30    0.30
  -6   3  11    0.90    0.50
   6  -3  11    0.50    0.50
   3   3  11    0.80    0.40
   3   3 -11    0.00    0.20
  -3  -3  11    0.20    0.30
   3   3  11    0.00    0.20
   3  -6  11    0.00    0.20
  -3  -3  11    0.10    0.30
   6  -3  11    0.40    0.40
  -3  -3 -11    0.00    0.30
   3  -6 -11    0.20    0.40
  -6   3 -11    0.90    0.50
  -2  -4  11  161.48   11.20
   6  -2  11  142.09   11.20
   4   2 -11  139.29   10.90
  -2  -4  11  160.78   11.10
   2   4  11  138.99   10.80
  -6   2  11  157.58   11.10
  -4  -2 -11  157.48   11.20
   4  -6  11  137.39   11.10
   6  -2  11  150.38   10.90
  -2   6 -11  159.88   11.00
  -2   6 -11  156.38   10.80
  -2  -4  11  158.08   11.00
   4   2 -11  161.28   11.10
   6  -4 -11  163.68   11.20
  -4   6  11  149.49   11.10
  -6   2  11  160.48   11.10
   2  -6 -11  169.68   11.30
   6  -4 -11  143.09   11.10
   2   4  11  146.09   10.90
  -4   6  11  160.88   11.00
   2   4  11  146.89   11.10
  -4  -2 -11  131.29   10.90
   4  -6  11  154.18   11.00
   2  -6 -11  152.38   11.10
  -2   6 -11  153.78   11.00
  -6   4 -11  147.19   11.00
   6  -2 -11  134.29   10.90
  -2   6  11  163.48   11.00
  -2   6  11  132.99   11.00
   6  -4  11  158.78   11.20
   2   4 -11  139.99   11.00
   2  -6  11  149.29   11.00
   4  -6 -11  165.18   11.20
  -6   2 -11  147.89   11.10
  -4   6 -11  147.39   10.90
   2  -6  11  147.59   11.10
   4  -6 -11  162.48   11.10
  -2  -4 -11  140.89   11.00
  -4   6 -11  157.38   11.10
  -6   4  11  159.08   11.00
  -6   4  11  159.98   11.20
   2   4 -11  161.58   11.10
   6  -2 -11  160.38   11.00
  -2  -4 -11  149.69   11.10
  -4  -2  11  144.49   11.00
  -4  -2  11  150.28   11.00
  -6   2 -11  158.88   11.00
   4   2  11  138.29   11.00
  -4  -2  11  150.78   11.00
   6  -4  11  144.79   11.00
   5  -6  11  307.97   20.20
  -6   5 -11  287.17   20.20
  -1  -5  11  264.37   20.10
  -6   1  11  313.77   20.20
   1  -6 -11  251.57   20.20
  -1  -5  11  276.57   20.10
   1   5  11  299.67   20.20
   6  -1  11  287.67   20.30
  -5   6  11  275.07   20.10
   6  -1  11  306.77   20.20
  -1   6 -11  260.27   19.80
   5   1 -11  256.87   19.80
  -5  -1 -11  284.37   20.20
   1   5  11  265.97   20.10
  -6   5 -11  298.57   20.10
   6  -5 -11  274.67   20.20
  -1  -5  11  316.77   20.30
   6  -5 -11  278.57   20.20
   1   5  11  291.67   20.00
   5  -6  11  304.57   20.40
  -5   6  11  316.17   20.30
  -5  -1 -11  303.67   20.30
  -5   6 -11  278.67   20.20
   6  -5  11  260.87   20.20
   6  -1 -11  306.67   20.10
   6  -1 -11  310.97   20.00
   1   5 -11  281.57   20.10
   5   1  11  282.57   20.00
   6  -5  11  289.37   20.20
  -1   6  11  287.27   20.00
  -6   1 -11  298.07   20.20
  -1   6  11  281.17   20.20
   5   1  11  295.07   20.40
  -1  -5 -11  262.27   20.10
  -1  -5 -11  274.57   20.20
   1   5 -11  285.77   20.20
  -1   6  11  268.17   20.10
  -5   6 -11  256.17   20.00
   5   1  11  298.87   20.20
  -6   1 -11  272.37   20.20
   5  -6 -11  308.97   20.30
  -6   5  11  324.57   20.40
   6  -1 -11  241.68   20.10
   5  -6 -11  296.17   20.30
  -6   5  11  306.87   20.20
   0  -6 -11   48.00    3.90
   0   6  11   41.90    3.80
   6   0 -11   43.40    3.50
   0  -6 -11   40.00    3.70
   6  -6  11   46.10    3.90
   6  -6 -11   52.59    4.00
   6  -6  11   46.30    3.80
   6   0  11   47.80    3.70
   6   0  11   39.50    3.80
   0  -6  11   36.40    3.70
  -6   6 -11   40.00    3.80
  -6   0 -11   39.30    3.70
  -6   0  11   42.50    3.70
   6  -6 -11   43.10    4.10
   0  -6  11   52.59    3.90
  -6   6  11   40.50    3.70
   6   0  11   51.69    3.90
   6   0 -11   45.00    3.80
  -6   6  11   42.90    3.80
  -6   0 -11   45.20    3.80
   0   6 -11   47.10    3.80
  -6   6 -11   43.60    3.70
   0   6  11   45.00    3.70
  -4   7  11  269.47   19.10
  -3  -4  11  283.07   19.10
  -3  -4  11  265.87   19.10
   3   4  11  258.07   19.10
   4   3 -11  253.97   19.00
   4   3 -11  291.27   19.00
   4  -7  11  296.77   19.20
  -3  -4  11  276.77   18.90
   7  -3  11  266.77   19.00
  -3   7 -11  272.47   19.10
   3  -7 -11  226.08   18.90
   3  -7 -11  296.67   19.20
  -7   4 -11  265.07   19.10
  -4  -3 -11  248.68   18.90
   7  -3  11  276.27   19.20
  -4  -3 -11  262.17   19.10
  -4   7  11  254.47   18.90
   3   4  11  277.07   18.80
   7  -4 -11  285.27   19.20
  -7   4 -11  269.77   19.00
   4   3  11  265.97   19.10
   7  -4  11  247.78   18.90
  -4  -3  11  265.17   19.00
  -4  -3  11  247.18   18.90
   7  -3 -11  293.07   19.00
   7  -4  11  254.57   19.10
   3  -7  11  256.17   19.10
   3   4 -11  277.57   19.00
   3  -7  11  273.57   19.00
  -3   7  11  288.27   19.10
  -4   7 -11  263.37   18.80
  -4   7 -11  231.68   18.90
  -3  -4 -11  297.77   19.20
  -4   7 -11  302.07   19.10
  -7   4  11  266.87   19.00
   4   3  11  255.87   18.70
   4  -7 -11  239.78   19.00
  -3   7  11  252.27   18.80
  -7   3 -11  272.27   19.10
  -7   4  11  239.18   19.00
  -3  -4 -11  290.87   19.10
  -7   3 -11  285.67   19.00
  -4  -3  11  290.37   19.00
   4  -7 -11  284.57   19.10
  -7   5 -11   74.99    5.50
  -2  -5  11   77.39    5.60
  -5   7  11   65.69    5.40
   7  -2  11   65.59    5.50
   7  -2  11   67.39    5.40
   5  -7  11   70.89    5.50
  -7   2  11   67.39    5.40
   2   5  11   56.59    5.30
  -5  -2 -11   60.99    5.40
  -5  -2 -11   72.19    5.50
   2  -7 -11   74.49    5.50
   5   2 -11   72.59    5.50
   2   5  11   67.19    5.20
  -2  -5  11   65.29    5.40
   2  -7 -11   70.09    5.60
   7  -5 -11   73.89    5.50
   5   2 -11   70.19    5.40
   5  -7  11   73.49    5.60
  -7   5 -11   72.99    5.60
  -5   7  11   63.99    5.50
  -2  -5  11   81.89    5.60
  -2   7 -11   59.49    5.30
  -7   2  11   77.79    5.50
   7  -5 -11   61.89    5.50
   7  -2 -11   77.89    5.60
  -5   7 -11   65.79    5.50
   7  -5  11   81.39    5.90
  -7   2 -11   65.99    5.40
   2   5 -11   67.69    5.40
   2   5 -11   67.69    5.40
   5  -7 -11   69.99    5.50
  -7   5  11   65.69    5.50
  -5   7 -11   62.69    5.20
  -5  -2  11   73.39    5.40
   5   2  11   60.49    5.20
   2  -7  11   62.39    5.40
  -5  -2  11   68.99    5.40
  -5  -2  11   63.69    5.40
  -2   7  11   68.09    5.30
  -2   7  11   65.69    5.50
  -2  -5 -11   67.59    5.50
   5   2  11   68.39    5.50
   2  -7  11   81.09    5.60
  -7   5  11   62.49    5.40
   7  -2 -11   68.79    5.30
   7  -2 -11   75.09    5.40
  -7   2 -11   63.49    5.40
   5  -7 -11   65.89    5.50
   7  -5  11   65.69    5.40
   6  -7  11   45.20    4.10
   7  -1  11   48.60    3.90
  -7   1  11   49.60    4.00
  -7   1  11   48.30    4.00
  -6  -1 -11   40.30    3.90
  -6  -1 -11   41.10    3.90
   1   6  11   49.60    4.00
   1  -7 -11   48.10    4.10
   6  -7  11   48.30    4.00
  -1  -6  11   43.40    3.90
  -1   7 -11   43.10    3.90
   7  -1  11   49.20    4.10
  -1  -6 -11   49.50    4.10
  -1   7  11   48.60    4.00
   6   1  11   44.60    3.80
   1  -7  11   46.90    4.00
  -7   1 -11   48.00    4.00
   6   1  11   46.40    4.10
  -7   1 -11   46.30    4.00
  -1  -6 -11   52.39    4.10
  -6   7 -11   46.90    3.90
  -6   7 -11   46.80    4.10
   1  -7  11   43.80    4.00
  -1   7  11   50.99    3.90
   7  -1 -11   59.19    4.40
   0   0 -12 4429.66  283.97
   0   0  12 3737.33  283.97
   0   0 -12 4402.46  284.07
   1  -1 -12  762.22   55.39
   1  -1  12  775.52   55.49
   0   1  12  837.02   55.39
   0   1 -12  788.72   55.39
  -1   1 -12  766.02   55.29
  -1   1  12  752.02   55.29
  -1   0 -12  919.81   55.49
   1  -1  12  891.81   55.49
  -1   0  12  768.82   55.39
  -1   1  12  739.63   55.49
   0   1 -12  790.02   55.29
   0  -1  12  800.62   55.39
   1   0 -12  831.62   55.49
   1   0 -12  766.92   55.29
   1   0 -12  933.61   55.59
   0  -1 -12  733.83   55.39
  -1   0  12  849.81   55.39
   0   1 -12  885.41   55.59
   1  -1 -12  826.32   55.39
   0  -1 -12  753.72   55.49
   2  -1 -12  527.25   35.20
  -2   1  12  501.05   35.10
  -2   1  12  548.95   35.20
  -1  -1 -12  544.85   35.20
   2  -1  12  488.85   35.30
  -1  -1 -12  534.55   35.10
  -1   2 -12  491.95   35.10
   1   1 -12  487.85   35.10
  -1   2  12  513.15   35.00
   1  -2 -12  537.15   35.20
   1  -2  12  514.25   35.20
   1   1  12  443.66   35.00
  -2   1 -12  513.45   35.10
  -1   2 -12  512.45   35.30
   1   1  12  520.45   35.20
   1  -2  12  481.75   35.00
   2  -1 -12  431.96   34.90
   1   1 -12  491.15   35.10
  -1  -1  12  504.35   35.00
  -1  -1  12  546.65   35.20
  -1   2 -12  529.75   35.00
   0   2 -12  260.47   16.70
   2   0 -12  257.17   16.70
   2  -2  12  244.68   16.60
   2  -2  12  253.57   16.90
   0   2  12  220.28   16.70
  -2   2  12  231.68   16.60
   2   0  12  230.58   16.80
  -2   0 -12  250.67   16.80
   0   2 -12  270.07   16.90
   0  -2  12  238.98   16.80
   2  -2 -12  207.18   16.60
   2   0  12  195.78   16.50
  -2   0 -12  213.78   16.50
  -2   2  12  214.08   16.60
  -2   0  12  218.58   16.50
   0   2  12  260.87   16.70
  -2   2 -12  220.38   16.60
  -2   2 -12  251.87   16.90
  -2   0  12  231.28   16.70
   2   0 -12  258.07   16.80
   2  -2 -12  248.48   16.70
   0  -2  12  203.08   16.50
   3  -2 -12  376.66   25.40
  -1   3 -12  371.26   25.30
  -3   1  12  378.66   25.50
  -1  -2  12  322.97   25.30
   2  -3  12  305.57   25.30
  -2   3  12  361.56   25.30
  -3   2 -12  388.06   25.40
   2   1 -12  342.47   25.30
   2   1 -12  381.46   25.50
  -2  -1 -12  377.46   25.50
  -1   3 -12  398.06   25.50
  -1   3 -12  357.16   25.50
  -2   3  12  418.36   25.60
  -3   2 -12  415.46   25.70
  -1  -2  12  349.77   25.50
  -3   1  12  359.76   25.40
   2   1 -12  366.16   25.40
  -2  -1 -12  362.46   25.40
   3  -2 -12  379.76   25.60
   1  -3 -12  391.76   25.60
   2  -3  12  361.56   25.50
   3  -1  12  348.17   25.40
   1   2  12  363.76   25.40
   3  -1  12  383.06   25.60
   1   2  12  386.66   25.50
   1  -3 -12  358.36   25.40
   3  -1 -12  396.46   25.50
   1  -3  12  398.56   25.50
   2   1  12  307.07   25.40
  -3   1 -12  392.66   25.50
   1   2 -12  376.16   25.50
  -2   3 -12  396.56   25.60
   3  -2  12  380.06   25.50
  -2  -1  12  370.26   25.40
  -1  -2 -12  318.47   25.40
   1  -3  12  356.36   25.50
   2   1  12  311.07   25.30
   3  -2  12  379.66   25.60
  -3   2  12  374.76   25.40
  -3   2  12  378.26   25.50
   1   2 -12  307.27   25.30
   1   2 -12  375.66   25.30
  -1  -2 -12  406.56   25.60
  -2   3 -12  332.97   25.30
   3  -1 -12  350.56   25.50
   2  -3 -12  343.17   25.50
  -2  -1  12  305.77   25.30
  -3   0 -12  171.48   12.90
   3   0  12  154.08   12.80
   0   3 -12  168.78   12.70
   0  -3  12  187.88   12.90
   3   0 -12  163.68   12.80
   0   3  12  193.48   13.00
   3  -3  12  157.58   12.70
  -3   3  12  200.38   12.90
  -3   3  12  188.08   12.90
   3  -3  12  192.78   13.00
   3  -3 -12  150.78   12.70
   3   0 -12  182.08   12.70
   0  -3  12  179.48   12.80
   0  -3 -12  179.28   12.80
  -3   0  12  187.08   12.80
   3  -3 -12  195.68   13.00
  -3   3 -12  163.58   12.80
   0   3 -12  187.48   12.70
   0  -3 -12  189.48   12.90
   0   3 -12  196.68   12.90
  -3   0 -12  154.28   12.70
  -3   0  12  182.88   12.80
  -3   3 -12  181.78   12.70
   3   0  12  168.38   12.70
   2   2  12 2781.32  184.28
  -4   2 -12 2534.75  184.38
   4  -2 -12 3046.80  184.38
   2  -4  12 2889.31  184.38
  -2   4 -12 2780.82  184.48
  -2   4 -12 2941.31  184.28
  -2   4 -12 2928.01  184.38
  -4   2 -12 2585.44  184.28
  -2  -2 -12 2845.22  184.38
   2   2 -12 2739.03  184.28
  -2   4  12 2712.63  184.28
  -2   4  12 2676.73  184.38
   2  -4 -12 2554.74  184.38
   2   2 -12 2857.21  184.18
   2  -4 -12 2335.87  184.38
   4  -2  12 2494.95  184.28
   2  -4  12 2330.67  184.38
  -4   2  12 3139.19  184.48
   4  -2 -12 2353.96  184.38
   4  -2  12 2670.83  184.58
  -2  -2 -12 2828.02  184.48
   3   1 -12  393.76   30.60
   3  -4  12  441.86   30.80
  -3   4  12  403.06   30.80
   3  -4  12  473.65   31.00
   4  -3 -12  471.65   30.90
   1  -4 -12  437.86   30.90
   3   1 -12  456.65   30.90
  -4   3 -12  455.45   30.80
   4  -1  12  415.56   30.90
  -4   1  12  415.96   30.80
   4  -1  12  444.36   30.80
  -3   4  12  433.76   30.80
   3   1 -12  458.25   30.70
  -1   4 -12  486.25   30.80
  -1   4 -12  431.76   30.90
   1   3  12  473.95   30.80
  -3  -1 -12  477.85   31.00
  -4   1  12  457.05   30.90
  -3  -1 -12  493.65   31.00
  -3  -1  12  494.05   30.90
  -1  -3 -12  366.36   30.70
  -4   1 -12  438.36   30.80
  -3  -1  12  411.16   30.80
  -3   4 -12  432.06   30.70
   4  -3  12  406.76   30.90
  -1  -3 -12  449.16   30.90
   3   1  12  443.96   30.70
   4  -3  12  447.66   30.80
  -1   4  12  402.46   30.70
   3   1  12  432.36   31.00
  -4   3  12  455.25   30.80
   1   3 -12  468.25   30.60
  -4   1 -12  464.15   31.00
   4  -1 -12  440.66   30.80
  -1   4  12  448.26   30.90
   4  -1 -12  481.35   31.10
   4  -1 -12  444.26   30.70
   1   3 -12  427.96   30.70
  -4   3  12  393.16   30.80
   1   3 -12  492.05   31.30
   3  -4 -12  468.25   30.90
   4  -4  12  340.17   21.70
  -4   0 -12  336.57   21.70
  -4   4 -12  341.67   21.50
  -4   4 -12  271.27   21.40
  -4   0  12  309.97   21.50
  -4   0 -12  302.07   21.50
  -4   4  12  302.67   21.50
   4   0  12  282.47   21.50
   0  -4  12  257.97   21.40
   0   4 -12  291.17   21.40
  -4   0  12  315.07   21.50
   4   0 -12  347.97   21.70
  -4   4  12  318.17   21.50
   4  -4 -12  319.67   21.50
   0  -4 -12  288.67   21.50
   0   4 -12  327.57   21.30
   0   4 -12  285.87   21.50
   4   0 -12  331.27   21.50
   4  -4 -12  330.47   21.70
   4   0  12  297.07   21.40
   0  -4  12  274.77   21.40
   0   4  12  322.87   21.60
   4  -4  12  318.77   21.50
   0  -4 -12  281.87   21.50
   0   4  12  262.27   21.30
  -5   3 -12  543.85   34.40
   3  -5  12  441.86   34.10
   2   3  12  521.85   34.10
  -2   5 -12  496.85   34.00
   5  -3 -12  439.66   34.40
   2   3  12  519.15   34.30
   2   3  12  455.55   34.30
  -5   3 -12  456.95   34.10
   3   2 -12  472.45   34.00
  -3  -2 -12  526.85   34.30
  -3  -2 -12  532.45   34.40
   2  -5 -12  455.35   34.30
   3   2 -12  529.45   34.00
  -5   2  12  524.35   34.30
  -3   5  12  454.55   34.20
  -3   5  12  494.85   34.30
  -5   2  12  496.85   34.20
   5  -2  12  515.55   34.20
  -5   2 -12  455.85   34.20
   3  -5 -12  545.85   34.50
  -2  -3 -12  481.15   34.30
  -2   5  12  499.35   34.20
   2  -5  12  486.65   34.20
   3   2  12  491.25   34.20
   3   2  12  540.15   34.50
  -2   5  12  514.75   34.30
   5  -2 -12  493.45   34.20
  -5   3  12  466.15   34.20
  -3  -2  12  505.05   34.50
  -5   3  12  538.35   34.40
   5  -3  12  448.46   34.10
   2   3 -12  463.15   33.90
  -5   2 -12  537.15   34.30
   3   2  12  466.35   34.10
  -2  -3 -12  549.05   34.30
   5  -3  12  529.75   34.50
  -3   5 -12  456.75   34.20
   2  -5  12  440.76   34.20
   4  -5  12   52.09    4.90
   4  -5  12   55.99    5.10
   1   4  12   69.99    5.20
  -5   4 -12   63.49    5.10
   1   4  12   67.89    4.90
   4   1 -12   67.59    5.00
  -4  -1 -12   62.59    5.00
  -4   5  12   65.09    5.00
  -1  -4  12   69.29    5.20
   5  -1  12   62.39    5.10
  -1   5 -12   69.69    5.10
  -4   5  12   57.09    5.00
  -5   1  12   63.69    5.00
   1   4  12   68.69    5.10
  -5   1  12   60.29    5.00
   5  -4 -12   65.29    5.00
   5  -4 -12   58.09    5.10
  -1   5 -12   72.69    5.00
   4   1 -12   66.69    4.90
   1  -5 -12   65.29    5.10
  -5   4 -12   63.49    5.00
   4   1 -12   64.99    4.80
  -1   5 -12   62.39    4.80
  -4  -1 -12   69.79    5.20
   5  -1  12   64.39    5.00
  -4  -1  12   53.99    4.90
   5  -1 -12   58.39    4.90
  -5   4  12   58.79    5.00
   5  -1 -12   60.29    4.80
  -1   5  12   59.19    5.00
  -5   1 -12   54.89    5.00
   1  -5  12   55.19    4.90
  -5   4  12   72.99    5.10
   5  -1 -12   57.89    5.00
   4   1  12   61.39    4.90
  -1  -4 -12   73.89    5.20
   4   1  12   68.99    5.10
  -5   1 -12   60.69    5.00
  -4   5 -12   62.19    5.10
   4  -5 -12   49.50    5.00
  -4  -1  12   64.99    5.20
   5  -4  12   50.69    4.90
   5  -4  12   55.19    5.10
   4  -5 -12   64.49    5.00
  -4   5 -12   62.99    4.90
   1  -5  12   68.99    5.10
   1   4 -12   60.19    4.70
   5   0 -12    3.50    0.80
  -5   5  12    3.10    0.80
   5  -5 -12    3.10    0.80
   5  -5 -12    2.30    0.70
   5   0  12    4.10    0.90
   5  -5  12    6.80    1.30
   0   5 -12    2.20    0.70
  -5   0 -12    3.80    0.90
   5   0 -12    2.70    0.60
   0  -5  12    2.10    0.70
   0  -5  12    3.10    0.90
   0   5  12    3.00    0.80
   0  -5 -12    5.30    1.00
  -5   0  12    3.30    0.80
  -5   0  12    2.80    0.80
  -5   5 -12    3.50    0.80
   5   0  12    3.10    0.80
  -5   0 -12    2.70    0.70
  -5   5 -12    3.00    0.80
   5  -5  12    2.00    0.60
   0   5 -12    2.50    0.60
  -3   6 -12  110.09    8.00
   3  -6 -12   92.59    8.00
  -6   3  12  100.69    8.00
   6  -3  12  103.59    7.90
   3   3  12  111.79    8.00
  -3   6  12   98.59    8.00
  -3  -3 -12  105.39    8.00
  -6   3 -12   96.29    7.90
  -3  -3 -12  109.39    8.00
  -3   6  12  106.69    7.90
  -6   3 -12  107.09    7.90
   3   3  12   98.19    7.70
  -6   3  12   91.49    7.80
   6  -3 -12  109.09    8.10
  -3   6 -12  112.39    8.00
   3  -6 -12  117.09    8.10
  -3   6 -12  114.69    7.80
   3  -6  12  114.89    8.10
   3   3  12   97.79    8.00
   6  -3  12  104.29    8.10
   3  -6  12  111.49    8.10
   6  -3 -12  110.79    7.90
   6  -4 -12  466.85   30.50
   4  -6  12  437.06   30.50
   2   4  12  405.36   30.40
  -6   4 -12  453.15   30.40
  -2   6 -12  457.65   30.40
   2  -6 -12  426.16   30.30
   2   4  12  465.15   30.20
  -6   4 -12  402.26   30.20
  -4   6  12  449.66   30.30
   2  -6 -12  433.16   30.50
  -6   2  12  389.86   30.30
   6  -2  12  399.86   30.20
   6  -4 -12  400.96   30.30
   6  -2  12  429.76   30.50
   4   2 -12  390.16   30.20
   4  -6  12  435.26   30.30
  -4  -2 -12  469.05   30.40
  -4   6  12  436.16   30.40
   4  -6 -12  452.85   30.50
   6  -2 -12  384.46   30.20
  -6   4  12  434.46   30.30
  -4   6 -12  460.15   30.50
   4   2  12  434.36   30.40
  -6   4  12  456.15   30.40
   6  -4  12  398.66   30.40
   2  -6  12  389.36   30.40
  -2  -4 -12  495.35   30.50
  -2   6  12  447.86   30.20
  -4  -2  12  435.36   30.30
  -2  -4 -12  440.86   30.40
   4   2  12  385.96   30.10
   4  -6 -12  382.66   30.30
   6  -4  12  422.06   30.30
   2  -6  12  484.35   30.40
  -6   2 -12  475.15   30.50
  -6   2 -12  466.95   30.50
  -4   6 -12  462.95   30.20
  -4  -2  12  433.36   30.30
   6  -2 -12  512.55   30.60
  -2   6  12  456.15   30.40
  -6   5 -12  357.66   24.30
  -6   5 -12  340.07   24.10
   1   5  12  331.97   24.20
  -1   6 -12  382.36   24.20
   1   5  12  368.36   24.20
  -1  -5  12  374.06   24.20
  -5   6  12  382.96   24.20
  -1   6 -12  365.26   24.30
  -6   1  12  370.36   24.20
  -5  -1 -12  309.57   24.10
  -6   1  12  307.47   24.20
   1   5  12  308.57   24.00
   5  -6  12  313.17   24.20
  -5   6  12  350.06   24.30
   6  -5 -12  380.26   24.50
   6  -1  12  347.17   24.20
   6  -1  12  355.46   24.40
  -5  -1 -12  325.87   24.20
   6  -5 -12  353.16   24.20
   1  -6 -12  371.16   24.40
   6  -5  12  319.77   24.10
  -6   5  12  365.26   24.40
  -6   1 -12  370.76   24.30
   5   1  12  326.57   24.30
  -1  -5 -12  343.37   24.20
  -5  -1  12  353.16   24.20
  -5   6 -12  342.27   24.30
   5  -6 -12  378.06   24.40
  -1   6  12  318.77   24.00
  -6   5  12  338.17   24.20
   1  -6  12  313.97   24.30
   6  -1 -12  337.77   24.40
  -5  -1  12  366.26   24.30
   6  -5  12  336.27   24.30
  -1  -5 -12  299.97   24.10
   6  -1 -12  342.97   24.00
  -1   6  12  352.26   24.30
   5   1  12  342.47   24.10
   5  -6 -12  335.77   24.20
  -5   6 -12  332.37   24.10
  -6   1 -12  361.86   24.30
   6   0  12 1037.00   70.99
   0  -6 -12  924.21   71.09
  -6   0  12 1091.99   71.29
   0   6  12 1099.99   70.99
  -6   0 -12 1076.59   71.19
   0  -6  12 1001.60   71.09
  -6   0 -12 1001.40   71.09
  -6   0  12  905.71   70.99
   6   0 -12  971.40   71.19
   0  -6 -12  978.90   71.09
   0   6  12 1206.48   71.49
   0   6 -12 1092.99   71.19
   0  -6  12 1116.69   71.29
   6   0  12 1048.90   71.29
  -4   7  12   83.79    6.40
  -4  -3 -12   84.59    6.50
   7  -3  12   73.69    6.40
   7  -4 -12   85.59    6.50
  -7   3  12   77.79    6.60
  -3   7 -12   82.69    6.30
   4  -7  12   97.69    6.70
   3  -7 -12   89.29    6.70
  -4  -3  12   84.49    6.50
  -3  -4 -12   91.99    6.60
  -3   7  12   75.19    6.30
   4   3  12   81.19    6.30
  -4   7 -12   81.79    6.30
   3  -7  12   85.29    6.60
   7  -3 -12   86.09    6.50
   0   0 -13    0.00    0.30
   0   0  13    0.10    0.30
   0   0  13    0.20    0.20
   0   0 -13    0.20    0.30
   1  -1  13    3.40    0.80
   0  -1 -13    2.90    0.70
   0   1  13    3.60    0.80
   1   0  13    1.90    0.70
   0   1  13    3.00    0.80
   1   0 -13    3.00    0.70
   1   0 -13    3.20    0.80
   0  -1  13    2.20    0.70
   1  -1 -13    3.10    0.70
   0  -1  13    2.50    0.70
   0   1 -13    2.60    0.70
  -1   0  13    3.70    0.90
  -1   0  13    2.70    0.70
   1  -1 -13    3.30    0.80
  -1   0 -13    4.50    0.90
  -1   1  13    2.70    0.70
  -1   1  13    2.20    0.70
  -1   1 -13    3.40    0.80
   1   0  13    3.20    0.80
   1  -1  13    2.10    0.60
  -1   1 -13    4.40    0.90
   2  -1 -13    0.10    0.30
  -2   1 -13    0.30    0.30
  -1  -1  13    0.20    0.40
   1  -2 -13    0.20    0.40
  -1   2  13   -0.10    0.30
   1  -2 -13    0.00    0.20
   1   1  13    1.50    0.60
   1   1  13    0.00    0.30
   1  -2  13    0.00    0.30
  -1  -1  13    0.00    0.20
   1  -2  13    0.10    0.30
  -2   1  13    0.00    0.40
  -1  -1 -13    0.10    0.20
  -1  -1 -13    1.30    0.60
  -1   2 -13   -0.10    0.30
   2  -1  13    0.00    0.30
  -2   1 -13    0.50    0.30
  -2   1  13    0.20    0.30
   1   1 -13    0.90    0.40
   1   1 -13    0.10    0.20
   0  -2 -13  160.08   10.80
   0  -2 -13  164.78   10.80
   0   2 -13  134.09   10.60
   2  -2 -13  133.19   10.70
  -2   2  13  162.78   10.70
   0  -2  13  155.38   10.70
   2   0  13  166.98   10.80
   2  -2  13  129.59   10.50
   2  -2  13  157.18   10.90
   2   0 -13  142.59   10.50
   2   0 -13  149.29   10.70
   2   0  13  151.48   10.80
  -2   2  13  157.78   10.70
  -2   2 -13  135.29   10.70
  -2   0  13  132.79   10.60
  -2   0  13  146.79   10.60
   2  -2 -13  155.68   10.70
  -2   0 -13  118.69   10.50
   0   2  13  152.88   10.70
  -2   0 -13  144.49   10.70
   0   2 -13  120.29   10.40
   1  -3 -13   32.10    2.90
  -2  -1 -13   27.30    2.90
   3  -2 -13   33.20    2.90
  -1   3 -13   32.70    2.90
  -3   1  13   32.90    2.90
  -3   2 -13   37.50    3.10
   1  -3 -13   25.80    2.70
   1   2  13   32.00    2.90
   2  -3  13   31.40    2.90
   2  -3  13   27.70    2.80
   3  -2 -13   29.60    2.70
  -1   3 -13   29.40    2.70
   1   2  13   27.60    2.70
  -2   3  13   32.70    2.90
  -1  -2  13   34.50    2.90
   3  -1  13   31.50    2.90
   2   1 -13   31.20    2.70
  -2   3  13   28.70    2.70
  -2  -1 -13   29.50    2.80
  -3   1  13   28.40    2.70
  -3   2 -13   27.60    2.70
   2   1 -13   31.40    2.80
   2   1 -13   24.40    2.70
  -2  -1  13   24.70    2.70
   3  -2  13   37.00    3.10
  -3   1 -13   37.70    3.20
  -1   3  13   30.70    2.80
  -2   3 -13   33.10    2.70
   2   1  13   29.80    2.70
   2   1  13   31.30    2.90
  -3   1 -13   29.20    2.80
  -2   3 -13   32.10    2.90
  -1  -2 -13   29.40    2.80
  -1  -2 -13   34.90    2.90
   3  -1 -13   32.80    2.80
   1  -3  13   25.30    2.80
   3  -1 -13   32.00    2.90
   2  -3 -13   28.60    2.80
  -3   2  13   31.20    2.90
  -2  -1  13   26.00    2.70
   3  -2  13   28.40    2.90
  -3   2  13   31.40    2.80
   2  -3 -13   28.70    2.90
   1   2 -13   34.30    2.80
   1   2 -13   32.00    2.70
   1   2 -13   33.60    2.90
   1  -3  13   29.80    2.80
   3  -3 -13   64.29    5.30
  -3   0  13   68.39    5.40
   0   3 -13   71.79    5.40
   0   3  13   63.79    5.40
  -3   0 -13   73.09    5.40
   3  -3  13   71.09    5.40
   3   0 -13   72.99    5.30
   3   0 -13   68.99    5.20
   3   0  13   70.49    5.50
  -3   0  13   77.29    5.40
   3  -3  13   62.09    5.40
   3   0 -13   79.09    5.50
   0  -3 -13   54.89    5.30
   0   3  13   54.89    5.20
  -3   3  13   60.79    5.20
   0   3 -13   71.89    5.20
  -3   0 -13   63.99    5.40
   0   3 -13   68.59    5.30
  -3   3 -13   64.39    5.20
   0  -3 -13   66.19    5.30
   3   0  13   70.59    5.30
  -2   4 -13    0.00    0.30
   2   2 -13    0.10    0.30
   2  -4 -13    0.00    0.30
   4  -2  13    0.10    0.40
   2  -4  13    0.00    0.40
   2   2  13    0.20    0.30
   2  -4 -13    0.30    0.30
   4  -2  13    0.20    0.30
  -4   2  13    0.10    0.30
  -4   2  13    0.00    0.20
  -2  -2 -13    0.00    0.20
  -2   4 -13    0.20    0.20
   2   2 -13    0.10    0.30
  -4   2 -13    0.50    0.40
  -2  -2  13    1.80    0.60
   2  -4  13    1.00    0.50
   4  -2 -13    0.10    0.30
  -2   4  13   -0.10    0.30
  -2   4  13    0.00    0.20
  -2  -2  13    0.10    0.20
   2   2  13    0.30    0.30
   4  -2 -13    0.40    0.30
  -2  -2 -13    0.00    0.20
  -4   2 -13    0.40    0.30
  -4   1  13   75.99    5.90
  -3  -1 -13   80.29    5.80
   4  -1  13   59.19    5.80
  -1  -3  13   74.89    5.80
  -4   3 -13   79.69    5.90
  -1  -3  13   81.49    6.00
   4  -3 -13   78.19    6.00
   1   3  13   79.99    5.90
   4  -1  13   76.49    5.80
   3   1 -13   78.29    5.80
   3   1 -13   78.19    5.70
   1  -4 -13   60.79    5.80
   3  -4  13   67.89    5.90
   4  -3 -13   67.19    5.70
  -1   4 -13   76.59    5.70
  -3  -1 -13   79.19    6.00
  -3   4  13   73.29    5.70
   1  -4 -13   74.19    6.00
  -4   1  13   59.39    5.70
   3  -4  13   82.49    5.90
   3   1 -13   72.69    5.90
   1   3  13   75.69    5.70
  -1   4 -13   76.19    5.80
  -3   4 -13   72.59    5.80
   3   1  13   75.19    5.70
  -3   4 -13   78.49    5.80
  -1  -3 -13   81.79    5.90
  -1   4  13   80.49    5.80
  -3  -1  13   64.69    5.70
   1   3 -13   75.49    5.80
   3  -4 -13   83.79    6.20
  -4   3  13   61.89    5.70
  -4   1 -13   78.29    5.80
  -4   3  13   65.79    5.70
  -1  -3 -13   74.09    5.90
  -1   4  13   61.99    5.80
  -3  -1  13   78.39    5.90
   4  -3  13   80.89    5.90
   4  -3  13   72.09    5.90
   4  -1 -13   80.99    5.80
   4  -1 -13   78.69    5.90
   1  -4  13   80.99    5.90
  -4   1 -13   67.39    5.90
   1  -4  13   75.99    5.90
   1   3 -13   75.09    5.70
   4   0 -13  202.48   14.60
   4  -4  13  187.08   14.80
  -4   4 -13  174.08   14.60
   4   0 -13  216.48   14.90
  -4   0  13  198.78   14.80
   0   4  13  212.18   14.90
   0   4 -13  222.58   14.80
   0   4 -13  180.98   14.80
   4  -4  13  213.58   15.00
   0  -4  13  210.88   14.90
  -4   4  13  170.68   14.70
   4   0  13  212.88   14.80
   0   4  13  217.08   14.80
   0  -4  13  211.08   14.80
  -4   0  13  215.48   14.90
   4   0 -13  214.18   14.80
   0  -4 -13  233.18   14.90
  -4   0 -13  234.68   15.00
  -4   0 -13  231.98   15.00
   4   0  13  203.18   14.90
  -4   4 -13  183.98   14.80
   4  -4 -13  207.18   14.80
   0  -4 -13  185.18   14.80
   4  -4 -13  235.48   15.10
   3   2 -13   32.50    2.50
  -3   5  13   33.30    2.90
  -3  -2 -13   29.10    2.70
   2  -5 -13   30.30    2.80
   5  -2  13   27.30    2.60
  -5   3 -13   26.20    2.70
  -3   5  13   28.80    2.60
   5  -2  13   21.10    2.60
  -3  -2 -13   27.50    2.70
  -5   2  13   32.40    2.80
   2  -5 -13   30.00    2.80
   3  -5  13   29.10    2.80
   3  -5  13   22.90    2.60
  -2  -3  13   29.90    2.70
   3   2 -13   24.40    2.60
  -5   2  13   27.90    2.70
  -2   5 -13   30.30    2.50
   5  -3 -13   30.00    2.70
   5  -3 -13   24.00    2.70
  -2   5 -13   31.10    2.80
  -2  -3  13   29.90    2.80
   2   3  13   35.40    2.90
   2   3  13   30.60    2.60
  -3   5 -13   29.30    2.60
  -2  -3 -13   31.70    2.70
   3   2  13   29.50    2.60
   5  -2 -13   26.60    2.60
   3  -5 -13   25.70    2.70
  -5   2 -13   24.10    2.70
  -2   5  13   31.80    2.80
   3  -5 -13   30.30    2.80
   5  -2 -13   31.50    2.80
   3   2  13   24.70    2.70
  -5   3  13   29.30    2.70
  -3  -2  13   26.20    2.60
  -3   5 -13   29.50    2.80
  -2  -3 -13   30.00    2.80
   2   3 -13   29.00    2.70
  -5   3  13   26.00    2.70
  -5   2 -13   26.40    2.60
   2  -5  13   25.60    2.70
   5  -3  13   23.90    2.70
  -3  -2  13   23.20    2.60
  -2   5  13   28.00    2.60
   2   3 -13   28.90    2.40
   5  -3  13   31.80    2.70
  -1   5 -13   84.69    6.30
  -5   1  13   80.49    6.40
  -5   4 -13   87.29    6.50
   1  -5 -13   78.99    6.50
   1   4  13   83.29    6.30
   1  -5 -13   89.09    6.60
   5  -4 -13   80.19    6.40
  -4  -1 -13   94.29    6.70
   5  -4 -13   79.09    6.60
   4  -5  13   79.79    6.60
   4  -5  13   90.29    6.50
  -1  -4  13   86.09    6.40
  -1  -4  13   77.09    6.50
  -4  -1 -13   88.89    6.50
  -4   5  13   87.79    6.60
   4   1 -13   79.59    6.20
  -5   4 -13   77.89    6.30
   5  -1  13   86.19    6.40
  -4   5  13   70.99    6.30
   1   4  13   80.69    6.50
   4   1 -13   83.29    6.50
  -5   1  13   89.29    6.50
   5  -1  13   77.19    6.50
  -5   4  13   68.19    6.30
  -1   5  13   84.99    6.50
  -1   5  13   90.49    6.40
  -1  -4 -13   83.69    6.50
   1  -5  13   89.69    6.50
  -5   4  13   85.59    6.50
   4   1  13   77.09    6.30
   5  -1 -13   82.99    6.30
   5  -4  13   83.19    6.40
  -5   1 -13   84.79    6.50
   5  -4  13   81.29    6.60
  -4   5 -13   74.89    6.40
   1   4 -13   83.99    6.20
   4  -5 -13   86.69    6.70
  -4   5 -13   84.49    6.40
  -4  -1  13   71.99    6.30
  -4  -1  13   88.39    6.50
   5  -1 -13   77.89    6.50
   1   4 -13   83.49    6.50
   5  -1 -13  101.79    6.90
   4   1  13   87.59    6.60
   0  -5 -13   30.30    2.90
   0  -5 -13   32.60    2.90
   0  -5  13   25.80    2.80
   5   0 -13   29.60    2.60
  -5   0 -13   31.70    2.90
  -5   0 -13   33.50    2.90
   0   5  13   32.10    2.70
   0  -5  13   22.30    2.70
  -5   0  13   31.80    2.80
   0   5 -13   31.20    2.80
  -5   5 -13   28.70    2.70
  -5   0  13   26.90    2.80
   5   0  13   29.70    2.90
   5   0 -13   31.10    2.90
   5   0  13   27.30    2.70
  -3  -3  13    0.20    0.40
  -6   3  13   -0.30    0.30
  -3  -3 -13    0.30    0.30
  -3  -3  13    0.10    0.30
   3   3  13    0.10    0.30
   6  -3 -13    0.00    0.30
  -3   6 -13   -0.10    0.20
   3   3 -13    0.10    0.20
  -3  -3 -13    0.00    0.20
   3   3  13    0.00    0.20
   6  -3 -13    0.00    0.20
   3  -6  13    1.10    0.60
  -6   3  13    0.10    0.40
  -3   6  13    0.10    0.20
   3  -6  13   -0.10    0.20
  -3   6 -13    0.10    0.20
   0   0 -14  103.79    7.00
   0   0 -14   83.49    6.50
   0   0  14   86.79    6.60
   0   0  14   73.59    6.60
   1   0 -14   33.20    3.10
  -1   0 -14   32.60    3.10
   0  -1  14   33.70    3.00
  -1   1  14   33.60    3.00
   0   1  14   38.50    3.20
   1  -1  14   35.00    3.00
   0   1 -14   34.80    3.10
   1   0 -14   27.30    2.90
   1  -1 -14   35.20    3.00
   1   0  14   31.40    3.10
   1  -1 -14   36.90    3.10
   1   0  14   27.10    2.90
   0   1 -14   34.20    3.00
  -1   0  14   36.30    3.20
   1  -1  14   33.90    3.10
   0  -1  14   30.70    3.00
  -1   1 -14   29.40    2.90
  -1   1 -14   37.30    3.10
  -1   0 -14   38.90    3.10
   0   1  14   36.70    3.00
   0  -1 -14   31.10    3.00
  -1   1  14   35.00    3.10
  -1   0  14   31.70    2.90
  -1  -1  14 1085.99   77.99
   2  -1  14 1265.97   78.39
  -2   1 -14 1040.90   78.09
   1   1 -14 1019.90   78.19
   2  -1 -14 1087.79   77.99
  -1   2 -14 1252.47   78.19
  -2   1  14 1225.68   78.09
  -1  -1  14 1259.37   78.19
  -1  -1 -14 1136.49   78.19
  -2   1 -14 1173.68   78.09
  -1  -1 -14 1236.08   78.09
   1   1 -14 1139.39   77.99
   1  -2 -14 1217.38   78.09
   2  -1 -14 1158.98   78.09
   1  -2  14  979.20   77.89
  -2   1  14  970.60   77.99
  -1   2 -14 1159.38   77.99
   1  -2  14 1073.29   78.19
   1   1  14 1292.17   78.09
   1   1  14 1119.49   78.19
  -1   2  14 1098.89   77.99
   0  -2 -14 1170.48   80.99
   0  -2 -14 1111.49   81.09
   0  -2  14 1062.79   81.09
   0   2 -14 1157.58   81.09
   2   0 -14 1210.88   81.09
   2  -2 -14 1235.68   81.19
  -2   2  14 1268.27   81.09
   2   0  14 1287.17   81.09
   2  -2  14 1032.10   80.99
  -2   2 -14 1102.49   81.19
  -2   0 -14 1290.07   81.19
   0   2  14 1306.27   81.09
   2   0 -14 1034.90   80.89
  -2   0  14 1288.37   81.19
  -2   2 -14 1117.59   80.89
   2  -2 -14 1078.09   80.99
   0  -2  14 1138.59   80.99
  -2   0  14 1177.78   80.99
  -2   0 -14 1210.68   81.09
   0   2  14 1315.27   81.19
   2   0  14 1343.27   81.39
  -2   2  14 1165.48   81.09
   2   1 -14    3.80    0.80
   3  -2 -14    5.70    1.10
   1  -3 -14    2.80    0.80
  -3   2 -14    6.40    1.20
   1  -3 -14    4.30    1.00
   2  -3  14    4.60    1.00
   3  -1  14    6.60    1.20
   1   2  14    3.30    0.80
   2  -3  14    3.20    0.80
  -1   3 -14    4.40    0.80
  -1  -2  14    3.00    0.90
  -1   3 -14    4.30    1.00
   1   2  14    3.10    0.80
   3  -2 -14    4.50    0.90
  -3   2 -14    2.00    0.60
  -2   3  14    3.60    0.80
  -2  -1 -14    2.60    0.80
  -3   1  14    2.70    0.70
  -3   1  14    4.60    1.00
  -2  -1 -14    2.10    0.70
   2   1 -14    3.00    0.80
  -3   2  14    4.70    0.90
   1  -3  14    2.90    0.80
  -3   1 -14    2.80    0.80
  -2  -1  14    3.50    0.80
   2  -3 -14    4.50    1.00
  -3   2  14    3.80    0.80
   2   1  14    3.50    0.80
  -1   3  14    3.00    0.80
  -1  -2 -14    3.30    0.80
   2  -3 -14    3.10    0.80
  -3   1 -14    5.20    1.10
   1   2 -14    5.90    0.80
  -2   3 -14    3.90    0.80
   2   1  14    2.20    0.80
   3  -1 -14    3.80    0.90
  -1   3  14    3.00    0.80
   1  -3  14    3.40    0.80
   3  -1 -14    3.70    0.80
   3  -2  14    3.10    0.80
  -1  -2 -14    2.70    0.80
  -2   3 -14    6.60    1.20
  -3   0  14  785.42   50.99
   3   0 -14  691.33   50.19
   0   3 -14  826.42   50.79
   3  -3 -14  718.53   50.49
   3   0  14  789.12   50.49
   3  -3  14  698.13   50.39
   3  -3 -14  754.22   50.39
   3  -3  14  669.43   50.49
  -3   3 -14  629.94   50.39
   0  -3 -14  772.32   50.39
   0  -3 -14  787.82   50.49
   3   0 -14  738.83   50.49
  -3   3  14  730.83   50.49
   0   3 -14  739.73   50.29
  -3   0 -14  727.93   50.59
   0   3  14  719.53   50.29
  -3   3 -14  671.63   50.29
  -3   0 -14  828.12   50.49
   3   0  14  765.52   50.59
  -3   0  14  629.34   50.29
   0   3  14  680.73   50.39
  -3   3  14  780.52   50.39
  -2  -2  14    2.50    0.80
   2   2 -14    2.90    0.70
   4  -2 -14    2.90    0.80
   2   2  14    3.60    0.80
   4  -2  14    3.40    0.90
   2   2 -14    3.50    0.80
  -4   2  14    2.50    0.70
  -4   2  14    3.40    0.80
   2   2  14    2.90    0.90
   2  -4  14    2.10    0.70
  -2  -2 -14    2.40    0.70
   4  -2 -14    2.70    0.70
  -2   4  14    3.30    0.90
   2  -4 -14    2.70    0.90
   2  -4  14    2.60    0.80
  -2   4 -14    3.30    0.90
  -2  -2 -14    2.40    0.70
  -2   4 -14    3.90    0.80
  -1   4 -14    0.20    0.20
   3  -4  14    1.70    0.60
  -3  -1 -14    0.70    0.50
   1   3  14    0.10    0.30
  -1  -3  14    0.50    0.40
  -1   4 -14    0.10    0.30
   4  -3 -14    0.10    0.30
   3   1 -14    0.10    0.20
   4  -1  14    0.20    0.30
  -3  -1 -14    0.00    0.20
   1   3  14    1.70    0.50
   3  -4  14    0.00    0.40
   3   1 -14    1.30    0.50
  -4   1  14    0.00    0.30
   3   1 -14    0.10    0.30
   4  -3 -14    0.10    0.20
  -4   1  14    0.10    0.20
  -1  -3  14    0.00    0.30
   3   1  14    2.30    0.70
  -1  -3 -14    0.10    0.20
  -3   4 -14    1.90    0.50
   1  -4  14    0.10    0.40
   3   1  14    0.00    0.40
   4  -1 -14    0.10    0.30
  -1   4  14   -0.10    0.20
  -1  -3 -14    0.10    0.30
   1  -4  14    0.40    0.40
  -3   4 -14    0.00    0.30
  -4   3  14    0.20    0.30
   1   3 -14    0.10    0.30
  -3  -1  14    0.10    0.30
   1   3 -14    0.60    0.40
  -3  -1  14    0.10    0.40
  -1   4  14    0.10    0.30
   4  -1 -14    0.10    0.20
   4   0  14  775.42   56.59
  -4   0  14  849.41   56.79
  -4   0  14  896.61   56.99
   0   4  14  876.61   56.89
   4   0 -14  806.82   56.59
   4   0 -14  718.83   56.69
   0   4 -14  855.81   56.99
   0  -4 -14  852.71   56.89
   0   4 -14  807.42   56.49
   0  -4  14  828.52   56.79
   0   0 -15    0.00    0.20
   0   0 -15    0.10    0.30
   0   0  15    0.10    0.30
   0   0  15    0.60    0.40
   1  -1  15   15.70    1.90
   0  -1  15   13.60    1.70
   1   0 -15   17.30    1.80
   1   0 -15   15.20    1.80
   0  -1  15   12.70    1.60
   0   1 -15   14.10    1.60
   0   1 -15   13.50    1.70
   1  -1 -15   11.70    1.60
  -1   0  15   13.80    1.70
  -1   0  15   15.90    1.80
  -1   1 -15   15.50    1.70
  -1   1 -15   15.20    1.90
   1   1 -15    0.10    0.20
  -1  -1  15    0.10    0.20
  -1  -1  15    0.10    0.30
   1   1 -15    0.10    0.30
  -1   2 -15    0.10    0.30
  -1   2 -15   -0.20    0.30
   1  -2  15   -0.10    0.40
   2  -1 -15    0.00    0.20
   0  -2  15    1.50    0.60
   0  -2  15    3.00    0.90
   0   2 -15    3.60    0.80
   0   2 -15    3.00    0.80
   2   0 -15    1.50    0.60
  -2   0  15    3.50    0.80
  -2   0  15    2.60    0.80
   2   0 -15    3.20    0.80
   0   0   0    0.00    0.00

_computing_structure_solution     'SHELXT 2014/5 (Sheldrick, 2014)'
;
_shelx_hkl_checksum              9305
loop_
_space_group_symop_operation_xyz
'x, y, z'
'-y, x-y, z'
'-x+y, -x, z'
'-x, -y, z+1/2'
'y, -x+y, z+1/2'
'x-y, x, z+1/2'
'y, x, -z'
'x-y, -y, -z'
'-x, -x+y, -z'
'-y, -x, -z+1/2'
'-x+y, y, -z+1/2'
'x, x-y, -z+1/2'
'-x, -y, -z'
'y, -x+y, -z'
'x-y, x, -z'
'x, y, -z-1/2'
'-y, x-y, -z-1/2'
'-x+y, -x, -z-1/2'
'-y, -x, z'
'-x+y, y, z'
'x, x-y, z'
'y, x, z-1/2'
'x-y, -y, z-1/2'
'-x, -x+y, z-1/2'
loop_
_atom_site_label
_atom_site_type_symbol
_atom_site_fract_x
_atom_site_fract_y
_atom_site_fract_z
_atom_site_U_iso_or_equiv
_atom_site_adp_type
_atom_site_occupancy
_atom_site_site_symmetry_order
_atom_site_calc_flag
_atom_site_refinement_flags_posn
_atom_site_refinement_flags_adp
_atom_site_refinement_flags_occupancy
_atom_site_disorder_assembly
_atom_site_disorder_group
Br1 Br 0.6667 0.3333 0.7500 0.01631(13) Uani 1 12 d S T P . .
Cu1 Cu 0.5000 0.5000 0.5000 0.01292(12) Uani 1 4 d S T P A .
Cu2 Cu 0.62890(6) 0.25780(12) 0.2500 0.01058(13) Uani 0.3333 4 d S T P A 2
O1 O 0.40421(13) 0.20211(7) 0.40810(7) 0.01178(16) Uani 1 2 d DS T P . .
F1 F 0.0000 0.0000 0.2500 0.0233(4) Uani 1 12 d S T P . .
H1 H 0.267(3) 0.1337(17) 0.374(2) 0.035 Uiso 1 2 d DRS T P . .
loop_
_atom_site_aniso_label
_atom_site_aniso_U_11
_atom_site_aniso_U_22
_atom_site_aniso_U_33
_atom_site_aniso_U_23
_atom_site_aniso_U_13
_atom_site_aniso_U_12
Br1 0.01815(15) 0.01815(15) 0.01264(16) 0.000 0.000 0.00907(7)
Cu1 0.00968(13) 0.00968(13) 0.02005(16) -0.00179(3) 0.00179(3) 0.00531(8)
Cu2 0.00984(17) 0.0158(2) 0.00808(19) 0.000 0.000 0.00791(12)
O1 0.0104(3) 0.0102(2) 0.0148(3) -0.00090(11) -0.0018(2) 0.00521(16)
F1 0.0182(5) 0.0182(5) 0.0335(11) 0.000 0.000 0.0091(3)
loop_
_atom_type_symbol
_atom_type_description
_atom_type_scat_dispersion_real
_atom_type_scat_dispersion_imag
_atom_type_scat_source
Br Br 0.2860 0.9640 'International Tables Vol C Tables 4.2.6.8 and 6.1.1.4'
Cu Cu 0.2470 0.4710 'International Tables Vol C Tables 4.2.6.8 and 6.1.1.4'
F F 0.0040 0.0030 'International Tables Vol C Tables 4.2.6.8 and 6.1.1.4'
H H 0.0000 0.0000 'International Tables Vol C Tables 4.2.6.8 and 6.1.1.4'
O O 0.0020 0.0020 'International Tables Vol C Tables 4.2.6.8 and 6.1.1.4'
loop_
_geom_angle_atom_site_label_1
_geom_angle_atom_site_label_2
_geom_angle_atom_site_label_3
_geom_angle
_geom_angle_site_symmetry_1
_geom_angle_site_symmetry_3
Cu2 Cu1 Cu2 180.0 15_556 3_665
O1 Cu1 Cu2 133.67(2) . 15_556
O1 Cu1 Cu2 46.33(2) . 3_665
O1 Cu1 Cu2 46.33(2) 3_665 3_665
O1 Cu1 Cu2 133.67(2) 3_665 15_556
O1 Cu1 Cu2 46.33(2) 13_666 15_556
O1 Cu1 Cu2 133.67(2) 15_556 3_665
O1 Cu1 Cu2 133.67(2) 13_666 3_665
O1 Cu1 Cu2 46.33(2) 15_556 15_556
O1 Cu1 O1 84.47(4) . 3_665
O1 Cu1 O1 180.00(5) . 13_666
O1 Cu1 O1 95.53(4) . 15_556
O1 Cu1 O1 180.0 15_556 3_665
O1 Cu1 O1 84.47(4) 13_666 15_556
O1 Cu1 O1 95.53(4) 13_666 3_665
Cu1 Cu2 Cu1 114.64(3) 5_554 2_655
Cu2 Cu2 Cu1 117.880(10) 2_655 2_655
Cu2 Cu2 Cu1 117.878(10) 3_665 2_655
Cu2 Cu2 Cu1 117.880(10) 2_655 5_554
Cu2 Cu2 Cu1 117.878(10) 3_665 5_554
Cu2 Cu2 Cu2 60.0 2_655 3_665
Cu2 Cu2 O1 117.94(2) 2_655 16_556
Cu2 Cu2 O1 117.94(2) 2_655 .
Cu2 Cu2 O1 79.088(19) 2_655 17_656
Cu2 Cu2 O1 117.94(2) 3_665 17_656
Cu2 Cu2 O1 117.94(2) 3_665 2_655
Cu2 Cu2 O1 79.085(19) 3_665 .
Cu2 Cu2 O1 79.088(19) 2_655 2_655
Cu2 Cu2 O1 79.085(19) 3_665 16_556
O1 Cu2 Cu1 122.15(3) 2_655 5_554
O1 Cu2 Cu1 122.15(3) . 5_554
O1 Cu2 Cu1 45.070(13) 16_556 5_554
O1 Cu2 Cu1 122.15(3) 16_556 2_655
O1 Cu2 Cu1 45.071(13) 17_656 5_554
O1 Cu2 Cu1 45.071(13) 2_655 2_655
O1 Cu2 Cu1 45.070(13) . 2_655
O1 Cu2 Cu1 122.15(3) 17_656 2_655
O1 Cu2 O1 94.72(4) 2_655 17_656
O1 Cu2 O1 82.28(4) 2_655 .
O1 Cu2 O1 94.72(4) 16_556 .
O1 Cu2 O1 161.44(4) 16_556 2_655
O1 Cu2 O1 82.28(4) 16_556 17_656
O1 Cu2 O1 161.44(4) 17_656 .
Cu1 O1 Cu1 117.24(3) . 2_655
Cu1 O1 Cu2 107.39(4) . .
Cu1 O1 Cu2 88.60(2) 2_655 .
Cu1 O1 Cu2 88.60(2) . 3_665
Cu1 O1 Cu2 107.39(4) 2_655 3_665
Cu2 O1 Cu2 21.83(4) . 3_665
loop_
_geom_bond_atom_site_label_1
_geom_bond_atom_site_label_2
_geom_bond_distance
_geom_bond_site_symmetry_2
Cu1 Cu2 2.7582(4) 3_665
Cu1 Cu2 2.7582(4) 15_556
Cu1 O1 1.9533(4) 3_665
Cu1 O1 1.9533(4) .
Cu1 O1 1.9533(4) 13_666
Cu1 O1 1.9533(4) 15_556
Cu2 Cu1 2.7582(4) 2_655
Cu2 Cu1 2.7582(4) 5_554
Cu2 Cu2 0.7557(12) 2_655
Cu2 Cu2 0.7557(12) 3_665
Cu2 O1 1.9957(7) .
Cu2 O1 1.9957(7) 2_655
Cu2 O1 1.9957(7) 16_556
Cu2 O1 1.9957(7) 17_656
O1 Cu1 1.9533(4) 2_655
O1 Cu2 1.9957(7) 3_665
