#------------------------------------------------------------------------------
#$Date: 2021-03-03 10:12:29 +0200 (Wed, 03 Mar 2021) $
#$Revision: 262382 $
#$URL: file:///home/coder/svn-repositories/cod/cif/1/56/07/1560771.cif $
#------------------------------------------------------------------------------
#
# This file is available in the Crystallography Open Database (COD),
# http://www.crystallography.net/
#
# All data on this site have been placed in the public domain by the
# contributors.
#
data_1560771
loop_
_publ_author_name
'Smaha, Rebecca W.'
'He, Wei'
'Sheckelton, John P.'
'Wen, Jiajia'
'Lee, Young S.'
_publ_section_title
;
 Synthesis-dependent properties of barlowite and Zn-substituted barlowite
;
_journal_name_full               'Journal of Solid State Chemistry'
_journal_page_first              123
_journal_page_last               129
_journal_paper_doi               10.1016/j.jssc.2018.08.016
_journal_volume                  268
_journal_year                    2018
_chemical_formula_moiety         '1(Br1), Cu3.67 H6 O6 Zn0.33, 1(F1)'
_chemical_formula_sum            'Br Cu3.67 F H6 O6 Zn0.34'
_chemical_formula_weight         455.73
_space_group_crystal_system      hexagonal
_space_group_IT_number           194
_space_group_name_Hall           '-P 6c 2c'
_space_group_name_H-M_alt        'P 63/m m c'
_atom_sites_solution_hydrogens   difmap
_cell_angle_alpha                90
_cell_angle_beta                 90
_cell_angle_gamma                120
_cell_formula_units_Z            2
_cell_length_a                   6.6680(4)
_cell_length_b                   6.6680(4)
_cell_length_c                   9.3036(6)
_cell_measurement_reflns_used    5358
_cell_measurement_temperature    296(2)
_cell_measurement_theta_max      26.255
_cell_measurement_theta_min      2.414
_cell_volume                     358.24(4)
_computing_cell_refinement       'SAINT V8.38A (?, 2016)'
_computing_data_reduction        'SAINT V8.38A (?, 2016)'
_computing_molecular_graphics    'Olex2 (Dolomanov et al., 2009)'
_computing_publication_material  'Olex2 (Dolomanov et al., 2009)'
_computing_structure_refinement  'XL (Sheldrick, 2008)'
_diffrn_ambient_temperature      296.15
_diffrn_measured_fraction_theta_full 1.000
_diffrn_measured_fraction_theta_max 1.000
_diffrn_measurement_device_type  'Bruker APEX-II CCD'
_diffrn_measurement_method       '\f and \w scans'
_diffrn_radiation_type           synchrotron
_diffrn_radiation_wavelength     0.41328
_diffrn_reflns_av_R_equivalents  0.1297
_diffrn_reflns_av_unetI/netI     0.0398
_diffrn_reflns_Laue_measured_fraction_full 1.000
_diffrn_reflns_Laue_measured_fraction_max 1.000
_diffrn_reflns_limit_h_max       13
_diffrn_reflns_limit_h_min       -12
_diffrn_reflns_limit_k_max       13
_diffrn_reflns_limit_k_min       -10
_diffrn_reflns_limit_l_max       18
_diffrn_reflns_limit_l_min       -18
_diffrn_reflns_number            21380
_diffrn_reflns_point_group_measured_fraction_full 1.000
_diffrn_reflns_point_group_measured_fraction_max 1.000
_diffrn_reflns_theta_full        14.357
_diffrn_reflns_theta_max         24.411
_diffrn_reflns_theta_min         2.051
_diffrn_standards_number         0
_exptl_absorpt_coefficient_mu    3.928
_exptl_absorpt_correction_T_max  0.9583
_exptl_absorpt_correction_T_min  0.7492
_exptl_absorpt_correction_type   multi-scan
_exptl_absorpt_process_details
;  
 'SADABS-2016/2 (Bruker,2016/2) was used for absorption correction. 
wR2(int) was 0.1357 before and 0.1034 after correction. The Ratio 
of minimum to maximum transmission is 0.7818. The \l/2 correction 
factor is Not present.'
;
_exptl_crystal_colour            'clear bluish green'
_exptl_crystal_colour_lustre     clear
_exptl_crystal_colour_modifier   bluish
_exptl_crystal_colour_primary    green
_exptl_crystal_density_diffrn    4.225
_exptl_crystal_description       hexagonal
_exptl_crystal_F_000             429
_exptl_crystal_size_max          0.07
_exptl_crystal_size_mid          0.06
_exptl_crystal_size_min          0.03
_refine_diff_density_max         1.967
_refine_diff_density_min         -1.630
_refine_diff_density_rms         0.336
_refine_ls_extinction_coef       0.062(8)
_refine_ls_extinction_expression Fc^*^=kFc[1+0.001xFc^2^\l^3^/sin(2\q)]^-1/4^
_refine_ls_extinction_method     'SHELXL-2014/7 (Sheldrick 2014'
_refine_ls_goodness_of_fit_ref   1.155
_refine_ls_hydrogen_treatment    refxyz
_refine_ls_matrix_type           full
_refine_ls_number_parameters     22
_refine_ls_number_reflns         614
_refine_ls_number_restraints     1
_refine_ls_restrained_S_all      1.156
_refine_ls_R_factor_all          0.0349
_refine_ls_R_factor_gt           0.0328
_refine_ls_shift/su_max          0.000
_refine_ls_shift/su_mean         0.000
_refine_ls_structure_factor_coef Fsqd
_refine_ls_weighting_details
'w=1/[\s^2^(Fo^2^)+(0.0345P)^2^+0.1910P] where P=(Fo^2^+2Fc^2^)/3'
_refine_ls_weighting_scheme      calc
_refine_ls_wR_factor_gt          0.0771
_refine_ls_wR_factor_ref         0.0786
_reflns_Friedel_coverage         0.000
_reflns_Friedel_fraction_full    .
_reflns_Friedel_fraction_max     .
_reflns_number_gt                556
_reflns_number_total             614
_reflns_threshold_expression     'I > 2\s(I)'
_cod_data_source_file            JSSC-2018-268-123.cif
_cod_data_source_block           'data_Zn-2disorder_RS109'
_cod_original_cell_volume        358.24(5)
_cod_original_formula_sum        'Br Cu3.67 H6 F O6 Zn0.34'
_cod_database_code               1560771
_shelx_space_group_comment
;
The symmetry employed for this shelxl refinement is uniquely defined
by the following loop, which should always be used as a source of
symmetry information in preference to the above space-group names.
They are only intended as comments.
;
_shelx_estimated_absorpt_t_max   0.891
_shelx_estimated_absorpt_t_min   0.771
_olex2_refinement_description
;
1. Fixed Uiso
 At 1.5 times of:
  All Zn(H) groups
2. Shared sites
{Cu2, Zn1}
3. Restrained distances
 O1-H1
 0.9 with sigma of 0.02
4. Uiso/Uaniso restraints and constraints
Uanis(Cu2) = Uanis(Zn1)
5. Others
 Fixed Sof: Zn1(0.02778) Cu2(0.05556)
;
_shelx_res_file
;
    disorder.res created by SHELXL-2014/7

TITL unmerged_a.res in P6(3)/mmc
REM Old TITL unmerged in P6(3)/mmc
REM SHELXT solution in P6(3)/mmc
REM R1 0.183, Rweak 0.002, Alpha 0.033, Orientation as input
REM Formula found by SHELXT: Br Cu F7 Zn3
CELL 0.41328 6.668 6.668 9.3036 90 90 120
ZERR 2 0.0004 0.0004 0.0006 0 0 0
LATT 1
SYMM -Y,+X-Y,+Z
SYMM +Y-X,-X,+Z
SYMM -X,-Y,0.5+Z
SYMM +Y,-X+Y,0.5+Z
SYMM -Y+X,+X,0.5+Z
SYMM +Y,+X,-Z
SYMM -Y+X,-Y,-Z
SYMM -X,-X+Y,-Z
SYMM -Y,-X,0.5-Z
SYMM +Y-X,+Y,0.5-Z
SYMM +X,+X-Y,0.5-Z
SFAC Br Cu F H O Zn
DISP Br 0.286 0.964 2319.32
DISP Cu 0.247 0.471 1146.04
DISP F 0.004 0.003 14.4
DISP H 0 0 0.64
DISP O 0.002 0.002 10.24
DISP Zn 0.26 0.537 1303.9
UNIT 2 7.33 2 12 12 0.67
DFIX 0.9 O1 H1
EADP Cu2 Zn1
EXYZ Cu2 Zn1

L.S. 20
PLAN  5
SIZE 0.03 0.06 0.07
TEMP 23
BOND $H
fmap 2
acta
REM <olex2.extras>
REM <HklSrc "%.\\disorder.hkl">
REM </olex2.extras>

WGHT    0.034500    0.191000
EXTI    0.061583
FVAR       0.47577
BR1   1    0.666667    0.333333    0.750000    10.08333    0.01671    0.01671 =
         0.01157    0.00000    0.00000    0.00835
PART 1
ZN1   6    0.359244    0.718488    0.750000    10.02778    0.01505    0.04757 =
         0.00624    0.00000    0.00000    0.02378
PART 0
H1    4    0.132175    0.264349    0.629418    10.50000   -1.50000
CU1   2    0.500000    0.500000    0.500000    10.25000    0.00834    0.00834 =
         0.01542   -0.00170    0.00170    0.00450
PART 2
CU2   2    0.359244    0.718488    0.750000    10.05556    0.01505    0.04757 =
         0.00624    0.00000    0.00000    0.02378
PART 0
O1    5    0.202101    0.404203    0.592102    10.50000    0.00890    0.00924 =
         0.01265    0.00152    0.00076    0.00462

F1    3    0.000000    0.000000    0.750000    10.08333    0.01593    0.01593 =
         0.02838    0.00000    0.00000    0.00796
HKLF 4

REM  unmerged_a.res in P6(3)/mmc
REM R1 =  0.0328 for     556 Fo > 4sig(Fo)  and  0.0349 for all     614 data
REM     22 parameters refined using      1 restraints

END

WGHT      0.0343      0.1958

REM Highest difference peak  1.967,  deepest hole -1.630,  1-sigma level  0.336
Q1    1   0.7603  0.3802  0.8306  10.50000  0.05    0.89
Q2    1   0.3812  0.7623  0.8400  10.50000  0.05    0.88
Q3    1   0.5447  0.2723  0.7500  10.25000  0.05    0.81
Q4    1   0.0000  0.0000  0.8113  10.16667  0.05    0.78
Q5    1   0.8897  0.2569  0.7500  10.50000  0.05    0.78
;
_shelx_res_checksum              59953
_shelx_hkl_file
;
   3  -2   0  371.86   31.60
   3  -2   0  329.77   31.40
  -3   2   0  419.86   31.60
   1  -3   0  358.56   31.40
   1  -3   0  366.66   31.20
   3  -1   0  413.16   31.40
   3  -1   0  421.76   31.50
   3  -1   0  418.46   31.60
  -3   1   0  414.26   31.60
  -2   3   0  322.27   31.40
  -2   3   0  360.76   31.50
  -2   3   0  408.36   31.40
   3  -1   0  414.46   31.60
   3   0   0   92.09    8.00
   3   0   0   97.09    8.20
  -3   0   0   97.79    8.20
  -3   3   0  100.59    8.50
  -3   3   0  106.09    8.50
   3   0   0   82.99    8.00
   3  -3   0  104.89    8.50
   0   3   0  104.49    8.00
   3  -3   0   94.29    8.50
   3   0   0   91.59    8.30
  -4   3   0  370.86   30.70
   5  -2   0 1018.70   74.99
  -5   3   0  940.41   75.09
   3  -5   0  932.01   74.99
  -2   5   0  801.32   74.59
   4   1   0  135.09   10.70
   5  -4   0  129.39   11.10
   4   1   0  137.69   10.70
   5  -1   0  118.89   10.60
   5  -1   0  137.69   10.80
   1   4   0  113.89   10.10
   4  -5   0  119.89   11.20
  -5   1   0  134.79   11.00
  -5   1   0  114.39   10.80
  -4   5   0  128.79   11.20
   5  -1   0  114.89   10.90
  -4   5   0  145.99   11.00
  -5   4   0  136.39   11.30
  -1   5   0  124.19   10.70
   5  -4   0  119.59   11.20
   1   4   0  121.59   10.10
  -1   5   0  103.69   10.60
  -4   5   0  134.39   11.00
  -5   5   0   21.70    2.90
   5   0   0   23.70    2.70
   5  -5   0   18.10    2.90
   0   5   0   23.20    2.30
   5  -5   0   21.60    2.90
  -5   5   0   24.20    2.90
   0   5   0   22.50    2.20
   5   0   0   19.90    2.60
  -5   0   0   25.10    2.60
   3  -6   0  286.57   24.50
  -6   3   0  286.87   24.90
   6  -3   0  297.47   24.90
  -6   3   0  304.67   24.80
  -3   6   0  295.37   24.60
  -3   6   0  269.97   24.10
   6  -3   0  320.87   24.70
  -4   6   0 1016.80   74.79
   6  -2   0  892.81   74.49
   6  -4   0  909.61   74.69
  -6   2   0  919.11   74.49
   6  -2   0  967.70   74.39
  -2   6   0  907.91   74.19
  -6   4   0  904.01   74.69
  -6   4   0  894.71   74.49
   6  -2   0  763.62   74.09
  -6   2   0  861.91   74.29
   4  -6   0  900.01   74.39
   6  -2   0 1003.80   74.69
   6  -4   0  904.81   74.49
   4  -6   0  971.20   74.69
  -4   6   0  905.21   74.49
  -6   1   0  537.75   42.80
   6  -1   0  560.14   42.40
  -6   5   0  533.75   42.90
   5   1   0  481.85   42.30
   6  -5   0  492.45   42.80
  -6   5   0  508.95   43.00
   6  -1   0  567.84   42.90
   6  -1   0  540.65   42.70
  -6   1   0  501.95   42.60
   6  -1   0  513.45   42.20
   6  -5   0  512.05   43.10
  -1   6   0  527.55   42.30
   5   1   0  512.15   42.40
   5  -6   0  507.45   43.10
  -5   6   0  517.05   42.60
  -5   6   0  478.25   42.90
  -6   6   0 1060.89   86.69
  -7   3   0  164.98   13.50
  -4   7   0  154.28   13.30
  -3   7   0  126.89   13.10
   4  -7   0  170.48   13.30
   7  -4   0  141.19   13.50
  -7   3   0  160.48   13.60
  -4   7   0  168.28   12.90
   4  -7   0  165.48   14.30
  -3   7   0  162.08   13.10
   4   3   0  142.89   12.30
   4   3   0  130.29   12.30
   7  -3   0  150.98   13.10
  -7   4   0  129.59   13.20
  -3   7   0  169.78   12.30
   7  -3   0  154.78   13.50
  -3   7   0  128.99   12.20
   7  -4   0  148.49   13.20
  -7   4   0  135.59   13.50
  -5   7   0    4.90    1.60
   7  -2   0    4.30    1.30
   5  -7   0    4.50    1.80
  -2   7   0    1.80    1.00
   7  -2   0    3.30    1.40
   5  -7   0    6.20    1.80
  -7   5   0    2.30    1.50
   7  -5   0    2.90    1.50
   7  -5   0    2.60    1.40
   5   2   0    5.10    1.20
  -7   5   0    3.90    1.50
  -7   2   0    4.50    1.50
  -5   7   0    3.60    1.20
   5   2   0    3.90    1.00
   7  -2   0    4.30    1.50
  -2   7   0    4.60    1.30
   7  -1   0  178.58   14.40
   7  -1   0  188.98   14.60
   7  -1   0  157.58   15.00
  -7   6   0  163.98   15.20
   6  -7   0  169.98   15.40
  -7   6   0  149.69   15.40
  -1   7   0  174.88   14.70
  -1   7   0  182.78   14.60
   6   1   0  196.58   15.00
  -6   7   0  177.28   15.10
   7  -6   0  140.19   15.20
   7  -6   0  151.98   15.60
  -6   7   0  184.58   15.60
   6  -7   0  190.78   15.90
   7  -7   0  361.46   31.30
  -7   7   0  383.96   31.60
   7  -7   0  381.06   31.70
   0   7   0  347.07   30.00
   0   7   0  378.36   30.10
  -7   7   0  366.36   31.00
   8  -4   0 1429.46  124.39
  -8   4   0 1631.64  124.49
   8  -3   0  256.67   20.50
  -8   5   0  233.08   21.40
  -8   5   0  237.18   20.40
  -3   8   0  210.98   19.70
   8  -5   0  241.58   20.70
  -5   8   0  215.68   20.10
  -5   8   0  222.48   19.60
   5   3   0  232.18   19.20
   8  -3   0  249.97   19.90
  -8   6   0  556.34   48.10
   8  -2   0  614.94   48.10
  -2   8   0  596.94   47.40
   8  -6   0  577.74   48.60
   8  -2   0  616.94   47.40
   6   2   0  495.75   47.20
  -8   6   0  576.64   48.50
   8  -6   0  590.74   48.20
  -6   8   0  588.24   48.20
   8  -7   0   39.30    5.70
  -7   8   0   40.80    5.00
   8  -7   0   52.69    5.70
  -7   8   0   39.60    5.40
  -8   7   0   50.59    5.50
   7   1   0   49.70    4.90
   8  -1   0   41.90    3.90
   7  -8   0   50.49    5.60
  -1   8   0   48.40    4.50
  -8   7   0   52.19    5.80
  -1   8   0   52.09    4.80
   8  -1   0   48.20    4.00
  -8   8   0  295.67   27.20
   0   8   0  335.27   26.20
   8   0   0  303.57   27.10
  -8   8   0  327.97   27.90
   0   8   0  333.87   26.20
   9  -4   0  142.79   12.80
  -9   5   0  150.68   13.50
   9  -5   0  135.59   12.80
  -4   9   0  146.39   12.30
   9  -4   0  118.09   12.10
  -5   9   0  138.09   11.50
   9  -5   0  115.39   12.20
  -6   9   0    0.80    0.90
   9  -3   0    0.70    1.20
  -3   9   0    0.80    0.90
   9  -6   0    1.20    1.50
   6   3   0    2.40    0.90
   9  -3   0    1.60    1.00
  -9   6   0    2.60    1.60
   9  -6   0    0.40    1.10
   6   3   0    1.60    0.70
  -6   9   0    2.00    1.40
  -7   9   0   16.90    3.40
   9  -7   0   20.30    3.70
   9  -2   0   21.20    2.40
   7   2   0   21.10    2.60
  -2   9   0   15.30    2.40
  -7   9   0   17.10    3.00
  -9   7   0   18.10    3.50
   9  -7   0   15.50    3.70
  -9   8   0  187.58   15.80
  -1   9   0  167.08   14.60
   9  -8   0  177.88   16.10
  -8   9   0  155.78   15.80
  -9   8   0  209.38   17.70
   8   1   0  157.78   15.10
  -9   9   0    1.20    1.60
   9   0   0    1.60    1.30
   0   9   0    3.10    0.70
  -9   9   0    1.10    1.30
   0   9   0    2.40    0.70
  -5  10   0   71.79    5.80
  -5  10   0   76.89    7.30
  10  -5   0   52.79    6.80
  -4  10   0  256.57   22.70
  10  -6   0  240.78   23.00
  -6  10   0  266.07   22.10
  10  -4   0  294.97   22.80
   7   3   0  166.28   13.10
  10  -3   0  176.98   14.70
 -10   7   0  138.69   14.20
  -7  10   0  133.99   13.30
  10  -7   0  131.59   14.00
  -7  10   0  157.78   14.30
  10  -3   0  160.88   13.40
  -8  10   0  497.15   37.50
  -2  10   0  440.96   36.90
  10  -2   0  459.85   36.40
  10  -8   0  462.75   38.20
  -8  10   0  495.45   38.40
 -10   8   0  388.16   37.70
   8   2   0  405.76   36.90
  10  -2   0  434.56   37.90
 -10   9   0   26.30    4.10
  -1  10   0   31.50    3.20
  -9  10   0   28.60    3.90
   9   1   0   30.30    3.80
  10  -1   0   29.60    4.20
  10  -9   0   32.20    4.70
  -9  10   0   27.80    5.10
 -10  10   0  251.67   22.50
  10   0   0  262.57   22.40
  11  -6   0   61.99    7.80
  -5  11   0   86.59    8.10
  -6  11   0   85.59    8.30
  11  -6   0   74.39    9.00
  -6  11   0   81.49    6.80
  11  -5   0   75.89    8.80
  11  -4   0    0.10    1.00
  11  -7   0    1.00    1.40
  11  -4   0    0.00    1.50
  -4  11   0    0.60    1.00
  -7  11   0    1.00    0.90
  -7  11   0    2.30    1.60
  11  -3   0    4.40    2.10
   8   3   0    5.80    1.40
 -11   8   0    4.10    2.20
  11  -8   0    4.10    2.00
  -3  11   0    4.80    1.50
  11  -3   0    5.20    1.40
  -8  11   0    6.70    1.80
  -8  11   0    7.70    2.60
  -2  11   0   84.69    7.10
  -9  11   0   70.79    7.50
  11  -2   0   73.89    8.20
  11  -9   0   84.59    8.60
 -11   9   0   72.39    8.10
   9   2   0   68.39    7.20
  -9  11   0   67.89    8.40
 -11  10   0    2.70    1.70
  10   1   0    0.90    1.20
 -10  11   0    1.30    1.40
  11  -1   0    3.30    1.80
  -1  11   0    1.90    0.80
 -11  11   0   23.80    4.30
  11   0   0   23.40    4.10
  12  -6   0  391.56   31.20
  -6  12   0  337.27   31.00
  -5  12   0   73.69    7.10
  12  -5   0   69.49    8.10
  -7  12   0   70.89    6.00
  -7  12   0   47.30    6.90
  12  -5   0   64.29    6.80
  -8  12   0  167.18   15.90
  12  -4   0  165.88   16.20
  -4  12   0  151.88   14.80
  -8  12   0  175.18   14.60
  12  -8   0  180.88   15.90
  -3  12   0    4.00    1.50
  -9  12   0    3.00    1.40
   9   3   0    4.70    1.30
  12  -9   0    5.00    2.30
  12  -3   0    1.80    1.70
  -9  12   0    5.10    2.40
 -12  10   0   97.79   11.10
  10   2   0  128.79   10.60
  -2  12   0  115.79   10.00
 -10  12   0  116.09   12.00
 -10  12   0  110.59   10.80
  12 -10   0  100.69   11.50
  11   1   0   47.80    5.60
 -11  12   0   43.80    5.30
 -12  11   0   36.80    5.20
  -1  12   0   39.70    3.70
  -7  13   0   12.70    3.10
  13  -7   0    7.30    2.40
  -6  13   0   12.30    2.90
  13  -6   0   12.90    2.90
  13  -6   0   12.70    3.90
  13  -8   0   -0.40    1.30
  13  -5   0    1.60    2.00
  13  -5   0    1.50    1.20
  -8  13   0    3.50    1.90
  -8  13   0    2.40    0.90
  -5  13   0    1.00    1.30
  13  -4   0   33.90    5.90
  -9  13   0   34.10    5.80
  -9  13   0   27.10    3.50
  13  -9   0   31.40    4.80
   0   0  -1    0.30    0.20
   0   0   1    0.10    0.20
   0   0  -1   -0.10    0.20
   0   0   1   -0.10    0.20
   0   0   1    0.00    0.30
   0   0  -1    0.30    0.20
   0   0  -1    0.00    0.20
   0   0   1    0.10    0.30
  -1   0  -1   29.80    2.70
   0   1   1   30.50    2.70
   1   0   1   32.90    2.70
  -1   1  -1   34.20    2.70
  -1   1   1   25.80    2.70
  -1   1  -1   25.30    2.70
   1  -1   1   32.40    2.80
   1  -1  -1   32.00    2.70
   1   0  -1   31.00    2.60
   0  -1  -1   26.90    2.60
  -1   0   1   30.40    2.70
   0  -1  -1   36.00    2.70
   1  -1  -1   30.30    2.70
   1  -1   1   28.40    2.70
   1   0  -1   32.80    2.70
   0   1   1   30.90    2.70
   0  -1   1   24.70    2.50
   0   1  -1   32.30    2.60
  -1   1   1   31.30    2.70
   0   1   1   28.70    2.50
   1   0  -1   27.90    2.70
   1  -1  -1   28.70    2.80
   0  -1   1   30.80    2.60
   1   0   1   31.00    2.70
   0   1   1   32.80    2.50
  -1   1  -1   30.30    2.70
   1  -1  -1   33.20    2.90
  -1   0  -1   32.00    2.70
  -1   1   1   32.50    2.80
   1   0  -1   29.00    2.60
  -1   1   1   28.10    2.80
   1   0   1   26.30    2.70
  -1   1  -1   35.20    2.70
  -1   0   1   26.00    2.60
   1  -1   1   35.50    2.70
  -1  -1  -1    0.30    0.30
  -2   1  -1   -0.10    0.40
  -1   2   1    0.40    0.30
   1   1   1    0.00    0.30
   1   1   1    0.00    0.20
   1   1  -1    0.00    0.20
  -1   2   1   -0.20    0.30
   1   1  -1    0.10    0.30
   2  -1   1   -0.30    0.50
   1  -2   1    0.20    0.40
   1  -2  -1    0.10    0.30
  -1   2  -1    0.40    0.30
  -1   2  -1    0.10    0.30
   1  -2  -1    0.00    0.50
  -2   1   1   -0.10    0.50
  -1   2   1    0.00    0.40
   2  -1   1   -0.10    0.40
   1  -2   1    0.10    0.30
   2  -1   1   -0.30    0.40
   2  -1  -1   -0.20    0.40
  -1   2   1    1.40    0.50
  -1   2  -1    0.00    0.40
   2  -1  -1    0.30    0.50
   2  -1   1    0.40    0.50
  -2   1  -1    0.20    0.50
   2  -1  -1    0.30    0.50
  -1   2  -1    0.20    0.40
   2  -1  -1    0.00    0.40
  -2   1   1    0.00    0.40
  -2   2   1  360.86   30.20
  -2   2  -1  346.17   30.10
  -2   2   1  357.76   30.10
   0   2  -1  391.16   29.80
  -2   2  -1  388.96   30.20
   1  -3  -1   36.10    3.30
  -1   3  -1   35.40    3.40
  -1   3  -1   33.70    3.10
   2  -3   1   41.20    3.50
   2   1  -1   38.20    3.20
  -2   3   1   41.50    3.40
  -2   3   1   43.30    3.70
  -3   2  -1   39.30    3.70
   3  -2  -1   38.40    3.50
   1  -3  -1   42.80    3.60
  -2   3   1   38.50    3.60
   2   1  -1   34.60    3.20
   3  -1   1   33.70    3.50
  -3   1   1   40.40    3.60
  -2   3   1   40.90    3.50
   3  -1   1   30.60    3.30
  -3   1   1   37.80    3.40
   3  -1   1   41.10    3.60
   1   2   1   36.40    3.20
  -1   3  -1   36.70    3.10
  -1   3  -1   31.30    3.30
   3  -2  -1   35.00    3.60
  -3   2  -1   38.90    3.60
   2   1   1   35.80    3.30
   2  -3  -1   30.90    3.40
   1  -3   1   33.20    3.30
  -1   3   1   27.90    3.30
  -1   3   1   31.80    3.10
   3  -2   1   38.30    3.60
  -2   3  -1   43.10    3.60
  -1   3   1   32.30    3.10
   2   1   1   32.70    3.20
   3  -2   1   31.30    3.40
   2  -3  -1   40.60    3.70
   1   2  -1   32.30    3.00
  -3   2   1   36.80    3.60
   3  -1  -1   39.20    3.40
  -2   3  -1   37.10    3.50
   3  -1  -1   39.90    3.60
  -3   2   1   34.40    3.50
  -2   3  -1   41.80    3.40
  -3   1  -1   40.20    3.60
  -3   1  -1   37.00    3.50
   1  -3   1   33.20    3.20
  -2   3  -1   34.80    3.40
   3  -1  -1   34.90    3.60
   1   2  -1   34.00    3.00
   3  -1  -1   45.00    3.50
   3   0  -1   76.69    6.40
   3  -3   1   58.49    6.30
   3  -3  -1   74.59    6.70
   3   0  -1   82.59    6.10
   3   0   1   73.79    6.10
   0   3  -1   68.89    6.10
   3   0   1   77.59    6.40
  -3   3   1   76.29    6.60
  -3   0   1   68.19    6.20
  -3   0   1   68.49    6.30
   3   0  -1   71.19    6.30
  -3   3   1   61.69    6.40
   3  -3  -1   72.79    6.50
   3   0  -1   67.29    6.00
   0   3  -1   75.19    6.10
  -3   3  -1   78.19    6.60
   3   0   1   71.49    6.10
   3  -3   1   69.09    6.50
  -3   0  -1   80.19    6.30
   0   3   1   76.99    6.20
  -3   3  -1   64.79    6.40
  -2   4  -1    0.00    0.50
  -2   4   1    0.00    0.60
   2  -4  -1    0.20    0.70
  -2   4  -1   -0.40    0.50
   2  -4   1    0.00    0.50
   2   2   1    0.40    0.30
  -2   4  -1    0.00    0.30
   4  -2  -1    0.70    0.70
   4  -2   1    0.30    0.60
  -4   2  -1    0.90    0.70
  -2   4   1    0.00    0.60
   4  -2  -1   -0.10    0.70
  -4   2   1    0.20    0.60
   4  -2   1    0.50    0.60
   4  -2  -1    0.00    0.50
   2  -4  -1    1.70    0.70
   4  -2   1   -0.30    0.50
  -4   2   1    0.00    0.60
   4  -2   1    0.20    0.50
  -2   4   1    0.40    0.50
   2  -4   1    0.10    0.50
  -4   2  -1    0.50    0.70
   2   2   1    0.30    0.30
   2   2  -1    0.20    0.30
   2   2  -1    0.10    0.20
  -2   4  -1    0.10    0.40
   4  -2  -1   -0.10    0.50
  -2   4   1    0.50    0.50
  -1   4  -1   60.09    5.00
  -4   1   1   66.89    5.40
  -3   4   1   61.99    5.20
  -4   1   1   63.79    5.20
  -4   3  -1   57.89    5.50
  -3   4   1   60.99    5.50
   4  -3  -1   53.99    5.40
   1   3   1   53.19    4.70
   1   3   1   54.49    4.70
   3   1  -1   57.09    4.90
   4  -1   1   58.49    5.20
  -4   3  -1   49.30    5.20
   4  -3  -1   53.89    5.30
   4  -1   1   64.39    5.30
   3  -4   1   59.79    5.20
   3  -4   1   55.69    5.30
   3   1  -1   55.29    5.00
  -3   4   1   58.89    5.20
  -1   4  -1   49.30    5.00
  -1   4   1   50.89    5.00
   1   3  -1   53.09    4.50
   4  -3   1   46.30    5.20
   4  -1  -1   59.19    5.30
   4  -1  -1   50.49    5.00
  -4   1  -1   58.89    5.20
  -4   1  -1   54.19    5.20
   1   3  -1   50.79    4.50
   3  -4  -1   64.19    5.60
   4  -1  -1   44.40    5.00
  -1   4   1   47.40    4.90
  -3   4  -1   53.99    5.10
  -3   4  -1   60.79    5.40
  -3   4  -1   59.39    5.40
  -4   3   1   63.69    5.40
  -3   4  -1   64.39    5.20
  -4   3   1   63.69    5.50
   3   1   1   47.50    4.90
   3  -4  -1   58.39    5.20
   4  -3   1   59.09    5.50
   3   1   1   53.39    5.00
   4   0  -1  174.78   14.90
   4   0   1  187.48   14.40
   0   4  -1  170.88   14.50
  -4   4   1  169.68   15.10
   0   4  -1  156.98   14.40
  -4   0  -1  177.08   14.80
   4   0   1  146.39   14.40
   4   0  -1  163.38   14.30
  -4   0  -1  193.18   14.90
   4   0  -1  159.78   14.80
   4   0   1  163.38   14.80
  -4   4  -1  161.18   15.10
   0   4   1  185.98   14.50
   4  -4   1  196.58   15.10
  -4   4   1  189.08   15.00
   4  -4  -1  175.98   15.10
   4  -4   1  178.68   15.20
  -4   4  -1  200.18   15.10
   4   0   1  182.28   14.90
  -4   0   1  202.78   14.80
  -5   2   1    7.60    1.60
  -5   3  -1    8.30    1.70
   2  -5  -1    9.60    1.40
   3   2  -1    7.80    1.10
   2   3   1    7.30    0.90
  -3   5   1    8.10    1.50
  -2   5  -1    6.40    1.50
  -3   5   1    9.40    1.80
  -2   5  -1    7.50    1.50
   5  -2   1    3.70    1.30
   5  -2   1   11.10    2.10
   3   2  -1    6.90    1.00
  -2   5  -1    8.70    1.00
   5  -3  -1    6.50    1.60
   5  -2   1    8.70    1.60
   3  -5   1   10.60    1.80
   5  -3  -1    8.20    1.90
   2   3   1    7.90    0.90
   3  -5   1    7.30    1.60
  -5   2   1    9.10    1.80
  -3   5   1    7.40    1.70
   2  -5  -1   10.50    1.90
  -2   5  -1    7.70    0.90
  -3   5   1    8.20    1.50
  -5   3  -1    7.90    1.80
   5  -2   1   10.90    2.00
  -2   5   1    8.00    1.00
   3   2   1    4.90    1.00
   2  -5   1    7.70    1.50
   2  -5   1    8.80    1.50
   3  -5  -1    7.80    1.90
   5  -2  -1    8.80    1.70
   5  -3   1    9.20    1.70
  -2   5   1   10.80    1.80
  -5   2  -1    8.80    1.70
  -3   5  -1   10.40    1.90
   5  -3   1    9.00    2.00
  -5   3   1    7.90    1.60
  -3   5  -1    6.00    1.40
  -2   5   1    8.90    1.10
   5  -2  -1    7.10    1.60
   3  -5  -1    9.20    1.70
   5  -2  -1    9.10    1.90
  -5   3   1    7.30    1.80
   5  -2  -1   11.50    1.60
  -2   5   1    7.30    1.50
  -3   5  -1    8.70    1.50
   3   2   1    9.00    1.10
  -5   2  -1    7.70    1.60
   4  -5   1   37.30    4.00
   5  -1   1   32.80    3.80
  -4   5   1   31.40    3.80
   5  -1   1   41.90    3.90
   5  -4  -1   38.50    4.10
  -1   5  -1   29.10    3.40
  -5   4  -1   42.90    4.20
  -4   5   1   28.80    3.60
  -5   1   1   28.50    3.60
  -5   4  -1   39.70    3.90
   1   4   1   35.00    3.10
   5  -4  -1   37.40    4.00
  -4   5   1   36.40    3.70
   1   4   1   31.10    3.10
   5  -1   1   39.70    3.50
  -5   1   1   37.90    3.70
   4   1  -1   39.80    3.50
  -5   1  -1   37.50    3.80
   5  -4   1   37.50    4.20
   4  -5  -1   36.70    4.20
   4   1   1   31.30    3.40
  -1   5   1   33.60    3.50
   4  -5  -1   39.50    3.90
   1   4  -1   35.60    2.90
   5  -1  -1   37.40    3.60
  -4   5  -1   35.30    3.70
   4   1   1   35.10    3.50
   5  -1  -1   34.10    3.50
   5  -1  -1   39.40    3.90
  -4   5  -1   41.50    3.90
   5  -1  -1   34.70    3.80
   1   4  -1   34.30    2.90
  -5   4   1   40.60    4.10
  -1   5   1   31.00    3.40
   5  -5   1   29.30    3.80
  -5   0  -1   31.20    3.40
   0   5   1   25.80    3.00
   5  -5  -1   26.20    3.80
   5  -5   1   38.20    3.80
   5  -5  -1   36.80    3.80
   5   0   1   35.60    2.70
  -5   5   1   33.40    3.80
   5   0   1   31.70    3.40
   0   5   1   35.80    3.10
   0   5  -1   29.20    3.00
   0   5  -1   26.60    2.90
   5   0   1   36.20    3.60
  -5   5  -1   27.30    3.50
   5   0   1   31.60    2.70
  -5   5   1   32.50    3.60
  -5   5  -1   32.20    3.70
   5   0  -1   35.90    3.60
  -6   3   1    0.70    1.00
  -3   6   1    0.20    0.70
  -6   3   1    0.40    0.80
   6  -3  -1    0.40    0.80
  -3   6   1    1.10    0.60
  -3   6  -1    0.50    0.50
  -6   3  -1    1.40    0.90
   6  -3   1    0.10    0.80
   3  -6  -1    0.00    0.80
   3  -6   1    0.10    0.70
   3   3   1    0.30    0.30
   3  -6   1   -0.10    0.50
   6  -3  -1   -0.80    1.10
   6  -3  -1   -0.50    0.70
  -3   6  -1    1.10    0.80
   3   3  -1    0.40    0.20
  -6   3  -1   -0.10    0.80
   6  -3   1    0.10    0.70
  -3   6  -1   -0.10    0.60
   3  -6  -1   -0.20    0.60
  -3   6   1    0.00    0.50
  -3   6  -1    0.50    0.50
   3   3   1    0.20    0.30
  -3   6   1    0.60    0.80
   3   3  -1    0.30    0.20
  -2   6  -1   38.50    4.30
   6  -4  -1   48.40    5.00
   6  -4  -1   45.10    4.80
  -2   6  -1   41.50    4.50
   6  -2   1   34.80    4.30
  -6   2   1   44.30    4.70
  -4   6   1   45.40    4.50
  -6   4  -1   45.40    4.80
  -4   6   1   53.89    4.60
   6  -2   1   38.60    4.70
   4  -6   1   51.49    4.80
   4   2  -1   46.60    4.10
   6  -2   1   35.30    4.50
  -6   4  -1   51.39    5.10
  -4   6   1   50.49    5.00
   6  -2   1   38.80    4.80
   4  -6   1   43.30    4.80
   4   2  -1   43.00    4.20
   2  -6  -1   39.30    4.30
  -4   6   1   56.29    5.00
   4  -6  -1   42.50    4.70
  -4   6  -1   43.20    4.90
   6  -2  -1   50.09    4.70
  -6   4   1   50.49    4.90
   6  -2  -1   51.69    5.10
  -2   6   1   49.00    4.70
  -4   6  -1   49.20    4.80
  -6   4   1   35.60    4.70
  -2   6   1   39.20    4.40
  -6   2  -1   39.60    4.70
  -4   6  -1   51.49    4.50
  -4   6  -1   51.89    4.60
   4   2   1   42.50    4.10
   6  -2  -1   48.10    4.50
   6  -4   1   54.09    4.90
  -6   2  -1   41.60    4.70
   4   2   1   47.50    4.20
   4  -6  -1   41.10    4.90
   6  -4   1   53.59    5.20
   5   1  -1  153.98   14.00
  -5   6   1  154.48   14.60
   1   5   1  141.29   13.50
  -5   6   1  187.88   14.50
  -6   1   1  174.08   14.30
   5  -6   1  169.28   14.80
   6  -1   1  187.68   14.60
  -1   6  -1  185.88   14.00
   6  -5  -1  159.68   14.60
  -1   6  -1  168.88   14.00
  -6   5  -1  162.68   14.50
  -6   1   1  179.38   14.50
   6  -1   1  181.38   14.20
   5   1  -1  166.38   14.10
   5  -6   1  143.39   14.40
   6  -1   1  161.28   14.40
   1   5   1  172.58   13.60
   6  -1   1  147.39   13.80
   6  -5   1  193.68   14.80
   6  -1  -1  176.88   14.60
   5  -6  -1  138.39   14.70
  -5   6  -1  142.99   14.50
   5  -6  -1  180.28   14.60
   6  -1  -1  175.88   14.00
   5   1   1  173.58   14.20
   6  -1  -1  166.68   14.00
   5   1   1  149.59   14.00
  -6   1  -1  171.28   14.50
   6  -1  -1  158.98   14.50
  -6   1  -1  164.28   14.40
  -1   6   1  164.48   14.10
  -6   5   1  151.98   14.60
  -5   6  -1  162.78   14.30
  -6   5   1  174.88   14.60
   6   0  -1   50.79    4.70
  -6   6  -1   41.00    4.70
   0   6  -1   39.70    3.90
   6  -6  -1   39.90    4.80
  -6   6   1   40.90    4.60
   0   6   1   44.70    4.10
   6   0  -1   40.10    4.50
   6  -6   1   33.90    4.70
   6  -6   1   46.10    5.10
  -6   0  -1   49.00    4.90
   6   0   1   46.70    4.70
  -6   0   1   45.50    5.50
  -6   6  -1   37.90    4.90
   0   6   1   43.90    4.00
   6  -6  -1   45.80    5.30
   0   6  -1   43.40    3.90
   6   0   1   49.60    4.70
  -7   3   1   53.59    5.80
   7  -3   1   49.80    5.90
   7  -3   1   64.89    5.80
  -3   7  -1   52.39    5.60
  -7   4  -1   60.49    6.20
  -4   7   1   68.29    6.10
   4   3  -1   57.19    4.80
   4   3  -1   60.69    4.90
  -7   4  -1   57.89    6.00
   4  -7   1   61.29    5.80
  -7   3   1   68.89    6.30
  -4   7   1   57.69    5.50
   7  -4  -1   51.59    5.70
  -3   7  -1   51.89    4.80
   4  -7  -1   60.39    5.90
  -4   7  -1   52.59    5.30
  -7   4   1   45.00    5.70
   7  -3  -1   45.30    5.50
  -3   7   1   57.69    5.80
  -7   3  -1   53.09    6.00
   4   3   1   62.79    5.00
  -7   3  -1   61.79    6.00
  -7   4   1   60.89    6.20
  -3   7   1   58.99    4.90
   4   3   1   56.89    5.00
   7  -4   1   41.70    5.80
   7  -4   1   66.89    6.00
  -3   7   1   56.99    4.90
  -3   7   1   48.70    5.60
   5   2  -1    1.00    0.80
   7  -2   1    1.20    0.90
  -7   5  -1    1.50    1.20
  -2   7  -1    2.30    1.10
   7  -2   1    2.00    1.20
   7  -5  -1    2.40    1.30
   5  -7   1    1.40    1.10
  -2   7  -1    2.20    1.00
   5  -7   1    1.60    1.40
  -5   7   1    2.00    1.00
  -7   5  -1    1.70    1.20
   5   2  -1    1.30    0.70
  -7   2   1    2.40    1.20
   7  -5  -1    1.60    1.20
  -5   7   1    1.90    1.20
  -7   5   1    0.20    0.90
   5  -7  -1    1.60    1.40
   7  -5   1    1.40    1.20
   7  -2  -1    3.30    1.90
   7  -2  -1    0.60    1.10
  -5   7  -1    2.40    1.20
  -7   5   1    3.20    1.50
  -5   7  -1    2.40    1.00
   7  -5   1    1.80    1.40
  -2   7   1    2.20    0.90
  -2   7   1    1.60    0.90
   5   2   1    1.60    0.70
   5   2   1    2.10    0.80
   5  -7  -1    0.90    1.00
  -7   2  -1    2.40    1.30
   7  -2  -1    2.30    1.00
  -1   7  -1   37.80    3.80
   1   6   1   32.30    3.20
   7  -6  -1   37.40    4.50
   6   1  -1   31.80    3.90
   6   1  -1   29.90    3.80
   7  -6  -1   35.20    4.70
   7  -1   1   31.70    4.00
  -7   6  -1   37.50    4.60
  -7   6  -1   35.90    4.30
  -6   7   1   39.50    4.50
   6  -7   1   36.40    4.40
  -6   7   1   37.80    4.20
  -1   7  -1   32.90    3.60
   7  -1   1   41.30    3.70
   7  -1   1   44.10    3.60
   6  -7   1   37.00    4.70
   1   6   1   37.90    3.20
  -7   6   1   37.50    4.30
   7  -1  -1   34.40    3.50
  -1   7   1   34.50    3.80
   6   1   1   39.10    3.90
   7  -6   1   33.20    4.60
   7  -6   1   37.20    4.40
  -6   7  -1   38.50    4.10
  -1   7   1   39.20    3.70
   6  -7  -1   41.60    4.60
   6   1   1   40.20    4.10
   7  -1  -1   31.40    4.10
   6  -7  -1   35.70    4.80
   7  -1  -1   36.20    3.50
  -7   7   1   37.20    4.80
   0   7   1   46.20    4.00
  -7   7   1   32.50    4.50
   0   7   1   45.90    3.90
   7  -7   1   40.70    5.20
   0   7  -1   39.70    3.80
   7   0  -1   37.90    4.50
   7  -7   1   41.60    4.90
   7  -7  -1   40.60    5.30
  -7   7  -1   41.00    5.00
   7   0   1   42.80    4.50
   0   7  -1   38.70    3.80
  -7   7  -1   46.20    4.80
  -8   4   1   -0.20    1.00
  -4   8   1    0.30    0.90
  -4   8  -1    0.60    0.60
   8  -4  -1    0.70    1.10
   8  -4   1    0.60    0.90
  -4   8  -1    0.40    0.50
  -8   4  -1    0.60    1.10
  -4   8   1    0.10    0.60
  -4   8  -1   -0.50    0.70
  -4   8   1    0.10    0.50
   8  -4  -1   -1.20    0.90
   8  -4   1    0.40    1.10
   5   3  -1   95.09    7.70
   8  -3   1  101.49    8.60
  -5   8   1   88.79    8.80
  -3   8  -1   77.39    8.20
   8  -5  -1   91.59    9.40
  -8   5  -1  115.59   10.40
  -5   8   1   94.19    8.20
  -8   5  -1   88.39    8.90
   8  -3   1   82.59    8.80
   5   3  -1   95.49    7.70
   8  -5  -1   97.59    8.90
   8  -3  -1   79.69    8.30
   5   3   1   92.19    7.90
  -8   5   1   96.99    9.00
   8  -3  -1   87.29    9.00
   8  -5   1  107.59    9.10
  -5   8  -1   85.49    8.70
  -3   8   1   74.69    8.20
   8  -5   1   79.19    8.90
   8  -6  -1   69.39    7.50
  -2   8  -1   49.90    5.90
  -6   8   1   58.79    6.70
  -8   6  -1   69.69    7.10
  -6   8   1   59.49    6.20
   8  -2   1   64.89    6.00
   8  -2   1   73.79    6.80
   6   2  -1   66.79    6.00
   8  -6  -1   60.99    6.70
  -8   6  -1   59.59    6.60
  -2   8   1   69.09    6.10
  -8   6   1   55.79    6.90
   6   2   1   69.69    6.00
   8  -6   1   66.49    6.80
  -8   6   1   61.59    6.70
   8  -2  -1   65.09    6.80
  -6   8  -1   60.79    6.70
   8  -2  -1   60.29    6.00
   6   2   1   64.09    6.10
   1   7   1   13.70    1.30
  -1   8  -1   14.10    1.90
   8  -1   1   13.90    1.50
   8  -1   1   11.60    2.40
   8  -7  -1   12.00    2.90
  -7   8   1   10.80    2.50
  -1   8  -1   14.80    2.00
   7   1  -1   13.40    2.40
   8  -1   1   14.60    1.50
  -8   7  -1   12.30    3.10
  -7   8   1    9.10    2.70
   7  -8   1   14.80    3.10
   8  -7  -1   11.90    3.20
   1   7   1   13.20    1.30
  -8   7   1   13.20    3.10
   8  -1  -1   14.20    2.90
  -8   7   1    9.10    2.40
   7   1   1   15.20    2.30
  -1   8   1   15.20    2.00
  -7   8  -1   16.00    3.20
   8  -7   1   10.80    2.80
  -7   8  -1   13.00    2.60
   7  -8  -1   11.50    2.80
   8  -7   1    6.40    2.60
   0   8   1    1.20    0.60
   8   0   1    2.50    1.30
   8   0  -1    0.00    1.10
   0   8  -1    2.00    0.70
   8  -8   1   -0.80    1.00
   0   8  -1    1.40    0.60
  -8   8   1    0.90    1.20
  -8   8   1    1.80    1.40
   0   8   1    0.90    0.60
   8  -8  -1    2.40    1.70
  -8   8  -1    0.70    1.10
  -8   8  -1    1.40    1.40
   9  -5  -1   23.40    3.40
  -5   9   1   12.10    2.90
  -5   9   1   21.40    2.50
  -9   5  -1   20.10    4.20
   9  -5  -1   16.00    3.70
   9  -4   1   21.50    4.10
   9  -4  -1   21.00    3.00
   5   4   1   20.60    1.90
   9  -5   1   21.70    3.20
   9  -5   1   18.00    3.70
   5   4   1   19.20    1.90
  -5   9  -1   21.80    3.10
  -4   9   1   18.70    3.00
  -5   9  -1   23.60    2.50
   9  -4  -1   21.20    4.00
   6   3  -1    3.30    0.90
   6   3  -1    4.00    1.00
  -6   9   1    3.70    1.70
   9  -6  -1    0.00    1.50
  -6   9   1    2.60    1.10
  -3   9  -1    1.50    1.10
   9  -3   1    4.80    1.50
  -9   6  -1    1.90    1.50
   9  -3   1    1.60    1.40
   9  -6  -1    2.10    1.50
   6   3   1    3.80    1.10
   6   3   1    2.70    0.90
  -6   9  -1    4.30    1.40
   9  -3  -1    3.00    1.30
   9  -6   1    4.80    2.20
   9  -3  -1    4.70    1.90
  -9   6   1    3.80    1.80
  -6   9  -1    3.80    1.70
  -3   9   1    3.30    1.30
   9  -6   1    2.90    1.60
   7   2  -1   14.20    2.10
  -2   9  -1   12.40    2.20
  -7   9   1   11.10    2.80
   9  -2   1   12.70    2.80
   9  -7  -1   19.90    4.20
  -9   7  -1   12.60    2.90
   9  -2   1   11.70    2.00
   9  -7  -1   15.90    3.20
  -7   9   1   11.60    2.40
   9  -7   1   14.20    3.90
  -2   9   1   15.70    2.20
  -9   7   1   14.50    3.00
   9  -2  -1   13.20    1.90
   9  -7   1   12.30    2.90
   9  -2  -1   13.80    2.90
  -7   9  -1    8.20    2.60
   7   2   1   11.80    2.20
  -7   9  -1   14.80    2.60
  -8   9   1   39.50    4.70
   8   1  -1   40.60    4.50
   9  -8  -1   39.90    5.20
   9  -1   1   38.80    4.80
  -9   8  -1   36.60    5.30
  -9   8  -1   41.80    5.00
  -8   9   1   42.40    5.40
  -1   9  -1   41.30    4.00
  -9   8   1   36.90    4.80
   9  -1  -1   36.80    4.80
   9  -8   1   41.20    5.20
  -1   9   1   39.50    4.00
  -8   9  -1   38.20    4.60
  -9   9  -1    2.60    1.80
   0   9  -1    3.10    0.70
  -9   9   1    3.00    1.60
  -9   9  -1    4.00    1.70
   9   0  -1    3.80    1.60
   0   9  -1    2.80    0.70
  -9   9   1    1.40    1.70
   0   9   1    2.90    0.80
  -5  10  -1    0.20    1.00
  -5  10   1    0.00    0.40
  -5  10  -1    0.00    0.30
  -5  10   1   -0.30    0.90
  10  -5  -1   -0.20    1.40
  10  -5   1   -0.20    1.30
  10  -5  -1   -0.40    0.90
  10  -5   1    1.50    1.30
  10  -6  -1    1.40    1.50
  -6  10   1    3.50    1.10
  -6  10   1    7.00    2.10
  -4  10  -1    2.70    1.40
  10  -4   1    4.50    2.10
  10  -6  -1    5.40    2.40
  10  -4   1    4.00    1.60
  10  -4  -1    4.50    2.20
   6   4   1    3.30    0.70
   6   4   1    3.60    0.70
  -6  10  -1    2.50    1.60
  -4  10   1    3.10    1.40
  -6  10  -1    3.20    1.20
  10  -6   1    4.20    1.80
  10  -6   1    5.30    2.50
  10  -4  -1    4.00    1.60
  10  -7  -1   57.19    7.10
  10  -3   1   57.09    5.20
  -3  10  -1   42.50    5.10
  -7  10   1   48.50    5.20
  10  -3   1   52.39    6.00
   7   3  -1   53.09    4.80
  10  -7  -1   55.79    6.10
  -7  10   1   61.49    6.30
 -10   7  -1   52.89    6.10
  -7  10  -1   36.90    5.60
   7   3   1   53.09    4.90
  10  -3  -1   45.20    5.10
  10  -7   1   47.60    5.90
  10  -3  -1   38.70    5.80
  -7  10  -1   48.40    5.20
  -3  10   1   53.69    5.30
   8   2  -1   31.00    3.30
  10  -2   1   22.40    2.50
 -10   8  -1   24.10    4.20
  -8  10   1   27.40    4.70
  -8  10   1   23.80    3.40
  10  -2   1   23.00    4.10
  10  -8  -1   18.10    4.00
  -2  10  -1   20.20    2.80
   8   2   1   25.60    3.10
  -8  10  -1   24.60    3.30
  -2  10   1   26.10    3.00
  10  -2  -1   23.90    2.40
 -10   8   1   19.70    3.90
  10  -2  -1   22.20    4.10
  -8  10  -1   14.80    3.70
  10  -8   1   24.10    4.50
  -1  10  -1   15.80    1.90
   9   1  -1   10.10    2.50
 -10   9  -1   11.10    2.80
  -9  10   1    8.00    2.40
  10  -9  -1   13.60    3.40
  -9  10   1   20.40    4.00
   9   1   1   14.60    2.70
  -1  10   1   11.80    1.90
  10  -9   1   14.40    3.50
 -10   9   1   11.30    2.90
  10  -1  -1   16.70    3.30
  -9  10  -1   16.50    3.70
  -9  10  -1   10.60    2.60
 -10  10  -1   15.90    3.50
  10   0   1   23.80    3.50
  10   0  -1   17.90    3.50
 -10  10   1   19.90    3.90
   0  10   1   25.60    2.20
  11  -6  -1    0.30    1.20
  11  -6  -1    3.10    2.20
  -6  11   1    0.90    1.30
  11  -5   1    1.40    1.60
  11  -5   1    1.00    1.30
  -6  11   1    1.50    0.70
  -5  11  -1    1.70    1.30
  -5  11   1   -0.40    0.90
  11  -5  -1   -0.30    1.00
  11  -6   1    2.20    1.50
  11  -6   1    1.20    1.50
  -6  11  -1    0.30    1.20
  -6  11  -1    1.20    0.60
  11  -5  -1    0.10    1.50
  -7  11   1    2.90    1.20
  11  -7  -1    3.60    1.90
  11  -4   1    1.10    1.50
  -7  11   1    3.30    1.80
  11  -4   1    2.60    1.40
  -4  11  -1    1.40    1.20
  11  -4  -1    2.10    1.30
  -7  11  -1    1.80    1.00
  -7  11  -1    2.60    1.70
  11  -7   1    1.30    1.40
   7   4   1    1.50    0.50
  11  -4  -1    1.00    1.60
  -4  11   1    2.20    1.30
  11  -3   1    2.40    1.10
  -8  11   1    5.50    2.20
   8   3  -1    4.20    1.10
 -11   8  -1    4.80    2.00
  -8  11   1    4.60    1.60
  -3  11  -1    4.40    1.50
  11  -8  -1    5.80    2.30
  11  -3  -1    3.00    1.10
   8   3   1    4.20    1.20
  -8  11  -1    3.70    1.50
 -11   8   1    3.50    2.00
  11  -8   1    4.30    2.10
  11  -3  -1    2.50    1.90
  -3  11   1    2.40    1.30
  -8  11  -1    5.30    2.20
  11  -2   1   17.10    3.70
  -9  11   1   16.50    3.30
   9   2  -1   21.70    2.90
  11  -9  -1   14.80    3.80
 -11   9  -1   22.10    4.10
  -9  11   1   26.30    4.80
  11  -2  -1   18.80    3.90
  -2  11   1   23.00    2.80
  11  -9   1   27.10    4.80
  -9  11  -1   21.10    3.10
   9   2   1   19.90    2.90
  -9  11  -1   12.70    3.60
 -11   9   1   23.60    4.20
  10   1  -1    1.40    1.20
 -11  10  -1    0.10    1.30
  -1  11  -1    0.80    0.60
  11  -1   1    1.10    1.30
 -10  11   1    1.20    1.30
  10   1   1    0.70    1.10
  -1  11   1    0.90    0.70
  11  -1  -1    0.40    1.40
 -11  10   1    0.70    1.30
 -10  11  -1    1.30    1.30
 -11  11   1    7.50    2.40
 -11  11  -1    5.20    2.20
  11   0   1    5.30    2.00
  11   0  -1    9.30    2.50
  -6  12  -1   -0.30    1.20
  12  -6   1   -0.50    1.10
  12  -6  -1   -0.70    1.00
  -6  12   1   -1.00    1.00
  12  -6  -1    0.10    1.60
  -7  12   1    8.90    2.60
  12  -5   1    7.40    2.10
  12  -7  -1   10.80    2.90
  -7  12   1   10.00    1.60
  -5  12  -1    7.10    2.10
  12  -5   1    8.00    3.00
  12  -5  -1    9.30    2.30
  12  -7   1    7.40    2.50
  -5  12   1    8.70    2.30
  12  -5  -1    9.10    3.20
  -7  12  -1    6.60    2.30
  -7  12  -1    7.90    1.40
  -4  12  -1    6.20    1.90
  12  -8  -1    7.60    2.70
  12  -4   1    6.90    2.70
  -8  12   1    3.50    1.40
  -8  12   1    7.40    2.60
  12  -4   1    6.20    1.70
  -8  12  -1    3.60    2.00
   8   4   1    7.40    1.00
  12  -8   1    8.90    2.70
  12  -4  -1    7.40    2.90
  12  -4  -1    5.90    1.70
  -4  12   1    5.00    1.80
  12  -3   1    2.90    0.80
  -3  12  -1    3.10    1.40
  12  -9  -1    4.20    2.30
  -9  12   1    5.00    2.30
  -9  12   1    2.90    1.50
   9   3  -1    2.70    1.00
  12  -3   1    1.50    1.70
  -9  12  -1    3.90    2.00
  12  -9   1    4.40    2.20
  -9  12  -1    3.50    1.40
  12  -3  -1    1.80    1.90
   9   3   1    2.10    1.10
  -3  12   1    2.80    1.30
  -2  12  -1    0.50    0.80
  12  -2   1    0.20    1.40
 -12  10  -1   -0.30    1.10
 -10  12   1    0.10    1.50
 -10  12   1    0.40    1.20
  10   2  -1   -0.20    0.80
  12 -10  -1    0.40    1.60
  12  -2  -1    0.90    1.40
 -10  12  -1   -0.90    0.90
  12 -10   1    0.50    1.60
  10   2   1    1.00    1.00
 -12  10   1    2.00    1.60
  -2  12   1    0.40    0.80
 -10  12  -1    0.50    1.70
  -1  12  -1    6.00    0.80
 -12  11  -1    5.60    2.20
 -11  12   1    8.50    2.50
 -12  11   1    7.80    2.50
  -1  12   1    6.90    1.20
 -11  12  -1    5.30    2.10
  -7  13   1    0.00    1.10
  13  -6   1    1.10    1.90
  13  -6   1    0.00    1.20
  -6  13  -1    0.90    1.40
  13  -7  -1    0.90    1.50
  13  -6  -1    1.10    1.30
  -6  13   1    0.80    1.20
  13  -7   1    2.20    1.60
  13  -6  -1    1.80    2.10
  -7  13  -1    1.10    1.40
  -8  13   1    0.50    0.60
  -8  13   1   -0.30    1.30
  13  -5   1    1.00    1.10
  -5  13  -1    0.90    1.20
  13  -5   1    1.50    1.90
  13  -8  -1    1.30    1.50
  -8  13  -1    0.30    0.60
  13  -5  -1    0.00    1.70
  -5  13   1    0.90    1.20
  -8  13  -1    1.60    1.60
  13  -8   1    0.50    1.60
  13  -5  -1    0.90    1.20
  -9  13   1   -0.20    0.80
  13  -4   1    1.00    0.90
  -9  13   1    0.50    1.50
  13  -4   1    0.50    1.60
  13  -9  -1    0.40    1.50
  13  -9   1    0.60    1.40
  -9  13  -1    0.10    1.40
  13  -4  -1   -0.60    0.60
  13  -4  -1    0.80    1.70
  -9  13  -1    0.10    0.80
  -1   0   2   38.70    3.40
   1   0  -2   39.90    3.50
  -1   1   2   34.50    3.40
  -1   1   2   41.00    3.50
   1  -1   2   42.80    3.50
   1  -1  -2   39.50    3.50
   1  -1  -2   36.30    3.60
   1   0  -2   37.90    3.40
   0  -1  -2   38.40    3.50
   0   1  -2   39.50    3.40
  -1   1  -2   35.40    3.50
   0   1  -2   38.40    3.50
   0   1  -2   39.60    3.40
  -1   0  -2   33.90    3.50
   0  -1   2   43.20    3.40
   1  -1  -2   37.90    3.50
  -1   1  -2   39.60    3.50
  -1   1  -2   40.70    3.50
   1   0   2   44.80    3.60
   1   0   2   39.70    3.50
   1   0   2   38.70    3.50
   1   0  -2   39.30    3.50
   1  -1   2   35.10    3.50
   0  -1  -2   44.30    3.60
   0   1   2   37.70    3.40
   0   1   2   32.50    3.30
  -1   1  -2   34.60    3.50
   1   0  -2   37.40    3.50
   0   1  -2   31.10    3.30
   0  -1   2   41.00    3.40
   1   0   2   40.90    3.40
   0   1   2   39.30    3.50
   0   1   2   40.00    3.60
  -1   0  -2   42.40    3.60
   1   2   2    0.90    0.50
  -2   3   2    1.60    0.70
   2   1  -2    0.50    0.50
  -3   2  -2    0.70    0.70
  -2  -1  -2    1.70    0.60
   1   2   2    1.10    0.50
  -2   3   2    0.50    0.50
   1  -3  -2    3.70    0.90
  -3   1   2    1.30    0.70
   1  -3  -2    1.00    0.50
  -2   3   2    1.30    0.80
   3  -1   2    2.20    0.80
   3  -2  -2    1.00    0.70
  -1   3  -2    1.00    0.40
  -1   3  -2    2.50    0.50
   3  -2  -2    1.50    0.80
   2  -3   2    1.90    0.70
   2   1  -2    1.10    0.50
  -1   3  -2    1.30    0.60
  -2   3   2    0.60    0.70
   3  -1   2    1.90    0.80
  -1   3  -2    0.70    0.50
  -3   2  -2    1.40    0.70
   3  -1   2    1.10    0.70
   3  -1   2    2.50    0.90
  -3   1   2    1.00    0.70
   2  -3   2    1.00    0.70
   1   2  -2    1.00    0.40
  -1   3   2    1.00    0.60
   3  -2   2    1.30    0.70
   2   1   2    0.90    0.50
   3  -2   2    1.00    0.60
  -3   1  -2    0.70    0.70
   1  -3   2    1.00    0.50
  -2   3  -2    1.60    0.60
  -1   3   2    1.30    0.50
  -3   2   2    1.40    0.70
   2  -3  -2    1.60    0.70
  -3   1  -2    1.00    0.70
   3  -1  -2    0.60    0.60
  -2   3  -2    1.40    0.70
  -2   3  -2    1.10    0.50
   2  -3  -2    0.70    0.60
  -1   3   2    0.90    0.70
  -3   2   2    0.90    0.60
  -2   3  -2    1.10    0.60
   1   2  -2    1.60    0.40
   2   1   2    1.10    0.50
   3  -1  -2    1.60    0.80
   1  -3   2    1.00    0.60
  -1   3   2    1.40    0.50
   3  -1  -2    1.60    0.60
   3  -1  -2    2.00    0.80
   2   2   2  373.96   35.40
   2  -4   2  398.86   35.60
  -4   2  -2  427.86   35.90
  -2   4  -2  481.75   35.80
   4  -2  -2  467.65   36.00
  -4   2   2  382.96   35.80
  -2   4   2  467.65   36.00
   4  -2  -2  460.65   36.10
  -4   2   2  376.36   35.70
  -2   4  -2  486.95   35.80
   2  -4   2  443.76   35.80
  -2   4   2  425.96   35.50
   4  -2   2  443.36   36.00
   4  -2   2  486.45   35.80
   2  -4  -2  443.46   35.70
  -2   4   2  412.86   35.50
  -2   4   2  431.46   35.80
   4  -2  -2  456.95   35.80
   1   3   2   69.99    6.30
  -3   4   2   77.99    6.80
  -1   4  -2   65.69    6.40
   4  -3  -2   74.39    6.80
   3  -4   2   81.09    6.70
  -4   3  -2   75.69    6.70
   3   1  -2   60.99    6.30
   1  -4  -2   78.99    6.70
  -3   4   2   79.09    6.90
   4  -1   2   85.09    6.80
  -4   3  -2   68.19    6.80
   4  -1   2   84.69    6.70
  -1   4  -2   64.19    6.30
   4  -1   2   74.59    6.70
   1  -4  -2   74.19    6.30
  -3   4   2   65.59    6.50
  -4   1   2   63.69    6.60
  -3   4   2   82.89    6.70
  -4   1   2   74.19    6.50
   4  -1   2   75.29    6.50
   3   1  -2   70.89    6.40
  -1   4   2   68.19    6.00
   1   3  -2   76.59    6.10
  -4   1  -2   82.59    6.80
  -3   4  -2   84.59    6.70
  -1   4   2   67.59    6.00
   4  -1  -2   57.89    6.60
   1   3  -2   67.79    6.10
  -3   4  -2   79.49    6.80
   4  -1  -2   85.09    6.60
   3   1   2   81.59    6.50
   3   1   2   78.79    6.40
  -4   1  -2   58.69    6.50
   4  -3   2   60.29    6.50
   4  -1  -2   75.09    6.50
   3  -4  -2   82.09    7.00
   4  -3   2   75.99    6.90
  -3   4  -2   63.89    6.50
   3   2  -2   50.09    4.80
  -5   3  -2   58.69    5.50
  -3   5   2   58.49    5.50
   5  -2   2   53.39    5.20
   2  -5  -2   56.99    5.10
   2   3   2   48.80    4.70
   3  -5   2   55.69    5.40
   5  -3  -2   67.59    5.60
  -5   3  -2   54.39    5.60
   5  -3  -2   54.69    5.60
   5  -2   2   65.39    5.70
  -3   5   2   47.70    5.00
  -5   2   2   51.09    5.30
   5  -2   2   54.89    5.40
   5  -2   2   58.39    5.50
  -5   2   2   52.99    5.50
  -3   5   2   58.89    5.50
  -2   5  -2   60.29    5.20
   3   2  -2   56.49    4.80
  -2   5  -2   59.29    4.70
   2  -5  -2   58.09    5.50
   2   3   2   56.29    4.90
   2   3  -2   51.29    4.60
   2  -5   2   57.39    5.10
  -5   3   2   52.49    5.40
   5  -2  -2   54.49    5.20
  -3   5  -2   51.09    5.30
   5  -3   2   62.29    5.50
  -2   5   2   51.89    4.80
   3   2   2   47.30    4.80
  -3   5  -2   63.69    5.20
   5  -2  -2   67.59    5.50
  -3   5  -2   53.59    5.00
   2   3  -2   49.20    4.60
   5  -3   2   53.19    5.50
  -5   2  -2   42.00    5.30
   2  -5   2   57.89    5.20
   3  -5  -2   58.29    5.30
  -3   5  -2   63.49    5.50
   5  -2  -2   55.69    5.60
  -5   2  -2   57.89    5.50
   3  -5  -2   57.39    5.60
  -2   5   2   49.20    5.30
  -5   3   2   47.90    5.50
  -2   5   2   58.09    4.90
  -2   5   2   44.50    5.10
   3   2   2   54.79    5.00
   5  -2  -2   49.50    5.40
  -5   1  -2 1355.96  109.79
   5   0   2    7.50    0.90
   5   0   2    8.40    1.80
  -5   0  -2    6.20    1.50
  -5   0   2    9.30    1.60
  -5   5   2    6.30    1.60
   0   5  -2    6.50    1.10
   5  -5  -2    9.70    2.30
   5   0   2    6.00    1.50
   0   5   2    6.50    1.30
  -5   5   2    8.60    2.00
   5  -5   2   10.20    2.20
   5   0   2    6.40    1.00
   0   5   2    7.30    1.30
   5   0  -2    9.70    1.70
   5   0  -2    8.80    1.80
   5  -5  -2    6.30    1.70
   0   5  -2    6.70    1.10
  -5   5  -2    3.20    1.30
   3  -6  -2  929.21   75.09
  -6   3  -2  767.32   74.79
  -6   3   2  948.61   75.19
   6  -3  -2 1035.60   74.89
   6  -3  -2  921.91   75.29
  -3   6  -2  916.21   74.89
   4  -6   2 1783.62  140.39
   6  -2   2 1681.33  140.29
  -1   6  -2   10.70    1.50
   5  -6   2    3.70    1.60
  -6   5  -2    7.50    2.10
   5  -6   2    8.70    2.20
  -6   1   2   12.20    2.30
   6  -5  -2   10.50    2.50
  -5   6   2    5.40    1.90
   6  -1   2    7.00    1.40
  -6   1   2    9.00    1.80
   1   5   2    9.60    1.30
   6  -1   2   13.00    2.30
   6  -5  -2    9.70    2.20
  -6   5  -2    8.20    1.90
   5   1  -2    8.80    1.70
   6  -1   2   10.60    2.10
   1   5   2    8.90    1.20
  -1   6  -2   10.10    1.50
   6  -1   2   11.30    1.90
  -5   6   2    8.80    1.90
   5   1  -2    5.90    1.40
  -5   6  -2    8.40    2.00
  -6   1  -2    8.70    1.90
   6  -5   2    8.20    2.00
   5  -6  -2    8.10    2.00
   6  -1  -2    7.00    1.80
  -1   6   2   10.10    1.50
   6  -1  -2    8.40    1.50
   6  -1  -2    9.30    1.50
   5   1   2    6.00    1.50
   6  -5   2    5.70    2.00
  -6   5   2    7.90    2.00
   1   5  -2    8.90    1.00
  -1   6   2    8.50    1.60
   6  -1  -2    7.80    1.90
  -6   5   2   11.00    2.40
   5   1   2    9.20    1.70
  -6   1  -2    8.00    1.90
   1   5  -2    9.10    1.00
   5  -6  -2    8.40    2.40
  -5   6  -2    8.80    1.80
   6  -6  -2  184.68   17.90
   0   6  -2  223.08   17.10
   6   0   2  210.78   17.80
   0   6   2  228.08   17.30
   0   6  -2  186.48   17.00
   6  -6   2  183.98   18.20
   6  -6   2  204.48   17.90
  -6   6  -2  196.98   18.10
  -6   6   2  206.08   17.80
  -6   6  -2  169.98   17.60
   6   0   2  204.78   17.60
   6  -6  -2  222.08   18.60
   6   0  -2  226.08   17.80
   6   0  -2  204.18   17.70
   0   6   2  231.18   17.20
  -3   7  -2    4.10    0.70
   3   4   2    4.30    0.80
  -7   3   2    4.30    1.70
   7  -3   2    5.40    1.60
   7  -4  -2    5.30    1.60
   4   3  -2    4.40    0.80
   4  -7   2    3.70    1.40
  -4   7   2    3.20    1.10
  -7   4  -2    4.20    1.60
   4   3  -2    3.30    0.80
   3   4   2    3.90    0.70
  -7   3   2    4.40    1.60
  -4   7   2    3.90    1.10
   7  -4  -2    5.00    1.80
  -3   7  -2    4.40    0.70
  -4   7   2    5.30    1.70
  -3   7  -2    4.60    1.50
  -7   4  -2    4.10    1.50
  -3   7  -2    4.00    1.30
   7  -3   2    2.30    1.40
   4   3   2    3.70    1.00
   7  -4   2    5.20    1.60
  -4   7  -2    5.90    1.20
  -4   7  -2    3.30    1.30
   4  -7  -2    5.90    1.60
  -3   7   2    4.10    1.40
  -7   3  -2    3.70    1.50
   7  -4   2    4.10    1.50
  -7   4   2    3.70    1.50
  -7   4   2    3.90    1.70
  -3   7   2    2.90    0.80
  -3   7   2    5.20    1.00
  -4   7  -2    5.10    1.30
   7  -3  -2    5.00    1.40
   7  -3  -2    3.40    1.60
   4   3   2    3.00    0.80
  -7   3  -2    4.40    1.60
  -7   5  -2  742.73   61.09
  -5   7   2  800.82   60.39
  -2   7  -2  805.62   60.49
   7  -2   2  686.73   60.59
   7  -5  -2  723.33   60.69
   5  -7   2  790.72   60.79
   7  -5  -2  668.83   61.09
  -7   5  -2  706.63   60.69
  -2   7  -2  772.82   60.19
   7  -2   2  789.32   60.29
  -5   7   2  611.74   60.59
  -7   2   2  809.02   61.19
  -2   7   2  761.92   60.49
   7  -2  -2  681.93   60.69
  -7   2  -2  684.43   60.59
   5   2   2  795.12   60.29
  -5   7  -2  759.02   60.29
  -7   5   2  802.82   60.89
   5  -7  -2  789.52   60.89
  -2   7   2  614.14   60.09
   7  -5   2  710.53   61.09
   7  -2  -2  689.83   60.19
  -5   7  -2  802.52   60.89
   7  -6  -2   69.79    7.80
  -7   6  -2   69.19    7.50
   6   1  -2   70.09    6.80
   1   6   2   70.09    6.20
   6   1  -2   74.09    6.90
  -6   7   2   58.99    7.20
  -7   6  -2   76.49    7.30
  -1   7  -2   75.29    6.60
   7  -6  -2   73.09    7.40
  -1   7  -2   68.09    6.60
   7  -1   2   74.49    6.40
   7  -1   2   78.69    6.70
   1   6   2   67.19    6.20
   7  -1   2   82.29    7.30
   7  -1  -2   77.09    6.40
  -1   7   2   70.69    6.80
   7  -1  -2   59.89    7.00
   1   6  -2   67.99    5.90
  -7   6   2   77.59    7.30
   6   1   2   71.69    6.80
   6   1   2   68.19    6.90
  -6   7  -2   77.89    7.10
   6  -7  -2   73.99    7.40
   1   6  -2   70.29    5.90
  -6   7  -2   82.09    7.60
   7  -1  -2   71.19    6.40
   7  -6   2   75.69    7.40
  -1   7   2   74.89    6.60
   7  -7  -2    4.80    2.20
   7   0  -2    3.40    1.40
   0   7   2    6.20    1.20
  -7   7   2    7.00    2.30
   0   7  -2    7.20    1.20
  -7   7  -2    8.60    2.10
   0   7   2    8.40    1.50
   7  -7  -2    4.50    1.90
   7  -7   2    9.00    2.30
  -7   7  -2    5.40    2.00
   7   0   2    5.70    1.60
  -7   7   2    5.30    1.80
   0   7  -2    4.50    1.00
  -4   8  -2  136.69   12.90
  -4   8  -2  181.78   13.20
   8  -4  -2  152.28   14.40
  -8   4   2  159.68   14.20
   4   4   2  158.28   12.90
   4   4   2  156.58   12.80
   8  -4   2  145.69   14.20
   8  -4  -2  164.58   13.90
  -4   8   2  140.79   13.10
  -8   4  -2  170.28   14.30
  -4   8   2  143.19   13.70
   8  -4   2  162.58   13.90
  -4   8  -2  147.39   13.70
   8  -3   2   49.10    5.80
  -3   8  -2   46.40    5.20
  -5   8   2   45.00    5.00
  -8   5  -2   59.49    6.00
   8  -3   2   47.60    5.30
   8  -5  -2   58.49    5.90
  -5   8   2   52.39    5.70
   8  -5  -2   55.49    6.30
   5   3  -2   56.59    4.70
   5   3  -2   48.20    4.70
  -5   8  -2   50.09    5.10
   8  -3  -2   54.39    5.40
   8  -3  -2   58.19    6.20
   5   3   2   58.09    5.10
   8  -5   2   49.10    5.60
   5   3   2   55.39    4.90
  -3   8   2   54.39    5.40
  -5   8  -2   48.20    5.60
  -8   5   2   47.10    5.70
  -8   6  -2 1138.29   89.09
  -6   8   2 1007.80   88.49
   8  -6  -2 1140.09   89.19
   8  -6  -2 1112.59   89.79
  -6   8   2  992.20   89.09
  -8   6   2 1188.98   89.69
   8  -6   2  993.60   89.39
   8  -6   2 1188.68   89.09
  -6   8  -2  974.70   88.39
  -8   6   2 1141.49   89.09
   6   2   2 1114.49   88.29
   7   1  -2  252.07   21.80
   1   7   2  291.87   21.00
   8  -7  -2  243.88   23.10
  -8   7  -2  252.37   22.20
   8  -1   2  288.27   21.10
  -8   7  -2  313.27   23.20
   8  -7  -2  239.38   22.30
  -1   8  -2  251.17   21.30
   8  -1   2  258.77   22.10
   8  -1   2  229.78   21.10
   8  -7   2  211.38   22.10
  -8   7   2  252.17   22.20
   8  -1  -2  246.68   22.10
  -7   8  -2  260.57   22.60
  -1   8   2  231.18   21.30
   7  -8  -2  266.67   22.60
  -7   8  -2  293.17   22.20
   7   1   2  237.98   21.70
   0   8   2  414.76   32.20
  -8   8   2  381.66   33.50
   8  -8  -2  379.66   33.20
   0   8  -2  379.16   31.60
  -8   8  -2  403.56   32.90
  -8   8  -2  320.67   33.00
   8   0   2  386.86   32.50
   0   8  -2  410.26   31.70
  -8   8   2  362.46   32.70
   0   8   2  375.56   31.80
   8   0  -2  389.16   32.70
   8  -8   2  460.85   33.60
   9  -4   2    8.70    2.50
   9  -5  -2    8.50    2.70
   9  -4   2   11.70    2.50
  -5   9   2    9.80    2.40
  -4   9  -2    8.70    2.00
  -9   5  -2   12.70    3.10
  -5   9   2    5.90    1.50
   9  -5  -2    8.50    2.30
  -4   9   2    6.20    1.80
   9  -4  -2    8.70    2.50
  -4   9   2   10.90    1.00
   5   4   2    9.80    1.30
  -5   9  -2    7.00    2.00
  -4   9   2    9.80    0.90
  -5   9  -2    6.80    1.50
   5   4   2   11.40    1.40
   9  -5   2    7.30    2.10
   9  -4  -2   12.00    2.50
   9  -5   2    8.70    2.60
  -3   9  -2  267.17   25.90
   9  -6  -2  293.27   27.30
  -6   9   2  355.86   26.10
   9  -6  -2  311.47   26.70
  -6   9   2  329.47   26.80
   6   3  -2  350.86   25.60
   6   3  -2  304.77   25.50
  -3   9   2  288.07   26.00
   6   3   2  306.07   25.60
   9  -6   2  334.97   27.40
   9  -3  -2  262.97   26.60
  -9   6   2  312.87   26.80
   9  -3  -2  295.37   26.00
  -6   9  -2  315.97   25.90
   9  -6   2  287.47   26.50
  -6   9  -2  337.77   26.80
  -2   9  -2   25.70    3.00
   9  -2   2   27.00    2.90
  -9   7  -2   15.70    3.50
   9  -7  -2   23.40    4.80
   7   2  -2   23.50    2.90
   9  -2   2   21.60    3.80
  -7   9   2   24.90    4.30
  -7   9   2   22.80    3.30
   9  -7  -2   23.50    4.20
   9  -2  -2   23.20    2.70
   9  -2  -2   26.20    4.40
  -2   9   2   26.70    3.10
   7   2   2   16.40    2.70
   9  -7   2   25.30    4.30
  -7   9  -2   28.20    3.30
  -9   8  -2    5.30    2.10
   8   1  -2    7.80    1.80
  -1   9  -2    7.50    1.50
   1   8   2    5.10    0.80
   1   8   2    5.40    0.80
   9  -1   2    5.60    1.80
  -9   8  -2    4.70    2.30
   9  -8  -2    2.00    1.70
  -8   9   2    6.80    2.00
  -8   9   2    4.10    2.10
  -8   9  -2    4.20    2.00
  -9   8   2    6.60    2.10
  -1   9   2    4.10    1.20
  -8   9  -2    3.40    1.50
   9  -1  -2    3.70    1.80
   9  -8   2    3.50    1.90
   8   1   2    3.90    1.50
  -9   9   2  144.19   14.20
  -9   9  -2  137.59   13.20
  -9   9  -2  140.89   14.00
   0   9   2  149.59   12.20
   0   9  -2  143.49   11.90
  -9   9   2  148.39   13.40
   0   9  -2  140.59   11.90
   9   0  -2  145.79   13.20
  -5  10   2  147.99   13.40
  -5  10  -2  137.19   11.80
  10  -5  -2  143.49   14.20
  10  -5   2  151.08   14.00
  10  -5  -2  146.89   13.30
  -5  10   2  158.28   12.10
  -5  10  -2  129.39   13.10
  10  -5   2  147.59   13.30
  10  -6  -2  413.56   34.90
  10  -4   2  411.66   33.40
  10  -6  -2  422.06   33.90
  -6  10   2  372.36   33.70
  10  -4   2  417.76   34.20
  -6  10   2  374.16   32.80
  -4  10  -2  463.85   33.60
  10  -4  -2  328.97   33.10
   6   4   2  384.66   32.40
  -6  10  -2  447.66   32.90
  10  -6   2  380.96   33.70
  -6  10  -2  331.27   33.50
  10  -4  -2  417.66   34.50
   6   4   2  409.76   32.60
  10  -6   2  402.16   34.50
  -4  10   2  400.16   33.40
  10  -7  -2    7.50    2.50
  10  -7  -2    6.00    3.00
  -7  10   2    7.90    2.40
  10  -3   2    2.80    1.80
  -3  10  -2    7.00    1.80
   7   3  -2    7.20    1.50
  10  -3   2    9.70    1.90
  -7  10   2    6.90    1.80
 -10   7  -2   12.90    3.10
  10  -3  -2    9.80    2.00
  -7  10  -2   13.80    3.20
 -10   7   2    4.10    2.00
  10  -3  -2   12.10    3.10
  10  -7   2   10.00    2.60
  -7  10  -2    9.90    2.10
  -3  10   2   10.00    2.10
  10  -8  -2   88.49    9.40
  10  -2   2   83.79    7.80
 -10   8  -2   92.19    9.30
  -8  10   2   88.49    9.50
   8   2  -2   90.09    8.20
  -2  10  -2  102.29    8.30
  -8  10   2   89.59    8.70
  10  -2   2  103.29    9.20
  10  -2  -2   88.59    7.50
   8   2   2   85.89    8.20
  -8  10  -2   80.79    9.30
  10  -8   2   84.09    9.20
  -2  10   2   75.99    8.10
  -8  10  -2  102.39    8.80
  10  -2  -2   81.79    9.00
  -9  10   2   42.40    5.50
  -1  10  -2   27.30    3.40
 -10   9  -2   38.20    4.80
  10  -1   2   34.40    4.50
  10  -9  -2   35.80    5.10
  -9  10   2   42.00    4.70
   9   1  -2   37.80    4.30
  -9  10  -2   37.90    5.30
  -1  10   2   38.80    3.70
   9   1   2   32.60    4.10
 -10   9   2   27.80    4.40
  10  -1  -2   34.90    4.60
  -9  10  -2   30.30    4.20
  10  -9   2   41.30    5.30
  10   0  -2  414.26   34.40
 -10  10  -2  361.26   34.20
  10   0   2  422.06   34.30
 -10  10   2  421.96   34.60
   0  10   2  408.46   33.00
  -6  11   2    6.80    2.20
  11  -6  -2    7.80    2.40
  11  -5   2    9.80    2.40
  11  -5   2    2.00    2.00
  -5  11  -2    9.10    2.30
  11  -6  -2    7.90    3.00
  -6  11   2    8.00    1.40
  11  -6   2    5.50    2.70
  -6  11  -2    8.00    1.20
  11  -5  -2    7.80    2.80
  11  -6   2    6.70    2.20
  -6  11  -2    7.20    2.20
  11  -5  -2   10.30    2.40
  -5  11   2    7.10    2.10
  11  -4   2  121.29   12.90
  11  -7  -2  137.59   12.80
  11  -4   2  103.39   11.80
  -7  11   2  137.09   11.80
  -4  11  -2  147.69   12.40
   7   4   2  152.98   11.40
  11  -7   2  149.19   12.90
  11  -4  -2  135.39   12.10
  -7  11  -2  112.09   11.60
  11  -4  -2  139.29   13.30
  -7  11  -2  135.99   12.80
  -8  11   2   11.90    2.40
  -8  11   2   16.10    3.60
  -3  11  -2   14.00    2.50
 -11   8  -2   11.40    3.10
  11  -8  -2   12.40    3.20
  11  -3   2   10.50    2.00
  11  -3   2   11.60    3.00
   8   3  -2   11.90    1.90
  -8  11  -2   10.60    3.00
  11  -3  -2    8.00    1.70
  -8  11  -2   12.50    2.40
  11  -3  -2    5.20    2.40
   8   3   2   10.90    2.00
 -11   8   2   12.40    3.70
  11  -8   2    8.60    2.70
  -3  11   2    7.60    2.00
  11  -9  -2    3.30    2.00
 -11   9  -2    4.00    2.10
   9   2  -2    2.00    1.20
  -9  11   2    4.60    1.80
  -2  11  -2    2.10    1.00
  -9  11   2    3.40    2.10
  11  -2   2    5.00    2.10
  -9  11  -2    1.50    1.70
 -11   9   2    2.50    1.80
  -2  11   2    2.70    1.10
   9   2   2    2.10    1.20
  -9  11  -2    3.30    1.50
  11  -2  -2    2.70    1.70
  11  -9   2    0.90    1.60
  -1  11  -2   88.99    7.50
 -10  11   2   75.19    8.50
 -11  10  -2   86.99    8.90
  10   1   2   90.99    8.50
  -1  11   2   77.89    7.60
  11  -1  -2   89.89    9.00
 -10  11  -2   92.99    8.70
 -11  10   2   79.39    8.80
 -11  11   2   14.50    3.40
 -11  11  -2   21.60    3.90
  11   0  -2   19.20    3.70
  11   0   2   19.30    3.70
  12  -6  -2   46.20    6.90
  12  -6  -2   51.99    5.90
  -6  12  -2   55.49    6.10
  12  -6   2   41.60    5.70
  12  -6   2   60.89    7.20
  -6  12   2   53.89    6.00
  12  -5   2   12.70    3.50
  12  -7  -2   15.10    3.40
  12  -5   2   16.60    3.00
  -7  12   2   13.50    3.20
  -5  12  -2   16.70    3.20
  -5  12   2   20.60    3.50
  -7  12  -2   10.40    2.90
  12  -5  -2   16.90    4.20
  12  -7   2   16.10    3.50
  12  -5  -2   17.00    3.20
  -8  12   2  304.07   23.40
  -4  12  -2  259.97   23.60
  12  -4   2  278.57   23.40
  12  -4   2  291.97   24.80
  -8  12   2  294.07   24.70
  12  -8  -2  251.17   24.30
   8   4   2  269.77   22.80
  -4  12   2  293.97   23.80
  -8  12  -2  236.78   24.20
  12  -8   2  273.37   24.40
  12  -4  -2  303.77   25.20
  12  -4  -2  263.77   23.40
  -9  12   2   67.39    7.80
   9   3  -2   63.49    6.00
  12  -9  -2   60.99    7.60
  -3  12  -2   74.69    6.60
  12  -3   2   57.59    7.20
  12  -3   2   64.79    5.80
  -3  12   2   66.39    6.50
  12  -9   2   63.79    7.50
  -9  12  -2   56.99    6.40
   9   3   2   65.79    6.20
  12  -3  -2   71.89    7.80
  -9  12  -2   52.89    7.30
  12 -10  -2  143.69   13.50
 -10  12   2  133.09   12.20
 -10  12   2  143.59   13.60
  -2  12  -2  125.69   11.40
  12  -2   2  116.69   12.60
 -12  10  -2  124.79   12.80
 -10  12  -2  127.49   12.10
  -2  12   2  137.29   11.60
  12  -2  -2  140.29   13.00
 -12  10   2  115.79   12.70
 -10  12  -2  131.29   13.40
  10   2   2  130.69   11.90
  13  -6   2    0.90    1.30
  -6  13  -2    1.00    1.40
  -7  13   2   -0.30    1.20
  13  -7  -2    0.50    1.40
  13  -6  -2    0.10    1.20
  13  -7   2    1.50    1.50
  13  -6  -2   -0.80    1.60
  -7  13  -2    0.90    1.50
  -6  13   2   -0.40    1.10
  -5  13  -2   72.39    8.10
  13  -5   2   86.49    8.20
  -8  13   2   91.79    9.20
  13  -5  -2   81.39    8.10
  -8  13  -2   89.59    7.30
  -5  13   2   93.39    8.60
  13  -8   2   69.99    8.60
  13  -5  -2   68.99    9.20
   0   0  -3    0.20    0.60
   0   0  -3    0.10    0.60
   0   0   3   -0.10    0.50
   0   0   3   -0.10    0.40
   0   0  -3    0.00    0.50
   0   1   3  382.06   30.10
  -1   1  -3  349.27   30.10
   0   1   3  410.66   30.10
   1   0  -3  410.16   30.10
   1   0  -3  330.47   29.90
   1   0   3  386.06   30.10
   1   0   3  340.27   29.90
   0  -1   3  380.06   30.00
   0  -1  -3  364.76   30.10
   1   0   3  361.76   30.10
   1   0  -3  380.76   30.10
  -1   0  -3  362.36   30.10
  -1   1  -3  346.57   30.10
  -1   1  -3  363.06   30.10
   0  -1  -3  397.56   30.10
   1   0  -3  384.36   30.20
  -1   0  -3  332.87   30.10
   1   0   3  381.46   30.20
   1  -1   3  313.87   29.90
   0   1  -3  372.06   30.00
  -1   1   3  391.06   30.00
   1   1  -3   -0.20    0.30
  -1  -1  -3    0.00    0.50
   1   1  -3   -0.10    0.20
   2  -1  -3    0.00    0.50
   1  -2  -3    0.20    0.50
  -1   2   3    0.10    0.50
   2  -1   3   -0.30    0.40
  -1   2  -3    0.40    0.50
   2  -1  -3    0.30    0.60
   1   1   3    0.00    0.50
  -1   2   3   -0.20    0.50
  -2   1  -3    0.10    0.60
   2  -1  -3    0.00    0.50
  -1  -1   3   -0.10    0.40
  -1   2   3    0.00    0.40
  -1   2   3    0.40    0.40
   1  -2  -3   -0.40    0.50
   1  -2   3    0.80    0.50
  -1  -1  -3    0.50    0.50
   2  -1  -3    0.40    0.50
  -2   1   3    0.00    0.60
  -1   2  -3   -0.20    0.40
  -2   1   3    0.10    0.50
   1   1   3   -0.10    0.40
  -1   2  -3    0.10    0.40
  -1  -1   3    0.30    0.40
   1   1   3    0.00    0.40
   1  -2   3    0.30    0.50
  -2   1  -3   -0.10    0.50
   1   1   3    0.00    0.30
  -1   2  -3   -0.80    0.40
   2  -1   3   -0.10    0.50
   1   1  -3    0.30    0.50
   1   1  -3   -0.10    0.40
   0   2   3  262.27   20.60
   0  -2  -3  236.28   20.60
  -2   2  -3  276.57   20.80
   0   2  -3  241.28   20.50
  -2   0   3  266.27   20.50
   0   2   3  242.38   20.70
  -2   2   3  235.18   20.70
  -2   0  -3  249.48   20.60
   2  -2   3  206.38   20.60
  -2   2  -3  238.08   20.60
   2   0   3  279.67   20.80
   2   0   3  221.58   20.50
   2  -2  -3  234.88   20.70
   0   2   3  254.97   20.40
   0  -2  -3  222.18   20.40
  -2   2   3  280.37   20.70
   0  -2   3  268.97   20.50
  -2   0  -3  247.18   20.60
   2   0  -3  274.17   20.50
   2  -2  -3  234.08   20.60
   2  -2   3  236.88   20.50
   2   0  -3  276.67   20.40
  -2   3   3   49.40    4.60
   2  -3   3   41.50    4.30
   1  -3  -3   46.00    4.30
  -2  -1  -3   44.60    4.20
  -2   3   3   38.80    4.20
   1   2   3   40.30    3.80
   1   2   3   46.50    4.20
   1   2   3   47.90    3.80
  -1   3  -3   50.39    4.30
  -3   1   3   41.10    4.40
  -3   1   3   41.10    4.20
   3  -1   3   56.19    4.60
   3  -2  -3   49.60    4.70
   3  -1   3   46.20    4.40
  -2  -1  -3   43.60    4.20
  -1   3  -3   45.70    4.00
   2   1  -3   46.20    4.20
   2   1  -3   50.59    4.20
   3  -2  -3   40.40    4.30
   3  -1   3   50.49    4.30
  -1   3  -3   39.60    4.20
   1   2   3   47.60    4.30
  -3   2  -3   40.10    4.40
  -2   3   3   36.80    4.10
  -3   2  -3   44.70    4.40
   3  -1   3   34.80    4.30
  -1   3  -3   45.10    4.00
  -3   2   3   48.00    4.50
   3  -1  -3   43.50    4.50
  -1   3   3   47.30    4.10
  -2  -1   3   42.10    4.30
  -1   3   3   45.10    4.30
  -2   3  -3   49.60    4.30
  -2   3  -3   46.50    4.40
  -3   1  -3   47.70    4.40
   1  -3   3   43.50    4.20
  -2   3  -3   44.60    4.20
  -1  -2  -3   47.70    4.10
  -2  -1   3   42.30    4.00
   3  -1  -3   50.39    4.40
  -3   1  -3   50.69    4.50
   3  -2   3   43.10    4.30
   2   1   3   44.50    4.00
   3  -1  -3   48.40    4.30
   2   1   3   49.90    4.40
  -1  -2  -3   41.10    4.20
   1   2  -3   40.20    4.10
   2   1   3   47.70    3.90
   2  -3  -3   47.20    4.40
  -3   2   3   47.00    4.40
   3  -1  -3   39.40    4.30
  -2   3  -3   47.50    4.40
   1  -3   3   54.79    4.20
   2   1   3   46.60    4.20
  -1   3   3   46.10    4.10
   0   3   3  334.57   25.20
  -3   0  -3  286.87   25.10
   0  -3  -3  310.87   24.90
   0   3   3  306.97   25.00
   3   0  -3  341.87   25.20
   3  -3  -3  315.97   25.20
  -3   0  -3  271.57   25.00
   3   0  -3  259.17   24.80
  -3   0   3  323.07   25.10
   3   0   3  313.37   25.10
   3  -3  -3  268.77   25.40
   0   3  -3  300.47   24.90
   0   3  -3  303.87   24.90
  -3   3  -3  289.17   25.20
   0  -3  -3  322.47   25.10
   3   0  -3  334.27   24.80
   3   0   3  320.67   25.00
   0   3   3  288.77   24.50
  -3   3   3  334.77   25.20
   3  -3   3  283.17   25.10
  -3   3   3  325.67   25.30
   3   0  -3  251.37   25.00
  -2   4   3    0.30    0.60
  -2   4  -3    0.30    0.50
   4  -2  -3   -0.20    0.70
   4  -2   3   -0.10    0.60
   2  -4  -3    0.40    0.60
   2  -4  -3    0.60    0.70
   2   2   3   -0.30    0.50
  -2   4  -3   -0.10    0.40
   2   2  -3    0.50    0.40
   2   2   3   -0.40    0.40
  -2   4   3    0.20    0.70
  -4   2  -3    0.90    0.80
  -2   4   3    0.70    0.60
   4  -2  -3   -0.30    0.60
  -2   4  -3   -0.10    0.50
   2  -4   3    0.90    0.70
   2  -4   3    0.60    0.60
   4  -2  -3   -0.40    0.50
  -4   2  -3   -0.40    0.60
  -2   4   3    0.10    0.50
   4  -2   3   -0.20    0.50
  -2   4  -3    0.10    0.60
  -4   2   3    0.20    0.60
  -4   2   3    0.20    0.60
   2   2  -3    0.30    0.40
  -1   4  -3   27.20    2.30
   1   3   3   24.10    2.70
  -3   4   3   27.00    3.20
   4  -1   3   32.50    3.00
  -3  -1  -3   21.40    2.80
  -4   3  -3   27.10    3.20
   3  -4   3   26.10    3.00
   4  -3  -3   23.80    3.10
  -3   4   3   36.10    3.20
  -4   1   3   36.00    3.30
   3   1  -3   27.70    2.90
  -1   4  -3   28.60    2.90
  -4   3  -3   30.30    3.30
   4  -1   3   31.60    3.30
   1   3   3   31.80    3.00
   4  -1   3   31.60    3.30
   3   1  -3   24.50    2.90
   3  -4   3   30.80    3.30
  -1   4  -3   26.00    2.30
   4  -3  -3   25.70    3.40
   4  -1   3   20.90    2.90
  -3   4   3   32.80    3.10
  -4   1   3   27.70    3.00
   1  -4  -3   32.70    3.00
   1  -4  -3   27.40    3.10
   3   1   3   29.30    2.40
  -1   4   3   26.60    3.00
   4  -1  -3   27.60    3.00
   1   3  -3   27.50    2.70
   3  -4  -3   30.00    3.40
   1  -4   3   27.90    2.80
   4  -1  -3   34.50    3.30
   4  -3   3   19.90    3.10
  -4   1  -3   30.10    3.20
   3   1   3   29.10    2.40
  -1   4   3   24.30    2.60
  -3   4  -3   33.10    3.30
   4  -1  -3   25.90    2.90
   4  -3   3   30.00    3.20
   3   1   3   31.90    3.00
  -1   4   3   27.80    2.60
  -3   4  -3   28.20    3.00
  -4   1  -3   35.10    3.30
   3   1   3   29.60    3.10
   1   3  -3   25.80    2.70
  -1   4   3   32.10    3.30
   3  -4  -3   20.20    3.00
   4  -1  -3   25.40    3.20
  -3   4  -3   34.20    3.10
  -4   3   3   29.80    3.30
  -4   3   3   25.30    3.10
  -4   0   3    6.40    1.40
   4   0  -3    7.20    1.50
   0   4   3    6.90    1.20
   4  -4   3    5.70    1.40
   4   0   3    7.50    1.30
   4   0  -3    6.40    0.90
  -4   0  -3    6.00    1.40
   0   4  -3    4.80    1.10
   0   4  -3    4.40    1.00
   4   0   3    6.60    1.10
  -4   4   3    5.80    1.50
   4   0   3    5.00    1.30
   4  -4   3    2.70    1.20
   4   0   3    5.80    1.30
   4  -4  -3    4.60    1.40
   4   0  -3    3.20    1.10
   0   4   3    7.10    1.40
   4  -4  -3    2.80    1.30
  -4   4  -3    4.50    1.30
  -4   4  -3    3.60    1.20
  -4   0  -3    7.00    1.50
   4   0  -3    7.20    1.10
  -4   4   3    4.70    1.30
   2  -5  -3  325.87   25.80
   3  -5   3  287.67   25.80
  -2   5  -3  330.07   25.40
  -5   2   3  296.57   26.00
   2  -5  -3  355.06   26.20
   5  -2   3  283.97   26.00
  -5   2   3  346.17   26.10
  -2   5  -3  313.87   25.90
   3  -5   3  326.57   26.10
   5  -2   3  255.17   25.90
  -5   3  -3  323.17   26.20
  -3   5   3  357.76   26.40
  -3   5   3  316.17   26.00
   5  -3  -3  289.07   25.90
  -5   3  -3  291.77   26.00
  -3   5   3  360.96   25.90
   5  -3  -3  299.37   26.30
   3   2  -3  327.57   25.50
  -2   5  -3  311.97   25.30
  -3   5   3  332.47   25.70
   2   3   3  264.27   25.40
   5  -2  -3  319.77   26.30
  -3   5  -3  308.47   25.90
   5  -3   3  257.07   26.00
  -5   3   3  354.66   26.40
   2   3  -3  268.27   25.30
   2   3  -3  266.27   25.30
  -2   5   3  348.07   25.60
   2  -5   3  289.57   25.80
   5  -2  -3  351.16   26.30
  -3   5  -3  332.77   25.80
  -3   5  -3  331.67   25.70
   3  -5  -3  315.37   26.30
   3  -5  -3  302.57   25.90
  -2   5   3  317.27   26.10
  -5   2  -3  334.27   26.20
   5  -2  -3  322.67   25.90
   3   2   3  304.37   25.60
   3   2   3  315.27   25.80
   5  -2  -3  261.77   25.70
   5  -3   3  276.77   25.90
  -2   5   3  357.36   26.00
  -5   3   3  316.27   26.00
  -3   5  -3  271.27   25.90
   5  -1   3   18.20    2.30
  -5   4  -3   15.80    2.30
  -5   1   3   14.90    2.10
   1  -5  -3   16.20    2.00
   5  -4  -3   18.20    3.10
  -5   1   3   14.40    2.20
  -5   4  -3   18.60    2.60
   5  -1   3   16.10    2.30
   1   4   3   17.30    2.00
   5  -4  -3   15.40    2.30
  -4   5   3   11.40    2.20
   5  -1   3    9.90    2.10
  -1   5  -3   12.80    1.80
   5  -1   3   14.60    1.90
  -1   5  -3   11.20    1.80
   4  -5   3   12.40    2.30
   4  -5   3   18.70    2.50
   1   4   3   15.90    1.90
   4   1  -3   13.90    2.00
   4   1  -3   15.50    2.00
   5  -1  -3   12.20    1.90
   4   1   3   17.60    2.10
   4   1   3   17.00    2.20
  -5   1  -3   18.40    2.40
   4  -5  -3   15.70    2.30
  -4   5  -3   17.10    2.30
  -4   5  -3   16.20    2.20
  -5   4   3   16.10    2.30
   5  -1  -3   15.00    2.00
  -1   5   3   17.10    2.10
  -1   5   3   15.70    2.20
   1   4  -3   15.20    1.70
   5  -1  -3   15.60    2.70
   1   4  -3   16.90    1.70
   5  -4   3   13.50    2.50
   5  -4   3   15.00    2.30
   4  -5  -3   15.60    2.90
  -4   5  -3   14.50    2.20
   5  -1  -3   18.30    2.50
  -5   1  -3   16.00    2.30
   0   5   3   46.80    5.10
  -5   5  -3   46.20    5.40
   5  -5   3   60.89    6.00
   0   5  -3   59.19    5.10
   5   0  -3   43.50    5.30
  -5   0  -3   51.39    5.40
   0   5   3   63.59    5.40
   5   0   3   64.89    5.60
   5  -5  -3   50.79    6.00
  -5   0  -3   57.39    5.50
   5   0   3   51.59    5.00
  -5   5   3   69.09    6.10
  -5   5   3   52.49    5.50
   5   0  -3   56.29    5.60
   0   5  -3   50.19    5.00
   5   0  -3   55.49    4.60
   5  -5  -3   65.99    5.90
   5   0  -3   55.29    4.60
  -5   0   3   55.49    5.30
   5   0   3   65.59    5.80
  -5   5  -3   66.69    6.00
   3  -6   3    0.60    0.80
   3  -6  -3    0.60    0.80
  -3   6  -3   -0.60    0.70
  -3   6  -3    0.90    0.60
   3  -6   3    0.10    0.60
  -3   6   3    0.60    0.90
  -6   3  -3   -0.50    0.70
  -3   6   3   -0.20    0.50
   3   3  -3    0.60    0.40
   6  -3  -3    0.60    1.00
  -3   6   3    0.60    0.70
  -3   6  -3    0.30    0.50
  -6   3   3   -0.30    0.70
  -3   6  -3    1.00    0.90
   3   3   3    0.50    0.60
   3  -6  -3    1.30    1.00
  -3   6   3    0.50    0.80
   3   3  -3    0.30    0.40
   6  -3   3    0.50    0.90
   6  -3   3    0.40    0.90
   6  -3  -3    0.80    0.90
  -6   3  -3   -0.10    0.90
   3   3   3    0.20    0.40
  -6   3   3    0.40    0.70
   6  -2   3   62.49    5.70
   2   4   3   67.69    5.50
  -4   6   3   68.59    5.90
  -4   6   3   68.09    6.30
   2   4   3   61.89    5.30
  -2   6  -3   51.09    5.50
   6  -2   3   52.49    6.00
   2  -6  -3   55.39    5.60
   6  -4  -3   58.49    6.00
  -4   6   3   62.09    6.10
   6  -2   3   48.80    5.80
  -2   6  -3   69.29    5.90
   6  -4  -3   57.49    6.40
   6  -2   3   65.29    6.10
   4   2  -3   47.80    5.30
  -6   2   3   64.29    6.00
  -4   6   3   62.59    5.70
  -6   2   3   55.49    5.90
   4  -6   3   68.39    6.20
   4   2  -3   58.49    5.40
  -6   4  -3   59.99    6.00
  -6   4  -3   47.00    6.00
  -2   6   3   54.89    5.80
   6  -2  -3   65.39    5.90
  -2   6   3   57.79    5.00
  -6   4   3   63.49    6.30
   2  -6   3   67.69    5.60
  -6   2  -3   51.79    5.90
   4  -6  -3   60.99    6.00
   2   4  -3   57.89    5.00
  -6   2  -3   59.19    6.00
  -2   6   3   57.89    5.70
   4   2   3   53.89    5.40
  -4   6  -3   56.79    6.00
   6  -4   3   60.29    5.90
  -6   4   3   54.99    5.90
  -4   6  -3   64.59    5.70
   6  -4   3   60.99    6.20
   2   4  -3   55.79    5.00
   4   2   3   65.69    5.70
   6  -2  -3   53.49    6.00
  -2   6   3   56.29    5.00
   4  -6  -3   45.70    6.10
  -4   6  -3   58.69    5.60
  -4   6  -3   49.80    5.80
   5   1  -3   27.10    2.80
  -6   5  -3   19.00    2.90
   6  -1   3   23.40    2.80
   1   5   3   16.90    2.30
  -6   1   3   24.10    2.90
   6  -5  -3   26.20    3.60
   5   1  -3   23.30    2.70
   1   5   3   24.40    2.60
  -1   6  -3   15.00    2.40
   6  -5  -3   21.00    3.00
   6  -1   3   23.20    3.00
   5  -6   3   17.80    3.40
  -5   6   3   20.70    2.80
  -1   6  -3   21.40    2.50
   5  -6   3   18.20    2.80
   6  -1   3   22.20    2.50
  -6   5  -3   18.00    3.40
   6  -1   3   27.10    3.20
  -5   6   3   26.50    3.30
  -6   1   3   32.00    3.30
   6  -1  -3   21.50    2.50
  -5   6  -3   20.80    3.10
   6  -5   3   19.40    3.00
   6  -1  -3   25.70    2.60
  -1   6   3   24.90    2.70
  -6   1  -3   22.30    3.00
  -6   5   3   24.60    3.10
   5   1   3   21.10    2.60
   6  -1  -3   22.20    3.00
   5   1   3   26.70    3.00
   5  -6  -3   22.60    3.10
   6  -5   3   26.10    3.40
  -6   5   3   21.40    3.20
   5  -6  -3   21.40    3.80
  -5   6  -3   20.40    2.80
  -6   1  -3   18.80    2.80
  -1   6   3   19.70    2.70
   1   5  -3   17.30    2.10
   6  -1  -3   19.70    3.00
   1   5  -3   23.10    2.20
  -6   6  -3    1.20    1.00
   6  -6  -3    2.40    1.40
   6  -6  -3    0.50    1.10
  -6   6  -3    3.70    1.60
  -6   6   3    0.80    1.20
  -6   6   3    2.80    1.30
   6   0   3    2.00    0.50
   6   0   3    2.40    1.20
   0   6  -3    1.50    0.70
   6   0   3    1.80    0.50
   0   6   3    1.50    0.90
   6   0  -3    1.30    1.00
   0   6  -3    1.50    0.60
   6  -6   3    1.00    1.10
   0   6   3    1.30    0.80
   6   0  -3    2.00    1.10
  -3   7  -3   72.79    6.60
   7  -4  -3   87.19    7.70
   3   4   3   74.79    6.80
  -3   7  -3   69.69    7.30
  -7   3   3   94.59    7.90
  -3   7  -3   81.79    6.60
   7  -3   3   75.89    7.40
  -4   7   3   80.49    7.10
   4   3  -3   80.49    6.80
   3   4   3   77.99    7.00
  -4   7   3   68.29    7.50
  -7   4  -3   73.69    7.90
   4   3  -3   76.69    6.80
   7  -4  -3   79.99    8.10
   7  -3   3   77.19    7.80
   7  -4   3   64.39    7.40
  -4   7  -3   84.09    7.70
  -4   7  -3   70.49    7.00
  -7   3  -3   81.89    7.80
  -7   4   3   77.39    7.90
  -3   7   3   73.99    7.40
  -7   3  -3   81.69    8.00
   3   4  -3   79.29    6.50
  -3   7   3   89.29    6.90
  -3   7   3   83.49    6.80
  -7   4   3   80.39    7.70
   4   3   3   85.59    7.20
   4   3   3   64.99    6.80
  -4   7  -3   85.19    7.60
   7  -3  -3   61.89    7.70
   3   4  -3   77.99    6.50
   4  -7  -3   81.69    7.70
   7  -3  -3   81.59    7.50
  -7   5  -3   80.99    8.70
  -2   7  -3   90.39    8.30
   7  -2   3   92.49    8.30
  -7   5  -3  101.79    9.30
  -5   7   3   98.09    8.50
  -2   7  -3  110.09    8.70
   2   5   3  100.19    8.10
   5   2  -3   94.79    8.20
   7  -5  -3   86.19    8.80
   5  -7   3   89.69    8.70
   7  -5  -3   91.79    9.30
  -5   7   3   92.59    8.90
   7  -2   3   81.69    8.60
   2   5   3   82.29    7.80
   5   2  -3   87.19    8.10
   2   5  -3   87.19    7.40
  -5   7  -3  100.59    9.00
   7  -2  -3   71.39    8.60
   5   2   3  103.99    8.30
  -5   7  -3   92.99    8.40
   7  -2  -3   74.59    8.20
  -7   5   3  101.69    9.30
   5  -7  -3   81.69    8.70
  -7   2  -3   98.99    9.40
  -7   5   3   93.79    8.80
   5   2   3  105.49    8.60
   7  -5   3   98.59    9.20
   7  -5   3   95.59    8.90
   2   5  -3   87.99    7.40
  -2   7   3   87.99    8.40
   6   1  -3   17.60    2.60
   7  -6  -3   14.40    3.40
   7  -1   3   19.80    2.80
   6   1  -3   19.80    2.60
  -7   6  -3   22.60    4.00
   7  -6  -3   21.20    3.20
  -6   7   3   20.80    2.90
  -1   7  -3   18.90    2.30
  -7   6  -3   21.00    3.00
   1   6   3   17.10    2.10
   7  -1   3   16.90    2.30
  -1   7  -3   20.70    2.50
   1   6   3   21.90    2.40
   6  -7   3   19.40    3.40
  -7   6   3   19.50    3.70
  -1   7   3   13.10    2.60
   1   6  -3   20.60    1.90
  -6   7  -3   20.50    2.80
   7  -1  -3   19.50    2.20
   7  -1  -3   16.60    3.10
   7  -1  -3   18.50    2.20
   6   1   3   22.70    2.70
  -7   6   3   21.50    3.00
   7  -6   3   20.50    3.70
   1   6  -3   20.20    2.00
  -1   7   3   19.30    2.50
   7  -6   3   21.70    3.10
   6  -7  -3   17.50    3.30
  -7   7   3  161.48   14.10
   7   0   3  136.99   13.20
   7  -7  -3  156.18   13.90
  -7   7   3  175.18   13.70
  -7   7  -3  162.18   14.10
  -7   7  -3  129.89   13.30
   0   7   3  151.18   12.90
   0   7  -3  145.59   12.60
   7  -7   3  137.49   13.60
   8  -4  -3    0.10    1.30
   8  -4  -3    0.20    1.00
  -4   8   3   -0.10    0.60
   8  -4   3    0.70    1.20
  -4   8   3    1.60    1.20
   4   4   3    0.10    0.50
   4   4   3   -0.10    0.60
  -8   4   3    0.50    1.10
  -8   4  -3   -0.80    0.90
   4   4  -3    0.30    0.30
   8  -4   3    0.80    1.00
  -4   8  -3    0.20    0.80
  -4   8  -3    0.20    0.50
   4   4  -3    0.10    0.30
   8  -3   3    1.90    1.20
   8  -3   3    2.50    1.50
   5   3  -3    1.30    0.70
   8  -5  -3    0.90    1.40
  -3   8  -3    1.40    1.10
   5   3  -3    3.30    0.90
   8  -5  -3    2.00    1.30
  -8   5  -3    2.00    1.40
  -5   8   3    1.20    0.90
  -5   8   3    1.80    1.20
   3   5   3    1.80    0.60
   3   5   3    2.50    0.80
   8  -3  -3    1.40    1.30
   8  -5   3    1.40    1.10
  -8   5   3    1.60    1.30
   5   3   3    1.70    1.00
   8  -3  -3    2.40    1.20
  -5   8  -3    1.50    0.90
   8  -5   3    2.00    1.60
  -3   8   3    1.00    1.00
   5   3   3    1.50    0.80
  -5   8  -3    1.20    1.10
  -8   6  -3   60.29    6.40
   8  -6  -3   58.39    6.50
  -2   8  -3   60.89    5.80
   8  -2   3   54.69    6.30
   6   2  -3   63.09    5.70
  -6   8   3   58.39    6.50
   2   6   3   62.89    5.40
   2   6   3   58.29    5.20
   8  -6  -3   58.99    7.10
   8  -2   3   54.69    5.70
  -6   8   3   44.70    5.80
  -8   6  -3   71.49    7.10
  -6   8  -3   59.79    6.50
  -2   8   3   61.69    5.90
  -8   6   3   58.99    6.90
   6   2   3   69.19    5.80
   8  -2  -3   57.79    5.70
   8  -2  -3   55.69    6.40
   8  -6   3   67.19    7.20
   8  -6   3   61.69    6.50
  -6   8  -3   50.79    5.80
   8  -1   3    6.80    2.10
  -8   7  -3   13.30    2.70
   8  -1   3   12.80    1.60
   7   1  -3    7.60    2.00
  -7   8   3   10.70    2.80
  -8   7  -3   13.60    3.20
   8  -7  -3    8.40    2.60
   1   7   3   11.10    1.60
  -7   8   3    8.30    2.20
   1   7   3   11.60    1.70
  -1   8  -3   13.10    1.80
  -8   7   3    9.50    2.80
  -7   8  -3    9.90    2.30
  -7   8  -3   15.80    3.20
   7  -8  -3    7.70    2.50
  -1   8   3   10.10    1.90
   8  -7   3   13.60    3.00
   7   1   3   15.60    2.30
  -8   7   3   14.80    3.00
   1   7  -3   13.00    1.20
   1   7  -3   13.60    1.20
   8  -1  -3    9.40    2.40
  -8   8   3   66.49    7.10
   8  -8   3   77.59    7.70
  -8   8  -3   60.29    7.50
   8   0   3   83.19    7.20
   0   8  -3   67.49    6.00
  -8   8  -3   53.29    6.80
   0   8  -3   69.69    6.10
  -8   8   3   68.69    7.70
  -4   9  -3   61.79    6.00
   4   5   3   57.69    4.90
   9  -4   3   60.99    6.60
   5   4  -3   54.49    4.70
   9  -5  -3   56.19    6.80
   9  -5  -3   56.59    6.10
  -5   9   3   62.79    6.30
  -5   9   3   50.49    5.30
   5   4  -3   51.99    4.70
   4   5   3   57.49    5.00
   9  -4   3   55.19    5.90
   5   4   3   62.39    5.40
  -4   9   3   63.79    6.10
   9  -5   3   53.89    6.50
   9  -5   3   57.99    6.10
  -4   9   3   51.49    4.80
   9  -4  -3   53.99    6.60
  -5   9  -3   54.39    5.30
   5   4   3   54.99    5.10
  -5   9  -3   59.49    6.10
  -6   9   3    3.20    1.80
   9  -6  -3    3.70    1.80
   9  -3   3    5.00    1.60
  -3   9  -3    4.70    1.50
   9  -3   3    4.20    1.80
   6   3  -3    3.50    1.00
   3   6   3    4.30    0.70
   6   3  -3    4.80    1.20
   9  -6  -3    5.50    2.30
  -9   6  -3    5.80    2.10
  -6   9   3    5.10    1.50
  -6   9  -3    5.00    1.40
  -9   6   3    4.10    1.80
   9  -3  -3    3.30    1.80
  -3   9   3    1.70    1.30
   9  -6   3    4.10    1.80
   9  -6   3    4.10    2.00
   6   3   3    5.20    1.30
  -6   9  -3    6.20    2.10
   9  -3  -3    3.10    1.40
   9  -7  -3   13.90    3.20
  -2   9  -3   14.70    2.40
  -9   7  -3   17.20    3.40
   9  -2   3   18.10    2.40
  -7   9   3   14.40    2.80
   7   2  -3   11.60    2.30
  -7   9   3   20.50    3.80
   2   7   3   17.80    1.80
   2   7   3   18.40    1.70
   9  -7   3   15.70    3.20
  -7   9  -3   17.90    2.70
  -9   7   3   24.00    3.40
  -7   9  -3   18.20    3.50
  -2   9   3   19.70    2.60
   7   2   3   17.30    2.50
   9  -2  -3   19.20    2.30
   9  -2  -3   16.50    3.40
  -8   9   3   52.29    6.10
   1   8   3   53.59    5.10
   9  -8  -3   53.79    6.70
   8   1  -3   50.89    5.70
  -8   9   3   60.59    6.80
  -1   9  -3   61.29    5.50
   9  -1   3   60.79    6.30
   1   8   3   57.69    5.90
  -9   8  -3   62.69    6.50
  -8   9  -3   49.30    6.50
  -8   9  -3   56.49    6.10
   9  -1  -3   54.29    6.30
  -9   8   3   45.70    6.10
   9  -8   3   66.39    6.80
  -1   9   3   57.59    5.50
   8   1   3   70.99    6.20
   9   0  -3   35.10    4.30
  -9   9  -3   25.80    4.00
   9   0   3   37.00    4.30
  -9   9   3   39.10    5.20
  -9   9   3   30.40    4.20
   0   9   3   25.60    3.20
   0   9  -3   36.40    3.10
  -9   9  -3   23.40    4.90
  -5  10   3   -0.20    0.40
  10  -5   3   -0.10    1.10
  10  -5  -3    0.30    1.40
   5   5   3   -0.20    0.30
  -5  10  -3    0.10    0.30
  10  -5   3    1.20    1.20
  -5  10   3   -0.20    0.90
  10  -5  -3    0.10    1.00
  -5  10  -3   -0.30    0.90
   5   5   3   -0.10    0.40
   6   4  -3   33.40    3.10
  10  -6  -3   30.40    5.70
  10  -6  -3   39.70    4.70
  10  -4   3   37.90    4.40
  -4  10  -3   34.40    4.30
  -6  10   3   26.30    4.30
   6   4  -3   38.80    3.10
  10  -4   3   29.10    4.70
  -6  10   3   41.50    4.00
  10  -6   3   39.90    5.30
  10  -6   3   34.60    4.60
  -6  10  -3   33.70    3.80
  10  -4  -3   25.80    5.00
   6   4   3   35.60    3.50
  -6  10  -3   37.00    4.60
  10  -4  -3   38.00    4.40
  10  -7  -3    1.50    1.60
  10  -3   3    0.10    1.20
  10  -3   3    1.40    1.10
   7   3  -3    1.80    0.90
  -7  10   3    2.30    1.30
  -3  10  -3    2.30    1.20
 -10   7  -3    1.60    1.40
  -7  10   3    2.90    1.70
  -7  10  -3    3.20    1.30
  10  -7   3    0.90    1.40
 -10   7   3    1.50    1.50
  -3  10   3    2.30    1.20
  -7  10  -3    1.00    1.40
  10  -3  -3    1.20    1.60
   7   3   3    1.80    0.90
  10  -3  -3    1.70    1.10
  -2  10  -3    1.70    1.00
  10  -2   3    2.10    0.90
  -8  10   3    1.80    1.30
 -10   8  -3    1.00    1.50
   8   2  -3    1.30    1.00
  10  -8  -3    3.30    2.00
  -8  10   3    0.60    1.50
  10  -2   3    3.20    1.80
  10  -8   3    3.40    1.90
  -8  10  -3    1.90    1.50
  10  -2  -3    1.00    1.50
  -2  10   3    3.60    1.30
  10  -2  -3    3.40    0.70
   8   2   3    2.00    1.10
 -10   8   3    2.00    1.60
  -8  10  -3    1.80    1.30
   1   9   3    0.70    0.40
 -10   9  -3    0.20    1.20
  10  -9  -3    0.20    1.40
  -9  10   3    0.80    1.30
  -9  10   3    2.50    1.90
  10  -1   3    0.40    1.20
  -1  10  -3    0.70    0.60
   9   1  -3    0.90    1.00
  10  -1  -3   -0.20    1.10
 -10   9   3   -0.60    1.00
  -9  10  -3   -0.40    1.30
  10  -9   3    0.80    1.60
  -9  10  -3    0.10    1.00
  -1  10   3    0.60    0.70
   9   1   3   -0.20    0.80
   0  10   3   20.60    2.20
 -10  10  -3   15.90    3.30
  10   0   3   18.60    3.40
  10   0  -3   19.50    3.60
 -10  10   3   14.50    3.30
  11  -6  -3   37.70    5.80
  11  -5   3   48.10    5.00
  -5  11  -3   37.00    4.60
  11  -6  -3   33.60    4.70
  -6  11   3   39.00    3.80
  11  -5   3   47.40    5.70
  11  -5  -3   35.10    5.40
  11  -5  -3   37.50    4.70
   6   5   3   37.50    3.30
   6   5   3   39.10    3.30
  -5  11   3   36.40    4.70
  -6  11  -3   38.70    5.00
  11  -6   3   26.10    5.50
  -6  11  -3   35.00    3.50
  11  -4   3    0.20    1.10
  -7  11   3    2.80    1.70
  11  -4   3    0.40    1.50
   7   4  -3    2.60    0.50
   7   4  -3    2.50    0.50
  -4  11  -3    1.60    1.20
  -7  11   3    2.10    1.10
  11  -7  -3   -1.20    1.10
  -7  11  -3    2.60    1.70
  11  -7   3    1.30    1.40
  -4  11   3    2.30    1.40
  11  -4  -3    0.10    1.50
  11  -4  -3    1.00    1.10
  -7  11  -3    2.00    1.00
  11  -3   3    1.50    0.90
  -8  11   3    2.20    1.30
  11  -8  -3    1.20    1.70
  -8  11   3    2.60    1.90
 -11   8  -3    1.70    1.70
   8   3  -3    1.10    0.80
  -3  11  -3    0.90    1.00
  11  -3   3    1.30    1.50
  11  -3  -3    1.50    1.70
  -3  11   3    2.20    1.20
   8   3   3    2.10    1.00
  11  -8   3    2.00    1.70
  -8  11  -3    0.80    1.10
  11  -3  -3    2.00    1.00
  -8  11  -3    2.20    1.80
  11  -2   3    4.30    1.90
 -11   9  -3   11.30    3.00
  -2  11  -3    5.70    1.50
  11  -9  -3    6.90    2.70
  -9  11   3    8.60    2.30
  -9  11   3    6.40    2.60
   9   2  -3    3.30    1.40
  -2  11   3    4.80    1.50
 -11   9   3   10.70    2.90
  11  -2  -3    6.70    2.50
  -9  11  -3    5.20    2.50
  11  -9   3    5.30    2.50
  -9  11  -3    5.70    1.80
   9   2   3    8.20    1.90
 -11  10  -3   13.30    3.20
  10   1  -3   17.20    3.10
 -10  11   3   11.00    3.00
  11  -1   3   13.80    3.20
  -1  11  -3   14.10    1.90
 -11  10   3   15.10    3.50
  11  -1  -3   14.60    3.20
 -10  11  -3   11.50    2.80
  10   1   3   20.60    2.90
   0  11   3    0.30    0.40
  11   0   3    0.20    1.10
  11   0  -3    1.10    1.30
 -11  11  -3    1.20    1.40
 -11  11   3   -0.30    1.10
  12  -6   3    1.40    1.80
  -6  12  -3   -0.60    1.10
  12  -6   3   -0.30    1.10
  12  -6  -3   -0.90    1.10
  -6  12   3    1.10    1.40
  12  -6  -3   -0.60    1.00
  12  -7  -3    3.20    1.80
  -7  12   3    1.30    1.50
  12  -5   3    2.30    2.00
  12  -5   3    1.00    1.30
  -5  12  -3    3.30    1.60
  -7  12   3    4.00    1.10
  12  -7   3    3.70    2.00
  -7  12  -3    1.70    0.70
  -7  12  -3    2.50    1.60
  12  -5  -3    2.40    2.10
  12  -5  -3    3.90    1.70
  -5  12   3    4.10    1.90
  -8  12   3    1.40    1.00
  12  -4   3    4.60    2.30
  -4  12  -3    4.90    1.70
  -8  12   3    4.90    2.20
  12  -4   3    3.40    1.40
  12  -8  -3    4.40    2.20
  -8  12  -3    5.90    1.50
  12  -4  -3    3.00    1.40
   8   4   3    3.60    1.10
  12  -8   3    3.70    2.00
  -4  12   3    4.20    1.60
  -8  12  -3    7.90    2.70
  12  -4  -3    3.40    2.20
  -9  12   3    1.50    1.80
  -9  12   3    1.10    1.20
   9   3  -3    1.30    0.90
  12  -9  -3    2.30    1.80
  12  -3   3    1.90    1.80
  12  -3   3    1.30    0.70
  -3  12  -3    0.60    1.00
  -9  12  -3    0.20    1.50
   9   3   3    0.80    1.00
  -9  12  -3   -0.50    0.90
  -3  12   3    0.40    1.00
  12  -3  -3    2.40    1.90
  12  -9   3    0.60    1.50
 -12  10  -3    9.10    3.00
  12  -2   3   15.10    3.50
  12 -10  -3   18.20    4.30
 -10  12   3   12.00    2.90
  10   2  -3   12.40    2.50
 -10  12  -3   15.60    3.00
 -10  12  -3   20.00    4.40
  10   2   3   18.10    3.10
  -2  12   3   16.10    2.40
 -12  10   3   15.90    3.70
  12  -2  -3   12.20    3.30
  12 -10   3   16.40    4.10
  13  -6   3   -0.30    1.50
  13  -6   3    0.00    1.20
  13  -7  -3    0.00    1.30
  -6  13  -3    0.00    1.20
  -7  13   3    0.40    1.40
  13  -6  -3   -1.10    1.60
  -7  13  -3    1.00    1.40
  13  -7   3   -0.50    1.20
  13  -6  -3    0.50    1.30
  -6  13   3    0.70    1.30
  -8  13   3    4.10    2.20
  13  -5   3    9.80    2.30
  13  -5   3   11.90    3.50
  13  -8  -3    6.60    2.50
  -8  13   3   12.70    1.80
  13  -5  -3   14.50    3.90
  13  -8   3   12.20    3.10
  -8  13  -3   11.80    3.10
  13  -5  -3   11.00    2.40
  -5  13   3   10.30    2.80
  -8  13  -3   12.40    1.60
   1  -1   4  429.06   35.00
   3  -2  -4 1049.49   90.19
   1   2  -4 1249.77   89.89
  -3   1  -4 1033.70   89.99
   3   0   4  739.83   53.69
  -3   3   4  639.34   53.69
   3   0  -4  628.34   53.49
  -3   3  -4  679.13   53.69
   3  -3   4  692.13   53.69
   3  -3  -4  598.74   53.69
   0   3   4  545.55   52.99
   3   0   4  693.93   53.49
   0   3   4  666.73   53.59
   3  -3   4  674.03   53.49
   3   0  -4  688.73   53.49
  -3   0   4  673.93   53.49
  -3   0  -4  631.74   53.49
   3  -3  -4  644.44   53.49
  -3   0  -4  728.13   53.59
  -3   3  -4  582.14   53.39
   4  -1   4  513.05   40.30
   4  -3  -4  464.05   40.50
   3  -4   4  504.05   40.40
   3  -4   4  549.15   40.70
   4  -3  -4  539.25   41.00
  -4   1   4  474.05   40.50
  -4   3  -4  511.35   40.50
  -3  -1  -4  453.55   40.30
   1  -4  -4  526.35   40.30
   4  -1   4  450.65   40.40
  -4   3  -4  475.45   40.60
   3   1  -4  406.16   40.10
  -3   4   4  465.25   40.60
  -4   1   4  507.05   40.40
   1   3   4  531.65   40.50
   4  -1   4  491.25   40.60
   1   3   4  493.95   40.20
  -3   4   4  505.45   40.30
   1  -4  -4  546.85   40.60
  -1   4  -4  536.05   40.40
  -3  -1   4  490.85   40.00
  -3   4  -4  491.65   40.30
   3  -4  -4  508.15   40.50
  -3   4  -4  524.45   40.70
  -1   4   4  526.25   40.40
  -3   4  -4  462.45   40.50
  -4   3   4  508.45   40.50
  -3   4  -4  557.24   40.50
   4  -1  -4  425.46   40.40
   3   1   4  560.54   40.60
   4  -3   4  508.25   40.50
   3  -4  -4  523.35   40.90
   3   1   4  498.65   40.30
   1   3  -4  434.36   40.00
  -4   1  -4  469.65   40.50
   3   1   4  406.56   39.90
  -1   4   4  442.06   40.50
   4  -1  -4  498.25   40.60
  -1  -3  -4  518.25   40.40
   3   1   4  451.25   39.80
   4  -1  -4  421.26   40.20
  -4   1  -4  521.35   40.60
  -4   3   4  461.05   40.60
   1  -4   4  538.45   40.30
  -4   4  -4  811.82   69.29
  -4   4   4  800.32   69.29
   4   0  -4  950.10   69.39
  -4   4  -4  900.31   69.59
   4   0   4  755.12   69.29
   0   4   4  928.01   69.39
   4  -4   4  819.22   69.29
  -2   5  -4  360.16   29.50
   5  -2   4  399.26   30.40
  -3   5   4  312.17   30.00
   5  -3  -4  348.97   30.50
   3  -5   4  344.37   29.90
  -3   5   4  389.86   30.60
  -3   5   4  395.16   30.00
   3   2  -4  362.16   29.70
  -5   3  -4  327.37   30.20
   2   3   4  345.77   29.70
   2  -5  -4  385.66   30.10
   5  -2   4  360.16   30.30
  -5   2   4  411.06   30.20
   3  -5   4  353.76   30.20
   2   3   4  335.77   29.90
  -5   3  -4  398.26   30.30
  -2   5  -4  344.47   29.90
  -2   5  -4  399.46   29.60
  -3   5   4  330.27   29.70
   5  -3  -4  327.57   30.00
  -2   5  -4  395.96   30.10
   5  -2  -4  408.86   30.50
   3  -5  -4  371.96   30.20
  -5   2  -4  393.16   30.30
  -3   5  -4  356.36   30.10
   2  -5   4  392.86   29.90
   2   3  -4  322.37   29.50
  -2   5   4  302.37   29.90
   3   2   4  346.97   29.70
  -5   3   4  364.66   30.30
  -3   5  -4  378.06   29.90
  -5   2  -4  304.47   30.10
   2  -5   4  360.36   30.00
  -5   3   4  353.26   30.10
   5  -3   4  321.07   30.20
  -2   5   4  368.16   29.60
  -3   5  -4  346.87   29.70
   3   2   4  335.27   29.90
   2   3  -4  383.56   29.60
   3  -5  -4  363.36   30.40
  -2   5   4  376.16   29.70
  -2   5   4  421.16   30.50
  -4   5   4  102.59   10.80
   1   4   4  136.59   10.70
   5  -1   4  133.69   11.20
  -4  -1  -4  130.59   11.00
  -4   5   4  128.59   11.30
   5  -1   4  131.09   10.80
   5  -4  -4  118.49   11.10
  -5   4  -4  120.89   11.10
   4   1  -4  133.39   10.90
   4  -5   4  139.79   11.20
   1   4   4  121.19   10.90
  -1   5  -4  132.09   10.90
   4  -5   4  101.89   11.10
  -5   1   4  118.39   10.90
   5  -1   4  124.29   11.30
   4   1  -4  116.89   10.80
   5  -1   4  146.19   11.20
  -5   1   4  123.09   11.10
  -5   4  -4  139.29   11.50
   1  -5  -4  126.19   10.80
  -1   5  -4  113.99   10.70
   4   1   4  116.79   10.10
   4  -5  -4  106.99   11.10
   5  -1  -4  139.79   10.80
  -4   5  -4  133.89   11.30
   4  -5  -4  118.19   11.50
   1   4  -4  117.89   10.60
   5  -4   4  120.59   11.00
   4   1   4  126.89   10.20
  -4   5  -4  139.69   11.00
  -1   5   4  108.49   10.20
   5  -1  -4  113.29   10.70
  -1   5   4  117.79   10.20
  -1   5   4  128.09   11.20
   5  -1  -4  133.19   11.30
  -5   4   4  117.69   11.30
  -5   1  -4  110.39   11.00
  -5   1  -4  138.19   11.30
   5  -1  -4  122.89   11.10
  -5   4   4  118.49   11.10
  -1   5   4  127.79   10.90
   5   0   4  552.64   46.60
  -5   5   4  617.54   47.10
   5  -5   4  611.14   47.20
   0   5   4  606.54   46.70
   5   0  -4  507.45   46.50
   5  -5   4  503.75   46.60
  -5   0  -4  614.54   46.70
   5  -5  -4  580.74   47.40
   5  -5  -4  557.84   46.90
   5   0  -4  577.24   46.70
   0   5  -4  524.35   46.10
   5   0  -4  478.45   45.80
  -5   0   4  577.94   46.40
  -5   0  -4  602.74   46.80
   5   0   4  605.24   46.90
  -5   5  -4  583.54   47.00
  -3   6   4   12.30    2.70
  -3   6  -4   15.30    1.90
  -3   6  -4   13.50    2.40
   3  -6   4    8.40    1.90
   3  -6  -4    8.80    2.00
   6  -3   4   11.10    2.50
  -3   6   4   15.50    1.90
   3  -6   4   15.40    2.70
   3   3   4   10.60    1.90
  -6   3  -4   14.50    2.70
  -3   6  -4   12.20    1.70
   3   3  -4   14.10    1.70
   3   3   4   15.60    2.10
  -6   3   4   16.70    2.90
   6  -3  -4   12.90    2.90
   6  -3   4   10.50    2.10
   3  -6  -4    7.30    2.20
  -6   3  -4   13.30    2.60
  -3   6   4   12.50    2.40
  -6   3   4    7.10    1.90
   6  -3  -4   12.20    2.30
   3   3  -4   13.40    1.70
  -3   6  -4   13.40    2.30
  -3   6   4   14.70    1.90
  -2   6  -4  858.21   71.19
   6  -2   4  928.71   71.79
   2  -6  -4  915.91   71.19
  -6   2   4  934.21   71.39
  -4   6   4  954.70   71.29
   6  -4  -4  894.11   71.39
   2  -6  -4  916.41   71.49
   4  -6   4  962.50   71.49
  -4   6   4  784.92   71.39
   6  -4  -4  854.51   71.89
   6  -2   4  812.12   71.39
   6  -2   4  846.62   71.09
   4  -6   4  951.40   71.69
  -4   6   4  789.32   70.89
  -6   4  -4  823.92   71.39
  -6   2   4  947.51   71.59
  -6   4  -4  864.91   71.59
  -2   6   4  916.31   71.59
   4  -6  -4  867.91   71.89
   6  -4   4  853.51   71.69
   6  -2  -4  829.22   71.59
   4  -6  -4  875.21   71.49
  -6   2  -4  934.51   71.59
  -6   4   4  829.72   71.29
   2  -6   4  796.52   70.89
   6  -2  -4  856.61   71.09
  -4   6  -4  869.21   71.09
   6  -2  -4  858.81   71.59
  -4   6  -4  940.41   71.69
  -6   4   4  761.82   71.49
  -4   6  -4  931.21   71.49
  -6   2  -4  832.42   71.49
   6  -2  -4  855.31   71.09
  -4   6  -4  870.41   70.99
   6  -5  -4  323.07   28.30
  -6   1   4  341.67   28.10
   5   1  -4  381.36   28.10
   6  -5  -4  320.17   28.80
   1   5   4  354.96   27.70
   5  -6   4  352.56   28.30
   1   5   4  377.06   28.00
   5  -6   4  340.47   28.60
   6  -1   4  341.37   28.20
  -1   6  -4  338.47   27.70
   5   1  -4  312.57   27.80
  -6   5  -4  341.17   28.60
  -6   5  -4  308.97   28.10
  -1   6  -4  370.36   27.90
   6  -1   4  363.06   28.20
   1   5  -4  328.67   27.50
   5  -6  -4  323.97   28.90
  -5   6  -4  342.97   28.40
   6  -1  -4  328.67   27.70
   1   5  -4  303.07   27.40
   6  -5   4  301.97   28.50
   5  -6  -4  319.57   28.30
   6  -5   4  303.47   28.10
  -5   6  -4  332.97   28.00
  -6   1  -4  353.26   28.90
  -1   6   4  387.86   28.40
   6  -1  -4  306.37   28.20
   5   1   4  280.77   27.70
  -1   6   4  298.67   27.70
   5   1   4  381.96   28.40
   6  -6   4 2182.78  170.18
   6  -6  -4 2145.99  170.58
  -6   6  -4 1968.40  169.98
  -4   7   4  365.16   28.70
  -7   3   4  345.27   28.60
   4   3  -4  346.07   27.70
  -7   4  -4  316.97   28.60
  -3   7  -4  340.77   27.50
   7  -3   4  333.97   28.70
   3   4   4  359.76   27.80
   7  -4  -4  346.27   29.10
  -4   7   4  348.77   28.00
   3   4   4  287.67   27.90
  -3   7  -4  309.67   27.50
   7  -4  -4  328.27   28.40
  -3   7  -4  354.96   28.40
   4   3  -4  359.26   27.80
  -7   4  -4  369.56   29.10
   7  -4   4  346.57   28.90
  -7   4   4  290.27   28.40
   3   4  -4  348.67   27.50
   7  -3  -4  336.07   28.30
  -7   3  -4  321.67   28.60
   7  -3  -4  340.47   29.00
  -3   7   4  364.36   27.80
   3   4  -4  311.67   27.50
   4   3   4  313.27   27.80
  -7   4   4  362.96   29.00
   4   3   4  379.66   28.30
   7  -4   4  293.37   28.30
  -5   7   4   56.99    6.70
  -7   5  -4   63.29    7.10
   7  -5  -4   64.39    7.30
   7  -2   4   64.79    6.80
   2   5   4   64.09    6.00
   7  -2   4   66.69    6.40
  -7   5  -4   66.19    6.80
   7  -5  -4   73.39    7.00
  -5   7   4   62.89    6.40
   2   5   4   68.09    6.30
  -2   7  -4   56.39    6.30
   5  -7   4   72.29    6.90
   5   2  -4   68.69    6.30
  -2   7   4   64.59    6.50
  -5   7  -4   61.39    6.40
   2   5  -4   70.49    5.80
  -7   5   4   69.89    6.90
   7  -5   4   59.09    6.60
   7  -2  -4   64.99    6.40
  -5   7  -4   67.69    6.90
   5   2   4   69.29    6.30
   7  -2  -4   63.59    7.00
   2   5  -4   72.89    5.80
   5   2   4   75.09    6.70
  -7   5   4   71.39    7.20
  -6   7   4   89.19    9.40
  -1   7  -4  103.59    8.80
   7  -1   4   94.89    8.50
   6  -7   4   89.49    9.20
  -1   7  -4   92.19    8.60
   7  -1   4   88.49    9.10
  -7   6  -4   95.99    9.20
  -6   7   4   94.99    9.00
   6   1  -4   95.29    8.80
   1   6   4   99.09    8.80
  -7   6  -4   99.59    9.70
   7  -6  -4  101.39   10.10
   1   6   4  105.29    8.50
   7  -6  -4   98.09    9.40
  -1   7   4   96.79    8.70
   7  -1  -4   99.59    8.40
   7  -6   4  105.99    9.50
   7  -1  -4  104.89    8.50
   6  -7  -4  101.29    9.60
  -7   6   4   82.99    9.40
  -6   7  -4   87.09    9.30
   7  -1  -4   98.59    9.40
  -6   7  -4  107.19    9.10
   7  -6   4   88.69    9.50
   1   6  -4   98.49    8.30
   1   6  -4   79.79    8.10
   6   1   4  101.79    8.90
  -7   7   4  129.59   13.20
  -7   7   4  125.59   12.80
   0   7  -4  158.08   12.20
   0   7   4  142.59   12.30
   7   0  -4  142.59   12.80
  -7   7  -4  166.88   13.70
  -7   7  -4  146.89   12.90
   7  -7  -4  124.69   13.10
   0   7  -4  139.49   12.10
  -4   8   4 1213.78  103.69
   8  -4  -4 1326.67  104.49
  -8   4  -4 1386.36  104.29
  -4   8  -4 1137.49  103.49
   8  -4  -4 1265.47  103.69
   8  -4   4 1324.27  103.59
   5   3  -4   74.29    6.50
   8  -3   4   66.59    6.90
   3   5   4   74.49    6.60
   8  -3   4   69.99    7.40
  -5   8   4   65.59    7.30
  -3   8  -4   82.29    7.20
   3   5   4   71.69    6.40
   5   3  -4   74.89    6.50
  -8   5  -4   70.89    7.40
  -5   8   4   76.99    6.90
   8  -5  -4   74.09    7.40
   8  -5  -4   69.39    7.90
   8  -5   4   67.99    7.70
  -3   8   4   67.99    6.00
  -3   8   4   70.89    7.10
   8  -3  -4   76.79    7.20
   5   3   4   76.19    6.70
  -3   8   4   67.69    6.00
  -8   5   4   68.69    7.40
   8  -3  -4   58.79    7.40
   3   5  -4   70.79    5.90
  -5   8  -4   76.19    6.70
   3   5  -4   70.59    6.00
   2   6   4  189.58   16.10
  -8   6  -4  198.38   17.00
  -2   8  -4  183.08   16.30
  -6   8   4  194.18   16.50
   6   2  -4  197.08   16.30
  -8   6  -4  188.48   17.50
   8  -6  -4  150.58   16.70
   2   6   4  194.58   15.80
   8  -6  -4  197.68   17.80
  -6   8   4  200.88   17.20
   8  -2   4  194.18   16.90
  -6   8  -4  174.38   16.90
  -8   6   4  166.98   16.80
   8  -6   4  184.88   16.90
   2   6  -4  192.88   15.40
   6   2   4  177.18   16.20
   8  -6   4  210.18   17.60
   8  -2  -4  206.88   17.30
   2   6  -4  177.38   15.40
  -2   8   4  195.88   16.40
   8  -2  -4  208.98   16.30
   8  -1   4    1.80    0.80
   1   7   4    1.30    0.70
  -7   8   4    0.50    1.30
   8  -1   4    0.80    1.20
  -8   7  -4    1.60    1.30
  -7   8   4    1.80    1.30
   8  -7  -4    1.50    1.50
  -1   8  -4    2.00    0.90
  -8   7  -4    2.00    1.60
   7   1  -4    0.60    1.00
   1   7  -4    1.80    0.60
  -8   7   4    2.00    1.40
  -1   8   4    2.60    1.10
   8  -7   4    1.60    1.40
   8  -1  -4    1.20    0.40
   7  -8  -4    1.60    1.60
   8  -1  -4    0.90    1.20
  -7   8  -4    0.20    1.20
   1   7  -4    2.40    0.70
   7   1   4    1.50    1.10
   8  -1  -4    1.60    0.50
  -8   7   4    2.40    1.50
  -7   8  -4    1.40    1.20
   8   0   4  476.85   41.10
  -8   8  -4  513.85   41.40
  -8   8   4  467.55   41.30
   8  -8   4  524.45   41.90
   8  -8  -4  487.65   41.90
  -8   8   4  477.35   41.90
   0   8  -4  491.25   40.30
   8   0  -4  466.55   41.10
  -8   8  -4  550.94   42.30
   9  -5  -4  110.79   11.60
   9  -5  -4  120.69   11.00
   4   5   4  124.29    9.90
  -5   9   4  126.19   10.30
   5   4  -4  133.99    9.80
   4   5   4  120.19   10.20
   5   4  -4  118.29    9.80
  -4   9  -4  109.99   10.70
   9  -4   4  132.89   10.90
   9  -4   4  105.29   11.20
  -5   9   4  120.49   11.10
   5   4   4  122.99   10.10
  -5   9  -4  111.79   10.00
   9  -5   4  124.09   11.60
  -4   9   4  104.29    9.70
  -4   9   4  103.89   10.70
   9  -4  -4  105.89   11.40
   9  -5   4   98.69   10.70
   9  -4  -4   90.29   10.50
   9  -3   4   11.60    2.80
  -6   9   4   13.70    3.00
  -3   9  -4   11.40    2.20
   9  -6  -4    4.90    2.10
   3   6   4    8.90    1.40
   6   3  -4    9.70    1.80
   9  -6  -4   10.40    3.10
  -6   9   4   11.90    2.20
  -9   6  -4   11.40    2.70
   3   6   4   17.10    1.90
   9  -3   4   14.60    2.50
  -3   9   4   10.70    2.20
   9  -3  -4    9.80    2.20
   9  -6   4   12.00    2.80
  -6   9  -4   11.10    2.10
   9  -6   4   10.40    3.00
   6   3   4   12.70    2.10
  -6   9  -4   12.70    3.00
  -9   6   4   14.60    3.10
   9  -3  -4    4.70    2.20
   2   7   4   64.99    6.00
   9  -2   4   67.19    7.30
   7   2  -4   75.99    6.70
   9  -7  -4   73.89    7.60
  -2   9  -4   53.79    6.40
  -9   7  -4   73.79    7.50
   9  -2   4   76.79    6.60
  -7   9   4   54.69    7.20
  -7   9  -4   80.59    7.00
   9  -7   4   70.19    7.50
  -2   9   4   66.79    6.70
   9  -2  -4   69.49    7.50
  -9   7   4   70.49    7.40
  -7   9  -4   53.59    7.20
   9  -2  -4   65.49    6.30
   7   2   4   76.79    6.70
   9  -1   4   93.89    8.00
  -8   9   4   99.69   10.20
  -9   8  -4  104.59    9.80
  -8   9   4  107.29    9.60
   9  -8  -4  101.49   10.20
   9  -1   4   89.09    9.50
   1   8   4   96.29    8.60
   1   8  -4   99.39    8.00
   9  -8   4  100.39   10.10
  -8   9  -4  103.39   10.20
   1   8  -4   99.49    8.10
  -1   9   4   97.39    8.90
   9  -1  -4   95.99    9.70
  -8   9  -4   87.69    9.30
  -9   8   4  101.99    9.80
   8   1   4   94.79    9.20
  -9   9  -4    1.20    1.30
  -9   9   4    0.80    1.30
   0   9   4    0.80    0.80
   0   9  -4    0.80    0.60
   9   0   4    1.20    1.20
   9   0  -4    1.20    1.10
  -9   9  -4   -0.50    1.40
  -5  10   4    8.10    1.40
  10  -5   4    5.50    2.00
  10  -5  -4    6.00    2.50
  10  -5   4    2.00    1.80
  10  -5  -4    3.70    1.70
  -5  10  -4    6.90    0.80
  -5  10  -4    7.00    2.10
  -5  10   4    6.40    2.10
   5   5   4    7.20    1.30
  -4  10  -4  211.08   21.80
  -6  10   4  249.97   22.50
  10  -6  -4  268.77   22.50
  10  -4   4  243.18   22.80
  10  -6  -4  246.98   23.30
  10  -4   4  240.48   21.90
   4   6   4  256.57   20.90
   6   4  -4  260.67   21.00
   6   4  -4  287.37   21.00
   4   6   4  263.77   21.00
  -6  10   4  229.58   21.50
  10  -6   4  260.57   23.30
   6   4   4  269.47   21.40
  10  -4  -4  257.57   23.10
  -6  10  -4  286.77   21.50
  -6  10  -4  256.37   22.50
  -4  10   4  240.78   22.00
  10  -3   4   59.49    7.10
  -7  10   4   49.00    6.10
  10  -7  -4   62.69    7.10
   3   7   4   65.29    5.40
  -3  10  -4   72.19    6.50
   7   3  -4   56.89    5.90
   3   7   4   67.89    5.40
  10  -3   4   56.69    6.20
 -10   7  -4   66.59    7.30
 -10   7   4   69.89    7.30
  -3  10   4   53.89    6.30
  -7  10  -4   70.99    7.30
  10  -3  -4   72.49    6.40
  -7  10  -4   59.89    6.20
  10  -7   4   56.89    6.80
   7   3   4   69.99    6.20
  -2  10  -4  482.65   45.30
   8   2  -4  590.74   45.60
  10  -2   4  599.34   45.10
 -10   8  -4  598.94   46.60
  10  -8  -4  518.45   46.60
  -8  10   4  489.25   46.50
  -2  10   4  549.05   45.60
  10  -8   4  449.06   46.10
  -8  10  -4  576.84   45.80
 -10   8   4  590.24   46.70
  -8  10  -4  574.24   46.90
  10  -2  -4  614.64   46.80
  -9  10   4   17.80    4.30
  10  -9  -4   28.30    5.10
  10  -1   4   24.00    3.60
  -1  10  -4   17.70    2.60
 -10   9  -4   23.40    4.20
  -9  10   4   24.40    3.60
   1   9   4   27.90    2.60
   9   1  -4   25.50    3.30
  -9  10  -4   28.20    3.70
   9   1   4   25.00    3.40
 -10   9   4   20.20    3.90
  -1  10   4   21.90    2.90
  10  -1  -4   17.10    3.60
  -9  10  -4   16.10    4.20
   0  10   4   51.59    5.10
   0  10  -4   53.69    4.70
 -10  10  -4   61.79    6.40
 -10  10   4   55.39    6.40
  10   0   4   51.99    6.00
  11  -5   4   55.89    5.70
  11  -5   4   46.20    6.30
  -5  11  -4   37.20    5.20
  11  -6  -4   43.20    6.50
  -6  11   4   49.90    4.60
  11  -6  -4   47.20    5.70
  -6  11   4   42.00    5.60
  -6  11  -4   44.80    5.60
  11  -6   4   51.79    5.70
  11  -6   4   50.09    6.60
  -6  11  -4   48.80    4.30
  11  -5  -4   55.69    6.80
  -5  11   4   39.70    5.40
  11  -5  -4   51.29    5.70
   6   5   4   51.69    4.40
  -7  11   4    3.60    1.90
  11  -7  -4    4.40    2.00
   7   4  -4    3.50    0.80
  11  -4   4    3.40    2.10
  11  -4   4    3.10    1.50
  -4  11  -4    3.00    1.50
  -7  11   4    3.20    1.30
  -7  11  -4    3.20    1.80
  -4  11   4    3.00    1.50
   7   4   4    2.60    1.00
  11  -7   4    2.40    1.70
  11  -4  -4    4.20    1.60
  11  -4  -4    4.10    2.20
  -7  11  -4    3.80    1.30
 -11   8  -4   36.70    6.10
  -3  11  -4   56.59    5.80
  11  -8  -4   40.80    6.20
  11  -3   4   70.79    7.10
  -8  11   4   46.60    6.40
  -8  11   4   55.59    5.80
   8   3  -4   53.49    5.40
   8   3   4   65.09    5.70
  -3  11   4   46.20    5.70
  11  -8   4   64.69    6.90
  -8  11  -4   62.79    5.90
  11  -3  -4   61.19    7.00
  -8  11  -4   68.69    7.10
  -9  11   4   44.20    5.00
  11  -2   4   31.80    4.90
  -9  11   4   48.60    6.00
  11  -9  -4   24.80    5.40
 -11   9  -4   30.00    5.00
  -2  11  -4   35.30    4.20
   9   2  -4   40.40    4.50
  11  -2  -4   43.60    5.50
  -2  11   4   38.00    4.40
 -11   9   4   45.90    5.60
  11  -9   4   39.00    5.40
  -9  11  -4   53.49    6.10
  -9  11  -4   46.10    4.90
   9   2   4   46.10    4.70
 -11  10  -4    0.40    1.20
 -10  11   4    0.40    1.20
   1  10   4    0.40    0.40
  10   1  -4    0.60    1.10
  -1  11  -4    0.60    0.60
  11  -1   4    0.30    1.10
  11  -1  -4    0.30    1.10
  -1  11   4   -0.20    0.70
 -11  10   4    1.30    1.50
  10   1   4    0.20    1.00
 -10  11  -4   -0.30    1.10
   0  11   4    9.10    1.50
 -11  11  -4    9.00    2.50
 -11  11   4    7.60    2.40
  11   0   4    3.70    1.90
  11   0  -4    4.90    1.90
  -6  12  -4  336.47   29.50
  12  -6   4  365.16   29.50
  12  -6  -4  335.17   30.80
  12  -6   4  394.66   30.90
  -6  12   4  296.27   29.40
  12  -5   4   20.20    4.50
  -7  12   4   23.70    2.60
  -5  12  -4   20.80    3.60
  12  -5   4   23.40    3.30
  -7  12   4   18.60    3.90
  12  -7  -4   26.60    4.40
  -5  12   4   19.40    3.60
  12  -5  -4   23.10    4.90
  -7  12  -4   17.50    3.80
  -7  12  -4   14.80    2.10
  12  -5  -4   17.10    3.30
   7   5   4   21.50    2.20
  12  -7   4   12.80    3.20
  -8  12   4   65.49    6.80
  -8  12   4   56.89    7.60
   8   4  -4   72.49    5.90
  12  -8  -4   68.49    7.80
  12  -4   4   66.19    7.90
  12  -4   4   69.19    6.90
  -4  12  -4   82.39    7.30
  -8  12  -4   56.49    7.60
  12  -4  -4   60.39    8.00
  12  -4  -4   71.09    6.80
  12  -8   4   80.79    8.10
  -4  12   4   71.39    7.20
  12  -9  -4    2.70    2.00
  12  -3   4   -0.80    1.30
  12  -3   4    1.20    0.80
  -9  12   4    0.60    1.60
  -9  12   4    2.60    1.30
  -3  12  -4    3.00    1.30
   9   3  -4    1.10    0.90
   9   3   4    1.50    1.10
  12  -9   4    0.00    1.50
  -9  12  -4    1.60    1.70
  -9  12  -4    1.70    1.20
  -3  12   4    0.90    1.20
  12  -3  -4    1.70    1.90
  12 -10  -4  149.49   14.90
 -12  10  -4  136.09   14.40
  -2  12  -4  148.09   13.10
  10   2  -4  156.18   13.50
  12  -2   4  142.79   14.30
 -10  12   4  141.99   13.80
 -12  10   4  161.38   14.80
 -10  12  -4  171.58   15.40
  12  -2  -4  133.49   14.30
  -2  12   4  172.78   13.50
  -6  13  -4   49.30    6.40
  13  -6   4   64.39    7.50
  13  -7  -4   39.90    6.30
  -7  13   4   51.29    6.40
  13  -7   4   52.09    6.20
  -7  13  -4   56.19    6.30
  13  -6  -4   47.00    7.20
  -6  13   4   55.49    6.20
   0   0   5    0.60    0.70
   0   0   5    0.50    0.60
   0   0  -5    0.80    0.80
   0   0  -5    0.40    0.60
   1   0  -5    1.70    0.80
  -1   1  -5    1.30    0.70
   0   1   5    1.10    0.80
   0  -1   5    0.70    0.70
  -1   0  -5    2.00    1.00
   1  -1   5    1.50    0.70
  -1   0   5    2.60    0.90
   1   0  -5    2.50    1.00
  -1   0  -5    1.30    0.90
   1  -1  -5    3.80    1.20
   0   1  -5    1.80    0.90
   1   0  -5    2.50    1.00
   1   0   5    0.70    0.70
   1   0   5    1.30    0.70
   0   1  -5    2.10    0.90
   0   1   5    2.50    0.80
  -1   1   5    1.40    0.80
   0   1  -5    0.50    0.70
   1  -1  -5    0.00    0.70
   0  -1   5    1.40    0.70
  -1   0   5    0.40    0.70
  -1   1   5    1.80    0.80
   1  -1   5    0.80    0.60
   1   0  -5    2.10    0.90
   0  -1  -5    0.50    0.80
   0  -1  -5    1.00    0.70
   0   1  -5    1.60    0.80
  -1   1  -5    1.70    0.80
   1   1  -5    0.10    0.60
  -1  -1  -5   -0.30    0.60
   1  -2  -5    0.20    0.70
   1   1  -5    0.10    0.60
  -1   2   5   -0.10    0.60
   1   1  -5   -0.20    0.40
   1   1   5    0.40    0.60
   1   1   5   -0.30    0.50
   1  -2  -5   -0.10    0.70
  -1   2  -5    0.70    0.80
   2  -1  -5   -0.10    0.60
  -1   2  -5    0.20    0.50
  -1  -1  -5   -0.20    0.60
  -1  -1   5    0.40    0.60
   1   1   5    0.00    0.70
   2  -1   5    0.00    0.60
   1  -2   5    0.40    0.60
   1   1  -5    0.00    0.50
  -2   1   5   -0.10    0.40
  -2   1  -5   -0.30    0.60
   1   1   5    0.20    0.60
  -2   1  -5   -0.10    0.50
  -1   2  -5   -0.10    0.60
  -1  -1   5    0.20    0.60
  -1   2  -5   -0.10    0.40
   2  -1  -5    0.00    0.70
  -1   2   5   -0.30    0.50
   1  -2   5    0.00    0.50
   2  -1   5    0.10    0.60
  -2   1   5   -0.10    0.50
   2  -2  -5   47.80    5.00
   2   0  -5   53.59    4.90
  -2   0   5   47.80    4.70
   2  -2  -5   49.50    4.90
   0   2  -5   51.49    4.80
  -2   2   5   44.60    4.60
   2   0  -5   47.10    4.70
   0  -2   5   47.90    4.70
  -2   2  -5   43.30    4.80
   2   0   5   38.30    4.60
   0   2   5   51.39    5.00
   0   2  -5   58.59    4.60
   0   2  -5   39.80    4.40
  -2   0   5   56.09    4.70
  -2   2   5   47.50    4.90
   2   0  -5   55.59    4.60
   0   2   5   55.89    4.90
   2   0  -5   45.70    4.80
  -2   0  -5   46.70    4.80
   0   2  -5   54.09    4.80
   0  -2  -5   48.70    4.80
   2   0   5   56.59    5.00
  -2   0  -5   50.79    4.90
   2  -2   5   38.10    4.70
   0  -2   5   41.00    4.50
   0   2   5   55.09    4.80
   0  -2  -5   52.49    5.00
   2   0   5   45.70    4.50
  -2   2  -5   44.60    4.70
   3  -1   5   28.50    2.70
  -1   3  -5   28.50    2.60
  -2  -1  -5   26.50    2.90
  -1   3  -5   20.80    2.60
   3  -2  -5   23.20    2.90
   1  -3  -5   20.60    2.80
  -1   3  -5   24.00    2.70
   2   1  -5   30.70    2.90
   2  -3   5   17.70    2.60
  -3   1   5   20.40    2.60
  -3   2  -5   20.10    2.70
  -3   2  -5   18.00    2.70
  -2   3   5   21.20    2.80
  -2   3   5   18.60    2.50
  -2  -1  -5   22.70    2.80
  -1  -2   5   19.10    2.40
   2   1  -5   22.30    2.70
   1   2   5   25.70    2.70
   1   2   5   23.60    2.50
   3  -2  -5   22.70    3.00
   3  -1   5   21.20    2.70
  -3   1   5   16.60    2.60
   1   2   5   27.10    3.00
   2  -3   5   19.30    2.50
  -1   3  -5   20.90    2.40
  -1  -2   5   18.60    2.50
   1   2   5   22.00    2.40
   2   1  -5   23.70    2.30
   1  -3  -5   23.80    2.80
   2   1  -5   19.30    2.30
   3  -2   5   22.50    2.60
   1  -3   5   26.90    2.70
  -3   2   5   19.00    2.70
   2   1   5   22.50    2.40
  -2   3  -5   20.90    2.60
  -3   2   5   25.00    2.80
  -2  -1   5   16.80    2.30
   3  -2   5   21.70    2.80
  -1   3   5   27.70    2.70
   3  -1  -5   24.60    2.60
   1   2  -5   27.60    2.80
  -1  -2  -5   19.20    2.60
  -2  -1   5   28.70    2.80
   2   1   5   21.70    2.60
  -1   3   5   29.40    3.10
   1   2  -5   17.60    2.50
   3  -1  -5   19.80    2.70
  -3   1  -5   23.70    2.90
   1   2  -5   19.80    2.20
   3  -1  -5   25.50    3.00
   2   1   5   22.10    2.60
  -3   1  -5   18.80    2.60
   1   2  -5   19.80    2.20
  -2   3  -5   20.40    2.70
   2  -3  -5   24.70    2.80
   3  -1  -5   29.50    3.00
  -1   3   5   25.00    2.80
   1  -3   5   20.60    2.60
  -2   3  -5   23.70    2.60
   2  -3  -5   23.00    3.00
  -2   3  -5   21.20    2.70
   2   1   5   23.40    2.90
  -1  -2  -5   25.50    2.90
   0   3  -5   10.80    1.70
  -3   3   5   10.40    1.90
   0   3  -5   11.90    1.70
   0   3   5   10.70    1.90
   3  -3  -5    6.90    1.80
   3   0   5   15.20    2.20
  -3   0   5   14.30    2.00
   3   0  -5   11.20    1.70
   0  -3  -5   13.10    2.30
   3   0  -5    9.90    2.00
   3  -3  -5   11.80    2.30
   0   3  -5    7.90    1.30
   0   3   5   12.40    1.50
   3  -3   5   14.60    1.90
   0  -3  -5   12.10    2.10
  -3   0   5   12.30    1.70
   0   3   5   16.50    2.20
   3   0   5   10.10    1.80
   0   3   5   10.20    1.60
   3   0  -5   11.00    1.60
  -3   3   5   10.40    2.10
  -3   0  -5   13.20    2.20
  -3   3  -5   14.70    2.00
   3   0   5   12.90    2.20
   0  -3   5   11.90    1.70
   0  -3   5    9.40    1.50
  -3   3  -5   14.20    2.40
   3   0   5   13.60    2.00
   3  -3   5   11.60    2.10
   0   3  -5   14.60    1.40
   3   0  -5   11.10    2.10
  -3   0  -5   10.70    2.10
   2   2  -5   -0.40    0.50
   2  -4   5   -0.40    0.50
   4  -2  -5   -0.20    0.90
  -2  -2   5    0.20    0.80
   2  -4  -5   -0.30    0.60
   4  -2   5    0.20    0.70
  -2   4  -5    0.10    0.60
  -2   4   5    0.20    0.70
  -4   2  -5    0.20    0.80
  -4   2   5    0.40    0.60
  -2   4  -5    0.10    0.60
   4  -2   5    0.50    0.80
   2  -4  -5    0.40    0.70
  -4   2   5    0.40    0.70
  -2  -2  -5    0.40    0.70
  -4   2  -5   -0.20    0.80
   2  -4   5    0.00    0.60
   2   2  -5    0.50    0.70
  -2  -2  -5   -0.50    0.60
  -2   4   5   -0.30    0.70
  -2   4   5   -0.20    0.50
  -2   4  -5    0.00    0.50
   2   2   5    0.10    0.40
   2   2   5    0.30    0.40
   2   2   5    0.20    0.70
  -2   4  -5    1.00    0.90
   4  -2  -5    0.10    0.70
  -2   4   5    1.00    0.80
   2   2   5   -0.30    0.60
  -4   3  -5   30.90    3.80
   3   1  -5   31.80    3.00
   1   3   5   37.20    3.90
  -4   1   5   32.90    3.60
   4  -1   5   38.60    3.90
  -3   4   5   37.30    4.00
  -3   4   5   39.20    3.70
   4  -3  -5   29.30    3.80
   3   1  -5   36.10    3.80
  -4   3  -5   28.80    3.70
  -3  -1  -5   34.50    3.70
  -1   4  -5   33.00    3.60
   1  -4  -5   36.30    3.90
   4  -3  -5   36.80    4.10
   3  -4   5   35.20    3.90
   3   1  -5   36.70    3.70
   3   1  -5   30.40    3.00
   1   3   5   34.50    3.10
   1   3   5   35.90    3.10
   1  -4  -5   34.30    3.70
   1   3   5   35.10    3.60
  -3  -1  -5   38.10    3.80
   4  -1   5   36.70    3.60
  -1   4  -5   40.30    3.70
   3  -4   5   36.60    3.70
  -4   1   5   38.50    3.90
  -1   4  -5   29.60    3.10
   4  -1   5   31.20    3.90
   4  -1  -5   32.50    3.80
  -3   4  -5   41.80    3.80
  -3   4  -5   33.20    3.80
   4  -3   5   39.50    4.10
   1   3  -5   35.40    3.50
  -1   4   5   25.30    3.20
  -1   4   5   39.40    4.10
   4  -1  -5   36.80    3.70
  -4   3   5   39.60    4.00
   1  -4   5   35.40    3.70
   4  -1  -5   26.30    3.70
  -4   1  -5   36.20    4.00
   3   1   5   31.40    3.80
   4  -1  -5   31.60    3.50
   3  -4  -5   34.80    3.90
  -4   1  -5   37.00    3.90
   1   3  -5   29.50    3.50
   3   1   5   25.90    3.20
  -1  -3  -5   34.20    3.80
  -4   3   5   38.80    3.90
  -3   4  -5   30.60    3.60
  -3  -1   5   34.80    3.40
  -1   4   5   33.70    3.70
  -3  -1   5   28.10    3.50
   3  -4  -5   32.60    4.00
  -1  -3  -5   28.10    3.50
  -1   4   5   42.70    3.60
   3   1   5   27.00    3.50
   1  -4   5   31.00    3.40
   4  -4  -5   81.79    8.00
  -4   0   5   82.79    7.40
  -4   0  -5   77.29    7.60
  -4   4   5   86.29    7.60
   4  -4   5   71.49    7.50
   4   0   5   85.69    7.60
  -4   4  -5   77.79    7.50
   4   0   5   89.59    7.90
   0   4   5   72.59    7.30
  -4   0  -5   74.49    7.50
  -4   0   5   99.29    7.70
   4   0  -5   82.99    7.60
   4   0   5   86.39    7.20
   4  -4  -5   63.89    7.50
   4   0  -5   85.79    7.60
   0  -4  -5   81.49    7.60
   0   4  -5   86.89    7.30
  -4   4   5   90.89    7.90
   4   0  -5   84.09    7.10
   0   4  -5   83.59    7.30
   4   0  -5   71.89    7.10
   0   4   5   69.09    6.80
   4   0   5   89.19    7.60
   4  -4   5   75.29    7.70
   0   4   5   71.19    6.80
   3   2  -5   42.70    4.20
   5  -3  -5   42.50    4.90
   5  -2   5   46.90    4.40
   5  -3  -5   43.10    4.60
  -3  -2  -5   45.20    4.40
  -3   5   5   29.20    4.30
  -3   5   5   33.50    4.10
   2   3   5   38.60    4.40
   3  -5   5   51.29    4.50
   3   2  -5   35.50    4.10
   3  -5   5   38.60    4.50
  -3   5   5   42.40    4.30
  -2   5  -5   39.40    3.90
   2  -5  -5   42.60    4.70
  -3   5   5   49.50    5.50
   2  -5  -5   29.30    4.10
  -5   3  -5   38.40    4.50
  -2   5  -5   30.80    3.80
  -5   2   5   35.50    4.50
  -2   5  -5   34.20    4.20
  -5   3  -5   49.20    4.90
   2   3   5   41.50    4.20
   2  -5   5   38.10    4.20
   2   3  -5   39.60    4.10
   5  -3   5   40.50    4.70
  -2   5   5   52.69    5.10
  -2   5   5   42.60    4.40
  -5   3   5   43.80    4.50
   3   2   5   34.50    3.40
   3  -5  -5   41.80    4.80
  -3   5  -5   52.19    4.40
  -5   2  -5   43.80    4.70
  -5   3   5   49.70    4.90
  -2   5   5   46.60    4.10
   2  -5   5   41.90    4.40
   3   2   5   42.00    4.20
   3   2   5   45.30    4.60
   3   2   5   40.10    3.40
   2   3  -5   48.30    4.20
  -5   2  -5   46.10    4.70
   3  -5  -5   32.70    4.30
   5  -2  -5   45.60    4.40
  -3   5  -5   45.10    4.50
   5  -2  -5   49.40    4.60
   5  -3   5   45.60    4.50
   5  -2  -5   43.10    4.70
   5  -4  -5   20.00    2.90
   4   1  -5   23.20    2.60
  -1   5  -5   14.90    2.30
   4  -5   5   19.50    2.70
   1   4   5   21.10    2.80
  -5   4  -5   20.50    2.70
   5  -1   5   14.30    3.00
   1  -5  -5   23.30    2.70
   4   1  -5   19.00    2.60
  -4   5   5   21.60    3.00
  -4   5   5   24.60    2.80
   4  -5   5   21.20    3.00
  -4  -1  -5   19.50    2.60
  -4  -1  -5   13.00    2.70
   5  -1   5   19.90    2.80
  -5   1   5   18.40    2.70
   1  -5  -5   18.30    2.80
  -1   5  -5   23.10    2.70
   5  -4  -5   22.10    3.70
   5  -1   5   14.40    2.30
  -5   4  -5   20.80    3.00
   5  -1   5   17.20    2.70
  -5   1   5   18.80    2.60
   1   4   5   13.10    2.20
   1   4  -5   21.50    2.50
  -5   4   5   24.30    2.90
  -4   5  -5   19.20    2.80
  -5   4   5   21.40    3.00
   4   1   5   18.70    2.80
   4   1   5   20.50    2.60
   5  -4   5   16.10    2.60
   4   1   5   15.30    2.10
   4  -5  -5   19.90    2.80
  -1   5   5   21.10    2.10
   1  -5   5   21.10    2.40
   5  -1  -5   20.20    2.40
  -5   1  -5   20.40    2.90
   4  -5  -5   15.80    3.20
  -4   5  -5   19.90    2.60
  -1   5   5   18.30    2.50
  -4  -1   5   25.50    2.50
   5  -1  -5   20.00    2.80
   4   1   5   19.40    2.00
   5  -1  -5   25.50    3.10
   5  -1  -5   13.00    2.30
  -1   5   5   19.80    2.10
   1   4  -5   21.10    2.30
  -1   5   5   23.10    3.10
   5  -4   5   15.20    3.10
   5   0  -5   21.70    2.20
   0   5  -5   24.30    2.60
  -5   5  -5   21.50    3.10
   5  -5   5   13.00    3.00
   5   0  -5   20.30    2.80
  -5   0   5   18.40    2.70
  -5   5  -5   24.90    3.00
   5   0  -5   16.10    2.90
   5   0  -5   20.60    2.20
   0  -5  -5   18.40    2.50
  -5   0   5   19.60    2.60
   0   5   5   18.90    2.80
   5  -5  -5   22.90    3.90
  -5   5   5   19.00    2.80
   5  -5   5   20.60    2.90
   5   0   5   19.40    2.60
  -5   5   5   22.50    3.20
   5   0   5   21.80    3.10
   5   0   5   20.60    2.80
   0   5   5   18.80    2.50
  -5   0  -5   23.00    3.00
   5   0   5   19.80    2.30
   0   5  -5   22.10    2.60
  -6   3  -5    0.00    0.90
   3   3   5    0.00    0.60
  -3   6   5   -0.20    0.80
  -3   6   5    0.00    0.60
   6  -3   5   -0.60    0.80
  -3   6  -5    1.60    1.00
   3   3   5   -0.40    0.70
   3  -6  -5    0.50    1.10
  -3   6   5    0.30    0.70
   3  -6   5    0.00    0.70
  -3   6  -5    0.10    0.60
  -6   3  -5    0.30    1.00
   6  -3  -5    0.40    0.90
  -6   3   5   -0.40    0.90
  -3   6  -5    0.50    0.60
   3   3  -5    0.20    0.60
   3  -6   5   -0.20    0.70
   3   3  -5    0.80    0.70
   6  -3  -5   -0.30    0.80
   3  -6  -5    0.50    0.90
  -6   3   5   -0.10    0.80
   6  -2   5   43.60    4.60
  -4   6   5   45.60    4.70
  -2   6  -5   37.30    4.20
  -2   6  -5   34.10    3.30
   2   4   5   39.20    3.90
   6  -2   5   36.40    4.00
  -6   4  -5   28.90    4.40
  -2   6  -5   31.50    4.00
   6  -4  -5   47.20    5.20
   2  -6  -5   34.80    4.20
   6  -4  -5   40.10    4.50
   4  -6   5   35.20    4.30
   4  -6   5   31.20    4.30
  -4   6   5   35.00    4.00
  -6   4  -5   42.10    4.50
   2   4   5   42.90    4.30
  -6   2   5   37.60    4.50
   4   2  -5   34.30    3.90
  -6   2   5   32.40    4.10
  -2   6  -5   39.20    3.30
   4   2  -5   44.90    4.10
  -2   6   5   34.70    3.60
  -6   2  -5   36.70    4.50
  -2   6   5   36.80    3.60
   2   4  -5   29.00    3.60
  -2   6   5   38.30    4.20
   4   2   5   37.30    4.00
   2   4  -5   38.00    3.80
   4  -6  -5   45.20    4.70
   4  -6  -5   40.90    4.90
  -4   6  -5   42.50    4.50
   6  -2  -5   42.20    4.70
  -4   6  -5   34.90    4.00
  -6   2  -5   32.90    4.30
  -6   4   5   37.90    4.40
   6  -4   5   42.70    4.40
   6  -4   5   42.40    4.70
  -6   4   5   37.50    4.70
   4   2   5   44.70    4.50
  -5   6   5   74.29    7.40
  -6   5  -5   80.59    7.70
   5  -6   5   81.69    8.10
  -1   6  -5   73.19    7.30
   6  -5  -5   80.99    7.80
  -6   5  -5   72.99    7.90
   6  -1   5   75.89    7.60
  -5   6   5   80.99    7.90
   6  -5  -5   86.19    8.40
   5  -6   5   84.69    7.80
  -1   6  -5   72.89    7.20
   6  -1   5   65.69    7.00
   1   5   5   84.99    7.60
   1   5   5   77.89    7.20
   5   1  -5   95.89    7.70
   6  -5   5   76.99    8.10
   1   5  -5   91.19    7.10
  -5   6  -5   81.19    7.50
   5   1   5   82.19    6.50
   6  -5   5   78.59    7.70
   5  -6  -5   77.99    8.20
   5   1   5   65.59    7.20
   1   5  -5   86.99    7.20
   5  -6  -5   81.39    7.90
   6  -1  -5   69.59    7.10
  -1   6   5   70.09    7.20
  -6   1  -5   79.39    7.80
  -6   5   5   86.79    8.20
   5   1   5   78.19    6.40
  -6   5   5   58.39    7.40
   6   0   5   22.10    2.80
   6   0  -5   15.60    2.80
  -6   6   5   17.10    3.30
  -6   6   5   18.80    2.80
   6  -6  -5   16.50    3.20
   0   6  -5   13.90    2.00
  -6   6  -5   16.80    3.20
   6  -6   5   14.50    3.20
   6  -6   5   13.10    2.80
   0   6  -5   17.20    2.20
   6  -6  -5   15.40    3.50
   0   6   5   14.20    2.20
   6   0   5   14.50    1.90
   6   0   5   19.60    2.30
  -6   6  -5   14.50    2.70
  -3   7  -5   34.60    3.40
   3   4   5   37.20    4.20
   4   3  -5   38.30    3.80
   7  -3   5   28.60    4.00
   7  -4  -5   35.20    4.40
  -3   7  -5   39.10    3.60
   4   3  -5   32.70    3.70
  -7   3   5   32.40    4.30
  -4   7   5   39.00    4.00
  -7   4  -5   42.60    4.80
   3   4   5   39.60    3.80
   7  -4  -5   44.20    5.20
  -4   7   5   33.10    4.30
   7  -3   5   45.40    4.90
  -7   4   5   32.20    4.40
   3   4  -5   40.60    3.70
   7  -4   5   36.60    4.70
   7  -3  -5   45.00    4.60
   3   4  -5   30.80    3.50
   7  -3  -5   35.50    4.80
  -4   7  -5   39.10    3.90
   4   3   5   33.50    4.40
  -4   7  -5   35.10    4.30
  -3   7   5   37.00    4.30
  -3   7   5   34.30    3.60
  -7   3  -5   36.60    4.60
   7  -4   5   34.40    4.20
   5   2  -5    0.90    0.90
   2   5   5    0.10    0.60
   5   2  -5    1.30    0.90
  -5   7   5    0.30    1.10
   7  -2   5   -0.50    0.90
   7  -5  -5   -0.30    0.90
  -2   7  -5    0.60    0.90
  -7   5  -5    0.80    1.10
   7  -5  -5    0.50    1.40
   2   5   5    0.80    0.90
  -5   7   5    0.10    0.90
   7  -2   5    1.00    0.90
  -7   5  -5   -0.30    1.10
  -7   5   5    0.00    0.80
  -7   5   5    1.70    1.40
  -2   7   5    0.60    0.80
   5   2   5    0.70    0.80
   2   5  -5    0.20    0.60
   5  -7  -5    0.30    1.10
   2   5  -5    0.40    0.60
  -5   7  -5    0.50    0.90
  -5   7  -5   -0.10    1.00
   7  -5   5    1.20    1.10
   7  -2  -5    1.30    1.30
  -2   7   5    0.80    0.30
   7  -2  -5    0.60    0.90
  -2   7   5    0.50    0.30
   6  -7   5   34.50    4.30
   7  -1   5   39.30    4.30
   7  -6  -5   24.40    4.00
   6   1  -5   30.10    3.80
  -7   6  -5   33.20    4.50
   1   6   5   31.00    3.50
  -7   6  -5   33.20    4.10
   7  -6  -5   28.00    5.20
  -6   7   5   25.40    3.70
   7  -1   5   36.40    3.60
   7  -6   5   34.20    4.60
  -7   6   5   28.80    4.20
   7  -1  -5   34.50    3.40
  -7   6   5   33.10    4.20
   1   6  -5   33.70    3.30
  -6   7  -5   30.60    3.90
   6   1   5   33.30    3.80
  -1   7   5   39.30    3.80
   1   6  -5   32.00    3.40
  -6   7  -5   19.60    4.20
   7  -6   5   30.80    4.00
   7  -1  -5   34.50    4.10
   6  -7  -5   29.10    4.30
  -7   7  -5   58.19    6.70
  -7   7   5   58.39    6.40
   7   0  -5   54.99    6.10
  -7   7   5   65.09    6.90
   7  -7   5   57.39    6.40
   7   0   5   62.69    6.30
   7   0   5   59.29    5.20
   7   0   5   53.99    5.10
  -7   7  -5   61.69    6.30
   7  -7  -5   57.69    6.60
   0   7   5   60.69    5.80
   0   7  -5   67.29    5.70
   8  -4   5    0.30    1.00
  -4   8   5    0.50    1.00
  -4   8  -5    0.50    0.60
   8  -4  -5   -0.50    1.00
   4   4  -5   -0.10    0.50
   4   4   5    0.20    0.60
  -8   4  -5   -0.60    0.90
  -4   8   5    0.80    0.80
   4   4  -5    0.40    0.60
   8  -4  -5   -0.40    1.30
  -4   8  -5    0.10    0.90
   8  -4   5    0.10    1.10
   5   3  -5   40.70    4.20
   3   5   5   51.99    4.30
  -5   8   5   51.59    5.30
  -3   8  -5   35.20    4.50
  -5   8   5   41.50    4.50
   8  -5  -5   33.80    4.70
  -8   5  -5   40.50    5.00
   8  -5  -5   40.10    5.60
   3   5  -5   46.70    3.90
  -3   8   5   38.80    3.70
  -5   8  -5   40.50    4.30
  -5   8  -5   43.80    5.00
   8  -5   5   43.40    5.40
   3   5  -5   41.50    3.80
   8  -3  -5   37.80    4.60
   8  -3  -5   39.70    5.30
  -3   8   5   36.40    4.60
  -8   5   5   43.50    5.10
   5   3   5   36.70    4.20
   8  -5   5   42.60    4.90
   8  -6  -5   46.60    5.80
   8  -2   5   45.20    5.70
  -6   8   5   46.70    5.90
  -2   8  -5   60.09    5.50
   6   2  -5   56.39    5.30
   8  -2   5   48.50    5.20
   2   6   5   51.09    5.00
  -8   6  -5   40.60    5.60
   8  -6  -5   51.19    6.50
   8  -2  -5   45.70    5.10
   6   2   5   48.40    5.30
   2   6  -5   58.49    4.80
  -6   8  -5   54.59    5.50
   2   6  -5   54.09    4.70
  -2   8   5   49.10    5.40
   8  -6   5   57.09    6.00
   8  -6   5   43.40    6.10
   8  -2  -5   44.20    5.80
  -6   8  -5   63.59    6.30
  -8   6   5   59.69    6.10
   8  -1   5   14.30    2.00
  -7   8   5   16.90    3.50
  -8   7  -5   10.40    2.70
   1   7   5   16.50    2.10
   8  -1   5   12.50    2.80
  -7   8   5   16.60    3.00
  -8   7  -5   14.70    3.50
   8  -7  -5   14.20    3.30
   7   1  -5   13.30    2.50
  -1   8  -5   11.80    2.10
   1   7  -5   16.10    2.00
  -8   7   5   15.20    3.40
  -1   8   5   11.80    2.20
  -8   7   5   16.20    3.20
   7   1   5   12.80    2.60
  -7   8  -5   13.40    3.40
   8  -7   5   15.00    3.20
   1   7  -5   18.10    1.90
   8  -1  -5   14.20    1.60
   8  -1  -5    7.50    2.40
   8   0  -5    7.00    2.00
   8  -8  -5    5.60    2.40
   8   0   5    4.70    1.70
  -8   8   5    4.30    2.10
  -8   8  -5    5.80    1.90
   8  -8   5    2.20    2.00
   0   8  -5    5.90    1.30
  -8   8   5    5.50    2.00
   0   8   5    6.10    1.50
   5   4  -5   36.20    3.50
  -4   9  -5   26.40    3.80
   4   5   5   30.60    3.20
  -5   9   5   30.60    3.40
  -5   9   5   34.00    4.30
   9  -5  -5   26.00    4.00
   9  -4   5   30.90    3.90
   9  -4   5   28.90    4.20
   9  -5  -5   29.90    5.40
   5   4  -5   25.30    3.00
  -5   9  -5   24.70    3.10
   4   5  -5   30.00    2.80
   5   4   5   31.90    3.40
  -4   9   5   32.60    4.10
   9  -4  -5   31.80    4.10
   9  -5   5   28.00    4.40
   9  -4  -5   25.40    4.80
   4   5  -5   31.50    2.80
   9  -5   5   31.90    4.00
   6   3  -5    6.20    1.50
   9  -6  -5    7.80    3.00
   3   6   5    6.60    1.40
  -6   9   5    8.50    2.50
  -3   9  -5    5.60    1.70
  -6   9   5    7.80    1.90
   9  -6  -5    9.20    2.50
   9  -3   5    7.40    2.00
   9  -3   5    5.40    2.00
  -9   6  -5    7.80    2.50
   9  -6   5    8.40    2.80
  -3   9   5    4.20    1.60
   3   6  -5    6.60    0.80
   3   6  -5    8.10    0.80
   6   3   5    8.10    1.80
  -6   9  -5    7.20    1.60
   9  -6   5   11.00    2.60
  -6   9  -5    6.20    2.20
  -9   6   5    9.60    2.70
   9  -3  -5    6.90    1.80
   9  -3  -5    4.70    2.20
   2   7   5    5.70    1.30
   9  -7  -5    5.30    2.00
   7   2  -5    4.00    1.50
  -9   7  -5    7.20    2.20
  -7   9   5    4.00    2.00
   9  -2   5    4.20    1.90
  -2   9  -5    6.30    1.60
  -7   9   5    6.20    1.80
   9  -2   5    7.00    1.60
  -2   9   5    2.80    1.30
  -7   9  -5    2.50    1.40
   2   7  -5    5.10    0.70
   9  -7   5    3.80    2.00
   9  -2  -5    3.00    1.80
   2   7  -5    4.60    0.70
  -7   9  -5    4.30    2.00
  -9   7   5    5.10    2.00
   9  -2  -5    4.30    1.30
   7   2   5    5.50    1.60
   9  -1   5   28.00    3.90
   9  -1   5   28.40    2.70
   9  -8  -5   30.60    4.50
  -9   8  -5   23.80    3.80
  -8   9   5   25.80    3.80
  -8   9   5   28.50    5.10
   8   1  -5   29.10    3.70
   1   8   5   26.80    3.10
   1   8  -5   27.10    2.70
  -9   8   5   32.70    4.30
  -8   9  -5   29.80    3.90
   9  -8   5   31.80    4.40
   8   1   5   32.20    3.80
  -1   9   5   29.40    3.40
  -8   9  -5   21.50    4.50
   9  -1  -5   23.80    3.80
  -9   9   5    2.10    1.50
   0   9  -5    1.70    0.80
  -9   9  -5    1.70    1.50
   9   0   5    2.00    1.40
   9   0  -5    2.20    1.40
   0   9   5    1.90    1.00
  -9   9  -5    4.00    2.20
   5   5  -5    0.00    0.20
  -5  10   5    0.30    0.60
  10  -5   5    0.80    1.60
  10  -5  -5   -1.10    1.00
  10  -5  -5    0.60    1.50
  10  -5   5   -0.90    0.90
  -5  10   5   -0.10    1.00
  -5  10  -5    0.00    1.00
  -5  10  -5   -0.10    0.30
   5   5   5   -0.20    0.60
  -6  10   5    6.00    2.20
   4   6   5    8.90    1.40
  -6  10   5    2.40    1.20
   6   4  -5    5.30    1.10
  10  -4   5    5.90    2.40
  10  -6  -5    5.70    2.20
  -4  10  -5    3.60    1.60
  10  -4   5    3.20    1.50
  10  -6  -5    7.50    3.00
  10  -6   5    4.00    1.80
  10  -4  -5    4.60    2.30
  -6  10  -5    4.30    1.30
  -6  10  -5    4.10    1.80
   6   4   5    3.90    1.20
  10  -6   5    7.00    2.70
  -4  10   5    3.30    1.60
  10  -4  -5    4.90    1.80
  -3  10  -5   17.00    3.40
  -7  10   5   26.00    4.00
  10  -3   5   27.40    4.20
   3   7   5   28.30    2.80
  10  -7  -5   23.60    4.40
 -10   7  -5   22.30    4.30
  10  -3   5   29.10    3.40
   7   3  -5   28.70    3.20
  10  -3  -5   24.70    3.30
  -7  10  -5   24.40    3.30
  10  -7   5   28.90    4.10
  10  -3  -5   28.80    4.90
   7   3   5   29.60    3.40
   8   2  -5   11.80    2.30
  -8  10   5   10.50    2.40
  10  -2   5    7.00    2.40
   2   8   5    9.90    1.60
 -10   8  -5    4.90    2.20
  -2  10  -5   13.30    2.30
  10  -8  -5   12.00    3.10
  -8  10   5   13.50    3.50
  10  -2   5    8.40    1.60
  10  -2  -5    7.20    1.20
  10  -2  -5    7.70    2.50
  10  -8   5   10.30    2.90
   8   2   5   12.40    2.40
  -8  10  -5   10.60    2.90
  -8  10  -5   10.00    2.40
 -10   8   5   10.50    2.90
  -2  10   5    8.20    1.90
  10  -1   5   11.90    2.80
   1   9   5    8.80    1.60
  -1  10  -5    9.40    1.80
   9   1  -5    8.60    2.20
 -10   9  -5    7.90    2.50
  10  -9  -5    9.10    3.10
  -9  10   5    9.90    3.20
  -9  10  -5   12.00    2.70
   9   1   5   10.30    2.50
  -1  10   5   12.80    2.30
  10  -1  -5    9.80    2.70
  -9  10  -5   13.60    3.50
 -10   9   5    6.30    2.30
 -10  10   5   28.70    4.60
  10   0   5   15.10    3.20
   0  10   5   16.80    2.40
   0  10  -5   18.50    2.10
  10   0  -5   18.30    3.40
 -10  10  -5   23.00    4.00
   5   6   5    1.90    0.70
  11  -5   5    1.40    1.30
  -6  11   5   -0.20    1.20
  11  -6  -5    1.00    1.40
  -6  11   5    0.50    0.70
  11  -5   5    0.50    1.70
  -5  11  -5    2.80    1.60
  11  -6  -5    0.10    1.80
   6   5   5    1.60    0.80
  -6  11  -5    1.00    0.60
  11  -6   5    1.80    1.50
  -6  11  -5    1.50    1.40
  11  -5  -5    0.00    1.00
  11  -6   5   -1.00    1.30
  -5  11   5    1.60    1.30
  11  -5  -5    1.50    1.90
  11  -7  -5   -0.50    1.20
  11  -4   5   -0.60    1.20
  -7  11   5    0.50    1.40
   7   4  -5    0.20    0.50
  -7  11   5   -0.40    0.70
  -4  11  -5   -0.20    0.90
   4   7   5    0.30    0.40
  11  -4   5   -0.40    0.90
   7   4   5    0.50    0.80
  11  -7   5    0.00    1.20
  11  -4  -5   -1.10    1.30
  -4  11   5    0.30    1.00
  11  -4  -5   -0.10    0.90
  -7  11  -5   -0.10    0.70
  -7  11  -5    0.10    1.20
  -3  11  -5    5.20    1.70
  11  -3   5    4.00    1.40
  11  -8  -5    2.40    1.80
  11  -3   5    6.20    2.40
  -8  11   5    4.20    1.60
   8   3  -5    6.10    1.50
 -11   8  -5    4.90    2.20
  -8  11   5    5.80    2.40
   3   8   5    7.30    0.90
  -8  11  -5    3.90    2.10
  11  -8   5    3.80    2.00
  -3  11   5    8.40    2.10
  -8  11  -5    4.70    1.60
   8   3   5    5.80    1.70
  11  -3  -5    4.10    1.30
  11  -3  -5    8.90    2.90
  11  -9  -5   19.80    4.20
   9   2  -5   20.40    3.00
   2   9   5   22.80    2.20
  11  -2   5   23.20    4.40
  -2  11  -5   23.00    2.90
 -11   9  -5   19.70    4.10
  -9  11   5   14.20    3.10
  -9  11   5   22.80    4.80
  11  -2  -5   14.70    3.60
  -9  11  -5   15.40    3.10
 -11   9   5   19.40    4.10
  -2  11   5   23.00    3.00
  11  -9   5   17.50    4.00
  -9  11  -5   22.10    4.60
   9   2   5   24.50    3.30
 -10  11   5    0.90    1.40
 -11  10  -5    5.20    2.20
   1  10   5    5.30    1.10
  11  -1   5    1.80    1.50
  10   1  -5    2.40    1.50
  -1  11  -5    4.10    1.20
  -1  11   5    5.00    1.40
  11  -1  -5    4.20    1.90
 -11  10   5    3.30    2.00
 -10  11  -5    2.70    1.60
  10   1   5    6.90    2.20
   0  11   5    3.00    1.00
  11   0   5    1.00    1.40
 -11  11  -5    0.30    1.20
  11   0  -5    1.40    1.30
 -11  11   5    1.40    1.50
  12  -6  -5    0.80    1.40
  12  -6  -5    0.00    1.70
   6   6   5    0.10    0.40
  12  -6   5   -0.10    1.60
  -6  12  -5    0.20    1.10
  12  -6   5    0.60    1.20
  -6  12   5    1.00    1.40
  12  -7  -5    4.60    2.20
  12  -5   5    3.00    1.60
  -7  12   5    3.90    2.10
  -5  12  -5    4.20    1.80
  -7  12   5    3.50    1.10
  12  -5   5    3.90    2.30
  -7  12  -5    5.00    2.10
   7   5   5    3.50    1.10
  12  -5  -5    2.80    1.60
  12  -5  -5    3.40    2.30
  12  -7   5    4.40    2.00
  -5  12   5    6.00    2.10
   8   4  -5    5.10    1.00
  -4  12  -5    5.50    1.80
  -8  12   5    5.30    1.60
  12  -8  -5    6.30    2.50
  12  -4   5    6.20    1.80
  -8  12   5    5.80    2.40
  12  -4   5    2.90    2.10
  12  -4  -5    5.40    2.70
  -4  12   5    4.90    1.90
  12  -8   5    3.00    1.90
   8   4   5    4.10    1.30
  -8  12  -5    3.80    2.00
  12  -4  -5    3.40    1.40
  -8  12  -5    2.50    1.20
  -9  12   5    4.50    2.30
  12  -3   5    3.50    2.00
  12  -9  -5    3.20    2.20
   9   3  -5    3.10    1.20
  -3  12  -5    2.00    1.20
  -9  12   5    3.80    1.60
  -9  12  -5    3.80    2.20
   9   3   5    2.80    1.30
  12  -3  -5    3.50    2.10
  12  -9   5    2.40    1.90
  -9  12  -5    2.30    1.30
  -3  12   5    3.50    1.50
   0   0  -6  160.48   13.30
   0   0   6  149.88   13.00
   0   0   6  147.99   13.20
   1   0  -6   -0.20    0.70
  -1   1  -6    0.80    0.90
   0   1  -6    0.70    0.80
  -1   0  -6    0.20    0.60
   1   0  -6    0.10    0.80
   0  -1  -6    0.60    0.80
   1  -1  -6    0.70    0.90
  -1   0   6   -0.20    0.60
   0   1   6    0.00    0.60
   1  -1   6    1.00    0.80
  -1   1  -6    0.60    0.80
   0  -1  -6    0.20    0.80
  -1   1   6    0.50    0.80
   1   0   6    0.30    0.70
   1  -1   6    0.80    0.70
   0   1   6    0.50    0.80
  -1   1   6    0.30    0.70
   0  -1   6    0.00    0.60
  -1   0   6    1.20    0.80
  -1   0  -6    0.50    0.80
   1   0   6    0.90    0.70
   0   1  -6    0.60    0.70
   0  -1   6    0.40    0.70
   1  -1  -6    1.00    0.90
   2  -1   6 1112.49   90.09
   1  -3  -6   89.69    8.40
   1   2   6   89.29    8.40
   1   2   6   94.09    8.00
   2   1  -6   83.89    8.10
   3  -1   6   70.89    7.80
   2  -3   6   97.69    8.10
  -1  -2   6   71.59    7.70
   2   1  -6   84.79    7.80
   1   2   6   87.59    7.70
  -1   3  -6   89.19    8.10
  -3   1   6   83.69    8.20
  -2   3   6   79.39    7.90
  -2  -1  -6   95.79    8.30
  -3   2  -6   87.89    8.20
   1  -3  -6  100.59    8.40
  -2  -1  -6   85.29    8.20
  -1   3  -6   86.49    7.80
   1   2   6   79.59    7.90
  -1   3  -6   97.19    8.20
   2   1  -6  100.79    7.80
   2  -3   6   96.69    8.30
  -3   2  -6   88.89    8.30
  -1  -2   6   72.29    7.80
   3  -1   6   74.99    8.00
  -2  -1   6   99.59    8.00
   1   2  -6   71.39    7.90
  -3   1  -6   92.29    8.30
  -2   3  -6  100.39    8.10
   1  -3   6   83.49    8.00
  -2  -1   6   84.69    8.00
   3  -1  -6   89.09    8.20
  -1  -2  -6   84.39    8.20
  -1   3   6   79.69    7.80
   2   1   6   77.39    7.70
  -1   3   6  102.19    8.20
   2   1   6   96.49    8.50
   1  -3   6   93.49    8.00
  -3   2   6   84.79    8.00
  -1   3   6   95.09    8.50
   1   2  -6  104.89    7.80
  -3   1  -6   88.39    8.30
   2   1   6   83.89    8.10
   2  -3  -6   77.59    8.30
   2   1   6   86.99    8.10
   3  -1  -6  103.19    8.10
   1   2  -6   85.09    7.60
  -2   3  -6   83.79    7.90
   1   2  -6  106.69    8.30
  -1   3   6   90.59    8.20
   3  -2   6   85.19    8.00
  -2   3  -6   81.19    8.10
  -1  -2  -6   94.99    8.40
  -4   2   6   23.10    2.80
  -2   4   6   12.30    2.40
   2   2   6   20.10    2.20
   2   2   6   18.80    2.60
  -4   2  -6   22.10    2.90
   4  -2  -6   19.10    2.80
  -4   2   6   18.30    2.80
  -2   4  -6   16.30    2.50
  -2  -2  -6   19.60    2.70
  -4   2  -6   23.40    2.90
   2   2  -6   17.40    2.60
  -2  -2  -6   22.30    2.80
  -2   4  -6   13.60    2.20
   2   2   6   28.10    3.10
  -2   4   6   18.90    2.50
   2   2   6   21.00    2.30
   2   2  -6   17.50    1.90
   2  -4   6   18.00    2.60
   2  -4  -6   18.00    2.70
   2  -4   6   15.30    2.40
  -2   4  -6   23.00    2.50
   2  -4  -6   17.90    2.70
   4  -2   6   22.40    2.90
  -2   4   6   11.70    2.50
  -2  -2   6   20.00    2.30
   2   2  -6   24.70    2.00
   2   2  -6   20.70    2.60
  -2   4  -6   20.20    2.70
   4  -2   6   19.30    2.60
  -1   4  -6    1.00    0.70
   3  -4   6    0.70    0.90
   3   1  -6    1.60    1.10
  -4   3  -6    0.20    0.80
   3  -4   6    0.50    0.80
  -1  -3   6    0.80    0.60
  -3  -1  -6    0.70    0.80
  -1   4  -6    0.70    0.60
   3   1  -6    1.10    0.50
  -1   4  -6    0.90    0.80
   3   1  -6    2.10    1.10
  -3   4   6    1.90    0.90
   4  -1   6    2.00    1.10
  -4   1   6    1.10    0.90
  -4   3  -6    1.10    1.10
   1   3   6    0.70    1.00
  -4   1   6    0.90    0.90
   1   3   6    0.50    0.50
   4  -3  -6    0.50    1.10
   1  -4  -6    1.10    0.90
   3   1  -6    1.00    0.60
   4  -3  -6    0.80    1.00
   4  -1   6    0.80    0.80
   1   3   6    1.30    0.70
  -3  -1  -6    1.10    0.90
  -3   4   6    1.30    0.90
  -1   4  -6    2.60    1.10
   4  -1   6    2.20    1.20
   1   3   6    1.00    0.80
   1  -4  -6    0.70    0.90
  -4   3   6    0.60    0.80
  -1  -3  -6    1.30    0.90
   3   1   6    1.80    1.00
  -4   3   6    1.90    1.10
  -3   4  -6    0.60    0.80
   4  -1  -6    2.00    1.20
   3  -4  -6    2.90    1.30
  -1  -3  -6    0.40    0.80
   1   3  -6    1.30    0.80
   1   3  -6    1.00    0.30
   3   1   6    1.00    0.60
  -4   1  -6    1.50    1.00
  -1   4   6    1.10    0.70
   4  -3   6    1.60    1.00
   4  -1  -6    1.60    0.90
  -1   4   6    0.80    0.70
  -4   1  -6    1.10    1.00
   4  -1  -6    1.10    0.90
   4  -1  -6    0.60    0.80
   4  -3   6    0.70    0.90
   1   3  -6    1.00    0.80
   3  -4  -6    1.20    1.00
  -3  -1   6    0.80    0.80
   1   3  -6    1.40    0.30
  -3   4  -6    1.40    0.90
   1  -4   6    1.80    1.00
  -1   4   6    1.00    1.10
   3   1   6    2.50    1.00
   3   1   6    0.20    0.90
   1  -4   6    0.30    0.60
  -3  -1   6    1.60    0.80
  -1   4   6    0.30    0.70
   4  -4  -6 1133.39   91.59
   0   4   6 1115.99   91.69
   2   3   6    3.30    1.20
   5  -2   6    5.20    1.50
   2  -5  -6    6.00    1.70
  -5   2   6    7.80    2.00
   2  -5  -6    4.50    1.70
   3  -5   6    5.50    1.70
  -5   3  -6    6.70    2.00
   5  -2   6    5.40    1.70
   3  -5   6    6.10    1.60
   3   2  -6    5.10    1.40
  -3  -2  -6    2.50    1.20
  -2   5  -6    9.50    2.10
   2   3   6    4.00    0.70
   3   2  -6    6.80    1.60
  -2   5  -6    4.60    1.10
  -2   5  -6    6.40    1.60
  -3   5   6    6.60    1.80
  -3   5   6    6.40    1.70
   2   3   6    5.30    0.80
   5  -3  -6    6.20    2.00
  -5   3  -6    6.00    1.70
  -3   5   6    5.90    1.40
   5  -3  -6    6.00    1.80
  -3  -2  -6    7.10    1.80
  -5   2   6    3.50    1.40
   2   3   6    6.50    1.90
  -2   5  -6    6.30    1.30
  -5   3   6    5.10    1.60
  -2   5   6    5.00    1.60
   5  -3   6    8.00    2.00
   5  -2  -6    4.90    1.80
   5  -2  -6    6.90    1.70
   3   2   6    6.50    1.10
  -2   5   6    5.80    1.90
   5  -2  -6    2.10    1.20
   2  -5   6    3.00    1.30
   2   3  -6    7.00    1.60
   3   2   6    4.80    0.90
  -3   5  -6    3.40    1.10
   3   2   6    7.70    1.90
  -3   5  -6    7.40    1.90
   3  -5  -6    6.10    1.80
   3   2   6    6.30    1.50
   3  -5  -6    6.00    2.00
  -5   3   6    4.40    1.60
   2   3  -6    5.40    1.40
  -5   2  -6    8.90    2.10
   5  -3   6    6.30    1.60
  -3   5  -6    2.50    1.10
  -2   5   6    4.80    1.30
  -5   2  -6    8.30    2.10
  -2   5   6    6.40    1.50
  -3   5  -6    6.60    1.90
   2  -5   6    5.60    1.50
  -2  -3  -6    8.70    1.90
  -5   1   6  925.71   75.69
   1  -5  -6  984.30   75.59
   1  -5  -6  985.30   75.89
  -5   4  -6  875.71   75.49
  -5   4  -6 1004.30   75.99
   1   4   6  797.12   75.49
   5  -1   6  792.42   75.49
  -5   1   6  969.60   75.49
   4  -5   6  940.61   75.59
   5  -1   6  986.00   75.69
   5  -4  -6  930.81   75.69
   4   1  -6  923.21   75.39
   4  -5   6  841.12   75.69
  -4  -1  -6  888.11   75.59
   5  -4  -6  915.31   76.09
   4   1  -6 1026.20   75.59
  -4   5   6  923.31   75.79
  -4  -1  -6 1034.30   75.69
  -4   5   6 1061.39   75.49
  -4   5  -6  987.10   75.79
   4   1   6  786.22   75.19
  -1  -4  -6 1016.30   75.59
   4  -5  -6  871.11   75.69
   4   1   6  857.11   74.99
  -5   1  -6  942.11   75.79
  -5   4   6  923.61   75.59
   1   4  -6  876.71   75.09
  -5   4   6  918.71   75.89
   5  -1  -6  986.10   75.89
   5  -1  -6  828.22   75.59
   5  -4   6  808.12   75.69
  -5   1  -6  992.10   75.89
   5  -1  -6  921.81   75.29
   4   1   6  967.40   75.89
   5  -4   6  926.21   75.59
  -5   5  -6  208.38   17.80
   5  -5  -6  174.38   18.20
  -5   0  -6  227.78   18.20
   5   0   6  208.48   17.30
  -5   5   6  223.58   18.30
  -5   5  -6  219.18   18.30
   0   5   6  198.88   16.70
   0   5   6  211.98   16.70
   5  -5   6  174.08   17.70
   0   5   6  168.48   17.40
   5   0  -6  184.98   17.70
   5   0  -6  204.18   17.10
   0   5  -6  234.58   17.70
  -5   5   6  232.68   18.00
   0   5  -6  200.48   17.40
   5  -5  -6  196.68   18.00
   0   5   6  212.08   18.10
   5   0   6  225.28   17.80
  -6   3  -6 1010.10   83.99
  -6   3   6  984.90   83.89
  -6   3  -6  965.10   84.09
   6  -3   6 1090.79   83.69
  -3   6   6 1052.29   83.89
   6  -3   6 1011.10   84.09
  -3   6   6  988.10   83.29
   3  -6  -6 1092.69   83.99
   6  -3  -6  910.91   84.09
   3   3   6 1172.78   84.09
  -3   6  -6 1025.30   83.69
  -4   6   6  948.41   91.29
  -4   6   6 1181.68   91.99
   2   4   6 1018.60   91.29
   6  -4  -6  973.60   91.69
   2   4   6 1263.17   91.99
  -6   4  -6 1201.88   91.99
   6  -4  -6 1229.98   92.49
  -6   2   6 1165.28   91.89
  -4   6  -6 1090.79   91.89
  -6   4   6  934.91   91.99
   4  -6  -6 1221.58   92.79
   6  -2  -6 1023.20   91.49
   6  -2  -6 1160.58   92.09
  -6   4   6 1226.08   91.99
   6  -4   6 1237.98   91.79
   6  -4   6 1163.98   92.29
   4  -6  -6 1140.09   91.99
  -1   6  -6    0.00    0.70
   5  -6   6   -0.10    0.90
   6  -1   6   -0.20    0.90
   6  -5  -6    0.90    1.10
   6  -5  -6   -1.30    1.10
  -6   5  -6    0.50    1.20
  -6   5  -6    0.20    1.00
  -5   6   6    0.30    0.80
  -5   6   6    0.10    1.10
   5   1  -6    0.50    1.00
   6  -1   6   -0.10    0.70
   1   5   6    0.30    0.70
  -6   5   6    0.70    0.90
  -1   6   6    0.70    0.40
   1   5  -6    0.50    0.70
   6  -5   6    0.00    0.90
   5   1   6    0.10    0.50
  -1   6   6    0.40    0.40
   5  -6  -6   -0.30    0.90
  -5   6  -6   -0.20    0.80
  -6   5   6    0.00    1.10
   6  -1  -6    0.40    0.80
   5   1   6    0.80    0.90
  -1   6   6    0.20    0.70
   6  -5   6    0.10    1.20
  -5   6  -6    0.00    1.00
   5   1   6    0.40    0.50
   5  -6  -6    0.90    1.40
   1   5  -6    0.20    0.70
   6  -1  -6    1.50    1.30
   6   0  -6  154.38   13.00
   6   0  -6  152.18   13.00
   6  -6  -6  150.18   14.40
   6   0   6  174.98   13.50
   0   6  -6  147.19   13.60
  -6   6  -6  148.39   14.00
  -6   6   6  146.89   14.60
  -6   6   6  168.38   14.30
   6  -6  -6  166.08   15.10
   6  -6   6  158.98   14.30
   6   0   6  179.88   14.30
  -6   6  -6  154.68   14.50
   6   0  -6  154.78   14.10
  -3   7  -6   33.10    3.70
   7  -4  -6   39.30    5.20
   3   4   6   43.70    4.30
  -4   7   6   48.00    4.40
   4   3  -6   35.90    4.10
  -3   7  -6   47.20    4.70
   7  -4  -6   34.70    4.60
   7  -3   6   47.50    5.20
  -7   4  -6   40.80    4.90
  -4   7   6   39.30    4.80
   7  -3   6   31.30    4.30
   7  -3  -6   35.80    4.50
  -7   4   6   35.70    4.70
  -3   7   6   42.80    4.10
   7  -3  -6   43.10    5.10
  -4   7  -6   36.30    4.10
  -3   7   6   45.60    4.80
   3   4  -6   40.80    4.10
  -7   3  -6   44.40    5.10
   3   4  -6   41.30    4.20
  -4   7  -6   37.80    4.60
   7  -2   6  280.07   25.40
  -5   7   6  334.37   25.10
   2   5   6  297.67   24.80
  -7   5  -6  275.87   25.40
   7  -5  -6  295.87   25.50
  -2   7  -6  311.27   25.00
   7  -5  -6  298.97   26.10
  -7   5  -6  324.67   26.00
   7  -2  -6  294.77   24.90
   5   2   6  298.47   24.90
  -5   7  -6  317.77   25.60
  -2   7   6  266.17   24.90
   7  -5   6  294.27   25.30
  -7   5   6  320.97   26.10
  -7   5   6  322.87   25.60
  -2   7   6  268.87   24.20
  -5   7  -6  282.77   24.90
   5  -7  -6  308.17   25.80
   7  -2  -6  285.27   25.50
   2   5  -6  267.67   24.60
   2   5  -6  298.47   24.50
  -2   7   6  288.97   24.20
   7  -5   6  291.07   25.90
   6  -7   6   28.40    3.70
   1   6   6   20.50    2.80
   7  -6  -6   27.60    3.80
  -1   7  -6   14.20    2.80
  -6   7   6   28.30    3.40
   6   1  -6   15.10    3.00
  -7   6  -6   23.60    3.30
   7  -1   6   24.00    2.80
   7  -6  -6   31.60    5.40
  -6   7   6   23.40    4.10
   7  -1   6   23.10    3.40
   7  -1  -6   19.40    2.60
  -6   7  -6   19.30    3.00
   6  -7  -6   25.40    3.70
  -1   7   6   29.40    3.20
  -6   7  -6   22.90    4.00
  -7   6   6   25.30    3.50
  -7   6   6   27.70    4.10
   1   6  -6   17.20    2.50
   7  -6   6   21.10    3.70
   6   1   6   26.60    3.30
   7  -1  -6   26.20    3.50
   7  -6   6   15.90    3.80
  -7   7   6    2.40    1.50
  -7   7  -6    4.10    2.00
  -7   7   6    5.70    2.20
   7   0   6    6.90    1.20
   0   7  -6    5.40    1.40
   7  -7  -6    6.50    2.20
  -7   7  -6    3.90    1.60
   0   7   6    5.60    1.50
   7   0  -6    7.90    2.20
   7   0   6    7.80    2.00
   7  -7   6    6.30    2.10
   8  -4   6  160.88   13.80
   4   4   6  153.28   13.30
  -8   4  -6  149.29   14.30
   4   4  -6  155.98   13.10
  -4   8  -6  165.08   13.00
   8  -4  -6  152.18   13.90
   8  -4   6  145.79   14.30
   8  -4  -6  150.38   14.50
  -4   8   6  136.09   13.10
   8  -3   6    1.60    1.20
   8  -3   6    2.70    1.60
   8  -5  -6    2.10    1.40
   3   5   6    1.00    0.80
  -3   8  -6    3.80    1.50
  -8   5  -6    0.50    1.30
  -5   8   6    1.00    1.30
   8  -5  -6    1.20    1.70
   5   3  -6    1.50    1.00
  -5   8   6    1.90    1.10
   3   5  -6    4.30    1.10
  -8   5   6    4.60    1.90
  -5   8  -6    2.30    1.10
  -3   8   6    2.90    1.40
   8  -5   6    3.20    1.60
   5   3   6    2.50    1.10
  -3   8   6    2.50    0.80
   8  -3  -6    2.80    1.40
   8  -3  -6    2.20    1.70
  -5   8  -6    3.40    1.50
   3   5  -6    2.90    1.00
   8  -5   6    0.70    1.40
  -6   8   6  374.76   37.60
   8  -2   6  453.75   37.70
   8  -6  -6  474.35   37.80
   6   2  -6  487.35   37.10
  -8   6  -6  435.36   37.60
   2   6   6  368.56   36.60
   8  -6  -6  514.85   39.00
  -6   8   6  443.26   37.10
  -2   8  -6  454.35   37.00
  -6   8  -6  446.06   37.10
  -2   8   6  455.85   37.20
   8  -2  -6  460.15   36.90
   8  -6   6  482.45   37.80
  -8   6   6  507.25   38.00
   2   6  -6  488.15   36.50
  -6   8  -6  406.46   37.60
   6   2   6  394.26   36.90
   8  -2  -6  450.45   37.80
   8  -6   6  392.06   38.00
   1   7   6  355.96   27.80
  -8   7  -6  285.67   29.00
  -7   8   6  348.87   28.40
   8  -1   6  331.47   28.50
   8  -1   6  368.26   27.70
  -8   7  -6  328.37   28.50
   7   1  -6  304.17   28.10
   8  -7  -6  293.47   28.70
  -7   8   6  364.06   29.30
  -1   8  -6  334.07   27.80
   8  -1  -6  387.66   27.30
   8  -1  -6  333.97   28.60
   7   1   6  335.97   28.30
   1   7  -6  371.46   27.60
  -7   8  -6  296.37   28.80
  -8   7   6  279.27   28.40
  -1   8   6  336.47   28.00
   8  -7   6  311.37   28.60
  -8   8   6  480.55   36.60
   8   0   6  415.96   35.30
   0   8   6  393.86   34.80
  -8   8   6  441.46   35.60
  -8   8  -6  395.66   35.30
   8   0  -6  427.86   35.40
   8  -8  -6  363.06   35.70
  -8   8  -6  450.05   36.40
   9  -5  -6    3.40    2.30
  -4   9  -6    4.40    1.70
  -5   9   6    9.10    1.70
  -5   9   6    6.20    2.00
   4   5   6    6.10    1.40
   5   4  -6    4.20    1.20
   9  -4   6    6.70    2.40
   9  -4   6    6.30    1.80
   9  -5  -6    6.50    2.20
  -5   9  -6    5.10    1.30
  -5   9  -6    7.00    2.20
   9  -4  -6    7.30    2.20
  -4   9   6    3.00    1.00
   9  -5   6    5.60    1.90
   5   4   6    4.20    1.30
   4   5  -6    5.30    1.10
   9  -5   6    8.40    2.60
  -4   9   6    7.20    2.00
   9  -4  -6    7.20    2.60
   9  -6  -6  194.78   16.40
  -6   9   6  154.58   14.30
   9  -6  -6  163.68   15.00
   9  -3   6  147.69   14.20
   9  -3   6  160.48   15.10
  -3   9  -6  165.78   14.50
  -9   6  -6  173.98   15.20
   3   6   6  165.58   13.90
   6   3  -6  174.38   14.20
   9  -3  -6  151.08   15.10
  -6   9  -6  145.89   14.10
  -9   6   6  165.88   15.20
   9  -6   6  148.29   15.40
   3   6  -6  176.68   13.80
   3   6  -6  156.18   13.50
  -6   9  -6  167.78   15.10
  -3   9   6  152.78   14.50
   9  -3  -6  138.79   14.20
   6   3   6  182.38   14.30
   7   2  -6   62.69    5.70
  -7   9   6   58.89    6.70
   9  -2   6   57.29    5.40
   2   7   6   55.79    5.20
  -2   9  -6   50.39    5.40
   9  -7  -6   49.20    6.20
   9  -2   6   60.09    6.30
  -7   9   6   57.79    5.80
  -9   7  -6   39.10    5.80
   9  -2  -6   44.80    5.10
   7   2   6   49.40    5.50
  -7   9  -6   49.10    5.50
  -9   7   6   48.80    6.20
   9  -2  -6   54.39    6.30
   9  -7   6   55.19    6.20
  -2   9   6   46.60    5.40
  -7   9  -6   47.80    6.20
   2   7  -6   56.99    4.80
  -8   9   6    0.20    1.40
  -8   9   6    0.50    1.10
  -1   9  -6    0.00    0.80
   9  -1   6    1.00    1.20
   9  -1   6    0.60    0.60
   9  -8  -6   -0.10    1.40
   8   1  -6   -0.60    0.80
   1   8   6    0.00    0.70
  -9   8  -6    0.20    1.10
  -9   8   6   -0.10    1.10
   8   1   6    0.20    1.00
   1   8  -6    0.30    0.60
   9  -8   6    0.10    1.30
   9  -1  -6    0.10    1.10
  -8   9  -6    0.40    1.50
  -1   9   6    1.10    1.00
  -8   9  -6   -0.10    1.00
   9   0   6   84.89   10.10
   0   9  -6  114.79    9.60
   9   0  -6  103.59   10.40
   0   9   6  121.89   10.00
  -9   9  -6  120.89   10.70
  -9   9   6   99.49   10.50
  10  -5  -6  254.67   27.60
  -5  10  -6  335.27   25.60
  10  -5   6  313.37   26.90
  10  -5  -6  318.07   27.20
   5   5   6  305.87   26.20
  -5  10  -6  295.07   27.00
   5   5  -6  328.77   25.80
  10  -5   6  346.27   28.10
  -5  10   6  321.67   27.30
   4   6   6  329.97   25.60
  -6  10   6  300.57   26.80
  10  -6  -6  355.06   27.10
  -4  10  -6  294.67   26.30
  10  -4   6  304.77   27.10
   6   4  -6  288.37   25.50
  10  -6   6  295.37   27.50
  -4  10   6  324.37   26.60
  10  -6   6  336.07   26.80
  -6  10  -6  319.37   25.70
  10  -4  -6  287.57   26.20
  -6  10  -6  249.08   26.40
   4   6  -6  316.37   24.90
  -7  10   6    0.10    1.00
  10  -3   6   -0.20    1.20
 -10   7  -6   -0.70    1.20
  10  -3   6    0.30    0.90
  10  -7  -6    0.90    1.50
   3   7   6    0.50    0.70
  -7  10   6   -1.00    0.90
  -3  10  -6    0.80    1.10
   7   3  -6   -0.30    0.80
  -7  10  -6    0.50    1.30
  -3  10   6    0.30    1.00
  10  -3  -6    0.00    1.30
  10  -3  -6    0.00    0.90
   7   3   6    0.20    0.90
  10  -7   6    0.20    1.20
  -7  10  -6    0.60    0.90
  10  -2   6  135.19   11.60
  10  -8  -6  125.69   11.80
  10  -2   6  114.59   10.20
  -8  10   6  131.19   11.00
   8   2  -6  129.39   10.80
  -2  10  -6  118.19   10.50
   2   8   6  105.79   10.00
  -8  10   6  109.09   11.70
 -10   8  -6  108.49   11.30
  -8  10  -6  100.29   11.50
   8   2   6  100.79   10.50
 -10   8   6   96.49   11.20
  -2  10   6  121.19   10.70
  10  -8   6  119.69   11.60
  10  -2  -6  117.69   11.50
  -8  10  -6  128.69   10.90
  10  -2  -6  105.89    9.70
   9   1  -6   24.20    3.50
  -9  10   6   17.20    3.50
   1   9   6   22.10    2.80
  -1  10  -6   24.00    2.90
  10  -1   6   12.70    3.40
  10  -9  -6   32.80    4.70
   1   9  -6   25.90    2.40
  -1  10   6   18.50    3.00
  -9  10  -6   27.50    3.70
 -10   9   6   28.10    4.80
  -9  10  -6   21.60    4.80
   9   1   6   25.60    3.50
  10  -1  -6   21.40    4.00
  10   0  -6  138.29   12.20
   0  10  -6  127.89   10.90
  10   0   6  114.79   11.90
   0  10   6  120.69   11.30
 -10  10  -6  133.29   12.30
 -10  10   6  132.69   12.40
  -6  11   6    1.00    1.40
  11  -5   6    0.50    1.70
  -5  11  -6    2.00    1.60
  11  -6  -6    1.20    2.20
  11  -6  -6    2.20    1.70
  11  -5   6    3.90    1.70
   5   6   6    1.10    0.80
  -6  11   6    2.10    0.90
   6   5  -6    2.00    0.50
  11  -5  -6    2.90    1.50
   6   5   6    3.20    1.20
  -5  11   6    2.10    1.50
  11  -5  -6    1.10    1.80
  11  -6   6    0.80    2.20
  -6  11  -6   -0.30    1.20
  -6  11  -6    1.00    0.60
  11  -6   6    3.20    1.70
  -7  11   6   64.99    7.20
  -7  11   6   88.69    8.70
   7   4  -6   75.49    6.90
  11  -4   6   92.89    9.00
  11  -7  -6   74.29    8.30
  -4  11  -6   83.69    7.90
  11  -4   6   82.89    7.70
   4   7   6   83.19    6.90
  -4  11   6   81.99    7.90
  11  -4  -6   73.59    7.60
  11  -7   6   75.39    8.10
  -7  11  -6   59.99    7.00
  11  -4  -6   79.59    8.80
   7   4   6   70.19    7.20
  -8  11   6   54.89    6.30
   3   8   6   47.00    4.30
 -11   8  -6   47.30    5.90
  11  -3   6   31.50    4.50
  11  -8  -6   42.70    5.80
  -3  11  -6   56.19    5.20
   8   3  -6   45.90    4.70
  -8  11   6   48.60    5.10
  11  -3   6   49.20    6.10
  11  -8   6   52.89    6.00
  -3  11   6   40.00    5.00
   8   3   6   35.10    4.70
  11  -3  -6   42.50    4.50
  -8  11  -6   41.40    4.80
  -8  11  -6   40.20    5.80
  11  -3  -6   46.20    5.90
 -11   9  -6   -0.70    1.10
  -2  11  -6   -1.00    0.70
  11  -2   6    0.20    0.50
   2   9   6    0.00    0.60
  -9  11   6   -0.70    1.00
   9   2  -6   -0.20    0.90
  11  -2   6   -0.70    1.20
  11  -9  -6    0.20    1.40
  -9  11   6    0.10    1.50
  11  -9   6    0.60    1.40
  -2  11   6    0.10    0.90
   9   2   6    0.70    1.00
  -9  11  -6    0.40    1.50
  -9  11  -6    0.20    0.90
  11  -2  -6   -0.20    1.30
 -11   9   6    0.30    1.30
 -11  10  -6   45.90    5.80
  -1  11  -6   41.70    4.60
  10   1  -6   43.00    5.30
 -10  11   6   48.50    5.70
  11  -1   6   43.40    5.80
   1  10   6   46.30    4.60
 -10  11  -6   44.50    5.50
 -11  10   6   49.90    6.00
  11  -1  -6   55.89    6.00
  -1  11   6   47.20    5.00
  10   1   6   50.39    5.60
   6   6   6   51.99    4.90
  12  -6  -6   44.90    7.00
  -6  12  -6   49.90    6.00
  12  -6  -6   48.10    6.00
  -6  12   6   60.39    6.50
  12  -6   6   52.09    6.00
  12  -5   6   -0.20    1.00
  -7  12   6    1.40    1.60
  -5  12  -6    1.70    1.50
  12  -5   6    3.40    2.30
  -7  12   6    1.40    0.80
  12  -7  -6    1.50    1.70
   5   7   6    1.00    0.60
  -5  12   6    1.70    1.50
   7   5   6    0.60    0.80
  12  -7   6    1.00    1.50
  12  -5  -6    2.50    1.50
  12  -5  -6    4.30    2.30
  -7  12  -6   -0.30    1.30
  -7  12  -6    1.20    0.70
   4   8   6  134.29   11.20
  -8  12   6  135.79   12.30
  12  -4   6  132.19   13.70
  -8  12   6  138.09   13.70
  12  -8  -6  150.28   13.70
   8   4  -6  143.99   11.80
  12  -4  -6  144.59   13.90
  -8  12  -6  132.79   12.10
  12  -4  -6  162.08   12.50
  -8  12  -6  142.29   13.60
  12  -8   6  115.79   13.00
   8   4   6  119.09   12.10
  -9  12   6   80.09    9.40
  12  -3   6   93.79    9.40
  12  -9  -6   78.99    9.20
  -3  12  -6   83.89    8.10
  -9  12   6   71.99    8.10
  12  -3   6   79.09    7.50
   9   3  -6   77.29    7.70
  12  -9   6  105.79    9.50
  -9  12  -6   82.19    8.00
  -3  12   6   82.99    8.20
  12  -3  -6   94.19    9.40
   0   0  -7   -0.20    0.70
   0   0  -7   -0.10    0.60
   0   0   7   -0.10    0.60
   0   0   7    0.60    0.70
   1  -1  -7   12.80    2.40
   0  -1   7    7.90    1.90
   0   1   7    8.60    1.90
  -1   0  -7   11.50    2.40
   0   1  -7   11.50    2.10
  -1   0   7   13.90    2.10
   1  -1  -7   11.60    2.30
  -1   1   7   12.60    2.30
   1   0  -7   13.90    2.70
   1   0  -7   14.80    2.50
   0  -1  -7   12.50    2.50
   1  -1   7   14.00    2.10
   1  -1   7   12.30    2.10
   0  -1  -7    9.90    2.20
   0   1  -7   13.70    2.40
  -1   1   7   16.20    2.10
   1   0   7   14.30    2.00
  -1   1  -7    9.40    2.10
  -1   0   7   10.60    2.00
   1   0   7   11.90    2.10
  -1   1  -7   16.30    2.20
   0   1   7    9.20    1.90
   1   1  -7   -0.20    0.70
  -1   2  -7   -0.80    0.70
   1  -2   7   -0.10    0.60
  -1  -1   7    0.00    0.50
  -1   2   7   -0.30    0.50
  -1  -1  -7   -0.50    0.80
   1  -2  -7   -0.20    0.80
   1  -2  -7   -0.70    0.80
   1  -2   7   -0.20    0.50
   2  -1  -7    0.50    0.90
   2  -1  -7   -0.10    0.70
  -2   1   7    0.10    0.70
  -1  -1   7   -0.40    0.60
   1   1  -7    0.10    0.90
  -1   2   7    0.20    0.70
  -1   2  -7    0.10    0.70
   2  -1   7   -0.40    0.50
  -2   1   7    0.60    0.90
  -2   1  -7    0.50    0.90
   2  -1   7    0.80    0.70
  -2   1  -7    0.00    0.80
   1   1   7    0.20    0.60
   1   1   7   -0.40    0.70
   1   1  -7    0.30    0.60
  -1  -1  -7   -0.90    0.70
   1   1  -7    0.40    0.70
   2   0  -7  116.39   11.10
  -2   2  -7  100.59   11.00
   0   2  -7  145.89   11.40
   2   0  -7  136.59   11.20
   0   2   7  125.79   11.30
  -2   0   7  116.09   11.00
  -2   0   7  128.39   11.30
   0  -2  -7  100.49   11.20
   0   2  -7  121.99   11.20
   0   2  -7  133.99   11.10
   0   2   7  140.19   11.00
   2  -2   7  124.09   11.30
   0  -2   7  130.99   11.20
   0   2  -7  135.79   11.00
   0  -2  -7  117.39   11.30
  -2   2  -7  104.99   11.20
   0  -2   7  128.19   11.10
  -2   0  -7  138.99   11.50
   2  -2   7  148.09   11.30
   2   0  -7  114.49   11.30
  -2   2   7  114.69   11.20
   2  -2  -7  135.39   11.50
   2   0   7  128.59   11.30
   2   1  -7   29.70    3.70
  -2  -1  -7   29.90    3.70
  -3   2  -7   29.20    3.70
   1   2   7   36.70    3.80
   2   1  -7   27.40    3.30
   1   2   7   28.80    3.30
   1   2   7   36.80    4.20
   3  -1   7   36.00    3.60
   2  -3   7   27.40    3.60
  -3   2  -7   35.20    3.90
  -1   3  -7   32.40    3.80
   1   2   7   38.20    3.80
   2   1  -7   33.50    3.90
  -1   3  -7   33.40    3.50
   2   1  -7   33.80    3.40
  -1  -2   7   32.80    3.50
  -3   1   7   34.20    3.90
   1  -3  -7   29.00    3.80
  -2   3   7   33.60    3.80
  -1   3  -7   36.50    3.80
   3  -2  -7   33.70    3.90
  -3   1   7   34.20    3.60
  -2  -1  -7   30.40    3.80
   2  -3   7   37.40    3.70
   1  -3  -7   27.80    3.90
   3  -2  -7   32.00    4.00
  -2   3   7   34.70    3.60
  -1   3   7   34.20    3.70
  -2  -1   7   35.90    3.80
  -1  -2  -7   34.90    4.00
  -3   1  -7   28.80    3.80
   1   2  -7   27.30    3.30
   1   2  -7   37.00    3.90
   2   1   7   37.20    3.90
   3  -1  -7   35.70    3.90
   1   2  -7   27.30    3.20
   2  -3  -7   24.40    3.70
   2   1   7   26.90    3.30
   1  -3   7   31.30    3.50
  -2   3  -7   27.80    3.50
  -2  -1   7   37.50    3.60
   1   2  -7   28.00    3.60
  -3   1  -7   32.80    3.90
  -3   2   7   35.80    3.70
   3  -2   7   30.10    3.50
  -1  -2  -7   22.30    3.60
   3  -1  -7   25.70    3.80
  -1   3   7   27.20    3.60
   2   1   7   29.10    3.70
  -2   3  -7   33.80    3.90
  -3   2   7   28.00    3.70
  -1   3   7   33.40    3.50
   2  -3  -7   30.80    3.90
   3  -2   7   31.80    3.80
   2   1   7   34.10    4.10
   3  -3  -7   25.50    3.30
   0   3  -7   26.30    2.70
  -3   3  -7   18.20    2.80
   3  -3  -7   20.80    3.20
   3   0   7   23.10    2.70
  -3   3   7   20.30    3.10
   0   3   7   26.10    3.00
  -3   0   7   24.50    3.00
   0  -3  -7   25.90    3.30
   3   0  -7   24.90    3.20
  -3   0   7   24.30    2.90
   3   0  -7   22.00    2.80
   0  -3   7   17.00    2.60
  -3   0  -7   23.50    3.20
   0  -3  -7   13.70    3.00
   0   3  -7   23.70    3.00
  -3   3  -7   28.60    3.30
   3  -3   7   22.90    3.00
   3  -3   7   27.10    3.10
   3   0  -7   21.80    3.10
   3   0   7   14.50    3.00
   3   0  -7   23.60    2.70
   0   3  -7   20.40    2.90
   0   3   7   23.20    3.20
  -3   3   7   20.10    2.80
   0   3   7   25.80    3.10
  -3   0  -7   23.80    3.10
   0   3  -7   23.00    2.50
  -2  -2  -7   -1.00    0.60
   2   2   7    0.00    0.60
   2   2  -7    0.30    0.40
  -4   2  -7    0.40    0.90
  -2   4  -7    0.20    0.80
   2   2  -7    0.00    0.40
  -2  -2   7   -0.30    0.60
  -2   4   7    0.00    0.80
  -4   2   7    0.10    0.70
   4  -2   7    0.30    0.80
   2   2  -7    0.60    0.90
   2   2  -7    0.40    0.80
  -2   4  -7    0.30    0.70
   4  -2   7    0.10    0.80
   2  -4   7    0.80    0.90
  -2   4   7    0.30    0.70
   2   2   7   -0.20    0.80
   2   2   7    0.20    0.60
  -4   2  -7    1.50    1.20
   2  -4  -7    0.60    1.00
  -2   4   7    0.50    0.70
   4  -2  -7    0.50    0.90
   4  -2  -7   -0.60    0.80
  -2  -2  -7    0.20    0.80
   2  -4  -7    0.30    1.00
  -2  -2   7    0.60    0.80
  -2   4  -7   -0.10    0.60
  -4   2   7    0.70    1.00
   2  -4   7    0.60    0.80
   2   2   7    0.30    0.70
  -2   4  -7    0.00    0.80
  -4   1   7   33.40    3.40
  -3   4   7   23.10    3.10
  -3  -1  -7   26.00    3.40
   3   1  -7   31.20    2.80
  -1  -3   7   25.50    3.00
   1   3   7   22.80    3.40
  -1   4  -7   23.00    3.10
   4  -3  -7   27.00    3.40
   1   3   7   23.10    2.80
  -1   4  -7   25.00    3.20
   1   3   7   21.50    2.70
  -4   3  -7   28.70    3.40
   4  -1   7   32.70    3.60
   4  -1   7   26.20    3.10
   3  -4   7   16.70    3.30
  -4   1   7   27.80    3.40
   3  -4   7   20.60    3.10
  -1   4  -7   23.10    2.80
   3   1  -7   27.60    3.40
  -1  -3   7   29.00    3.20
  -4   3  -7   23.50    3.40
   1  -4  -7   25.70    3.40
   3   1  -7   23.00    2.70
   1  -4  -7   26.00    3.50
   3   1  -7   20.60    3.10
   4  -3  -7   26.50    3.60
  -3  -1  -7   26.90    3.50
   3   1   7   24.80    3.20
   3  -4  -7   25.40    3.50
  -1   4   7   28.90    3.20
   1  -4   7   24.50    3.10
   3   1   7   16.80    3.60
   4  -1  -7   33.80    3.70
  -4   1  -7   15.20    3.30
   4  -3   7   27.10    3.30
  -1  -3  -7   25.10    3.40
   3   1   7   19.90    2.70
   1   3  -7   17.80    2.90
   4  -3   7   28.00    3.60
  -1  -3  -7   27.90    3.40
  -3   4  -7   24.70    3.10
   3  -4  -7   21.20    3.90
   4  -1  -7   16.50    2.90
  -4   3   7   20.10    3.00
   1   3  -7   24.20    3.10
  -3  -1   7   24.30    3.20
  -3  -1   7   24.50    3.00
  -4   3   7   24.70    3.40
  -1   4   7   31.50    3.70
  -1   4   7   25.70    2.90
   4  -1  -7   24.80    3.50
   3   1   7   26.30    3.20
   1  -4   7   25.60    3.10
   4  -1  -7   28.90    3.20
  -4   1  -7   26.00    3.40
  -1   4   7   28.10    3.30
   1   3  -7   26.90    2.50
  -3   4  -7   24.50    3.30
   1   3  -7   26.60    2.50
   0   4  -7   97.19    8.60
   4   0   7   90.29    9.00
  -4   0   7  117.49    9.60
  -4   0  -7  103.09    9.70
   4   0   7  104.59   11.00
   0  -4  -7   97.59    9.60
   0  -4   7  110.19    9.80
   4  -4   7   81.59    9.30
   4  -4   7  109.59    9.90
   4   0  -7  108.29    9.70
   4   0  -7  124.09   10.00
   4  -4  -7  107.29   10.10
   4   0   7  118.29    9.80
  -4   0   7   89.09    9.40
   4   0  -7  105.99    9.20
   4   0   7  104.79    9.50
   0   4   7  108.09   10.00
   0  -4   7  114.39    9.30
   0   4  -7  111.19    9.40
   0  -4  -7  106.99    9.80
  -4   0  -7   96.39    9.70
  -4   4  -7   91.09    9.60
   0   4  -7   99.09    9.50
  -4   4  -7   85.89    9.30
   4  -4  -7   91.29    9.60
   4   0  -7  103.19    9.10
   0   4   7  101.99    9.40
  -4   4   7   89.79    9.30
   0   4   7  112.69    9.00
  -5   2   7    2.50    1.30
  -2   5  -7    1.30    0.80
  -2   5  -7    1.10    0.70
   3   2  -7    1.30    1.00
   2   3   7    2.10    0.70
   5  -3  -7    2.20    1.20
   2   3   7    1.40    1.00
   5  -3  -7    0.60    1.20
  -3   5   7    1.00    0.90
  -5   3  -7    2.90    1.50
  -2   5  -7    2.00    1.20
   2   3   7    2.10    0.80
   2  -5  -7    2.50    1.40
   3   2  -7    1.40    1.00
  -3  -2  -7    2.30    1.40
   5  -2   7    2.20    1.10
  -5   2   7    3.00    1.30
   3  -5   7    1.60    1.10
   2  -5  -7    0.80    1.20
  -5   3  -7    1.80    1.20
  -3   5   7    0.70    1.10
   5  -2   7    1.30    1.20
   3  -5   7    1.30    1.00
   3   2   7    3.00    0.90
   5  -3   7    2.10    1.50
   2  -5   7    1.30    1.00
  -3   5  -7    2.20    1.20
   2   3  -7    2.00    1.20
   3  -5  -7    1.00    1.10
   5  -2  -7    1.10    1.10
   3  -5  -7    2.50    1.50
   5  -2  -7    1.30    1.30
  -2   5   7    3.20    1.40
  -5   2  -7    2.30    1.30
   5  -3   7    1.30    1.10
  -5   3   7    4.00    1.70
   3   2   7    2.30    1.10
   2   3  -7    2.20    1.10
  -5   2  -7    2.00    1.40
  -5   3   7    2.30    1.10
   3   2   7    2.30    0.90
  -3   5  -7    1.30    0.90
  -2   5   7    1.40    0.90
  -5   1   7   17.40    2.50
   5  -4  -7   14.10    2.90
   5  -1   7   14.50    2.20
   1   4   7   13.80    1.60
   4  -5   7   12.00    2.80
   5  -1   7   10.80    2.50
  -1   5  -7   13.50    1.60
  -1   5  -7   13.30    1.70
  -5   4  -7   13.10    2.60
   4  -5   7   14.10    2.70
   4   1  -7   13.20    1.60
  -5   4  -7   16.90    3.20
   4   1  -7   15.40    2.70
  -4   5   7   12.40    2.90
  -1   5  -7   10.40    2.20
   1   4   7   14.80    1.70
  -4   5   7    9.30    2.20
   1   4   7   12.80    2.30
   5  -4  -7   14.30    3.20
   1  -5  -7   12.70    2.90
  -5   1  -7   15.90    3.00
  -5   4   7   14.50    2.70
  -1   5   7   15.20    2.10
  -5   4   7   15.60    3.00
   5  -4   7   13.00    2.50
   1   4  -7   15.80    2.30
  -5   1  -7   13.00    2.80
   4   1   7   16.00    2.30
   5  -1  -7   15.20    2.20
   4  -5  -7   14.40    3.00
  -4   5  -7   10.40    2.50
  -1   5   7   11.80    2.40
  -1   5   7   13.30    1.90
   5  -4   7   14.50    3.00
   5  -1  -7   14.70    2.90
   4   1   7   13.00    2.40
   4   1   7   13.10    1.90
  -4   5  -7   10.10    2.20
   4  -5  -7   13.70    3.10
   1   4  -7   13.70    2.50
   0   5   7   42.30    3.60
  -5   5   7   40.40    4.50
   5   0  -7   41.40    4.00
  -5   5  -7   35.60    4.40
   5   0   7   32.20    4.30
   0   5   7   38.20    4.30
   5  -5   7   42.50    5.00
   0   5  -7   37.70    4.20
   5   0  -7   34.30    4.40
   5  -5  -7   43.80    4.90
   5  -5  -7   36.60    5.00
  -5   5   7   40.00    4.80
   5   0  -7   42.30    4.00
   5  -5   7   39.70    4.60
  -5   5  -7   37.20    4.70
   5   0   7   38.80    4.00
   0   5   7   35.50    3.60
   6  -3  -7    0.20    1.00
   3   3   7    0.00    0.90
  -3   6   7    0.10    0.70
   6  -3  -7   -0.10    1.10
  -3   6   7    0.60    1.00
  -6   3  -7    0.20    1.00
   3   3  -7    0.00    0.70
  -6   3   7    0.80    1.00
   6  -3   7    0.20    1.10
  -6   3  -7    0.00    1.10
  -3   6  -7   -0.20    0.60
  -3   6  -7   -0.30    0.90
   6  -3   7   -0.20    0.80
   3  -6  -7    0.50    1.20
   6  -4  -7   27.00    3.60
  -2   6  -7   22.20    3.10
   4   2  -7   22.90    3.10
  -4   6   7   24.20    3.10
   6  -2   7   16.70    3.10
   2   4   7   21.70    3.00
  -2   6  -7   21.50    2.50
  -2   6  -7   22.60    2.60
  -4   6   7   28.30    3.70
   6  -4  -7   18.20    3.90
  -6   4  -7   20.20    3.70
  -6   4  -7   29.00    3.70
   4  -6   7   29.90    3.50
   6  -2   7   22.20    3.30
  -4   6  -7   20.60    2.90
  -6   4   7   25.60    3.50
  -2   6   7   20.00    2.60
  -6   4   7   21.60    4.00
  -6   2  -7   26.00    3.60
   6  -4   7   26.60    3.40
  -4   6  -7   26.10    3.50
   6  -2  -7   22.00    3.10
   6  -4   7   23.30    3.50
  -2   6   7   25.30    3.30
   2   4  -7   20.00    2.80
   6  -2  -7   26.60    3.70
   4   2   7   26.70    2.40
   4  -6  -7   19.90    3.80
   4   2   7   23.30    2.40
   4   2   7   22.40    3.00
   6  -5  -7   89.49   10.80
  -6   5  -7  114.79   10.90
   1   5   7  117.39   10.50
   6  -1   7  107.79   10.40
   5  -6   7  118.79   11.00
  -5   6   7  118.39   11.30
  -1   6  -7   96.39   10.30
  -6   5  -7  139.99   11.70
   6  -5   7  107.99   11.30
   6  -5   7  126.19   11.00
   6  -1  -7  109.89   10.30
   5  -6  -7  114.99   11.20
  -1   6   7  129.69   10.80
   5   1   7  124.09   10.80
   6  -1  -7  126.59   11.20
   5   1   7  107.49    9.90
  -6   5   7  131.69   11.10
  -1   6   7  101.59    9.80
  -5   6  -7  118.99   10.70
  -6   5   7  133.09   11.60
   1   5  -7  112.19   10.30
  -5   6  -7  118.09   11.10
  -1   6   7  135.49   10.10
   6  -6   7   44.20    4.90
  -6   6  -7   39.80    4.60
   0   6  -7   31.80    4.10
   6  -6  -7   40.60    5.00
   0   6   7   41.50    4.50
  -6   6   7   35.20    4.50
   6   0  -7   35.90    4.60
   6   0   7   35.10    4.50
   6  -6  -7   33.50    5.10
   6   0  -7   41.10    3.70
   6   0  -7   39.50    3.70
   6   0   7   42.20    4.10
  -6   6   7   43.60    5.20
   4   3  -7   48.00    5.10
  -3   7  -7   41.80    4.60
  -7   4  -7   45.00    5.60
   7  -3   7   55.79    6.00
  -3   7  -7   55.79    5.50
   7  -4  -7   44.40    5.90
   7  -4  -7   51.09    5.70
  -4   7   7   46.10    5.60
  -4   7   7   48.70    5.00
   7  -3  -7   48.10    5.40
   7  -4   7   44.30    5.80
   7  -3  -7   51.19    6.00
  -4   7  -7   59.09    5.80
  -4   7  -7   53.59    5.00
   3   4  -7   49.10    5.00
  -7   3  -7   47.60    5.70
  -3   7   7   46.30    5.40
  -7   4   7   46.30    5.60
   4   3   7   53.19    5.20
   7  -4   7   49.70    5.40
   7  -5  -7    0.80    1.30
  -5   7   7    1.70    1.40
   7  -2   7    1.30    1.30
   7  -2   7    0.20    1.00
  -7   5  -7    0.90    1.20
   5   2  -7    0.00    0.90
  -7   5  -7    0.10    1.30
   2   5   7    1.10    1.00
  -5   7   7    0.70    1.00
   7  -5  -7    0.30    1.40
  -2   7  -7    0.00    0.80
  -5   7  -7    1.00    0.90
   2   5  -7    0.90    0.80
   7  -5   7    0.40    1.00
   5   2   7   -0.30    0.70
  -7   5   7    0.10    0.80
   7  -2  -7    0.90    1.30
  -2   7   7   -0.90    0.70
  -2   7   7    0.20    0.50
   7  -5   7    1.30    1.30
   7  -2  -7    0.40    0.90
  -5   7  -7    0.80    1.10
   1   6   7   14.00    2.40
  -1   7  -7   12.30    2.20
   7  -1   7   11.60    2.10
  -7   6  -7   13.50    3.20
  -6   7   7    4.90    2.20
  -7   6  -7   12.80    2.70
   6   1  -7    9.20    2.30
   7  -6  -7    9.00    3.00
  -6   7   7   12.60    2.60
   7  -6  -7   13.20    3.00
   7  -1   7   14.40    2.90
  -6   7  -7   10.30    2.30
   7  -1  -7    8.00    1.80
   6   1   7    6.70    2.00
   6   1   7   12.70    1.30
   7  -1  -7    7.60    2.20
   7  -6   7   12.80    2.90
   1   6  -7   11.10    2.00
   6  -7  -7   14.00    3.20
  -7   6   7   11.30    3.00
   6   1   7   12.00    1.40
  -1   7   7   10.30    2.30
  -7   6   7   15.90    3.10
  -6   7  -7   14.10    3.00
  -7   7   7    7.80    2.70
   0   7   7    4.20    1.50
  -7   7   7   10.00    2.50
   7   0  -7    5.80    2.00
   7  -7   7    5.00    2.00
  -7   7  -7    9.50    2.70
   7   0   7    7.20    2.10
   7  -7  -7    6.90    2.30
  -7   7  -7    4.70    1.80
   7   0   7    5.80    1.20
   0   7  -7    8.30    1.70
   4   4  -7    0.50    0.80
   8  -4   7   -0.30    1.20
  -4   8  -7   -0.40    0.90
   8  -4  -7    0.10    1.20
  -4   8   7   -0.70    0.90
  -4   8   7   -0.20    0.60
   4   4   7    0.30    0.80
   8  -4  -7    0.10    1.10
   8  -4   7    1.20    1.10
  -4   8  -7   -0.20    0.60
   8  -5  -7   45.40    7.10
   8  -3   7   66.29    7.30
   8  -5  -7   70.99    7.30
   5   3  -7   71.69    6.50
   8  -3   7   56.19    6.50
  -3   8  -7   54.89    6.40
  -8   5  -7   71.59    7.30
  -5   8   7   57.39    7.00
   3   5   7   58.99    6.20
  -5   8   7   64.89    6.40
   3   5  -7   66.09    6.10
  -5   8  -7   67.69    6.40
   5   3   7   67.99    6.50
  -3   8   7   63.69    5.90
  -3   8   7   65.79    6.80
  -8   5   7   74.29    7.40
  -5   8  -7   68.99    7.10
   8  -3  -7   67.69    7.40
   8  -3  -7   72.69    6.80
   8  -6  -7   39.90    5.60
  -8   6  -7   37.00    4.80
   6   2  -7   31.00    4.20
   8  -2   7   39.40    4.90
   2   6   7   39.20    4.20
   8  -6  -7   34.90    4.80
   8  -2   7   40.80    4.20
  -6   8   7   29.20    4.70
  -2   8  -7   42.10    4.40
  -6   8   7   39.60    4.50
   2   6  -7   38.80    3.80
   8  -2  -7   35.60    4.80
  -2   8   7   36.30    4.30
   8  -2  -7   33.80    4.10
   6   2   7   42.70    4.50
  -8   6   7   24.10    4.80
  -6   8  -7   32.30    4.70
   8  -6   7   37.40    4.70
   7   1  -7    5.20    1.70
   1   7   7    3.30    1.30
  -7   8   7    1.10    1.60
   8  -1   7    3.20    1.20
  -7   8   7    2.40    1.50
  -1   8  -7    4.40    1.40
   8  -1   7    5.20    2.00
   8  -7  -7    6.70    2.30
  -8   7  -7    3.40    1.70
   7   1   7    2.30    1.30
  -7   8  -7    2.40    1.80
  -8   7   7    6.10    2.20
   8  -7   7    3.40    1.90
   1   7  -7    4.30    1.20
   8  -1  -7    4.00    1.90
  -7   8  -7    5.70    1.90
  -1   8   7    3.00    1.30
   8  -1  -7    3.00    0.90
  -8   8   7    1.00    1.20
   0   8   7   -0.70    0.80
  -8   8  -7    1.80    1.60
   8   0   7    1.30    1.20
   8   0  -7    0.30    1.10
  -8   8  -7    0.80    1.10
   0   8  -7    1.10    0.90
   8  -8  -7    1.50    1.70
   8   0   7    0.70    0.40
  -4   9  -7    2.40    1.50
  -4   9  -7    2.80    0.60
  -5   9   7    2.50    1.10
   4   5   7    3.30    1.20
   9  -4   7    0.90    1.40
   5   4  -7    2.30    1.00
  -5   9   7    3.00    1.70
   9  -5  -7    1.90    1.60
   9  -4   7    1.90    1.30
   9  -5  -7    2.30    1.90
  -5   9  -7    2.40    1.60
   5   4   7    2.20    1.10
  -4   9   7    3.40    1.60
   9  -5   7    6.30    2.00
   4   5  -7    2.20    0.90
   9  -5   7    0.90    1.30
  -5   9  -7    3.00    1.10
  -4   9   7    1.10    0.80
   9  -4  -7    2.90    1.70
   9  -4  -7    1.60    1.30
   3   6   7    0.50    0.80
   9  -3   7   -0.40    0.80
   9  -6  -7   -0.60    1.50
   6   3  -7    0.10    0.80
   9  -3   7   -0.80    1.00
  -3   9  -7   -0.10    0.90
  -6   9   7    0.50    1.10
  -9   6  -7    1.40    1.50
   9  -6  -7    0.80    1.50
  -6   9   7    0.10    0.90
  -3   9   7    0.40    1.00
   9  -3  -7    1.50    1.50
   9  -6   7    1.10    1.30
  -6   9  -7    0.10    0.90
   9  -3  -7    0.50    1.00
   6   3   7    0.40    0.90
   3   6  -7    0.70    0.60
  -6   9  -7   -0.50    1.10
   9  -2   7   14.20    3.40
   7   2  -7   19.20    2.90
   2   7   7   19.10    2.70
   9  -2   7   19.50    2.70
  -2   9  -7   16.70    3.00
  -7   9   7   19.20    3.40
  -9   7  -7   18.50    3.70
  -7   9   7   19.40    4.10
   7   2   7   23.00    3.10
  -9   7   7   19.70    4.00
   9  -7   7   19.80    3.90
   9  -2  -7   12.40    2.40
  -7   9  -7   18.40    3.90
  -2   9   7   15.20    3.00
   2   7  -7   22.30    2.30
   9  -2  -7   21.80    4.20
  -7   9  -7   19.00    3.30
  -9   8  -7   30.70    4.50
   1   8   7   32.10    3.80
  -1   9  -7   40.20    4.00
   9  -8  -7   29.30    5.40
  -8   9   7   34.10    5.20
   9  -1   7   34.10    3.50
   8   1  -7   29.50    4.10
   8   1   7   40.10    4.50
  -1   9   7   30.60    4.00
   9  -8   7   36.20    5.00
   1   8  -7   32.60    3.50
  -8   9  -7   33.20    5.10
   9  -1  -7   31.50    4.50
  -9   8   7   33.60    4.70
  -8   9  -7   30.80    4.20
  -9   9   7    5.70    2.10
  -9   9  -7    6.00    2.10
   0   9  -7    8.50    1.70
   0   9   7    7.40    1.90
   9   0  -7    4.90    1.90
   9   0   7   11.00    2.60
  10  -5  -7   -0.60    1.20
  -5  10  -7    0.20    0.40
   5   5   7    0.40    0.80
  10  -5  -7    1.30    1.80
   5   5  -7   -0.30    0.50
  -5  10   7   -0.20    1.20
  -5  10   7    0.60    0.70
  -5  10  -7    0.30    1.20
  10  -5   7    0.30    1.00
  10  -5   7    0.70    1.60
   6   4  -7    1.00    0.80
  10  -6  -7    2.00    1.60
  -6  10   7    0.60    1.20
  -6  10   7    1.30    1.00
   4   6   7    0.40    0.80
  10  -6  -7    1.00    1.90
  -4  10  -7    1.90    1.30
  10  -4   7    2.70    1.90
  10  -4   7    1.50    1.20
   4   6  -7    1.00    0.60
  10  -4  -7    0.40    1.20
  -4  10   7    0.80    0.30
  -6  10  -7    1.20    0.90
   6   4   7    0.40    0.90
  10  -4  -7    0.80    1.20
  -6  10  -7    1.10    1.40
  -4  10   7    1.30    1.30
  10  -6   7    1.40    1.40
  10  -7  -7   58.79    6.50
  10  -3   7   50.99    6.20
 -10   7  -7   44.80    6.00
  10  -3   7   42.40    5.20
  -7  10   7   48.40    5.40
   7   3  -7   48.70    5.20
  -7  10   7   53.99    6.30
  -3  10  -7   53.59    5.50
   3   7   7   51.89    5.00
  -7  10  -7   41.40    5.90
  -3  10   7   54.39    5.60
   3   7  -7   48.40    4.40
  10  -7   7   48.30    6.00
  -7  10  -7   40.60    5.00
   7   3   7   47.00    5.30
  10  -3  -7   51.59    5.30
  10  -2   7   26.00    4.60
  -8  10   7   27.60    5.20
  10  -8  -7   29.50    5.20
   2   8   7   22.50    3.10
  10  -2   7   28.70    3.30
  -8  10   7   25.80    3.70
   8   2  -7   26.80    3.60
 -10   8  -7   21.90    4.40
  -2  10  -7   29.60    3.60
 -10   8   7   25.90    4.80
  10  -2  -7   27.20    2.80
  10  -2  -7   27.30    4.80
  -8  10  -7   34.50    4.90
   2   8  -7   24.00    2.70
  10  -8   7   23.10    4.50
  -8  10  -7   31.60    3.90
  -2  10   7   29.30    3.70
  10  -9  -7    7.10    2.70
  -1  10  -7    6.00    1.60
   1   9   7    7.70    1.80
  10  -1   7    7.50    2.30
 -10   9  -7    3.20    1.80
  -9  10   7    3.40    1.80
   9   1  -7    7.30    2.10
 -10   9   7    7.90    2.60
  -1  10   7    6.40    1.80
  10  -1  -7    3.40    1.80
   9   1   7    5.60    2.00
  -9  10  -7    7.20    2.20
   1   9  -7    5.60    1.20
  -9  10  -7    7.80    3.00
  10   0   7   16.00    3.20
  10   0  -7   12.90    2.90
 -10  10  -7   14.50    3.10
   0  10  -7    9.60    1.80
 -10  10   7   11.10    3.00
  -5  11  -7    1.90    1.50
  11  -6  -7    5.00    2.60
  11  -5   7    2.30    1.90
  11  -6  -7    4.10    2.00
  -6  11   7    3.20    1.90
   6   5  -7    1.50    0.70
   5   6   7    1.50    1.00
  -6  11   7    1.50    0.90
  11  -5   7    1.90    1.40
  -5  11   7    1.50    1.40
  11  -5  -7    2.90    1.50
  -5  11   7    1.80    0.50
   6   5   7    2.40    1.10
  -6  11  -7    3.40    1.80
  11  -6   7    2.10    1.60
  11  -5  -7    3.70    2.40
   5   6  -7    2.30    0.50
  -6  11  -7    2.30    0.80
  -7  11   7    5.50    2.40
   7   4  -7    5.50    1.50
  -4  11  -7    7.20    2.10
  11  -4   7    3.80    2.20
  -7  11   7    6.30    1.80
   4   7   7    7.80    1.60
  11  -7  -7    9.40    2.80
  11  -4   7    7.10    2.00
  11  -4  -7    5.40    2.50
  11  -7   7    5.50    2.10
  -7  11  -7    9.30    1.80
  -4  11   7    8.70    2.40
   7   4   7   10.30    2.10
  -7  11  -7    9.50    2.90
  11  -4  -7    4.10    1.70
  -3  11  -7   -0.60    0.90
  -8  11   7    0.60    1.10
  -8  11   7    0.50    1.50
  11  -3   7   -0.90    1.10
   3   8   7    0.40    0.70
  11  -8  -7    0.70    1.70
  11  -3   7    0.40    0.90
   8   3  -7    0.60    0.90
 -11   8  -7    0.30    1.40
  -8  11  -7    0.50    1.00
  11  -3  -7    1.50    1.50
  11  -8   7   -1.00    1.10
  11  -3  -7    0.10    0.70
   8   3   7    0.80    1.10
  -8  11  -7    2.90    1.80
  -3  11   7    1.40    1.20
  -9  11   7    5.30    1.90
  -2  11  -7    6.50    1.70
   9   2  -7    7.10    2.00
 -11   9  -7    7.10    2.50
  11  -9  -7    7.40    2.90
  11  -2   7    7.40    1.30
   2   9   7    6.20    1.50
  11  -2   7    8.80    2.70
   9   2   7    6.00    1.90
  11  -2  -7    9.20    2.70
  -9  11  -7    7.40    2.20
  11  -9   7    8.50    2.90
  -2  11   7    5.60    1.80
 -11   9   7    4.50    2.30
  -9  11  -7    6.20    2.80
   1  10   7    0.10    0.80
  10   1  -7    0.40    1.20
  11  -1   7    0.80    1.30
  -1  11  -7    0.70    0.80
 -10  11   7    0.50    1.30
 -11  10  -7    0.00    1.20
 -11  10   7   -0.20    1.20
  10   1   7   -0.20    1.10
  -1  11   7    0.50    0.90
 -10  11  -7    1.20    1.30
  11  -1  -7    0.10    1.20
  -6  12  -7   -0.40    1.10
  12  -6  -7    2.10    2.10
  -6  12   7    0.30    1.30
  12  -6  -7   -0.80    1.10
   6   6   7   -0.30    0.70
  12  -6   7   -0.60    1.00
   5   7   7    9.90    1.70
  -7  12   7    4.50    1.30
  12  -5   7    5.20    1.90
  12  -5   7    7.50    2.90
   7   5  -7    6.40    1.00
  12  -7  -7    5.40    2.30
  -7  12   7    5.40    2.30
  -5  12  -7    6.40    2.10
  12  -7   7    8.30    2.60
  12  -5  -7    7.10    3.00
  -7  12  -7    4.30    1.00
  -7  12  -7    9.10    2.80
  12  -5  -7    4.40    1.80
  -5  12   7    9.50    2.60
   7   5   7    8.40    1.80
  -4  12  -7    2.20    1.50
  12  -4   7    6.60    2.70
  12  -8  -7    4.40    2.20
  12  -4   7    4.20    1.60
  -8  12   7    4.70    1.60
  -8  12   7    3.40    2.10
   8   4  -7    5.00    1.30
   4   8   7    4.90    1.20
  -4  12   7    2.20    1.50
  -8  12  -7    7.50    2.80
  12  -4  -7    5.60    2.60
  -8  12  -7    5.30    1.50
  12  -8   7    5.80    2.30
   8   4   7    5.60    1.60
   1   0   8  641.74   49.40
   1  -1  -8  625.74   49.90
   0   1  -8  614.04   49.80
   0  -1  -8  592.64   49.90
   0  -1   8  645.94   49.50
  -1   0  -8  534.15   49.60
   0   1   8  559.04   49.50
  -1   1  -8  514.55   49.40
  -1   1   8  597.04   49.40
  -1   0   8  639.54   49.70
   0  -1   8  637.04   49.70
   1  -1   8  571.64   49.60
   1   0  -8  601.84   49.60
   1   0  -8  581.14   49.70
  -1   0  -8  569.74   49.60
   1  -1  -8  681.53   49.90
   1  -1   8  625.34   49.50
   1   1  -8  324.67   27.80
  -1  -1   8  339.97   28.00
   1   1  -8  310.67   28.10
   2  -1  -8  282.67   27.90
   2  -1  -8  336.17   28.30
  -1   2   8  354.76   27.80
   2  -1   8  387.16   28.30
  -2   1   8  347.17   27.90
  -1  -1  -8  352.36   28.30
  -1  -1  -8  339.07   28.30
  -1   2  -8  289.77   27.70
   1  -2   8  312.17   28.00
  -1   2   8  325.37   28.00
  -2   1  -8  333.27   28.10
   2  -1   8  345.67   27.80
  -2   1  -8  323.57   28.20
   1   1   8  321.77   27.70
   1  -2  -8  352.86   28.30
   1   1   8  331.97   28.00
  -1  -1   8  340.37   27.90
   1  -2  -8  338.57   28.30
  -2   0  -8  523.65   43.10
   2   0  -8  468.05   42.60
   2   0   8  532.95   42.90
   0   2  -8  550.34   42.60
  -2   2   8  476.65   42.60
   2   0  -8  571.94   42.90
   2  -2  -8  476.85   42.90
  -2   0   8  581.14   43.10
  -2   2  -8  522.75   43.10
   0   2  -8  477.75   42.80
   2  -2  -8  507.25   43.20
   0  -2   8  471.35   42.70
  -2   2   8  514.35   43.00
  -2   0   8  544.75   42.70
   0  -2   8  538.55   42.70
   0  -2  -8  502.35   43.10
   2  -2   8  594.84   43.10
   0   2   8  520.75   42.50
   0   2   8  451.45   42.70
  -2   2  -8  525.55   42.80
  -3   2  -8  482.15   38.90
  -2   3   8  510.15   38.90
  -1  -2   8  464.55   38.60
   3  -1   8  457.85   38.70
   2  -3   8  459.05   38.50
   1   2   8  530.15   38.80
  -1   3  -8  472.05   38.30
  -3   1   8  488.65   38.60
  -1   3  -8  521.75   38.60
  -2  -1  -8  516.35   39.00
   3  -1   8  402.96   38.20
   2   1  -8  436.86   38.20
   2  -3   8  486.35   38.80
  -3   1   8  422.76   38.70
   1   2   8  455.35   38.20
   1  -3  -8  483.05   38.90
   3  -2  -8  435.96   38.90
   2   1  -8  470.75   38.80
   1   2   8  491.55   38.60
   3  -2  -8  414.86   38.60
  -3   2  -8  443.36   38.60
  -2   3   8  419.76   38.30
   1  -3  -8  450.65   38.90
   2   1  -8  477.65   38.30
  -1   3  -8  471.05   38.70
   2   1  -8  501.55   38.80
  -3   2   8  417.66   38.60
  -2  -1   8  464.15   38.50
   3  -2   8  414.56   38.60
   3  -1  -8  481.75   39.00
  -2   3  -8  451.55   38.70
  -1  -2  -8  505.85   39.10
  -3   2   8  455.55   38.50
   3  -1  -8  472.35   38.60
  -2  -1   8  483.15   38.70
   2   1   8  535.45   38.90
   2  -3  -8  479.85   38.90
  -1   3   8  491.75   38.80
   2   1   8  423.26   38.20
  -3   1  -8  399.06   38.60
   2   1   8  458.95   38.60
   1   2  -8  489.45   38.80
  -2   3  -8  455.55   38.40
   1   2  -8  442.06   38.10
   2  -3  -8  446.16   39.00
   1  -3   8  450.25   38.60
  -3   1  -8  507.65   39.00
   1   2  -8  425.96   38.20
   3   0  -8  183.78   17.90
  -3   0  -8  213.48   18.20
  -3   3   8  212.98   18.20
   0   3   8  209.18   17.80
   3   0   8  175.98   17.80
   0   3  -8  228.78   17.60
   0   3  -8  204.28   17.40
   3  -3  -8  178.88   17.90
   3  -3   8  227.58   18.10
   0   3  -8  223.38   18.10
  -3   3  -8  187.08   18.00
   3   0   8  213.48   17.60
   0  -3  -8  222.78   18.40
   0  -3  -8  204.68   18.10
   3   0  -8  211.08   18.20
  -3   0  -8  211.38   18.20
  -3   3  -8  203.58   17.90
   3  -3   8  200.38   18.10
   0   3   8  218.38   17.60
   0   3  -8  202.78   17.90
   3  -3  -8  203.68   18.40
   3   0  -8  203.18   17.70
   3   0  -8  203.08   17.60
   4  -2   8 1841.62  148.99
  -1  -3   8  335.07   25.40
   1  -4  -8  307.57   25.80
  -1   4  -8  287.87   24.90
   3  -4   8  322.67   25.80
  -3   4   8  311.57   25.30
   1   3   8  351.16   25.80
  -3  -1  -8  309.57   25.80
   3   1  -8  297.67   24.90
  -3  -1  -8  269.17   25.60
   3   1  -8  327.57   25.00
  -4   3  -8  308.77   25.60
  -4   1   8  318.97   25.80
   4  -3  -8  286.77   25.60
  -4   3  -8  279.47   25.70
  -1   4  -8  293.67   25.40
   3  -4   8  282.57   25.40
   4  -1   8  287.27   25.20
   4  -1   8  280.77   25.50
   3   1  -8  288.87   25.50
  -4   1   8  294.77   25.40
   1   3   8  279.27   25.30
   1  -4  -8  302.37   25.90
   1   3  -8  291.37   25.40
  -3  -1   8  278.97   25.20
   1   3  -8  316.67   24.80
   4  -3   8  260.37   25.50
  -3   4  -8  286.87   25.20
   4  -1  -8  311.37   25.80
   4  -1  -8  291.97   25.40
   1  -4   8  300.57   25.40
  -4   1  -8  292.67   25.80
  -1  -3  -8  306.37   26.00
   3   1   8  262.97   24.90
  -1   4   8  304.67   25.00
  -4   1  -8  312.07   25.80
   3  -4  -8  294.97   25.80
   1   3  -8  313.07   24.70
   4  -3   8  325.97   25.50
  -1  -3  -8  319.87   25.80
   3  -4  -8  290.17   26.00
   3   1   8  309.37   25.50
  -1   4   8  284.07   25.50
  -4   3   8  327.57   25.50
   0   4  -8  358.86   27.70
   4   0   8  351.26   28.10
   4   0  -8  363.46   28.10
  -4   0  -8  341.17   28.80
   4  -4   8  294.27   28.60
   4   0  -8  337.47   28.60
   0  -4  -8  372.86   28.80
  -4   0   8  341.77   28.40
   0   4  -8  315.87   28.20
  -4   4   8  355.56   28.40
   4   0   8  343.77   28.50
  -4   4   8  335.27   28.70
  -4   4  -8  286.17   28.50
   4  -4   8  348.37   28.50
   0   4   8  343.57   28.50
   0   4   8  337.77   27.80
   4  -4  -8  358.16   28.90
   0   4  -8  309.37   27.50
  -4   4  -8  297.87   28.20
  -2   5  -8  252.87   20.10
  -5   3  -8  281.97   21.40
   5  -3  -8  208.28   20.60
  -3   5   8  244.08   20.90
   3   2  -8  208.88   19.50
   5  -3  -8  263.87   21.30
   3   2  -8  231.48   20.50
   3   2  -8  241.98   19.60
   2  -5  -8  277.97   21.30
  -3   5   8  233.58   20.30
   2   3   8  237.48   19.90
  -2   5  -8  261.47   20.70
   5  -2   8  245.68   21.00
   5  -2   8  216.98   20.40
  -5   2   8  212.48   20.60
  -5   3  -8  242.78   20.80
  -3   5  -8  235.78   20.30
   5  -2  -8  239.18   21.10
  -5   2  -8  258.77   21.30
   3   2   8  236.58   19.90
   3  -5  -8  251.57   22.10
   2   3  -8  220.98   20.40
   5  -2  -8  245.48   20.70
   5  -3   8  230.68   20.60
  -2   5   8  257.17   20.20
  -5   2  -8  225.88   20.80
  -3   5  -8  233.38   20.80
   3   2   8  248.28   20.60
   3  -5  -8  206.08   20.80
   5  -3   8  209.28   20.80
   2   3  -8  233.98   19.30
  -2   5   8  242.58   20.70
  -5   3   8  280.27   21.40
   4   1  -8   51.79    6.70
   5  -1   8   71.19    7.10
   5  -1   8   70.29    6.70
  -4   5   8   79.19    7.40
   5  -4  -8   74.49    7.40
  -1   5  -8   71.79    6.90
   1   4   8   61.79    6.70
  -5   4  -8   74.79    7.50
  -1   5  -8   72.89    6.20
   5  -4  -8   74.99    7.80
   4   1  -8   59.09    6.10
   1   4   8   69.09    6.20
  -5   4  -8   86.09    7.40
  -4   5   8   69.29    6.90
  -1   5  -8   66.39    6.30
  -1   5   8   62.69    6.90
   4  -5  -8   74.99    7.80
  -4   5  -8   64.69    6.80
   1   4  -8   60.59    6.60
  -5   1  -8   77.69    7.50
   4   1   8   61.59    6.80
  -4   5  -8   78.29    7.40
   5  -1  -8   63.89    6.70
  -5   4   8   58.69    6.80
  -1   5   8   72.19    6.50
   5  -4   8   74.59    7.10
   5  -1  -8   69.69    7.30
   4  -5  -8   72.89    7.50
   5  -4   8   74.99    7.50
   4   1   8   71.49    6.40
   0   5  -8  147.99   13.30
  -5   5   8  139.39   13.90
   5   0   8  142.99   13.00
   5   0  -8  166.78   13.10
   0   5   8  153.08   12.80
  -5   5  -8  140.59   13.90
   5  -5  -8  160.48   14.50
   5  -5   8  159.68   14.20
   5   0   8  160.98   13.80
   5  -5   8  130.89   13.50
  -5   5   8  166.18   13.70
   5  -5  -8  152.28   14.00
   0   5   8  136.99   13.40
  -3   6   8   37.10    4.00
  -3   6  -8   46.30    4.10
  -3   6   8   26.50    4.20
   6  -3  -8   48.50    4.80
   3   3  -8   40.70    4.40
   6  -3  -8   38.50    5.00
  -3   6  -8   42.90    4.60
   3   3   8   35.60    3.50
   6  -3   8   35.50    4.30
   3   3   8   26.20    4.00
  -6   3   8   41.40    4.70
   3   3   8   34.40    3.40
  -6   3  -8   39.90    4.80
   6  -3   8   33.70    4.70
   2   4   8  369.36   27.60
   6  -4  -8  343.17   29.60
  -6   4  -8  278.67   28.70
  -4   6   8  295.07   28.90
   2   4   8  358.96   28.70
   6  -2   8  330.87   29.10
   4   2  -8  359.56   28.70
  -4   6   8  334.87   28.50
   6  -2   8  300.27   28.40
  -2   6  -8  344.47   27.90
  -2   6  -8  382.76   28.90
   6  -4  -8  315.97   28.90
  -6   4  -8  369.66   29.60
   6  -2  -8  336.57   29.20
   4  -6  -8  356.16   29.30
   6  -4   8  315.27   29.20
  -6   2  -8  329.97   29.20
  -4   6  -8  369.16   28.50
   2   4  -8  339.97   28.40
  -2   6   8  354.36   28.20
  -4   6  -8  306.67   28.90
  -2   6   8  367.16   28.90
   6  -2  -8  299.27   28.50
   6  -4   8  382.16   29.00
   5  -6   8  230.68   17.60
   5   1  -8  200.08   15.80
   1   5   8  162.98   16.70
  -5   6   8  184.78   17.50
   6  -5  -8  209.38   18.20
  -5   6   8  167.28   16.80
  -1   6  -8  173.68   16.80
   6  -1   8  235.28   17.70
   6  -1   8  201.58   16.70
  -6   5  -8  225.88   17.50
   1   5   8  200.08   15.70
   6  -5  -8  192.18   17.50
  -6   5  -8  207.58   17.80
   5   1  -8  194.18   17.10
   5   1  -8  182.98   15.80
   6  -1  -8  206.38   16.80
  -5   6  -8  213.28   17.10
  -6   5   8  181.88   17.10
  -6   5   8  168.08   17.50
   6  -1  -8  171.78   17.20
  -5   6  -8  211.98   17.60
   6  -5   8  195.88   17.90
  -1   6   8  171.98   16.90
  -1   6   8  159.28   16.10
   6  -5   8  192.28   17.20
   5  -6  -8  204.78   17.70
   5   1   8  212.98   17.20
   1   5  -8  201.98   16.80
   6  -6  -8 1026.90   79.39
   0   6  -8  996.40   78.39
  -6   6   8  968.50   78.79
   6   0  -8  923.41   78.89
   0   6   8  995.40   78.69
   6  -6   8  904.71   78.99
  -6   6  -8  896.91   79.19
   6   0   8  982.70   78.89
  -3   7  -8  152.28   12.50
   7  -3   8  139.39   13.10
  -7   4  -8  140.19   13.70
  -3   7  -8  135.69   13.20
   7  -4  -8  144.89   13.50
  -4   7   8  141.19   12.90
   7  -3   8  152.98   13.90
  -4   7   8  144.19   13.50
   4   3  -8  150.48   13.10
   7  -4  -8  140.79   14.00
   3   4   8  150.28   13.10
  -4   7  -8  162.38   12.90
   3   4  -8  144.49   12.90
   7  -4   8  143.49   13.30
   4   3   8  127.49   12.90
   7  -4   8  143.49   13.90
  -7   4   8  169.58   13.90
  -3   7   8  146.69   13.40
   7  -3  -8  135.99   13.20
  -3   7   8  158.88   12.80
  -4   7  -8  141.19   13.40
  -5   7   8   25.40    3.80
  -2   7  -8   20.20    3.10
   7  -5  -8   16.30    3.50
   7  -2   8   20.70    3.80
   7  -5  -8   25.50    4.80
   2   5   8   24.20    3.20
  -5   7   8   20.00    3.10
   5   2  -8   18.40    3.00
   7  -2   8   23.10    3.10
  -7   5  -8   18.70    3.60
   5   2   8   22.00    1.90
   7  -2  -8   24.30    4.20
   7  -2  -8   19.70    3.00
  -7   5   8   24.30    4.10
  -5   7  -8   22.10    4.00
   5   2   8   22.70    3.10
   7  -5   8   19.30    3.70
   5   2   8   23.20    2.00
  -2   7   8   17.50    3.20
   2   5  -8   23.20    2.90
  -5   7  -8   16.20    2.70
   7  -5   8   24.40    4.50
  -2   7   8   23.00    2.60
   7  -1   8   56.29    6.40
  -6   7   8   46.20    5.90
   7  -1   8   67.19    5.90
  -7   6  -8   44.20    6.10
  -6   7   8   70.39    7.10
  -7   6  -8   72.19    7.30
   1   6   8   61.29    6.00
   6   1  -8   54.59    6.20
  -1   7  -8   45.30    5.70
   1   6  -8   56.69    5.70
   6   1   8   58.29    6.20
   7  -1  -8   55.29    5.60
  -6   7  -8   59.39    6.60
   7  -6   8   47.40    6.20
   6   1   8   63.99    5.30
  -6   7  -8   57.49    6.10
  -1   7   8   57.09    4.70
  -1   7   8   50.79    5.90
   6  -7  -8   60.59    6.90
   7  -1  -8   62.79    6.60
  -1   7   8   61.49    4.70
  -7   6   8   55.49    6.30
   7  -7   8  114.39   11.20
   0   7   8   94.29   10.30
  -7   7   8  123.59   11.00
   7   0   8  129.49   11.10
  -7   7   8  123.19   11.70
  -7   7  -8  123.99   11.60
  -7   7  -8  106.79   10.70
   7   0  -8  114.49   10.90
   7  -7  -8  111.09   11.40
   7   0   8  115.99    9.90
   0   7  -8  103.29   10.20
   8  -4  -8  718.63   57.49
  -4   8  -8  684.93   57.39
  -4   8   8  735.33   57.69
   8  -4   8  687.23   58.09
  -4   8  -8  593.54   56.39
   8  -4  -8  695.83   58.19
   4   4  -8  749.73   56.89
   8  -5  -8   75.99    7.70
  -5   8   8   69.79    7.60
   8  -5  -8   74.99    8.30
  -5   8   8   70.49    6.90
  -8   5  -8   66.49    7.60
  -3   8  -8   63.39    5.80
   5   3  -8   65.39    6.90
  -3   8  -8   66.09    7.10
   3   5   8   73.49    6.90
   8  -5   8   70.69    8.00
   8  -3  -8   58.59    7.40
   5   3   8   67.99    6.90
  -5   8  -8   68.59    7.40
   8  -5   8   63.89    7.20
   8  -3  -8   79.29    7.30
   3   5  -8   75.59    6.70
  -5   8  -8   71.99    6.80
  -3   8   8   73.19    6.40
   6   2  -8  143.49   12.40
   8  -2   8  149.79   13.10
   8  -2   8  131.69   12.10
  -6   8   8  141.69   13.20
  -2   8  -8  160.18   12.50
  -8   6  -8  139.69   12.90
  -6   8   8  141.99   12.50
   8  -6  -8  139.09   13.10
  -6   8  -8  141.49   12.20
  -2   8   8  130.79   11.00
  -6   8  -8  103.59   12.50
   2   6  -8  119.79   11.70
   8  -2  -8  135.39   13.00
  -8   6   8  134.99   12.90
  -2   8   8  123.19   12.20
   8  -2  -8  128.89   12.00
   8  -7  -8    3.70    2.10
  -8   7  -8    4.10    1.80
   7   1  -8    2.60    1.40
   1   7   8    3.70    1.40
  -7   8   8    3.80    2.20
  -1   8  -8    3.90    1.50
   8  -1   8    3.70    1.20
   8  -1   8    0.90    1.30
  -7   8   8    3.10    1.60
   8  -1  -8    1.20    1.50
  -7   8  -8    3.30    1.50
  -1   8   8    2.20    1.20
   7   1   8    1.60    1.30
  -7   8  -8    4.50    2.10
  -8   7   8    1.90    1.50
   1   7  -8    3.70    1.30
   8  -1  -8    3.40    1.00
   8  -7   8    1.10    1.40
  -8   8  -8  223.38   19.50
  -8   8  -8  189.78   20.10
   8   0   8  216.08   19.50
   0   8   8  211.78   19.00
   8   0   8  230.18   18.20
  -8   8   8  224.78   19.60
   8  -8  -8  248.38   20.50
   0   8  -8  200.18   18.70
   8   0  -8  239.28   19.70
   9  -4   8   49.00    6.80
   4   5   8   66.09    6.10
  -5   9   8   62.19    5.90
   9  -5  -8   64.19    6.80
   9  -5  -8   55.79    7.30
   9  -4   8   57.79    6.30
  -4   9  -8   59.99    5.20
  -5   9   8   63.89    6.90
   5   4  -8   71.59    6.10
  -4   9   8   63.69    5.70
   4   5  -8   45.80    5.60
   9  -5   8   42.60    6.80
  -5   9  -8   48.80    6.30
  -4   9   8   59.69    6.60
   5   4   8   61.99    6.10
   9  -4  -8   59.69    6.40
   9  -5   8   65.49    6.60
  -6   9   8    4.00    1.50
  -3   9  -8    1.30    1.20
   9  -3   8    1.80    1.30
   9  -3   8    5.20    2.20
   3   6   8    3.60    1.40
   6   3  -8    4.30    1.50
   9  -6  -8    4.20    2.80
  -6   9   8    5.10    2.20
   9  -6  -8    4.00    2.00
  -9   6  -8    2.20    1.80
  -3   9   8    2.70    1.50
   6   3   8    3.80    1.50
  -3   9   8    4.40    0.80
   9  -3  -8    5.60    1.80
   3   6  -8    4.30    1.20
  -6   9  -8    5.40    2.10
   9  -3  -8    2.10    1.80
  -6   9  -8    7.00    1.70
   9  -6   8    4.60    1.90
   9  -2   8   22.10    3.30
   9  -7  -8   29.90    5.20
   2   7   8   37.60    3.80
   7   2  -8   30.90    3.80
  -9   7  -8   33.40    4.40
  -2   9  -8   29.70    3.70
  -7   9   8   27.20    3.80
   9  -2   8   31.70    4.50
  -7   9   8   29.50    5.20
  -7   9  -8   25.70    3.60
   9  -2  -8   25.50    4.70
  -9   7   8   29.90    4.40
   2   7  -8   29.30    3.20
   9  -2  -8   29.90    3.40
  -7   9  -8   15.50    4.00
  -2   9   8   22.30    3.50
   7   2   8   26.80    3.70
   8   1  -8   83.89    8.00
  -1   9  -8   87.69    7.50
  -8   9   8   66.09    7.70
  -9   8  -8   76.89    8.10
   9  -8  -8   80.59    8.80
   9  -1   8   81.99    8.30
   9  -1  -8   78.39    8.20
   1   8  -8   81.09    7.20
  -9   8   8   60.89    7.90
   8   1   8   64.89    7.80
  -8   9  -8   69.39    7.70
  -8   9  -8   88.49    9.10
  -1   9   8   79.09    7.70
   9   0   8    0.60    1.30
  -9   9   8    0.60    1.30
   0   9   8    1.50    1.10
   9   0  -8    2.50    1.70
  -9   9  -8    0.80    1.30
   0   9  -8    1.40    1.00
   5   5   8    0.90    1.00
  10  -5  -8    1.90    2.00
  -5  10   8    1.20    0.90
  10  -5  -8    1.40    1.50
   5   5  -8    1.70    0.90
  -5  10  -8    0.60    0.60
  10  -5   8    3.20    1.60
  -5  10  -8    2.90    1.70
  -5  10   8    0.50    1.30
  10  -5   8    1.30    1.80
   6   4  -8  145.99   12.50
  10  -4   8  150.48   12.90
  -6  10   8  153.98   12.60
  10  -6  -8  144.39   13.60
   4   6   8  151.28   12.50
  10  -4   8  119.09   13.60
  -6  10   8  124.59   13.40
  -4  10  -8  157.38   13.30
  -6  10  -8  134.79   13.40
  10  -6   8  126.89   13.20
   6   4   8  124.29   12.50
  10  -4  -8  137.89   13.90
   4   6  -8  141.39   12.10
  -4  10   8  147.29   13.30
  -4  10   8  140.49   11.70
  10  -4  -8  138.89   12.90
  10  -3   8   57.19    6.10
  -7  10   8   51.19    6.00
   7   3  -8   61.49    6.10
  10  -7  -8   57.79    7.00
  10  -3   8   63.69    7.20
  -3  10  -8   49.90    6.10
 -10   7  -8   58.99    7.00
   3   7   8   65.19    6.00
   3   7  -8   60.59    5.50
  -7  10  -8   58.59    6.10
   7   3   8   57.39    6.20
  10  -7   8   57.19    6.70
  10  -3  -8   57.09    6.00
  10  -3  -8   63.79    7.30
  -3  10   8   62.79    6.50
  -7  10  -8   55.79    6.90
  -2  10  -8  310.77   26.30
   2   8   8  340.57   26.20
  10  -8  -8  328.47   27.70
  10  -2   8  310.77   27.20
 -10   8  -8  309.47   27.10
  -8  10   8  322.27   26.70
   8   2  -8  322.27   26.50
  -8  10   8  292.87   27.60
   8   2   8  294.77   26.50
  -2  10   8  286.07   26.40
 -10   8   8  247.98   26.90
   2   8  -8  351.16   25.70
  10  -2  -8  292.77   27.20
   9   1  -8   15.10    3.10
  10  -9  -8   20.10    4.40
 -10   9  -8   10.70    3.00
  -1  10  -8   16.50    2.70
   1   9   8   14.30    2.60
  -9  10   8   12.80    3.10
  10  -1   8   11.70    3.00
  -1  10   8   12.50    2.70
 -10   9   8   13.30    3.30
   9   1   8    9.90    2.70
  -9  10  -8   19.50    3.50
   1   9  -8   15.90    2.10
  10  -1  -8   15.10    3.50
  10   0  -8   58.09    6.70
   0  10   8   65.19    6.20
  10   0   8   50.29    6.50
 -10  10   8   60.89    6.90
   0  10  -8   62.19    5.80
   5   6   8   32.60    4.10
  -5  11  -8   46.30    5.20
  11  -5   8   39.10    4.70
   6   5  -8   33.40    3.80
  -6  11   8   38.50    5.20
  11  -5   8   42.60    5.80
  11  -6  -8   29.00    4.70
  11  -6  -8   36.00    6.60
  -6  11   8   37.50    4.00
  -5  11   8   31.70    3.50
  11  -6   8   43.20    5.00
  -5  11   8   36.80    4.90
  11  -5  -8   32.30    4.70
  11  -5  -8   40.20    5.70
   6   5   8   39.10    4.30
   5   6  -8   40.80    3.70
  -6  11  -8   41.20    5.20
  -6  11  -8   43.50    3.70
   7   4  -8    1.10    0.90
  11  -4   8    0.70    1.20
  -7  11   8    2.10    1.20
  -4  11  -8    2.40    1.50
  11  -7  -8    2.80    2.00
  11  -4   8    0.80    1.50
  -7  11   8    1.10    1.60
   4   7   8    2.30    1.10
  11  -4  -8    0.10    1.50
  -7  11  -8    1.40    1.60
  -7  11  -8    2.30    1.10
  -4  11   8    2.60    1.60
  11  -4  -8    1.80    1.30
   7   4   8    2.00    1.20
  11  -7   8    1.40    1.60
   4   7  -8    2.30    0.60
  11  -8  -8    6.90    3.00
  -8  11   8   16.70    3.00
   3   8   8   18.80    2.50
  11  -3   8   15.50    3.70
  11  -3   8   11.30    2.40
  -3  11  -8   21.80    3.10
   8   3  -8   12.30    2.50
  -8  11   8    8.90    3.30
  11  -3  -8   15.30    3.80
  -3  11   8   18.20    3.30
  -8  11  -8   12.90    2.60
  11  -8   8   20.90    4.20
  11  -3  -8   17.30    2.40
  -8  11  -8   17.30    4.10
   3   8  -8   20.20    1.70
   8   3   8   15.50    3.00
  11  -9  -8   34.30    6.10
  11  -2   8   33.60    5.00
  -9  11   8   38.10    4.70
  -2  11  -8   33.10    4.20
  11  -2   8   42.30    3.80
 -11   9  -8   34.50    5.00
   9   2  -8   29.90    4.20
  -9  11  -8   27.90    4.20
   9   2   8   37.10    4.60
  -9  11  -8   30.10    6.00
   2   9  -8   38.70    3.30
 -11   9   8   35.30    5.20
  11  -2  -8   37.50    5.20
  -2  11   8   29.80    4.20
   6   6   8  233.38   19.30
  12  -6  -8  243.18   21.80
  -6  12   8  229.58   20.50
  12  -6   8  226.88   20.10
  -6  12   8  208.48   18.60
   0   0  -9    0.70    1.00
   0   0   9   -0.60    0.70
   0   0   9    0.20    0.70
   0   0  -9   -0.20    0.90
   0  -1  -9   54.59    5.70
   1   0  -9   50.29    5.30
  -1   0  -9   53.99    5.60
  -1   0   9   43.80    5.00
   0  -1   9   46.70    5.10
   1  -1   9   52.29    5.50
   0  -1   9   43.60    5.20
   1   0  -9   37.70    5.20
  -1   1  -9   47.20    5.40
  -1   1  -9   45.40    5.20
   1  -1  -9   51.69    5.50
   1  -1   9   48.20    5.10
  -1   0   9   50.39    5.40
   1  -1  -9   44.90    5.50
  -1   0  -9   46.70    5.40
   1   0   9   47.40    5.30
   0   1  -9   44.50    5.30
   0   1  -9   42.60    5.10
   0  -1  -9   48.70    5.40
  -1   1   9   47.20    5.00
   0   1   9   59.59    5.20
  -1  -1  -9   -0.30    0.90
   1  -2   9    1.20    1.00
  -1   2  -9   -0.10    0.90
   1  -2  -9   -0.40    1.00
   1   1   9    0.00    0.90
  -1  -1  -9    1.90    1.30
   2  -1  -9    0.00    1.00
  -1   2   9    0.30    0.80
  -1  -1   9   -0.30    0.70
   2  -1  -9   -0.60    0.80
  -1   2  -9    0.50    0.80
   1   1   9    0.10    0.70
  -2   1  -9   -0.30    0.90
   1   1  -9   -0.70    0.70
   1  -2   9    0.50    0.90
  -2   1   9   -0.50    0.60
   1   1  -9   -0.10    0.80
  -2   1  -9   -1.00    0.70
   2  -1   9    0.10    0.90
  -1  -1   9   -0.20    0.80
  -2   1   9    0.50    0.80
   1   1  -9    0.10    0.80
   2  -1   9    0.10    0.80
   1  -2  -9   -0.10    1.00
  -1   2   9    0.00    0.90
   0   2   9    3.70    1.70
   2   0  -9   11.50    2.60
   2  -2   9    9.00    2.20
  -2   2  -9    5.30    1.80
   0  -2   9   11.80    2.40
   2   0   9    8.10    1.90
  -2   0  -9   10.50    2.50
  -2   0   9    8.90    2.00
   2   0  -9    7.50    2.00
   0  -2  -9    8.70    2.40
   2  -2  -9   12.60    2.70
   0  -2  -9   11.80    2.60
   2  -2   9    9.30    2.10
  -2   0   9    5.70    1.90
  -2   2  -9   11.80    2.60
   0  -2   9    6.40    1.80
  -2   2   9    8.20    2.00
   2   0   9   11.20    2.40
  -2   2   9   10.10    2.40
  -2   0  -9    8.60    2.40
   0   2  -9   10.50    2.30
   0   2  -9   10.00    2.00
   0   2   9    5.50    1.70
   2  -2  -9   13.60    2.80
  -3   2  -9    7.30    2.10
  -2   3   9    7.40    2.00
   1   2   9    7.80    1.70
  -1   3  -9    5.70    1.60
  -2  -1  -9    8.20    2.30
  -2  -1  -9    7.80    2.30
   3  -2  -9    4.60    1.80
  -3   1   9    6.20    1.90
   2  -3   9    3.20    1.60
  -1   3  -9    6.50    1.90
   2  -3   9    6.80    1.80
  -3   2  -9    7.50    2.10
  -1  -2   9    9.60    2.00
   3  -1   9    6.80    2.00
  -3   1   9    8.40    2.10
   2   1  -9    4.50    1.50
  -2   3   9    8.70    1.90
   1  -3  -9    6.40    2.10
   3  -2  -9    5.90    2.20
   2   1  -9    9.10    2.30
   3  -1   9    7.60    1.80
   1   2   9    7.30    2.00
  -1  -2   9    7.80    2.00
   1  -3  -9    6.10    2.10
  -3   2   9    5.00    1.80
  -1  -2  -9   10.20    2.50
   3  -2   9    2.20    1.40
   1   2  -9    8.20    2.20
   1  -3   9    5.60    1.70
  -3   1  -9    6.30    2.00
   3  -1  -9    5.80    1.80
  -1  -2  -9    5.90    2.10
   2  -3  -9    5.90    2.00
  -1   3   9    5.70    1.80
  -2  -1   9    7.50    2.10
  -1   3   9    7.00    1.70
  -2   3  -9    7.10    1.90
   1  -3   9    8.20    2.20
   2  -3  -9    6.60    2.10
  -3   2   9    8.30    2.00
  -3   1  -9    6.00    1.90
   3  -1  -9    4.70    1.80
  -2   3  -9    7.50    2.00
   3  -2   9    9.00    2.10
  -2  -1   9    8.60    2.00
   2   1   9    4.00    1.40
   1   2  -9    7.80    1.70
   0  -3  -9   30.00    4.20
  -3   0   9   22.70    4.70
   0   3  -9   26.60    3.30
  -3   3  -9   22.50    3.70
   0  -3  -9   28.40    4.00
   0  -3   9   28.90    3.60
   0   3  -9   26.70    3.70
   3  -3   9   25.40    3.50
   3   0   9   24.70    3.70
   3   0   9   28.70    3.50
  -3   0   9   38.10    4.00
   0   3   9   32.00    3.90
  -3   0  -9   26.30    3.80
   3  -3  -9   28.70    4.10
  -3   3   9   25.90    3.50
   3  -3  -9   35.40    4.10
   3   0  -9   34.60    4.20
   3  -3   9   33.00    4.10
   0   3   9   32.60    3.50
  -3   3  -9   32.20    3.80
  -3   3   9   35.50    4.20
   3   0  -9   29.60    3.60
  -3   0  -9   24.70    3.90
  -4   2  -9   -0.10    1.00
   2   2  -9   -0.30    0.90
   4  -2   9   -0.30    0.60
  -2   4   9   -0.20    0.70
  -4   2  -9    0.10    0.90
  -2   4  -9   -0.10    0.70
   2   2   9    0.40    0.70
   2  -4   9    0.00    0.90
   4  -2  -9    0.00    1.20
   2  -4  -9    0.80    1.30
   2   2  -9   -0.20    0.60
   2  -4  -9    0.70    1.20
  -2   4  -9    0.90    1.10
   4  -2   9    0.30    0.80
   2   2   9   -0.10    0.70
  -4   2   9    1.10    1.10
  -4   2   9   -0.10    0.70
  -2   4   9    0.10    1.00
  -2  -2  -9    0.00    1.10
   4  -2  -9   -1.20    0.70
   1  -4  -9   15.60    3.30
  -3  -1  -9   18.90    3.50
   4  -1   9   16.40    2.50
  -4   3  -9   16.60    3.30
  -4   1   9   18.60    3.20
  -3   4   9   17.50    2.60
  -3   4   9   12.80    3.00
   3   1  -9   17.60    2.40
   1   3   9   13.90    2.20
   4  -1   9   22.00    3.10
   3  -4   9   14.80    3.10
  -1   4  -9   14.30    2.80
   4  -3  -9   20.50    3.80
   4  -3  -9   16.60    3.20
  -1   4  -9   11.00    2.30
   3  -4   9   20.80    3.00
   1   3   9   12.40    2.60
  -4   3  -9   18.30    3.20
   3   1  -9   17.60    3.20
  -1   4   9   20.20    3.00
   4  -3   9   17.90    3.30
   3   1   9   19.60    2.90
  -1   4   9   21.30    2.60
  -4   3   9   12.20    2.70
   1   3  -9   14.80    2.10
  -4   3   9   23.40    3.20
   4  -3   9   21.60    2.90
   4  -1  -9   11.70    2.60
   1   3  -9   10.70    2.50
   3  -4  -9   17.10    3.30
   4  -1  -9   16.30    3.20
  -3   4  -9   17.80    2.60
   3  -4  -9   19.60    3.70
  -4   1  -9   19.10    3.50
  -4   1  -9   20.40    3.70
  -3   4  -9   15.90    3.10
   0   4  -9    7.40    1.40
   4  -4  -9    7.40    2.30
   4  -4   9   10.20    2.60
   4   0   9    8.00    2.20
  -4   4  -9    6.90    1.90
   4   0  -9    5.40    1.60
  -4   4  -9    5.20    2.00
  -4   4   9    5.70    2.00
   4   0  -9    7.60    2.20
   4  -4  -9    4.20    1.80
   4  -4   9    5.70    1.80
   0   4   9    6.90    1.90
   0   4   9    6.40    1.60
  -4   4   9    5.80    1.80
   4   0   9    7.00    1.70
  -4   0  -9    7.60    2.40
   0   4  -9    4.90    1.70
   5  -3  -9  128.29   12.80
   5  -2   9  125.99   12.00
   5  -2   9  112.39   12.30
   2   3   9  134.09   11.50
   5  -3  -9  142.49   12.50
   2   3   9  142.29   12.30
  -3   5   9  139.59   12.50
  -2   5  -9  130.49   11.60
   3   2  -9  140.89   11.30
   3   2  -9  139.99   12.30
  -5   2   9  149.29   12.50
  -3   5   9  145.19   12.00
  -5   3  -9  128.19   12.70
  -2   5  -9  117.09   12.10
  -5   3  -9  116.49   12.20
   5  -3   9  112.39   12.30
  -5   2  -9  133.59   12.60
   5  -2  -9  137.69   12.30
   3   2   9  126.19   12.10
   5  -3   9  148.29   12.30
  -3   5  -9  145.39   12.50
   5  -2  -9  136.79   12.80
   2   3  -9  131.29   11.10
   3  -5  -9  150.98   12.90
   3   2   9  138.19   11.60
  -3   5  -9  112.29   11.70
  -2   5   9  112.89   12.10
   2   3  -9  133.89   11.20
  -5   3   9  142.49   12.40
  -5   4  -9    0.90    1.10
   5  -1   9    0.50    0.90
   1   4   9   -0.30    0.60
   1   4   9    0.10    0.90
   4   1  -9    0.00    0.70
  -4   5   9    0.30    1.20
  -5   4  -9    0.50    1.00
   4  -5   9   -0.30    0.90
   4   1  -9    0.20    1.10
  -4   5   9    0.50    0.90
  -1   5  -9   -0.20    0.80
   5  -1   9   -0.30    1.00
  -1   5  -9    0.60    0.70
   5  -4  -9   -0.30    1.00
   5  -4  -9    2.10    1.70
  -5   4   9   -0.50    1.10
  -1   5   9   -0.40    0.80
  -4   5  -9    0.90    1.10
   1   4  -9    0.30    0.40
   5  -4   9   -0.50    0.90
   4   1   9    0.60    0.80
  -1   5   9    0.50    0.70
   5  -1  -9    0.50    1.00
   4   1   9   -0.30    0.90
   4  -5  -9   -0.60    1.10
  -5   1  -9    0.60    1.30
  -5   4   9    0.50    1.10
   1   4  -9    0.60    0.40
   1   4  -9    0.50    0.90
  -4   5  -9   -0.30    0.80
   5  -4   9   -0.20    1.00
   5  -1  -9    0.30    1.00
  -5   5   9    7.20    2.40
   5  -5   9   10.20    2.50
   0   5  -9    6.30    0.80
   0   5   9    4.40    1.20
   5   0   9    4.50    1.40
   0   5  -9    5.80    0.80
   5  -5  -9    7.70    2.70
   0   5  -9    6.30    1.80
   5   0  -9    2.90    1.60
   5  -5  -9    8.90    2.50
  -5   5  -9    2.90    1.50
  -5   5   9    4.20    1.70
  -5   5  -9    7.60    2.20
   5   0   9    6.30    1.90
   5   0  -9    8.00    1.70
   0   5   9    4.70    1.70
  -6   3   9   -0.50    1.00
   6  -3   9    0.00    0.90
   6  -3  -9    0.00    1.10
   6  -3  -9    0.10    1.10
   3   3   9   -0.10    0.50
  -6   3  -9    1.10    1.20
   3   3  -9   -0.30    0.90
   3   3   9   -0.20    0.80
  -3   6   9   -0.10    1.00
  -3   6   9   -0.10    0.80
   6  -3   9    0.00    0.90
  -3   6  -9    0.10    1.00
  -3   6  -9   -0.20    0.70
   4   2  -9   18.80    3.50
  -2   6  -9   23.70    3.40
   6  -2   9   23.30    3.10
  -4   6   9   25.10    3.10
   6  -2   9   23.50    4.10
   2   4   9   25.10    3.30
   6  -4  -9   24.60    3.60
  -2   6  -9   16.50    2.40
   2   4   9   20.70    2.30
  -6   4  -9   20.50    3.80
  -4   6   9   15.50    3.60
   6  -4  -9   17.40    3.90
  -4   6  -9   28.20    3.70
  -2   6   9   25.20    2.80
   4  -6  -9   25.10    4.40
   6  -2  -9   20.50    3.90
   6  -2  -9   21.20    3.10
   2   4  -9   20.30    3.00
  -4   6  -9   19.20    2.90
   6  -4   9   13.90    3.50
   4   2   9   12.80    2.90
   4   2   9   21.10    2.50
  -6   4   9   25.80    3.40
  -2   6   9   22.40    3.80
  -1   6  -9    8.70    1.00
   6  -5  -9    7.70    2.50
  -5   6   9    6.10    2.40
   6  -1   9    8.20    2.30
   6  -5  -9    6.60    2.60
  -6   5  -9   12.90    3.20
   6  -1   9    8.10    1.80
   1   5   9    9.60    1.30
  -1   6  -9    7.60    2.10
  -1   6  -9    7.40    1.00
  -6   5  -9    6.70    2.10
   5   1  -9    7.30    1.20
   5   1  -9    6.60    2.10
   1   5   9   11.30    2.30
  -5   6   9   11.20    2.50
  -6   5   9    6.90    2.20
  -1   6   9   10.60    1.80
  -5   6  -9    9.50    2.20
   1   5  -9    5.90    1.80
   5   1   9    7.70    1.70
   5   1   9   12.10    2.60
  -5   6  -9    7.40    2.40
  -1   6   9    4.50    1.80
   6  -1  -9    9.30    2.70
   6  -1  -9    6.60    1.90
   6  -5   9   10.20    2.70
   5  -6  -9    7.20    2.50
  -6   6   9    0.70    1.10
   6   0  -9    0.80    0.70
   6   0  -9    1.70    1.40
  -6   6  -9    0.60    1.20
   0   6   9   -0.20    1.00
   6   0   9    1.10    1.30
   6  -6   9    3.50    1.70
  -6   6  -9    2.10    1.60
   0   6   9    0.50    0.50
   0   6  -9    0.50    0.90
   6  -6  -9    1.00    1.30
  -6   6   9    1.00    1.40
  -3   7  -9   13.00    2.00
   4   3  -9   15.70    2.90
   7  -3   9   12.80    3.20
  -4   7   9   15.70    3.30
   3   4   9   10.70    2.50
   7  -3   9   16.60    3.00
   7  -4  -9   12.30    2.90
  -3   7  -9   13.50    2.90
  -4   7   9   11.40    2.40
   7  -4  -9   15.20    3.70
   4   3   9   12.40    2.60
  -3   7   9   17.20    2.40
   3   4  -9   19.20    2.70
   4   3   9   15.20    1.40
   7  -3  -9   14.10    2.90
   4   3   9   14.30    1.40
  -3   7   9   16.30    3.20
   7  -3  -9   14.40    3.40
  -4   7  -9   18.80    2.40
   7  -4   9   15.00    3.00
   7  -4   9   14.10    3.50
  -4   7  -9   15.40    3.20
   2   5   9   15.10    2.80
  -7   5  -9   14.00    3.30
   7  -5  -9   15.60    3.80
  -2   7  -9   18.00    3.10
   7  -2   9   14.70    2.70
   7  -5  -9   16.10    3.40
  -2   7  -9   15.30    1.60
  -5   7   9   17.70    3.70
  -5   7   9   13.70    2.80
   5   2  -9   16.00    3.10
  -2   7   9   16.70    3.20
  -7   5   9   15.80    3.30
  -5   7  -9    9.80    2.30
   5   2   9   13.60    2.80
   7  -2  -9   10.70    3.10
   7  -5   9   12.40    2.90
   5   2   9   13.80    1.70
  -2   7   9   14.60    2.10
   2   5  -9   16.60    2.80
   7  -2  -9   15.00    2.80
   6   1  -9   20.70    3.50
  -6   7   9   17.70    3.20
   7  -1   9   13.00    2.50
  -7   6  -9   19.80    3.60
   7  -1   9   16.10    3.30
   7  -6  -9   13.60    3.50
  -1   7  -9   12.30    2.60
  -6   7   9   24.20    4.50
   1   6  -9   17.50    2.60
   6  -7  -9   18.80    4.50
  -1   7   9   19.50    3.30
   7  -1  -9   14.20    3.20
  -6   7  -9   17.70    3.20
   7  -6   9   22.40    3.90
   6   1   9   16.60    2.20
   6   1   9   17.70    3.40
  -1   7   9   16.00    1.90
  -7   6   9   21.70    3.80
  -6   7  -9   24.90    4.50
   7  -1  -9   19.00    2.60
  -7   7  -9  112.99   10.80
   0   7  -9  122.49   10.60
   7   0   9  119.99   11.10
   7   0   9  125.59   10.20
   7   0  -9  117.39   11.10
  -7   7  -9  109.09   11.50
   7   0  -9  106.99    9.50
   0   7   9   98.99   10.50
   7  -7  -9  115.19   11.70
  -4   8   9    0.20    0.90
   4   4   9   -0.60    0.90
   8  -4   9    0.10    1.20
   8  -4  -9    1.00    1.60
  -4   8  -9    0.30    0.80
   4   4  -9   -0.80    0.80
   8  -4  -9    0.40    1.10
  -4   8  -9    0.60    1.30
  -4   8   9   -0.10    1.10
   8  -4   9    0.40    1.10
  -3   8  -9    0.80    1.10
   8  -5  -9    0.30    1.30
   8  -3   9    1.00    1.50
   3   5   9    1.10    1.00
  -8   5  -9    0.30    1.10
   8  -3   9    0.80    1.20
   8  -5  -9   -0.40    1.60
  -5   8   9    0.70    1.10
  -3   8  -9    0.60    0.50
  -5   8   9    0.50    1.30
   5   3  -9    0.80    1.10
   8  -3  -9    0.10    1.40
  -3   8   9   -0.40    1.00
   8  -5   9    0.10    1.10
   5   3   9    0.00    1.00
   3   5  -9    0.60    0.90
  -3   8   9   -0.40    0.60
  -5   8  -9    2.20    1.60
   8  -3  -9    1.40    1.30
  -5   8  -9   -0.20    0.80
  -2   8  -9   27.80    3.70
   2   6   9   30.10    3.80
  -6   8   9   29.10    5.10
   6   2  -9   23.20    3.60
  -6   8   9   35.40    4.00
   8  -2   9   35.40    3.80
   8  -6  -9   29.60    4.50
  -8   6  -9   29.40    4.30
   8  -2   9   38.40    4.70
  -8   6   9   34.60    4.50
   8  -6   9   18.00    4.10
  -2   8   9   29.00    3.90
  -6   8  -9   27.50    4.30
  -6   8  -9   25.70    3.60
   6   2   9   30.00    3.90
  -2   8   9   25.00    2.80
   2   6  -9   29.50    3.50
   8  -2  -9   30.50    4.50
  -7   8   9   10.30    2.60
   8  -1   9    9.70    2.00
  -1   8  -9   12.50    2.60
   7   1  -9   14.00    3.00
   1   7   9   10.50    2.30
   8  -7  -9   12.40    3.40
  -8   7  -9   10.10    2.70
  -7   8   9    7.60    2.80
   8  -1   9   11.30    2.90
   1   7  -9   12.00    2.30
   8  -1  -9   14.60    1.90
   8  -7   9   14.90    3.20
   7   1   9    7.80    2.40
  -7   8  -9   13.60    3.40
  -8   7   9    7.10    2.40
   8  -1  -9   14.60    3.20
   7   1   9   12.10    1.30
  -1   8   9   14.40    2.80
  -7   8  -9   12.90    2.60
  -8   8   9   18.90    4.20
   8  -8  -9   23.00    5.50
   8   0   9   32.50    3.20
   0   8  -9   31.90    3.70
   0   8   9   26.40    3.80
  -8   8  -9   38.30    4.40
   8   0   9   34.90    4.50
   8   0  -9   33.30    4.40
   9  -5  -9   45.70    5.70
   9  -4   9   44.50    5.40
  -5   9   9   47.90    5.90
  -5   9   9   50.69    5.00
   9  -5  -9   50.69    6.70
   5   4  -9   43.80    5.00
   4   5   9   56.69    5.40
  -4   9  -9   46.30    4.30
   5   4   9   41.30    5.10
   9  -4  -9   47.30    5.60
  -5   9  -9   51.89    4.90
  -4   9   9   46.70    5.70
  -5   9  -9   45.30    5.60
   4   5  -9   40.10    4.80
  -4   9   9   46.00    4.70
   9  -5   9   50.79    5.70
   9  -3   9   15.10    3.40
  -6   9   9   10.80    2.30
   9  -6  -9   13.90    3.30
  -9   6  -9   11.00    3.10
  -6   9   9    8.00    2.70
  -3   9  -9    7.30    2.30
   9  -3   9    7.80    2.10
   3   6   9   11.60    2.40
   6   3  -9    8.50    2.20
  -3   9   9    9.70    1.40
   9  -3  -9    9.40    3.00
   3   6  -9   10.80    2.00
  -3   9   9   11.60    2.70
   6   3   9   14.00    2.70
  -6   9  -9    9.00    2.70
   9  -3  -9    4.60    1.80
  -6   9  -9    7.80    2.00
  -2   9  -9   -0.20    1.00
   7   2  -9    1.10    1.20
   2   7   9    0.50    1.00
  -7   9   9    0.40    1.50
   9  -7  -9    0.00    1.20
   9  -2   9    1.10    1.60
  -9   7  -9    0.40    1.30
  -7   9   9    0.90    1.20
   9  -2   9    0.90    1.00
   9  -7   9    1.40    1.50
  -7   9  -9    1.60    1.60
  -2   9   9    0.90    1.20
   2   7  -9    1.40    0.90
  -9   7   9   -0.10    1.30
  -7   9  -9    1.20    1.20
   7   2   9    1.20    1.30
   9  -2  -9    1.30    1.00
   9  -2  -9    0.90    1.50
  -9   8  -9   15.70    3.40
  -8   9   9   19.50    3.50
   8   1  -9   15.90    3.20
   9  -1   9   18.80    3.80
   1   8   9   19.20    3.20
   9  -8  -9   14.10    3.80
  -1   9  -9   11.70    2.50
  -9   8   9   14.30    3.40
  -1   9   9   15.30    3.00
   1   8  -9   14.60    2.30
  -8   9  -9   13.50    2.90
   8   1   9   17.60    3.40
   9  -1  -9    9.80    2.90
  -8   9  -9   16.30    3.90
   9   0  -9    3.80    2.00
   0   9  -9    5.30    1.50
  -9   9  -9    2.60    1.60
  -9   9   9    4.10    2.00
   0   9   9    6.50    1.90
   9   0   9    3.20    1.70
  -5  10  -9   -0.40    0.50
  -5  10   9   -0.10    1.20
  10  -5   9   -0.50    1.00
  10  -5  -9    0.00    1.60
   5   5   9    0.40    0.90
  -5  10   9    0.30    0.80
  -5  10  -9   -0.40    1.10
  10  -5  -9    0.30    1.10
   5   5  -9   -0.30    0.70
  -6  10   9   16.70    3.70
  -6  10   9   11.50    2.40
   6   4  -9   18.20    2.60
  10  -4   9   13.00    2.90
  10  -6  -9    8.60    2.80
  10  -4   9   17.60    4.10
   4   6   9   11.80    2.40
  -4  10  -9   17.80    3.30
  10  -4  -9   15.00    3.90
  10  -6   9   21.40    3.80
  -4  10   9   11.50    1.70
  10  -4  -9   14.80    3.00
   4   6  -9   11.40    2.10
  -4  10   9   15.70    3.20
   6   4   9   20.20    3.20
  -6  10  -9   19.50    2.40
  -6  10  -9   13.10    3.30
   3   7   9    0.90    1.00
  10  -3   9    0.70    1.50
  10  -3   9    0.90    1.10
  -3  10  -9    0.60    1.20
   7   3  -9    0.30    1.00
 -10   7  -9    0.70    1.50
  -7  10   9    1.10    1.60
  -7  10   9    0.10    1.00
  10  -7  -9    1.10    1.70
  10  -3  -9    0.50    1.50
  -7  10  -9    0.50    1.40
  -3  10   9    0.40    1.10
  10  -7   9    0.80    1.40
   3   7  -9    0.40    0.70
   7   3   9    0.30    1.10
  -7  10  -9    0.40    0.90
  10  -3  -9    0.80    1.00
 -10   8  -9    3.00    1.80
  10  -8  -9    1.90    1.90
  10  -2   9    1.00    1.00
   8   2  -9    0.70    1.20
   2   8   9    0.80    1.10
  -2  10  -9    0.50    1.10
  -8  10   9    1.20    1.30
  10  -2   9    1.60    1.60
   2   8  -9    1.60    0.90
  -8  10  -9    1.20    1.50
  10  -2  -9    1.80    0.80
  10  -2  -9    1.70    1.70
  10  -8   9    2.80    1.90
   8   2   9    0.50    1.20
  -8  10  -9    0.60    1.10
  -2  10   9    1.40    1.20
 -10   8   9    1.40    1.50
   9   1  -9    1.80    1.40
 -10   9  -9    0.50    1.30
  10  -1   9    0.00    1.30
  -9  10   9    1.30    1.40
  10  -1   9    1.00    0.60
  -1  10  -9    0.50    1.00
   1   9   9   -0.20    0.90
  10  -9  -9    1.30    1.90
   9   1   9    0.70    1.30
  10  -1  -9    0.50    1.30
 -10   9   9    1.00    1.50
   1   9  -9    0.90    0.80
  -1  10   9    0.20    1.00
  -9  10  -9    0.70    1.20
   0  10  -9   10.40    2.00
 -10  10   9   12.80    3.20
   0  10   9    9.60    2.20
  10   0  -9    8.00    2.50
  10   0   9    9.40    2.70
 -10  10  -9    5.20    2.10
  -5  11  -9    8.50    2.60
  -6  11   9    8.10    1.80
  -6  11   9    6.20    2.40
   5   6   9    6.00    1.80
  11  -5   9    7.40    2.30
  11  -6  -9    8.20    2.50
  -6  11  -9    7.90    2.50
  -5  11   9    4.10    1.00
  -5  11   9    6.00    2.20
  11  -6   9    6.00    2.20
   6   5   9    5.80    1.80
  11  -5  -9    5.60    2.80
  11  -5  -9    6.30    2.20
   5   6  -9    4.90    1.30
  11  -7  -9    0.10    1.40
  -7  11   9    0.60    0.90
  -4  11  -9    0.00    1.00
   4   7   9    1.10    1.00
   7   4  -9    0.60    0.90
  11  -4   9    1.30    1.30
  11  -4   9    0.10    1.40
  -7  11   9    0.00    1.40
  11  -4  -9   -0.70    1.30
  -7  11  -9    1.40    1.00
  -7  11  -9   -0.70    1.10
  11  -7   9    0.70    1.40
   4   7  -9    0.80    0.70
  11  -4  -9    1.10    1.20
  -4  11   9    1.10    1.30
   7   4   9    0.60    1.10
  11  -8  -9    4.40    2.30
  11  -3   9    4.00    1.50
  11  -3   9    5.40    2.40
  -8  11   9    5.70    2.60
  -8  11   9    3.90    1.70
   3   8   9    5.10    1.50
  -3  11  -9    4.10    1.70
   8   3  -9    3.60    1.60
  11  -8   9    6.00    2.40
  -8  11  -9    5.00    1.70
  -8  11  -9    3.10    2.10
  11  -3  -9    5.80    2.60
   3   8  -9    7.20    1.30
   8   3   9    4.30    1.80
  -3  11   9    6.20    2.10
   0   0  10   78.19    7.70
   0   0 -10   79.89    7.90
   0   0  10   66.29    7.20
   0   1  10    1.00    1.10
  -1   0  10    1.40    1.10
   1   0  10    1.60    1.10
  -1   1  10   -0.10    0.80
   1  -1 -10    1.40    1.30
   0  -1  10    1.20    1.00
   0  -1  10    1.90    1.30
   1   0 -10    1.00    1.40
   0  -1 -10    2.60    1.60
  -1   0  10    1.10    1.20
  -1   1 -10    1.10    1.20
   0  -1 -10    1.10    1.10
  -1   1 -10    0.20    1.10
   1  -1 -10   -0.50    1.00
   1   0 -10   -0.80    0.80
  -1   0 -10    0.70    1.00
   1  -1  10    0.80    0.90
  -1   1  10    1.20    1.10
   1  -1  10    0.00    1.00
   0   1 -10    1.60    1.30
  -1   0 -10    2.10    1.20
   0   1  10    1.50    1.10
   0   1 -10    0.40    1.00
   1   0  10    2.40    1.40
   1   1 -10 1139.59   91.79
   1  -2 -10 1204.38   91.99
  -1   2 -10 1109.49   91.79
  -2   1 -10 1167.98   91.99
  -1  -1 -10 1246.98   92.19
   1  -2  10 1112.29   91.49
  -1   2  10 1075.89   91.69
   1  -2  10 1181.18   91.89
  -1   2 -10 1152.18   91.39
  -1  -1  10 1256.17   91.49
   1   1  10 1178.68   91.29
   1   1 -10 1077.09   91.29
  -1  -1 -10  947.41   91.49
  -2   1 -10 1187.88   91.79
  -1  -1  10 1086.99   91.59
   2  -1 -10 1015.10   91.69
  -1   2  10 1021.50   91.09
   2  -1 -10 1154.38   91.69
   2  -1  10  999.80   91.49
  -2   0 -10 1013.10   78.99
   0   2  10  795.62   78.19
  -2   2  10  980.00   78.19
   2   0 -10  890.91   78.19
   2   0  10  993.50   78.19
   2  -2  10  952.30   78.29
   2   0 -10 1015.70   78.79
  -2   0  10 1033.80   78.39
   2  -2  10 1025.90   78.79
  -2   2  10  994.50   78.69
  -2   0 -10  870.51   78.49
   0   2  10 1004.10   78.19
   0  -2 -10 1025.10   79.09
   2  -2 -10  990.10   78.99
   0  -2  10 1081.99   78.49
   0  -2 -10  859.31   78.59
   2  -2 -10 1039.50   78.79
  -2   2 -10  809.12   78.09
   0   2 -10  885.61   77.99
   0   2 -10  909.11   78.49
   3  -2 -10   24.10    4.30
   2   1 -10   20.10    2.90
  -3   2 -10   31.50    3.70
   2   1 -10   14.10    3.40
  -3   1  10   23.30    3.20
  -3   2 -10   27.60    3.80
  -2  -1 -10   20.40    3.80
  -1   3 -10   25.80    3.60
   3  -1  10   24.70    3.20
   3  -2 -10   15.50    3.30
   2  -3  10   29.60    3.60
   2  -3  10   15.60    3.40
  -1   3 -10   21.10    3.00
  -2   3  10   20.70    3.80
  -2   3  10   20.80    3.00
   3  -1  10   23.40    3.50
   1  -3 -10   24.00    4.20
  -1  -2  10   26.30    3.70
   1   2  10   21.00    3.30
  -3   1  10   24.70    3.70
   1  -3 -10   31.90    4.10
   1   2  10   18.90    2.90
   3  -1 -10   25.60    3.60
   2  -3 -10   23.90    3.60
   1   2 -10   12.90    3.20
  -3   1 -10   17.50    3.80
   2   1  10   19.10    2.90
   1  -3  10   21.90    3.30
  -1   3  10   17.80    3.40
   1   2 -10   22.90    3.00
  -1   3  10   21.50    3.10
   3  -2  10   25.40    3.40
  -3   2  10   19.50    3.10
   3  -1 -10   25.40    3.40
  -2   3 -10   25.20    3.30
  -2   3 -10   21.60    3.30
   2  -3 -10   23.70    4.30
  -1  -2 -10   25.80    3.80
  -2  -1  10   28.20    3.40
   2   1  10   26.30    3.60
  -3   1 -10   21.20    3.80
   3  -2  10   26.20    3.70
  -3   3  10  924.81   74.29
   3  -3 -10  891.41   74.29
  -3   3 -10  809.62   73.79
   0   3 -10  874.31   73.39
   3  -3  10  972.10   74.39
  -3   0 -10  993.60   74.49
   3   0  10 1008.80   73.79
   0   3  10  833.82   73.89
  -3   3 -10  758.42   73.99
   0   3  10  932.31   73.59
   3   0 -10  861.01   73.69
   3  -3 -10  907.01   74.59
   0  -3 -10  900.51   74.39
   3   0  10  961.90   74.19
   0   3 -10  836.12   73.89
   3  -3  10  961.40   74.09
  -3   3  10  878.11   73.69
   3   0 -10  934.21   74.29
  -4   2 -10   54.89    6.40
   4  -2  10   60.09    6.50
   2  -4 -10   60.79    6.70
  -2   4  10   60.19    6.50
  -2   4  10   64.59    6.00
   4  -2 -10   63.49    6.50
   2  -4  10   64.69    6.50
  -2   4 -10   60.59    6.40
   2   2 -10   52.99    6.20
   4  -2 -10   62.39    6.70
  -4   2 -10   56.59    6.60
   2   2 -10   45.40    5.50
  -2   4 -10   58.69    5.90
   2   2  10   63.79    6.40
  -4   2  10   58.19    6.30
   4  -2  10   45.00    5.80
  -1   4 -10    6.00    1.60
   3   1 -10    4.70    1.80
   4  -3 -10    8.50    2.50
   4  -1  10    2.80    1.40
  -4   3 -10    2.60    1.50
  -1   4 -10    5.10    1.90
   3   1 -10    4.90    1.50
  -3   4  10    3.60    1.80
  -4   1  10    3.20    1.60
   3  -4  10   10.60    2.50
   1  -4 -10   10.20    2.80
   4  -1  10    4.60    2.00
  -4   3 -10    6.30    2.00
  -3   4  10    7.30    2.00
   1   3  10    5.10    1.70
   1   3  10    7.40    1.60
   4  -3 -10    4.90    2.00
   3  -4 -10    7.70    2.50
  -1   4  10    3.00    1.30
   1   3 -10    4.40    1.70
   1   3 -10    5.90    1.40
  -3   4 -10    6.60    1.80
  -4   1 -10    8.40    2.50
   3   1  10    7.30    1.70
   4  -1 -10    6.80    2.00
   3  -4 -10    6.50    2.20
  -4   3  10    1.90    1.60
   4  -3  10   12.60    2.80
   3   1  10    8.00    2.30
  -4   3  10    4.60    1.80
  -1   4  10    5.20    1.80
  -3   4 -10    7.10    2.20
   4  -1 -10    8.20    2.30
   4  -3  10    9.10    2.20
   0   4  10  844.12   66.49
   0   4  10  699.23   65.69
   4   0 -10  806.12   65.99
  -4   4  10  795.72   66.79
   4   0 -10  761.62   66.59
   0   4 -10  856.61   65.69
   4   0  10  841.92   66.09
   4   0  10  811.32   66.59
  -4   4 -10  808.92   66.39
  -4   4 -10  850.71   66.89
  -4   4  10  777.52   66.29
   0   4 -10  802.32   66.39
   4  -4 -10  842.72   66.89
   5  -3 -10    9.60    2.80
  -2   5 -10   10.30    2.00
   5  -3 -10    9.50    2.60
   5  -2  10   10.10    2.60
  -5   3 -10    9.10    2.50
  -5   3 -10    9.40    3.40
   3   2 -10   12.80    2.70
  -2   5 -10    6.10    2.00
   3   2 -10    8.80    1.70
   2   3  10    9.60    1.80
  -3   5  10   13.10    3.10
  -3   5  10    8.70    2.00
   5  -2  10   12.80    2.60
   2   3  10    8.00    2.20
  -3   5 -10   11.60    2.80
   5  -3  10   11.50    2.50
  -3   5 -10   11.90    2.30
   5  -2 -10    7.40    2.30
  -2   5  10    7.80    2.30
  -5   2 -10   10.80    2.70
   3  -5 -10    8.70    2.60
   2   3 -10    8.40    2.20
  -2   5  10   11.10    2.30
   3   2  10    8.60    2.30
  -5   3  10   10.60    2.60
   3   2  10   10.50    2.00
   2   3 -10    6.30    1.30
   5  -3  10    8.70    2.60
   5  -2 -10   10.40    3.00
  -1   5 -10  434.46   35.00
  -5   4 -10  363.56   35.30
  -4   5  10  444.46   34.90
   5  -4 -10  464.35   36.10
   4   1 -10  440.76   35.20
   5  -1  10  424.76   34.70
   5  -4 -10  425.16   35.40
   1   4  10  416.46   34.90
   5  -1  10  345.57   34.90
  -1   5 -10  365.16   34.00
  -4   5  10  420.36   35.40
   5  -1 -10  424.46   34.80
   4   1  10  451.45   35.20
  -4   5 -10  373.96   35.20
   5  -4  10  402.76   35.00
  -4   5 -10  412.06   34.70
   4  -5 -10  424.36   35.50
   5  -4  10  452.95   36.70
   4   1  10  395.66   34.30
  -1   5  10  434.36   34.40
   5  -1 -10  425.06   35.40
   1   4 -10  399.46   33.80
  -1   5  10  417.86   35.00
   1   4 -10  416.26   34.80
   5   0  10   11.70    2.70
  -5   5  10   12.10    3.20
   0   5  10    9.70    2.40
   5   0 -10   10.20    2.10
   0   5 -10   13.00    1.50
   5  -5  10    9.60    2.50
  -5   5 -10    8.80    2.40
  -5   5 -10    9.90    2.80
  -5   5  10    8.70    2.50
   5  -5 -10    8.40    2.70
   0   5 -10   10.60    2.40
   5   0  10    9.80    2.00
   0   5  10   11.70    2.00
  -3   6 -10  190.08   18.60
  -3   6 -10  216.48   18.00
   6  -3 -10  221.48   18.80
   6  -3 -10  208.58   19.30
  -3   6  10  197.98   18.00
   6  -3  10  226.98   18.60
  -3   6  10  193.88   18.70
  -6   3 -10  227.78   19.10
   6  -3  10  205.18   19.10
   6  -2  10  437.86   34.70
  -2   6 -10  444.56   34.20
  -4   6  10  366.16   33.60
  -4   6  10  428.76   34.50
   4   2 -10  396.06   34.00
  -6   4 -10  433.76   34.40
  -2   6 -10  415.26   33.20
   6  -2  10  348.27   33.60
   2   4  10  347.27   33.70
   6  -4 -10  345.57   34.00
   2   4  10  419.06   33.00
  -2   6  10  441.56   33.50
   6  -4  10  379.16   34.60
   4   2  10  433.56   33.20
   6  -4  10  398.26   34.10
  -2   6  10  426.86   34.30
   2   4 -10  418.66   33.90
  -6   4  10  341.97   33.90
  -4   6 -10  386.66   33.60
   6  -2 -10  413.86   34.70
  -4   6 -10  425.86   34.40
   6  -1  10    0.00    1.20
   6  -5 -10    0.60    1.20
   5   1 -10    0.70    1.20
  -5   6  10    1.60    1.60
   1   5  10    1.40    0.70
  -1   6 -10    0.50    0.50
  -1   6 -10    0.60    1.00
  -5   6  10   -0.10    0.90
   6  -1  10    1.60    1.10
   5   1 -10    1.00    0.70
  -6   5 -10    0.50    1.40
   1   5  10    1.00    1.20
  -6   5  10   -0.10    1.10
   6  -5  10    0.40    1.20
   5  -6 -10    3.50    1.80
   1   5 -10    1.70    1.20
  -5   6 -10    1.80    1.20
   5   1  10    1.50    1.00
   6  -1 -10    1.00    1.40
  -1   6  10    1.00    1.20
   5   1  10    1.10    1.20
  -5   6 -10    1.30    1.50
  -1   6  10    0.40    0.70
   6  -1 -10    1.00    1.10
   0   6 -10   32.30    4.50
   6  -6 -10   36.70    5.40
  -6   6 -10   46.40    5.70
   0   6  10   39.90    4.80
   6   0 -10   37.00    4.20
   6   0  10   43.60    5.20
  -6   6  10   43.10    5.10
   6   0 -10   43.80    5.30
   6   0  10   39.60    4.40
   6  -6  10   52.09    5.70
  -3   7 -10    1.60    0.90
  -4   7  10    0.70    1.00
   7  -4 -10    1.00    1.70
   7  -4 -10    0.70    1.30
   7  -3  10    1.30    1.20
   4   3 -10    2.70    1.40
   3   4  10    0.70    1.20
   7  -3  10    0.90    1.50
  -7   4 -10    1.30    1.40
   3   4  10    1.60    0.50
  -3   7 -10    1.70    1.30
  -4   7  10    1.00    1.40
   7  -3 -10    3.10    2.00
   7  -3 -10    1.20    1.30
  -4   7 -10    2.20    1.20
  -3   7  10    1.60    1.10
   7  -4  10    1.00    1.70
   3   4 -10    1.60    1.20
  -4   7 -10    2.30    1.60
   4   3  10    1.40    0.60
   4   3  10    1.70    1.30
   7  -4  10    1.80    1.30
  -3   7  10    3.70    1.70
   7  -5 -10  213.98   21.80
  -7   5 -10  245.28   22.00
  -5   7  10  252.47   21.50
   7  -2  10  243.88   22.20
   2   5  10  254.87   21.70
  -5   7  10  239.38   22.20
  -2   7 -10  271.67   20.50
   7  -2  10  268.17   21.50
   5   2 -10  242.08   21.70
   7  -2 -10  203.88   21.90
  -5   7 -10  244.58   22.10
  -2   7  10  252.67   21.90
   7  -5  10  219.68   21.70
   5   2  10  225.38   21.50
   2   5 -10  255.17   21.40
  -5   7 -10  271.27   21.40
   7  -2 -10  268.87   21.60
  -7   5  10  286.27   22.30
  -7   6 -10   15.90    3.50
  -6   7  10   24.90    4.70
   7  -1  10   18.80    3.90
   1   6  10   21.90    3.80
   7  -6 -10   25.90    4.70
  -6   7  10   18.40    3.50
   6   1 -10   18.50    3.60
  -1   7 -10   24.70    3.30
  -1   7  10   23.00    3.40
   6   1  10   27.00    2.70
   6   1  10   13.90    3.20
  -6   7 -10   17.60    3.90
   7  -1 -10   19.90    2.90
   7  -6  10   23.30    4.20
   1   6 -10   19.10    3.00
   7  -1 -10   20.40    4.20
  -1   7  10   23.50    2.50
  -6   7 -10   23.40    3.30
   7   0 -10    2.60    0.80
   7   0  10    2.90    1.20
   7   0 -10    4.00    1.80
  -7   7 -10    2.20    1.60
   0   7 -10    2.20    1.30
  -7   7  10    2.90    1.70
   7   0  10    1.80    1.50
   7  -7 -10    0.80    1.80
   0   7  10    2.70    1.50
  -7   7 -10    2.60    2.00
   8  -4  10   26.50    4.00
  -4   8 -10   27.00    4.10
   8  -4  10   34.30    5.10
  -4   8 -10   34.60    3.50
  -4   8  10   21.00    4.40
   4   4 -10   35.20    4.00
  -4   8  10   24.90    3.50
   8  -4 -10   34.70    5.90
   4   4  10   33.60    4.10
   8  -4 -10   36.80    4.60
   3   5  10   21.40    3.30
   5   3 -10   26.50    3.60
   8  -3  10   23.70    4.60
  -5   8  10   21.40    3.30
  -3   8 -10   24.30    2.60
  -8   5 -10   30.70    4.40
  -3   8 -10   22.70    3.50
   8  -5 -10   26.30    5.40
  -5   8  10   30.00    5.00
   8  -3  10   28.20    3.70
   8  -5 -10   28.40    4.10
  -5   8 -10   24.60    3.20
  -3   8  10   26.80    3.10
   8  -3 -10   19.10    4.30
   3   5 -10   21.10    3.20
   8  -5  10   24.10    3.70
  -3   8  10   21.40    4.00
  -5   8 -10   26.50    4.60
   8  -3 -10   25.80    3.70
   2   6  10  426.26   37.10
  -6   8  10  477.65   37.30
   8  -6 -10  439.46   37.90
   8  -2  10  468.65   38.10
   6   2 -10  415.06   37.20
  -2   8 -10  480.55   37.30
   8  -2  10  429.96   36.90
  -6   8  10  464.65   38.30
  -8   6 -10  478.35   37.90
   6   2  10  451.35   37.40
  -6   8 -10  435.76   37.00
   8  -6  10  407.26   37.50
  -8   6  10  366.36   37.40
  -2   8  10  444.16   36.20
   8  -2 -10  467.85   38.10
  -2   8  10  462.95   37.50
  -6   8 -10  385.66   37.70
   2   6 -10  471.75   36.90
   8  -1  10   69.79    6.80
  -8   7 -10   64.59    7.40
   7   1 -10   72.59    7.50
  -7   8  10   60.89    7.20
  -1   8 -10   81.19    7.30
   1   7  10   66.89    7.10
   8  -7 -10   69.29    8.10
   8  -1  10   73.19    7.80
  -7   8 -10   73.79    7.30
  -1   8  10   63.99    7.20
   8  -7  10   66.19    7.70
   7   1  10   69.29    6.10
   1   7 -10   63.59    6.80
   8  -1 -10   72.69    7.90
   7   1  10   69.29    7.50
   8  -1 -10   64.29    6.40
  -8   7  10   68.39    7.60
   8   0 -10  109.59   10.60
   0   8 -10  102.89    9.80
   0   8  10  110.69   10.10
   8   0  10   99.39   10.40
   8   0  10  101.69    9.20
  -5   9  10    1.70    1.20
   9  -5 -10    2.20    1.80
  -4   9 -10    1.90    1.50
   4   5  10    1.30    1.20
   9  -5 -10    1.00    1.40
   5   4 -10    1.10    1.10
  -5   9  10    0.90    1.50
   9  -4  10    3.90    2.20
  -4   9 -10    1.40    0.70
   9  -4  10    1.20    1.20
   5   4  10    2.10    1.40
   9  -4 -10    1.00    1.30
   4   5 -10    0.70    1.10
  -4   9  10    1.70    1.00
  -5   9 -10    2.60    1.60
  -4   9  10    1.40    1.50
   9  -4 -10    0.60    1.70
  -5   9 -10    1.50    1.00
  -9   6 -10  119.09   12.10
   6   3 -10  108.89   11.20
   9  -3  10  128.89   12.50
   9  -6 -10  122.29   12.00
   9  -3  10  133.89   11.40
  -3   9 -10  134.29   11.70
  -6   9  10  122.99   12.30
  -6   9  10  129.79   11.40
   3   6  10  128.49   11.40
  -6   9 -10  103.79   11.70
  -6   9 -10  120.09   11.00
   9  -6  10  122.59   11.80
  -3   9  10  115.99   11.60
   9  -3 -10  111.99   11.20
  -3   9  10  121.59   10.40
   6   3  10  112.19   11.30
   3   6 -10  135.99   11.10
   9  -3 -10  103.49   12.10
  -7   9  10    3.10    1.60
   9  -2  10    3.40    1.50
   9  -2  10    1.20    1.60
  -9   7 -10    5.60    2.20
   7   2 -10    3.60    1.70
  -7   9  10    5.00    2.50
   2   7  10    4.60    1.80
  -2   9 -10    2.80    1.50
   9  -7 -10    3.00    2.10
   9  -2 -10    3.60    1.40
  -7   9 -10    4.30    2.00
   7   2  10    2.80    1.70
  -9   7  10    1.90    1.70
   9  -7  10    5.80    2.30
   9  -2 -10    2.30    1.80
  -2   9  10    2.50    1.50
   2   7 -10    4.90    1.50
  -7   9 -10    5.10    1.80
   9  -1  10    2.20    1.70
  -8   9  10    2.40    1.70
   9  -8 -10    2.10    2.00
   9  -1  10    1.30    1.00
   1   8  10    3.70    1.60
   8   1 -10    1.40    1.30
  -9   8 -10    0.40    1.30
  -1   9 -10    0.50    1.10
   8   1  10    1.60    1.40
  -1   9  10    3.70    1.70
   1   8 -10    2.30    1.10
  -8   9 -10    1.20    1.20
   9  -1 -10    1.90    1.80
  -9   8  10    2.30    1.70
  -9   9  10   49.50    5.90
  -9   9 -10   48.00    5.70
   0   9  10   54.69    5.50
   0   9 -10   37.30    4.90
   9   0 -10   45.70    5.80
   9   0  10   50.89    6.00
  -5  10 -10   36.00    4.60
  10  -5 -10   29.30    5.80
   5   5  10   33.60    4.10
   5   5 -10   29.80    3.70
  10  -5 -10   27.20    4.30
  -5  10  10   27.70    3.50
  10  -6 -10  145.49   14.30
   4   6  10  173.58   13.80
  10  -4  10  159.48   15.10
  -4  10 -10  156.18   14.00
  -6  10  10  173.08   15.00
  -6  10  10  158.88   13.40
   6   4  10  140.89   13.70
   4   6 -10  139.79   13.10
  -4  10  10  162.08   14.30
  10  -4 -10  119.59   14.50
  -6  10 -10  130.69   14.10
  10  -4 -10  141.79   13.80
  -6  10 -10  154.68   13.20
   3   7  10    9.40    2.20
  -3  10 -10    5.50    1.90
   7   3 -10    5.60    1.90
  -7  10  10    8.10    2.20
  10  -3  10    5.60    2.50
  10  -7 -10    6.20    2.60
  10  -3  10    8.40    2.10
  -7  10  10    5.20    2.50
  -3  10  10    9.80    2.70
  10  -3 -10   10.20    3.20
  10  -3 -10    4.30    1.60
  -7  10 -10    8.00    2.80
   7   3  10    8.40    2.40
  10  -7  10    8.30    2.70
  -7  10 -10    5.00    1.70
   3   7 -10    8.20    1.80
  -8  10  10   29.80    3.80
   2   8  10   20.40    3.30
 -10   8 -10   22.00    4.40
  10  -8 -10   23.00    4.90
  -2  10 -10   22.70    3.30
  10  -2  10   26.20    4.90
   8   2 -10   26.20    3.70
  10  -2  10   23.30    3.10
  -2  10  10   22.50    3.50
  -8  10 -10   12.20    3.90
  -8  10 -10   26.40    3.60
   2   8 -10   22.20    2.90
  10  -2 -10   22.90    4.60
   8   2  10   25.50    3.80
  10  -2 -10   25.70    2.70
 -10   9 -10   18.80    3.90
   1   9  10   13.90    2.90
  -9  10  10   16.50    3.60
  10  -1  10   16.10    3.60
  10  -1  10   17.30    2.10
   9   1 -10   14.80    3.30
  -1  10 -10   14.30    2.70
  10  -1 -10   19.30    4.00
 -10   9  10   11.10    3.20
   9   1  10   20.10    3.80
  -1  10  10   13.10    3.00
  -9  10 -10   17.30    3.30
   1   9 -10   17.90    2.50
  -6  11  10    3.20    1.20
  -6  11  10    4.60    2.20
  -5  11 -10    2.90    1.70
  11  -6 -10    3.10    2.00
   5   6  10    2.50    1.40
  11  -5  10    4.00    1.90
   6   5 -10    3.80    1.30
  -6  11 -10    3.90    2.10
  11  -5 -10    2.30    1.60
  -6  11 -10    3.10    0.90
  -5  11  10    3.90    2.00
  11  -6  10    4.20    2.10
  11  -5 -10    3.60    2.50
   5   6 -10    6.00    1.40
  -5  11  10    3.60    1.00
   6   5  10    2.60    1.50
   7   4 -10   53.89    6.00
  -4  11 -10   57.39    6.60
  -7  11  10   66.79    7.60
  11  -4  10   69.19    6.90
  11  -7 -10   57.69    7.10
   4   7  10   62.09    6.20
  11  -4 -10   58.99    7.70
  11  -7  10   55.49    6.90
  -4  11  10   49.80    6.60
   4   7 -10   60.59    5.70
  11  -4 -10   58.59    6.40
   7   4  10   62.99    6.60
  -7  11 -10   61.39    7.30
   0   0  11    0.60    1.00
   0   0 -11   -0.10    1.20
   0   0  11    0.30    1.10
   0   0 -11   -0.50    1.00
  -1   1 -11    1.80    1.50
  -1   0 -11    2.70    1.60
  -1   0  11    3.30    1.70
   0   1  11    3.50    1.60
   0  -1 -11    1.70    1.60
  -1   0 -11    2.40    1.70
   1  -1 -11    2.00    1.50
   0   1 -11    3.70    1.80
   1   0 -11    2.70    1.50
  -1   1  11    3.00    1.40
   1   0 -11    2.30    1.40
   0  -1  11    2.70    1.70
   1  -1  11    1.60    1.30
   0  -1  11    2.10    1.30
   0   1 -11    3.90    1.70
  -1   1  11    4.50    1.90
   1  -1 -11    1.40    1.50
  -1   0  11    3.00    1.40
   1  -1  11    5.50    2.00
  -1   1 -11    1.80    1.60
   1   0  11    2.40    1.50
   1   0  11    1.20    1.10
   0  -1 -11    3.10    1.70
   0   1  11    2.90    1.40
   1  -2 -11    0.60    1.20
  -2   1 -11   -1.00    0.90
  -1   2  11   -0.20    1.00
  -1  -1 -11   -0.30    1.20
   1   1  11   -0.40    0.90
  -2   1  11    0.80    1.30
  -1  -1 -11    1.80    1.40
  -1   2 -11   -0.10    0.90
   2  -1  11   -0.20    0.90
   1   1  11   -0.20    0.80
  -1   2  11   -0.20    0.90
   1  -2  11    0.10    0.90
   2  -1  11   -0.10    0.80
   2  -1 -11    0.20    1.10
   1  -2 -11    0.50    1.10
   1   1 -11   -0.40    1.00
   1   1 -11   -0.10    0.90
   2  -1 -11   -0.40    1.10
  -2   1  11   -0.70    0.50
  -1   2 -11   -0.70    0.80
  -1  -1  11    0.20    0.70
  -2   1 -11   -0.10    1.00
   2  -2 -11    2.70    1.80
   0   2  11    2.90    1.60
   2   0 -11    3.90    1.60
  -2   2  11    2.50    1.30
   2  -2  11    4.00    1.60
   0   2 -11    3.40    1.80
  -2   2 -11    1.80    1.30
   0  -2  11    4.50    1.70
   0  -2 -11    4.30    2.00
   2  -2 -11    3.70    1.70
   2  -2  11    2.20    1.40
  -2   0 -11    3.20    1.80
  -2   0 -11    2.00    1.70
  -2   0  11    3.90    1.70
   2   0  11    4.50    1.90
  -2   2 -11    2.00    1.40
   2   0 -11    3.80    1.90
   0   2  11    3.70    1.50
   2   0  11    1.30    1.20
  -2   2  11    1.50    1.50
   0   2 -11    3.90    1.60
   2  -3  11   11.90    2.70
   2   1 -11   11.20    2.40
  -1   3 -11   12.40    2.80
   1  -3 -11   14.20    3.20
  -3   1  11    6.10    2.10
  -2   3  11    9.80    2.30
   3  -1  11   15.00    2.90
   1   2  11   12.20    2.40
   3  -2 -11   12.60    2.90
  -1   3 -11   14.70    2.60
   2   1 -11    7.70    2.40
   3  -2 -11   11.70    3.10
  -2   3  11    8.00    2.60
  -2  -1 -11   17.90    3.60
   3  -1  11   12.80    2.90
  -3   2 -11   11.40    2.80
  -3   2 -11   13.70    3.20
   1   2  11   19.40    3.50
   3  -1 -11   14.60    3.30
   1  -3  11   11.70    3.00
   2  -3 -11   15.90    3.60
  -1   3  11   12.90    2.60
   3  -2  11   12.60    2.70
   2   1  11   14.20    3.20
  -2   3 -11   14.00    3.00
   1   2 -11   10.30    2.20
  -3   2  11   10.60    2.50
   1   2 -11   15.90    3.10
  -1   3  11    8.30    2.40
  -3   1 -11    5.20    2.30
  -3   2  11   12.10    2.90
   2   1  11   15.30    2.70
  -3   1 -11   12.00    3.00
  -1  -2 -11   17.40    3.60
   3  -2  11   15.80    3.30
  -2   3 -11   10.90    2.50
   2  -3 -11   12.60    3.00
   3  -1 -11   13.70    2.80
  -3   0 -11    5.70    2.10
   0  -3 -11    4.10    2.00
   0   3  11    2.30    1.30
  -3   3  11    4.40    1.70
   3   0 -11    6.10    1.80
   0   3 -11    5.80    1.60
   0   3  11    5.10    1.90
   3   0 -11    3.10    1.80
  -3   3 -11    3.70    1.90
   3  -3 -11    3.90    1.90
  -3   3  11   10.90    2.80
   0   3 -11    4.90    1.90
  -3   3 -11    5.70    2.00
   3   0  11    4.60    1.60
   3  -3 -11    5.70    2.40
   3  -3  11    3.80    1.70
   3   0  11    4.50    1.90
   2   2  11    0.10    1.10
   2   2  11   -0.20    0.70
  -4   2  11   -0.90    0.80
   2   2 -11    0.10    1.30
  -4   2 -11    0.20    1.10
  -2   4  11   -0.30    1.00
   2   2 -11    0.00    0.80
   2  -4 -11   -0.10    1.40
   4  -2  11    0.50    1.00
   4  -2 -11   -0.10    1.10
  -2   4 -11    0.40    0.90
   4  -2 -11    0.90    1.30
  -2   4  11   -0.40    0.80
   4  -2  11   -1.20    0.90
  -2   4 -11    0.00    0.90
  -4   3 -11    7.80    2.40
   4  -1  11    8.50    2.40
   4  -1  11    8.40    2.10
  -1   4 -11    5.80    2.00
   3   1 -11    7.80    2.00
   3   1 -11    5.90    2.20
   1   3  11    5.40    1.60
  -3   4  11    6.50    2.30
  -1   4 -11    5.30    1.60
   4  -3 -11    9.60    2.60
   1   3  11    6.90    2.20
  -4   3 -11    8.00    2.60
   4  -3 -11    8.80    2.90
  -3   4  11    5.30    1.90
   3  -4  11    5.80    2.10
   4  -1 -11    6.10    2.30
  -1   4  11    9.80    2.10
   3  -4 -11    5.30    2.30
  -3   4 -11    7.20    2.00
   3   1  11    7.30    1.90
   4  -3  11    7.10    2.50
   4  -3  11    7.60    2.10
   3   1  11    5.90    2.10
  -1   4  11    4.20    1.90
  -3   4 -11    5.80    2.20
   4  -1 -11    6.20    2.00
  -4   3  11    6.20    2.00
  -4   1 -11    7.50    2.40
   1   3 -11    7.10    1.60
   1   3 -11    3.50    1.70
   0   4  11   18.60    3.60
  -4   4 -11   18.00    3.30
   4   0 -11   11.90    2.50
   4   0 -11   15.60    3.50
   4  -4  11   15.60    3.20
   0   4 -11   19.40    3.50
  -4   4 -11   12.10    3.30
   0   4  11   18.10    3.00
   4   0  11   15.80    3.30
   4  -4 -11   20.10    3.90
   4   0  11   17.00    2.90
  -4   4  11   20.50    4.10
  -4   4  11   13.30    2.90
  -5   3 -11   10.60    2.90
   5  -2  11    8.70    2.70
   3   2 -11   11.50    2.00
   2   3  11   11.40    2.70
   3   2 -11    8.40    2.40
   2   3  11    8.20    1.90
   5  -3 -11    9.00    2.60
  -2   5 -11    8.90    2.40
  -3   5  11    9.40    2.20
   5  -3 -11   11.70    3.10
  -3   5  11    6.40    2.40
  -2   5 -11    9.40    2.10
   5  -2  11    9.20    2.40
   5  -3  11    9.60    2.80
   3   2  11   12.70    2.30
   5  -2 -11    9.80    2.50
   2   3 -11   10.40    2.50
  -2   5  11   15.30    3.30
   3  -5 -11   11.50    3.50
  -3   5 -11    7.00    2.20
   2   3 -11   12.60    1.70
   5  -3  11   13.50    2.90
  -5   3  11   15.80    3.30
  -2   5  11   10.30    2.30
  -3   5 -11    6.40    2.00
   5  -2 -11    8.00    2.70
   3   2  11    8.90    2.40
  -5   2 -11   12.30    3.10
  -4   5  11   -0.10    0.90
   4   1 -11    0.70    0.90
  -4   5  11   -0.20    0.90
   4   1 -11    0.20    1.20
  -5   4 -11   -0.20    1.00
   1   4  11   -0.20    1.00
  -1   5 -11    0.30    0.70
   5  -1  11   -0.50    1.00
   5  -1  11    0.90    1.10
  -1   5 -11    0.40    1.20
   5  -4 -11    1.30    1.70
   5  -4 -11   -0.40    1.20
   1   4  11    0.00    0.70
  -5   4 -11   -1.00    1.10
   1   4 -11    0.10    0.60
   4  -5 -11    0.30    1.30
  -4   5 -11   -0.10    1.00
  -4   5 -11    0.00    1.20
   5  -1 -11    0.60    1.10
   5  -4  11    0.40    1.20
   4   1  11    0.10    1.10
   5  -1 -11    0.10    1.30
  -1   5  11    0.40    1.10
  -5   4  11    0.20    0.90
  -1   5  11    0.20    0.90
   1   4 -11    1.00    1.10
   4   1  11    0.80    0.90
   5   0  11   19.70    3.90
   5  -5  11   17.30    3.70
   0   5 -11   16.30    2.20
   5   0 -11   22.90    2.90
   5  -5 -11   21.30    4.20
  -5   5 -11   15.90    3.30
   5   0  11   23.50    3.00
   0   5 -11   22.80    3.40
  -5   5 -11   23.30    4.40
   5   0 -11   21.60    4.00
   0   5  11   21.20    2.70
  -5   5  11   21.90    3.30
   0   5  11   19.50    3.70
   3   3 -11    0.30    0.30
   6  -3  11   -0.50    1.10
   6  -3 -11   -0.10    1.40
  -3   6  11    0.60    1.20
   3   3 -11    0.30    1.00
  -3   6  11    0.20    0.80
   6  -3 -11    0.10    1.20
   3   3  11   -0.40    0.70
   6  -3  11   -0.20    1.00
   3   3  11    0.60    1.20
  -6   3 -11   -0.70    1.20
  -3   6 -11    0.20    0.90
  -3   6 -11    0.50    1.20
  -2   6 -11   11.20    2.10
   6  -2  11    9.80    2.50
   4   2 -11   13.90    3.00
   2   4  11   15.20    3.10
   2   4  11   13.10    2.00
  -4   6  11   13.90    3.20
  -4   6  11   13.40    2.80
   4   2 -11   13.40    1.70
   6  -2  11   15.10    3.60
   6  -4 -11   12.90    3.50
   6  -4 -11   14.20    3.20
  -2   6 -11   13.20    2.90
  -6   4 -11   12.20    3.10
   6  -2 -11   12.90    2.80
  -2   6  11   13.20    2.30
  -2   6  11   15.00    3.20
   6  -4  11   15.80    3.20
   4   2  11   16.30    3.20
  -6   4  11   14.80    3.20
  -4   6 -11   12.40    2.50
   4   2  11   15.30    2.20
   2   4 -11   12.70    2.80
   6  -2 -11   11.30    3.20
  -4   6 -11   17.30    3.60
   6  -1  11   30.40    3.60
  -1   6 -11   25.20    2.70
   1   5  11   25.80    3.70
  -6   5 -11   28.10    4.00
  -5   6  11   29.40    5.10
   1   5  11   19.60    2.70
   5   1 -11   29.30    4.00
   5   1 -11   24.50    2.80
   6  -1  11   22.60    4.30
   6  -5 -11   24.90    4.50
  -5   6  11   24.50    3.60
   5   1  11   24.50    3.10
  -1   6  11   23.00    4.20
   6  -1 -11   27.70    4.90
   1   5 -11   23.00    3.40
  -1   6  11   24.10    3.10
  -6   5  11   28.90    4.10
   5   1  11   28.60    4.00
   6  -5  11   27.40    4.00
   5  -6 -11   16.00    4.10
   6  -1 -11   29.40    3.60
  -5   6 -11   26.90    4.80
  -6   6 -11    4.80    2.30
   0   6  11    2.90    1.60
   0   6 -11    2.80    1.50
   6   0 -11    2.80    1.20
   0   6  11    3.10    1.00
   6  -6 -11    5.70    2.40
  -6   6 -11    3.10    1.60
   6   0  11    3.00    1.30
   6   0  11    2.30    1.60
   6   0 -11    2.30    1.70
  -6   6  11    5.40    2.00
  -7   4 -11   31.60    4.50
  -3   7 -11   30.60    3.40
   4   3 -11   32.10    4.20
   7  -3  11   16.40    4.40
   3   4  11   32.70    4.10
   7  -4 -11   29.60    4.40
  -4   7  11   26.70    4.10
  -3   7 -11   33.40    4.30
   3   4  11   27.50    2.90
   7  -3  11   28.90    3.90
  -4   7  11   24.70    3.50
   7  -4 -11   37.20    6.20
   3   4 -11   25.00    3.70
  -3   7  11   25.00    4.60
  -4   7 -11   28.80    4.20
   7  -4  11   24.50    3.90
   4   3  11   32.10    4.10
   4   3  11   31.50    3.10
  -3   7  11   23.40    3.40
   7  -3 -11   30.80    4.10
   7  -3 -11   25.20    5.10
  -4   7 -11   33.20    3.70
  -2   7 -11   11.80    2.70
   7  -2  11   13.30    3.20
   7  -5 -11   12.40    3.20
   7  -2  11    5.30    1.90
  -2   7 -11   10.10    1.50
   5   2 -11   12.50    2.90
  -5   7  11    9.60    2.50
   2   5  11    7.60    2.30
   2   5  11    9.90    1.30
  -7   5 -11   11.30    2.90
  -5   7  11   12.70    3.30
   2   5 -11    8.20    2.30
   7  -5  11   11.20    2.80
  -5   7 -11    9.80    2.30
   7  -2 -11    9.30    3.00
  -2   7  11   12.10    2.80
  -5   7 -11    7.20    2.60
   5   2  11   10.30    2.80
  -7   5  11   15.60    3.30
   7  -2 -11    9.70    2.50
  -2   7  11    9.70    2.00
   6   1 -11    2.30    1.70
   1   6  11    3.80    1.70
  -7   6 -11    1.50    1.50
  -1   7 -11    2.10    1.50
   7  -1  11    0.50    1.40
  -6   7  11    2.20    1.40
   7  -1  11    3.70    1.50
   1   6  11    2.20    0.50
   7  -6 -11    3.00    1.90
   1   6 -11    2.30    1.40
  -6   7 -11    5.80    2.30
   7  -1 -11    2.20    1.20
  -1   7  11    2.20    0.90
   6   1  11    2.30    1.10
  -6   7 -11    3.70    1.60
   7  -6  11    2.60    1.80
  -7   6  11    2.50    1.70
  -1   7  11    4.20    1.90
   7  -1 -11    2.00    1.80
   6   1  11    3.20    1.80
  -7   7  11   17.50    3.50
   0   7 -11   12.90    2.70
   7   0 -11   13.60    1.80
  -7   7 -11   13.70    3.00
   7   0  11   11.20    3.00
   0   7  11   15.20    3.10
   7  -7 -11   16.20    3.90
   7   0 -11    7.40    2.60
   7   0  11   14.50    2.40
   8  -4  11    0.50    1.20
  -4   8  11    0.10    1.00
   4   4  11   -0.60    0.90
  -4   8 -11    0.20    0.80
   8  -4 -11    0.00    1.70
  -4   8  11    0.50    0.90
   8  -4 -11    0.20    1.30
  -4   8 -11   -1.30    0.80
   4   4 -11   -0.80    0.80
  -5   8  11    3.40    1.50
   8  -3  11    5.30    2.50
   3   5  11    5.90    1.90
  -3   8 -11    3.00    1.70
   8  -5 -11    4.50    2.10
   8  -3  11    4.60    1.80
  -3   8 -11    6.30    1.20
  -5   8  11    4.60    2.10
   5   3 -11    4.80    1.90
  -8   5 -11    6.40    2.40
  -5   8 -11    6.10    1.70
  -5   8 -11    6.10    2.30
  -3   8  11    5.10    1.50
   8  -3 -11    4.40    1.80
   8  -3 -11    4.60    2.40
   5   3  11    5.90    2.10
  -3   8  11    3.70    1.80
   3   5 -11    4.20    1.70
   8  -5  11    5.30    2.10
   6   2 -11   14.50    3.10
  -6   8  11   19.40    4.30
   8  -6 -11   11.10    3.20
  -8   6 -11   18.20    3.90
  -6   8  11   20.30    3.40
   8  -2  11   21.90    4.30
   8  -2  11   16.20    3.10
  -2   8 -11    9.70    2.70
   2   6  11    9.70    2.70
  -6   8 -11   14.60    2.90
   8  -2 -11   10.80    2.50
   2   6 -11   15.70    2.80
  -6   8 -11   22.20    4.30
   6   2  11   21.90    3.80
  -2   8  11   18.50    2.20
  -2   8  11   18.30    3.50
  -8   6  11   25.90    4.60
   8  -2 -11   16.70    4.00
   8  -6  11   16.70    3.70
   6   2  11   19.10    1.90
   8  -1  11    4.10    1.50
  -7   8  11    2.70    1.60
  -8   7 -11    3.70    1.90
   8  -7 -11    3.90    2.30
   8  -1  11    1.60    1.70
   7   1 -11    2.60    1.60
   1   7  11    1.80    1.40
  -1   8 -11    2.90    1.50
   7   1  11    4.10    1.10
  -7   8 -11    5.40    2.50
   1   7 -11    2.00    1.30
   8  -1 -11    3.40    1.90
   8  -1 -11    3.40    1.20
  -1   8  11    2.00    1.50
  -7   8 -11    1.70    1.40
  -8   7  11    2.60    1.80
   7   1  11    2.50    1.70
  -8   8  11    5.50    2.30
  -8   8 -11    5.80    2.20
   8   0  11   10.00    2.80
   8   0 -11    8.40    2.60
   0   8  11    7.30    2.20
   8   0  11    7.60    1.60
   0   8 -11    9.30    2.20
  -4   9 -11    2.30    0.90
   9  -4  11    3.60    1.70
  -5   9  11    2.20    1.30
   5   4 -11    2.60    1.40
   9  -4  11    2.10    2.20
   4   5  11    4.20    1.70
  -4   9 -11    4.30    2.00
  -5   9  11    2.30    1.70
   9  -5 -11    4.10    2.10
   9  -5 -11    5.60    3.40
  -4   9  11    3.10    1.20
   5   4  11    2.50    1.50
  -5   9 -11    5.90    2.30
  -5   9 -11    2.00    1.20
   4   5 -11    3.30    1.50
   9  -5  11    2.80    1.70
  -4   9  11    3.50    1.90
   9  -4 -11    4.00    1.90
   9  -4 -11    1.70    2.10
  -6   9  11   -0.10    0.90
   9  -6 -11    0.20    1.40
   3   6  11   -0.20    1.00
  -3   9 -11   -0.30    1.00
   9  -3  11    0.20    1.00
   9  -3  11    1.00    1.60
  -6   9  11   -0.20    1.50
   6   3 -11    0.40    1.10
   3   6 -11    0.00    0.90
  -6   9 -11    0.40    1.00
  -6   9 -11    1.60    1.60
   6   3  11    0.30    1.20
   9  -3 -11    0.80    1.60
  -3   9  11    0.80    0.70
   9  -6  11   -0.50    1.10
  -3   9  11    0.20    1.20
   9  -3 -11    0.20    1.10
   9  -7 -11   12.30    3.40
  -2   9 -11   11.60    2.70
   9  -2  11   13.80    2.70
   2   7  11   12.50    2.90
  -9   7 -11   17.00    3.70
   7   2 -11    7.80    2.40
  -7   9  11   12.90    2.90
   9  -2  11   13.90    3.50
   2   7 -11    9.40    2.10
   9  -7  11   12.60    3.30
   7   2  11   15.60    3.30
  -2   9  11    9.00    2.50
   9  -2 -11   12.80    3.40
  -7   9 -11   12.00    3.30
  -7   9 -11   11.80    2.60
   8   1 -11   24.60    4.40
   9  -8 -11   24.60    5.10
  -1   9 -11   24.30    3.40
  -8   9  11   29.50    4.10
   9  -1  11   22.90    4.40
  -9   8 -11   21.00    4.10
   1   8  11   25.80    3.70
   9  -1  11   23.40    3.10
  -1   9  11   30.50    3.90
  -8   9 -11   22.70    3.50
  -9   8  11   26.80    4.70
   1   8 -11   15.30    3.10
   8   1  11   27.30    4.60
   9  -1 -11   23.20    4.60
  -9   9  11   14.90    3.40
   9   0 -11   12.30    3.30
  -9   9 -11   10.10    2.70
   0   9 -11   12.80    2.50
   9   0  11    9.70    2.90
   9   0  11   13.70    2.00
   0   9  11   12.90    2.80
  10  -5 -11    0.20    1.40
  10  -5 -11   -0.40    1.60
   5   5 -11    0.40    1.00
  -5  10  11    0.00    0.80
  -5  10  11    0.70    1.30
  -5  10 -11    0.30    0.60
  10  -5  11    0.00    1.10
   5   5  11    0.20    1.10
  -5  10 -11    0.00    1.20
   4   6  11    4.10    1.70
  10  -6 -11    3.20    2.10
   6   4 -11    4.20    1.70
  10  -4  11    3.10    1.60
  -6  10  11    5.20    2.30
  -4  10 -11    3.70    1.80
  10  -4  11    5.00    2.60
  -6  10  11    3.40    1.40
  10  -4 -11    3.50    1.80
  -6  10 -11    4.80    2.20
  10  -4 -11    3.00    2.30
  -4  10  11    4.80    1.30
   4   6 -11    4.70    1.60
  -6  10 -11    5.80    1.50
  -4  10  11    5.60    2.20
  10  -6  11    6.60    2.40
   6   4  11    3.10    1.70
  10  -3  11    6.80    2.10
  10  -7 -11    8.80    2.90
   3   7  11   12.00    2.60
  -3  10 -11    7.20    2.30
  -7  10  11    6.60    2.80
  10  -3  11   11.50    3.50
   7   3 -11   13.30    2.80
  -7  10  11    4.60    1.80
   7   3  11   11.30    2.80
  10  -3 -11    8.80    3.20
  -7  10 -11   12.30    3.30
  -3  10  11   10.10    2.80
  10  -3 -11    9.10    2.20
  -7  10 -11    9.60    2.20
  10  -8 -11    2.70    2.20
  -2  10 -11    3.00    1.50
  10  -2  11    3.10    1.30
  10  -2  11    0.70    1.70
  -8  10  11    1.90    1.40
   8   2 -11    2.90    1.60
 -10   8 -11    2.70    1.80
   2   8  11    2.40    1.50
  10  -2 -11    2.60    1.00
   2   8 -11    1.80    1.10
  -8  10 -11    2.80    2.10
  -8  10 -11    1.90    1.30
   8   2  11    1.80    1.60
  10  -2 -11    1.80    1.90
  -2  10  11    1.90    1.40
   0   0  12 2139.69  167.78
   0   0 -12 1928.51  167.38
   0   0 -12 2128.19  168.08
   1  -1 -12  252.57   20.70
   0  -1 -12  179.58   20.50
   0   1 -12  222.28   20.20
  -1   0  12  271.57   20.40
  -1   0 -12  227.08   20.90
   1   0 -12  228.38   20.30
  -1   1  12  231.88   20.70
   0   1  12  222.08   20.00
   1   0 -12  217.88   20.70
   0   1 -12  232.58   20.70
   0  -1 -12  218.68   20.50
   1   0  12  241.68   20.70
   1  -1 -12  246.38   21.10
   1   0  12  257.37   20.30
  -1   1 -12  220.08   20.30
   0  -1  12  252.97   20.30
   0   1  12  194.18   20.30
   1  -1  12  229.18   20.20
  -1  -1  12  115.79   10.70
  -1  -1 -12  104.99   11.00
   1  -2  12   92.59   10.40
   1  -2 -12  123.29   11.20
   1   1 -12  103.89   10.40
  -1   2 -12  100.79   10.90
   1   1  12  106.59   10.40
  -2   1 -12  119.59   11.00
   2  -1 -12  118.79   11.40
   2  -1  12  128.89   10.80
  -1   2  12  108.29   10.90
   1   1 -12  103.39   10.90
  -1   2 -12  124.49   10.70
   2  -1  12  117.09   11.20
  -2   1 -12   95.69   11.00
   2  -1 -12  105.29   10.70
  -2   2 -12   68.59    7.90
   0   2 -12   76.19    7.50
  -2   2  12   51.89    7.60
  -2   2  12   82.89    7.70
   0   2 -12   63.69    7.70
   2   0 -12   67.99    7.50
  -2   2 -12   79.89    7.80
   0   2  12   68.89    7.70
   0   2  12   73.39    7.40
  -2   0  12   74.39    7.70
   2   0  12   78.49    7.60
   2  -2 -12   82.19    8.60
  -2   0 -12   87.19    8.30
   2   0 -12   81.69    8.30
   2  -2  12   75.79    7.80
   2  -2 -12   70.99    7.90
   2   1 -12  107.69   10.60
  -2   3  12  109.09   10.70
   3  -1  12   93.59   10.00
   3  -2 -12  118.29   10.60
   1   2  12  110.49    9.90
   1  -3 -12  112.19   10.90
   3  -2 -12  107.29   10.90
   2   1 -12  109.39   10.00
  -3   1  12  104.39   10.30
  -2   3  12  112.29   10.00
  -1   3 -12   81.49    9.60
  -3   2 -12   92.19   10.50
   2  -3  12  108.79   10.40
  -2  -1 -12   94.39   10.60
  -1   3 -12   98.29   10.40
   1   2  12   98.89   10.30
  -3   1 -12  102.69   10.50
  -2   3 -12  104.49   10.10
   3  -1 -12  105.19   10.30
   1   2 -12  116.39    9.90
   2   1  12  103.59   10.50
  -1   3  12  121.59   10.10
   2   1  12  117.99   10.10
   2  -3 -12  106.59   10.70
   3  -2  12  111.49   10.30
  -3   2  12  106.99   10.20
   1   2 -12   89.49   10.20
   3  -2  12   90.89   11.00
   3  -1 -12   97.19   10.60
   3  -3  12   57.59    6.00
   0   3 -12   54.79    5.40
  -3   0 -12   46.40    6.10
   0   3 -12   44.00    5.70
  -3   3 -12   43.50    5.90
   3   0  12   52.89    5.50
   3   0 -12   47.20    5.40
   0   3  12   56.09    6.00
   0   3  12   53.99    5.50
   3  -3 -12   49.50    6.00
   3   0  12   44.10    5.80
   3   0 -12   50.69    6.10
  -3   3  12   31.00    6.40
  -3   3  12   37.20    5.20
  -3   3 -12   50.59    5.70
  -4   2 -12 1026.70   88.09
   2   2 -12 1166.18   87.29
   4  -2  12 1004.20   87.59
   2   2  12 1153.68   88.29
   4  -2 -12 1061.89   88.59
   2  -4 -12 1091.39   88.59
  -4   2  12  997.80   87.79
   2   2 -12 1029.70   87.99
  -2   4 -12 1038.70   87.39
  -2   4  12 1049.99   87.49
  -2   4  12 1160.98   88.39
   4  -2  12 1164.38   88.59
  -2   4 -12  995.80   87.99
   4  -1  12  122.39   12.70
   1   3  12  135.49   12.00
  -1   4 -12  133.19   11.90
   4  -3 -12  144.29   13.40
  -1   4 -12  116.59   12.50
   3   1 -12  135.99   12.90
   1   3  12  145.99   12.80
   3   1 -12  148.69   12.20
  -4   3 -12  121.89   12.50
   4  -3 -12  117.39   12.60
   3  -4 -12  135.29   13.10
  -1   4  12  122.69   12.00
  -1   4  12  132.19   12.80
   1   3 -12  131.69   11.80
   1   3 -12  145.79   12.80
  -3   4 -12  129.99   12.30
  -3   4 -12  156.88   13.20
   4  -1 -12  129.19   13.00
   3   1  12  134.69   12.10
   4  -3  12  118.79   12.40
   4   0  12   80.39    8.50
  -4   4 -12   88.69    9.50
   4   0 -12   94.09    9.50
   4  -4  12   89.89    9.20
   0   4  12   94.29    8.60
   4  -4 -12   70.59    9.10
   4   0 -12   91.69    8.70
   0   4 -12  103.39    9.40
   0   4  12   89.09    9.10
  -4   4 -12   82.49    8.90
   0   4 -12   95.79    8.30
   4   0  12   89.99    9.30
  -4   4  12   91.69    9.00
  -2   5 -12  160.68   14.10
   5  -3 -12  142.59   14.50
  -5   3 -12  156.48   14.20
   5  -2  12  160.48   13.70
   2   3  12  146.89   13.90
   2   3  12  158.38   13.10
   3   2 -12  149.59   13.90
  -2   5 -12  155.18   13.20
  -3   5  12  145.29   13.30
   3   2 -12  142.79   12.90
   5  -2  12  147.19   14.30
   5  -3 -12  148.69   14.00
   2   3 -12  149.09   12.80
   3   2  12  147.09   13.90
   5  -2 -12  143.09   14.30
  -2   5  12  129.69   13.80
   3   2  12  174.58   13.30
  -3   5 -12  143.69   14.00
  -3   5 -12  130.99   13.20
  -5   2 -12  127.89   13.90
  -5   3  12  153.48   14.00
   5  -2 -12  128.69   13.50
   5  -3  12  140.19   13.70
  -2   5  12  152.68   13.30
   4   1 -12   33.30    4.60
  -5   4 -12   21.10    4.30
   1   4  12   37.90    3.90
   5  -1  12   31.10    4.00
  -1   5 -12   36.60    3.70
  -4   5  12   29.20    4.00
   5  -1  12   23.30    4.60
  -1   5 -12   30.40    4.30
   1   4  12   34.70    4.40
   4   1 -12   26.60    3.50
   5  -4 -12   30.10    5.20
   4   1  12   34.00    4.50
  -5   4  12   32.30    4.30
   1   4 -12   30.00    4.20
  -1   5  12   31.30    4.40
  -1   5  12   28.70    3.70
   4  -5 -12   31.50    5.50
   5  -1 -12   37.30    4.30
  -4   5 -12   28.50    4.30
   5  -1 -12   33.60    4.80
  -4   5 -12   28.80    4.00
   4   1  12   33.60    3.90
   1   4 -12   25.70    3.20
   5  -4  12   26.50    4.20
   5   0  12   11.00    3.00
  -5   5 -12   10.50    3.10
   5   0 -12    9.30    2.70
   0   5  12   10.80    2.70
   5   0  12    9.50    2.20
   0   5 -12    9.30    1.70
   0   5 -12    9.00    2.50
  -5   5 -12    4.30    1.90
   5  -5 -12   11.90    3.30
   0   5  12   13.40    2.30
   5   0 -12    9.20    2.10
  -5   5  12    9.90    2.60
   5  -5  12   10.80    2.90
  -3   6 -12   48.80    5.80
  -3   6  12   42.00    5.70
  -3   6  12   44.80    5.10
   6  -3 -12   38.50    6.10
  -3   6 -12   48.00    5.10
   3   3  12   43.00    5.50
   3   3 -12   49.90    4.30
   3   3 -12   56.89    5.90
  -6   3 -12   48.20    6.10
   6  -3  12   36.00    5.20
   6  -3 -12   45.80    5.60
   4   2 -12   91.59    9.90
   6  -4 -12  103.99   10.30
  -6   4 -12  104.29   10.20
   2   4  12   95.19    9.00
   2   4  12  109.39   10.20
  -4   6  12  103.99    9.60
   6  -4 -12  118.49   12.30
   4   2 -12  100.39    8.70
   6  -2  12   95.09    9.60
  -2   6 -12   91.09    9.80
   6  -2  12   82.49   10.10
  -4   6 -12   98.89    9.50
   6  -4  12  106.99   10.10
   6  -2 -12  101.79    9.80
  -4   6 -12   90.39   10.20
   6  -2 -12   84.19   10.20
   4   2  12  110.69    9.30
  -2   6  12  100.89    9.30
   2   4 -12   97.89    9.80
  -6   4  12  114.59   10.60
   2   4 -12   96.69    8.30
   5   1 -12   92.49    8.10
   6  -5 -12   88.79    9.50
  -5   6  12   94.39    9.00
   1   5  12   80.09    8.00
   6  -1  12   89.69    8.70
   5   1 -12   66.29    8.80
   1   5  12   90.79    9.10
  -6   5 -12   88.89    9.10
  -1   6 -12   73.49    8.70
   6  -1  12   95.59    9.60
  -1   6 -12   96.79    7.90
  -5   6 -12   93.79    8.90
   6  -1 -12   98.29    8.80
   5   1  12   87.69    9.20
  -1   6  12   98.39    8.40
  -6   5  12   89.69    9.30
   6  -1 -12   98.39    9.70
   5   1  12   97.89    8.50
   6  -5  12   80.19    9.20
   1   5 -12   89.79    9.00
  -5   6 -12   68.39    9.10
   6   0 -12  393.66   33.30
   6   0  12  326.17   32.90
   6  -6 -12  422.66   33.90
   0   6 -12  379.56   32.70
   0   6  12  375.36   32.80
   6   0  12  417.76   32.40
  -3   7 -12   31.00    4.40
   7  -4 -12   29.60    4.50
   4   3 -12   35.40    4.40
  -4   7  12   22.50    3.60
  -3   7 -12   31.60    3.50
  -4   7  12   23.30    4.70
   3   4  12   38.00    4.50
   3   4  12   29.10    3.10
   7  -4 -12   32.00    5.90
   7  -3  12   32.00    4.20
  -7   4 -12   35.00    4.90
   7  -3  12   39.90    5.40
   3   4 -12   29.40    4.10
  -4   7 -12   29.70    3.70
   7  -3 -12   30.30    4.30
   7  -3 -12   23.70    5.20
   4   3  12   18.90    4.00
  -4   7 -12   27.50    4.30
   4   3  12   35.20    3.40
   7  -4  12   24.50    4.00
  -3   7  12   26.10    4.90
  -3   7  12   35.20    3.80
   7  -5 -12    4.30    2.10
   2   5  12    2.00    1.60
   2   5  12    3.50    1.00
   7  -2  12    1.80    1.80
  -2   7 -12    2.30    0.90
   7  -2  12    1.60    1.20
  -5   7  12    1.80    1.50
  -2   7 -12    2.10    1.60
  -7   5 -12    3.10    1.90
  -5   7  12    3.00    1.50
   5   2 -12    2.60    1.60
  -2   7  12    3.10    1.70
   5   2  12    0.80    0.80
   2   5 -12    1.60    1.40
  -2   7  12    2.80    1.20
   7  -5  12    3.10    1.80
   7  -2 -12    3.10    1.60
   5   2  12    3.50    1.80
   7  -2 -12    1.80    1.80
  -5   7 -12    2.90    1.40
  -5   7 -12    1.60    1.80
   1   6  12   29.80    4.30
   6   1 -12   33.30    3.10
  -1   7 -12   32.00    4.40
   7  -6 -12   30.30    5.50
   7  -1  12   32.90    4.10
   1   6  12   33.10    3.20
  -7   6 -12   35.80    4.70
   7  -1  12   33.20    4.90
  -6   7  12   36.90    4.50
   6   1 -12   32.80    4.60
   7  -1 -12   34.30    5.10
  -7   6  12   36.60    4.90
  -6   7 -12   31.50    4.30
   6   1  12   30.20    4.60
   6   1  12   34.00    3.80
   7  -6  12   33.80    4.80
  -6   7 -12   33.30    5.00
  -1   7  12   37.90    4.70
   1   6 -12   24.20    4.00
   7  -1 -12   40.20    4.10
  -1   7  12   29.00    3.50
   0   7  12   71.59    6.40
  -7   7  12   58.09    7.70
   7   0  12   76.09    7.30
   7   0 -12   78.29    6.80
   7   0 -12   82.29    8.40
   0   7 -12   79.39    7.70
   0   7  12   57.99    7.50
   7   0  12   76.89    8.30
   7  -7 -12   93.19    9.20
  -7   7 -12   81.49    8.10
   4   4  12  302.17   23.90
  -4   8  12  272.57   23.10
   8  -4  12  293.27   23.80
   8  -4 -12  285.37   24.00
  -4   8 -12  259.67   23.90
   4   4 -12  233.98   23.30
   8  -4 -12  249.58   24.70
  -4   8  12  271.97   24.20
  -3   8 -12   48.80    6.00
   8  -5 -12   58.19    6.50
  -3   8 -12   49.20    4.80
  -5   8  12   33.00    5.80
   3   5  12   38.60    5.50
   8  -3  12   56.89    5.90
  -5   8  12   46.50    5.40
   8  -3  12   55.69    6.80
   5   3 -12   52.09    5.90
  -5   8 -12   50.69    6.20
  -3   8  12   59.39    5.40
  -3   8  12   56.99    6.40
   8  -5  12   45.70    5.90
   5   3  12   54.09    4.40
   3   5 -12   47.00    5.60
   8  -3 -12   50.69    5.80
   8  -3 -12   49.40    6.70
  -5   8 -12   43.90    5.20
  -8   6 -12  104.89    9.90
   8  -2  12   98.19    8.90
   8  -2  12  101.69   10.20
   6   2 -12   86.09    9.20
   2   6  12   96.49    9.30
   8  -6 -12  101.19   10.00
  -6   8  12   82.49    8.90
  -2   8 -12   97.49    9.30
   2   6 -12   85.79    8.80
  -2   8  12   88.39    8.10
   6   2  12   72.79    9.00
   8  -2 -12   91.59    9.90
   6   2  12   93.39    8.00
  -6   8 -12   73.09    8.50
   8  -6  12   90.59    9.50
   8  -2 -12   94.49    8.80
  -2   8  12   92.79    9.40
   7   1 -12    6.20    2.30
   1   7  12    6.20    2.10
   8  -1  12    8.30    2.80
  -1   8 -12    9.70    2.40
   8  -7 -12    9.40    3.10
  -8   7 -12    6.40    2.40
  -7   8  12    6.30    2.30
   8  -1  12    9.20    2.10
  -1   8  12   11.40    2.80
   7   1  12   10.60    3.00
  -7   8 -12    8.60    2.40
   1   7 -12   11.10    2.50
  -8   7  12   11.20    3.10
   7   1  12    6.50    1.50
  -1   8  12    8.00    1.10
   8  -1 -12    8.80    2.90
   8  -1 -12   12.40    2.10
   0   8  12   74.09    7.80
   8   0 -12   77.39    8.40
  -8   8 -12   83.89    8.20
  -8   8  12   70.09    8.20
   0   8 -12   78.79    7.70
   8   0  12   69.09    8.30
  -4   9 -12   34.80    4.60
   9  -5 -12   37.30    4.90
   9  -4  12   35.40    4.40
  -5   9  12   30.00    3.80
   5   4 -12   30.30    4.10
  -5   9  12   35.00    5.00
   4   5  12   32.80    4.30
   9  -5  12   30.60    4.40
   5   4  12   21.10    4.20
  -4   9  12   32.80    4.70
   9  -4 -12   15.40    4.70
   4   5 -12   41.10    4.40
   9  -4 -12   26.70    4.10
  -5   9 -12   24.10    3.40
  -5   9 -12   26.30    4.90
  -4   9  12   32.40    3.70
  -6   9  12    1.60    1.30
   9  -6 -12    0.40    1.60
   6   3 -12    1.50    1.30
  -6   9  12    1.10    1.40
   9  -3  12    1.30    1.50
   9  -3  12    1.40    1.30
  -3   9 -12    1.30    1.30
   3   6  12    0.20    1.00
   3   6 -12   -0.50    0.90
  -6   9 -12    1.90    1.80
   9  -6  12    2.30    1.70
   9  -3 -12    1.30    1.30
  -3   9  12    0.50    0.70
   6   3  12    0.10    1.10
  -6   9 -12    0.20    1.00
   9  -3 -12    1.40    1.90
  -3   9  12    0.30    1.30
   9  -2  12    3.90    1.60
   9  -7 -12    4.50    2.40
  -7   9  12    2.00    1.50
   2   7  12    7.10    2.40
   7   2 -12    4.50    1.90
   9  -2  12    6.60    2.70
  -9   7 -12    3.80    2.10
  -2   9 -12    2.70    1.60
   2   7 -12    5.70    1.80
   9  -7  12    2.10    1.80
   9  -2 -12    4.10    2.30
  -7   9 -12    3.30    1.50
  -2   9  12    3.50    1.90
   7   2  12    5.00    2.10
  -7   9 -12    5.40    2.50
  -8   9  12   41.60    5.50
   9  -8 -12   40.90    6.40
   9  -1  12   40.30    4.80
   9  -1  12   54.29    6.50
   8   1 -12   48.50    5.90
   1   8  12   43.20    5.50
  -1   9 -12   48.70    5.30
  -9   8 -12   38.50    5.50
   1   8 -12   52.49    5.30
  -8   9 -12   49.60    5.60
   9  -1 -12   51.69    6.30
  -9   8  12   43.40    6.00
   8   1  12   56.19    6.30
  -1   9  12   46.00    5.60
  -5  10 -12   17.10    3.60
  10  -5  12   17.10    3.50
  -5  10  12   18.20    4.00
  -5  10  12   12.70    2.40
  -5  10 -12   14.70    2.00
   5   5 -12   15.70    2.90
  10  -5 -12   22.10    4.10
   5   5  12   13.20    3.00
  10  -6 -12   67.69    7.40
   4   6  12   72.29    6.90
   6   4 -12   67.39    6.60
  10  -4  12   68.29    6.70
  -4  10 -12   53.79    6.60
  -6  10  12   63.29    6.30
  -6  10  12   68.59    7.60
  -6  10 -12   65.39    7.30
  10  -4 -12   43.20    6.20
  -6  10 -12   47.60    5.70
  -4  10  12   62.19    7.10
   4   6 -12   58.59    6.10
  -4  10  12   51.29    5.60
  10  -4 -12   63.89    8.00
   0   0 -13    0.80    1.50
   0   0 -13   -0.40    0.90
   0   0  13   -0.50    1.00
  -1   1 -13    1.00    1.40
   0  -1  13    1.70    1.40
  -1   1 -13    1.30    1.40
  -1   0 -13    0.90    1.40
   1   0  13    2.40    1.50
   1  -1  13    1.00    1.30
   0   1  13    0.80    1.30
   0   1 -13    3.20    2.00
   1  -1 -13    2.70    1.70
   0  -1 -13    2.70    1.70
   1  -1 -13    0.30    1.30
  -1   1  13    0.90    1.20
   1   0 -13   -0.20    1.00
   0   1 -13    1.40    1.40
  -1   0  13    2.10    1.40
   1   0 -13    1.10    1.40
   0   1  13    1.30    1.40
   1   0  13    0.20    1.40
   2  -1  13   -0.40    1.00
   2  -1 -13   -0.80    1.00
  -1   2 -13    0.30    1.30
  -1  -1 -13   -0.90    1.20
   1   1  13   -0.10    1.30
  -1   2 -13   -0.10    0.90
  -1   2  13   -0.50    0.90
   1  -2 -13   -0.50    1.30
  -2   1 -13    0.20    1.20
   2  -1 -13    0.20    1.50
   1   1 -13    0.30    1.30
   1  -2  13    0.10    1.20
   1   1  13    0.20    1.00
   1   1 -13   -0.60    1.00
  -1   2  13   -0.10    1.20
  -2   1  13   -0.10    1.00
   2  -2 -13   22.30    4.50
  -2   2 -13   21.60    4.50
   0   2 -13   28.80    4.40
   0  -2 -13   22.30    4.60
  -2   0 -13   34.30    4.60
   2   0 -13   24.60    3.80
   2   0  13   33.40    4.60
   2   0 -13   24.80    4.80
  -2   2  13   31.00    3.90
   0   2  13   21.00    3.90
  -2   2 -13   24.70    3.90
   0   2  13   28.10    4.90
   2   0  13   33.30    4.00
  -2   3  13    1.00    1.50
  -3   2 -13    3.20    1.70
   3  -2 -13    1.90    1.70
  -2   3  13    1.80    1.30
   3  -1  13    1.90    1.80
   1   2  13    1.90    1.70
   2   1 -13    1.50    1.20
  -1   3 -13    2.80    1.70
   3  -2 -13    2.00    1.90
   1  -3 -13    1.20    1.70
   1   2  13    1.00    1.10
  -1   3 -13    1.80    1.40
   2   1 -13    1.60    1.60
   3  -1  13    2.50    1.50
   2   1  13    3.40    1.90
   2  -3 -13    1.90    1.70
   1   2 -13    1.80    1.20
   1   2 -13    1.00    1.70
   3  -1 -13    2.10    1.60
  -1   3  13    4.20    1.60
  -1   3  13    3.70    1.90
  -2   3 -13    2.40    1.50
   3  -1 -13    3.70    2.10
   2   1  13    1.50    1.30
  -3   2  13    4.70    1.80
   3  -2  13    3.20    1.70
  -2   3 -13    1.30    1.60
  -3   1 -13    1.90    1.60
   0   3  13   18.50    3.30
   3  -3 -13   15.30    3.80
   0   3  13   22.90    4.10
   3   0 -13   18.40    3.40
   0   3 -13   18.00    3.90
   3   0  13   15.50    3.20
   3   0  13   22.70    4.20
  -3   3 -13   20.80    4.30
   0   3 -13   17.30    3.10
   3   0 -13   18.10    3.90
  -3   3  13   22.60    3.30
  -3   3 -13   19.50    3.80
   3  -3  13   26.50    3.80
   2   2  13   -1.10    1.00
  -2   4 -13    0.20    1.30
   2   2  13    0.60    1.00
  -4   2 -13   -0.90    1.00
   4  -2 -13    0.10    1.20
   2   2 -13    0.40    1.30
   4  -2 -13    1.40    1.70
  -2   4 -13   -0.50    0.80
   4  -2  13   -0.50    1.00
  -2   4  13    0.30    1.00
   2   2 -13   -0.20    0.80
  -2   4  13    0.10    1.30
  -1   4 -13    7.80    1.90
   3   1 -13    8.20    2.20
   4  -1  13   10.40    3.00
   1   3  13    5.50    2.20
   3   1 -13    6.20    2.40
   1   3  13    5.40    1.70
  -1   4 -13    2.00    1.70
   4  -1  13    9.40    2.40
   4  -3 -13    6.60    2.50
  -4   3 -13    3.80    2.00
  -3   4  13    7.30    2.20
   1   3 -13    7.80    1.90
  -4   3  13    7.20    2.30
  -1   4  13    8.80    2.80
   3  -4 -13    5.40    2.50
   3   1  13    7.00    2.50
   4  -1 -13    6.20    2.40
  -1   4  13    8.40    2.10
   4  -3  13    7.60    2.40
   3   1  13    5.50    1.80
  -3   4 -13    4.00    1.70
  -3   4 -13    7.50    2.50
   1   3 -13    3.80    1.90
   4  -1 -13    6.80    2.20
  -4   4 -13   21.40    4.60
   4   0 -13   24.10    3.50
   4   0 -13   28.30    4.90
   0   4  13   26.70    4.00
  -4   4  13   31.00    4.00
  -4   4 -13   27.10    3.90
   4   0  13   23.10    3.50
   4  -4 -13   16.10    4.10
   4  -4  13   27.60    4.70
   0   4 -13   25.50    4.00
   0   4  13   26.20    3.50
   4   0  13   30.00    5.10
   0   4 -13   27.80    3.30
   3   2 -13   -0.30    1.20
   3   2 -13    0.60    0.90
   5  -2  13    0.60    1.20
  -5   3 -13    2.30    1.70
   5  -3 -13    1.50    1.60
   5  -2  13   -0.80    1.30
   2   3  13    1.20    1.00
   5  -3 -13    1.60    1.70
  -3   5  13    0.70    1.10
  -3   5  13    2.10    1.70
  -2   5 -13    1.80    1.70
   2   3  13    0.70    1.40
  -2   5 -13    0.70    0.90
   3   2  13    1.20    1.10
  -3   5 -13    1.10    1.50
   3   2  13    2.30    1.60
   5  -3  13    1.40    1.30
  -3   5 -13    1.00    1.20
  -2   5  13    0.00    0.80
   5  -2 -13    1.60    1.50
   5  -2 -13   -0.30    1.50
   2   3 -13    0.30    0.80
   2   3 -13    1.10    1.40
  -2   5  13    0.20    1.00
   5  -4 -13   17.60    3.80
  -5   4 -13   12.00    3.10
  -1   5 -13    9.50    2.10
   1   4  13    9.60    2.20
  -1   5 -13   11.90    2.90
   5  -1  13   14.60    3.50
   5  -1  13   18.70    3.30
   4   1 -13   15.00    2.60
   1   4  13   16.80    3.50
  -4   5  13   14.60    3.00
   4   1 -13   19.50    3.90
   4   1  13   12.20    3.10
   1   4 -13   11.70    2.90
   4   1  13   14.40    2.70
   5  -4  13   14.20    3.20
  -4   5 -13   15.70    3.70
   4  -5 -13   17.90    4.00
  -1   5  13   13.70    3.30
   1   4 -13   11.50    2.00
   5  -1 -13   14.40    3.60
  -4   5 -13   14.20    2.90
  -5   4  13   13.10    3.10
   5  -1 -13    5.90    2.10
  -1   5  13   11.00    2.40
   5  -5 -13    1.20    1.60
   0   5 -13    1.90    0.90
   0   5  13    2.10    1.20
   5   0  13    2.80    1.80
  -5   5 -13    1.70    1.40
  -5   5  13    1.80    1.50
   5   0  13    1.20    1.20
   0   5  13    0.50    1.20
   5   0 -13    0.40    1.10
   5   0 -13    3.20    1.90
   0   5 -13    0.40    1.10
  -3   6  13   -0.50    0.90
   3   3 -13   -0.30    1.00
   6  -3 -13   -0.70    1.10
   3   3 -13    0.10    0.60
   6  -3 -13    1.20    1.60
   3   3  13   -0.60    1.10
  -3   6  13   -0.10    1.40
  -3   6 -13    0.10    1.30
   3   3  13    0.20    0.90
   6  -3  13   -0.40    1.10
  -3   6 -13    1.00    1.00
  -2   6 -13    4.10    1.90
  -4   6  13    4.70    1.70
  -4   6  13    1.50    1.80
   2   4  13    6.50    2.30
   6  -4 -13    6.20    2.40
   2   4  13    4.50    1.40
   4   2 -13    5.40    1.30
  -6   4 -13    5.50    2.20
   6  -2  13    4.60    1.90
   4   2 -13    5.80    2.30
   6  -2  13    4.40    2.30
  -2   6 -13    4.70    1.50
   4   2  13    5.60    1.60
  -4   6 -13    3.80    1.60
   2   4 -13    3.20    1.80
   6  -2 -13    5.50    2.00
  -2   6  13    4.40    2.10
   6  -4  13    8.90    2.60
  -4   6 -13    4.30    2.20
   6  -2 -13    3.00    2.10
   2   4 -13    2.50    0.80
  -2   6  13    5.50    1.70
   4   2  13    4.50    2.10
   6  -1  13   28.80    3.80
   5   1 -13   29.40    3.30
  -1   6 -13   27.50    4.10
   6  -1  13   31.50    4.70
   1   5  13   30.30    3.30
   6  -5 -13   20.40    4.60
  -6   5 -13   19.50    4.10
   5   1 -13   21.50    4.40
   1   5  13   29.80    4.30
  -5   6  13   20.60    3.90
   6  -5  13   22.20    4.50
   6  -1 -13   27.70    3.70
  -1   6  13   23.80    3.30
   1   5 -13   29.50    2.60
  -5   6 -13   28.80    5.20
  -1   6  13   35.50    4.50
  -6   5  13   27.50    4.20
  -5   6 -13   24.10    3.70
   5   1  13   33.70    3.70
   5   1  13   33.30    4.50
   1   5 -13   26.40    4.00
   6  -1 -13   17.20    4.30
   0   6  13   16.20    2.30
   0   6 -13   11.80    3.00
  -6   6  13   15.30    3.40
   6   0  13   13.30    2.80
  -6   6 -13   12.30    3.00
   6   0 -13   11.10    3.20
   0   6  13   17.50    3.40
   6  -6 -13   17.80    4.30
   6   0 -13   14.60    2.50
   6   0  13   19.20    4.00
  -3   7 -13    4.60    2.00
   3   4  13    5.40    2.10
   7  -3  13    3.50    1.70
  -3   7 -13    1.10    1.00
  -4   7  13    3.50    2.20
   7  -4 -13    2.50    1.70
   4   3 -13    3.10    1.70
  -4   7  13    6.20    1.90
   3   4  13    4.10    1.20
  -3   7  13    2.60    1.30
   4   3  13    4.80    2.00
   3   4 -13    2.60    1.70
   7  -3 -13    3.90    1.90
  -3   7  13    4.90    2.20
  -4   7 -13    3.10    1.40
   7  -4  13    3.70    1.90
   7  -3 -13    3.70    2.40
   4   3  13    1.70    1.00
  -4   7 -13    5.10    2.30
   5   2 -13    9.10    2.70
  -2   7 -13   13.80    3.10
   7  -5 -13    7.70    2.70
   2   5  13   10.10    1.70
  -7   5 -13    9.30    2.80
   7  -2  13    8.70    3.00
  -2   7 -13    6.90    1.50
   2   5  13    5.60    2.30
  -5   7  13    7.30    2.20
   7  -2  13    7.30    2.20
   7  -2 -13    7.40    2.80
   2   5 -13   10.90    2.70
   7  -5  13   12.00    3.10
  -2   7  13   11.10    3.10
   5   2  13    6.70    1.70
   5   2  13    9.70    2.90
  -5   7 -13    4.50    1.80
   7  -2 -13    7.80    2.20
  -5   7 -13    6.60    2.70
  -2   7  13    8.30    2.00
   6   1 -13   12.40    3.20
  -7   6 -13   10.50    2.90
   7  -1  13   13.60    3.60
   7  -6 -13    9.40    3.30
   1   6  13   10.10    1.70
  -1   7 -13   12.50    2.90
  -6   7  13    9.70    2.70
   6   1 -13   11.00    1.50
   7  -1  13   10.50    2.40
   1   6  13   10.40    2.80
   1   6 -13    7.40    2.30
  -7   6  13   13.30    3.30
  -6   7 -13   10.70    2.70
  -1   7  13   11.90    2.10
   6   1  13   11.50    2.30
  -1   7  13    5.80    2.30
   7  -1 -13    9.80    2.20
   7  -1 -13    9.10    3.00
   6   1  13   11.00    3.00
   0   7 -13   10.80    2.60
   0   7  13    8.20    1.50
   0   7  13    8.60    2.60
  -7   7  13   11.90    3.00
   7   0  13    8.10    2.80
   7   0 -13    9.60    2.90
   8  -4 -13    1.00    3.10
  -4   8 -13   -0.80    1.20
   4   4 -13    0.40    1.30
   8  -4  13    0.00    1.30
   8  -4 -13    0.40    1.40
  -4   8  13    0.70    1.10
  -4   8 -13    0.30    0.80
   4   4  13    0.00    0.40
  -4   8  13    0.10    1.20
   4   4  13    0.10    1.20
   8  -3  13   28.00    3.90
  -5   8  13   18.80    3.60
   3   5  13   34.10    4.40
  -3   8 -13   23.00    4.40
  -3   8 -13   28.90    3.10
   8  -5 -13   29.30    5.10
  -5   8  13   31.50    5.50
   5   3 -13   27.10    4.10
  -3   8  13   28.10    5.00
  -5   8 -13   25.30    4.90
   3   5 -13   33.90    4.30
   8  -3 -13   24.70    5.30
   8  -3 -13   31.00    4.20
  -3   8  13   28.70    3.50
   8  -5  13   27.30    4.80
  -5   8 -13   32.40    3.70
   5   3  13   25.50    2.90
   5   3  13   27.70    4.20
   8  -2  13    9.70    2.40
   8  -6 -13    9.10    3.10
  -8   6 -13   10.40    3.00
  -6   8  13   13.80    2.90
  -2   8 -13    8.90    2.50
   2   6  13   11.90    2.90
   8  -2  13   12.20    3.50
   6   2 -13   11.00    3.00
   8  -2 -13    5.70    2.00
   8  -6  13    7.40    2.70
  -6   8 -13   13.90    3.60
  -2   8  13   12.40    2.10
   6   2  13   15.40    3.40
  -6   8 -13    6.60    2.10
  -2   8  13   14.00    3.40
   2   6 -13    9.60    2.40
   8  -2 -13   12.70    3.60
   8  -1  13    6.30    1.80
   8  -7 -13    4.70    2.60
   1   7  13    6.60    2.30
  -1   8 -13    3.30    1.80
  -8   7 -13    0.40    1.40
   7   1 -13    5.30    2.20
   8  -1  13    6.10    2.50
  -7   8  13    4.00    1.90
   8  -1 -13    5.40    1.50
   8  -1 -13    8.00    2.80
  -7   8 -13    7.60    2.30
   7   1  13    3.10    2.00
   1   7 -13    6.80    2.00
  -1   8  13    4.40    1.00
  -8   7  13    4.20    2.30
  -1   8  13    6.80    2.30
   7   1  13    6.00    1.50
   8   0 -13    3.00    2.00
  -8   8  13    2.20    1.70
  -8   8 -13    2.90    1.60
   8   0  13    1.60    1.10
   0   8  13    3.50    1.80
   0   8 -13    1.40    1.30
   8   0  13    0.20    1.40
   9  -5 -13    9.40    2.80
   4   5  13    5.10    2.10
   9  -4  13    7.10    2.40
  -5   9  13    6.20    1.90
  -4   9 -13    7.70    2.60
   5   4 -13    1.80    1.50
  -5   9  13    5.60    2.60
   9  -4 -13    3.90    2.70
  -5   9 -13    6.30    1.60
  -4   9  13    4.10    2.20
   9  -5  13    9.40    2.70
   4   5 -13    7.10    2.20
   5   4  13    8.70    2.50
  -4   9  13    7.10    1.80
   9  -4 -13    7.20    2.50
  -5   9 -13    6.70    2.60
   6   3 -13    4.10    1.90
   3   6  13    3.60    1.90
   9  -6 -13    2.60    2.00
  -3   9 -13    1.80    1.60
   9  -3  13    4.30    1.90
  -6   9  13    3.30    1.60
   9  -6  13    2.80    1.80
  -6   9 -13    3.40    1.40
   9  -3 -13    3.10    1.60
  -3   9  13    3.20    1.20
  -6   9 -13    4.60    2.40
   6   3  13    3.20    1.80
  -3   9  13    1.80    1.80
   9  -3 -13    2.50    2.20
   3   6 -13    2.40    1.50
   2   7  13    0.30    1.20
   7   2 -13    0.30    1.20
  -2   9 -13    0.40    1.30
  -9   7 -13    0.80    1.50
  -7   9  13    1.20    1.30
   9  -2  13    0.10    1.10
   9  -7 -13    1.20    1.80
   9  -2  13   -1.10    1.60
   7   2  13   -0.30    1.10
   9  -7  13   -0.70    1.30
   9  -2 -13    0.30    1.60
   2   7 -13    0.20    1.40
  -2   9  13    0.90    1.30
   9  -2 -13    0.70    1.00
  -7   9 -13   -0.50    1.00
  -2   9  13    0.40    0.50
   0   0 -14    7.70    2.50
   0   0  14    6.70    2.20
   1   0 -14    7.20    2.80
   1   0  14    5.10    1.90
  -1   0  14    1.90    1.60
   0  -1 -14    6.10    2.30
   1  -1 -14    3.70    1.90
  -1   1 -14    4.10    2.00
   0   1 -14   -0.20    1.50
   1   0 -14    3.70    1.90
   0   1  14    3.10    1.60
   0   1 -14    3.80    1.80
  -1   1  14    2.40    1.60
   0  -1  14    6.10    2.30
  -1   0 -14    8.00    2.60
   1  -1  14    4.80    2.00
  -1   2  14  321.57   27.90
  -1   2 -14  359.96   29.00
   1   1  14  359.66   29.00
  -1  -1 -14  326.37   28.80
   2  -1 -14  284.87   28.10
  -2   1  14  335.37   28.20
   1   1  14  286.07   27.80
   2  -1  14  330.37   28.10
  -1   2 -14  362.66   28.30
   1   1 -14  323.77   28.00
  -2   1 -14  328.47   28.50
   2  -1 -14  297.17   28.80
   1   1 -14  325.87   28.70
  -2   2 -14  311.17   32.30
   2   0 -14  426.36   33.60
   2   0 -14  370.66   32.50
   0   2  14  366.66   32.30
   0   2 -14  385.86   32.40
   0   2 -14  423.16   33.40
   2  -2 -14  368.06   33.00
   2  -2  14  397.36   32.80
   0   2  14  356.76   33.00
   0  -2 -14  426.56   33.60
   3  -1  14    0.30    1.20
   1   2  14   -0.30    0.90
  -1   3 -14    0.70    1.50
  -3   2 -14    0.30    1.20
   1   2  14    1.80    1.60
   2   1 -14    0.30    1.10
   3  -2 -14    1.80    1.60
  -2   3  14    1.70    1.30
   2   1 -14    0.40    1.40
  -1   3 -14    0.50    1.10
   3  -2  14    4.00    1.80
  -1   3  14    0.20    1.30
   2   1  14   -0.60    0.90
   1   2 -14    0.30    1.50
   3  -1 -14    0.00    1.20
   2   1  14    0.70    1.50
   1   2 -14    0.20    1.00
  -2   3 -14    0.10    1.30
   2  -3 -14    0.30    1.40
  -1   3  14   -0.80    0.90
  -3   1 -14   -1.40    1.00
   3  -1 -14   -0.50    1.00
  -3   2  14    1.00    1.40
  -2   3 -14   -0.20    1.10
   3   0 -14  220.88   21.00
  -3   3 -14  254.17   21.50
   0   3 -14  230.98   20.80
   3  -3  14  264.27   21.70
   3   0 -14  219.58   21.80
  -3   3  14  227.88   21.10
   0   3 -14  236.78   21.70
   3  -3 -14  244.08   21.80
   3   0  14  232.28   21.10
   0   3  14  270.97   21.10
   0   3  14  242.88   21.80
  -2   4 -14    1.30    1.50
   2   2 -14    2.50    1.80
   4  -2  14    0.80    1.30
  -4   2 -14    1.40    1.60
   2   2  14    1.30    1.60
  -2   4  14    0.40    1.00
   2   2  14    3.30    1.50
   4  -2 -14   -0.20    1.20
  -2   4 -14    0.80    1.10
   2   2 -14    0.90    1.10
  -2   4  14    0.50    1.30
   4  -2 -14    0.70    1.90
  -4   3 -14    0.20    1.40
   3   1 -14   -0.20    1.00
   4  -1  14    0.20    1.00
  -1   4 -14    0.70    1.00
   4  -3 -14   -0.80    1.30
  -3   4  14    0.00    1.00
   3   1 -14    1.20    1.50
   1   3  14    0.30    1.00
  -1   4 -14   -0.80    1.00
   1   3  14    1.40    1.70
  -4   3  14    0.00    1.00
   3   1  14    0.30    1.10
   3   1  14    1.00    1.20
   4  -3  14   -0.20    1.10
   4  -1 -14   -0.40    1.30
   3  -4 -14    0.50    1.40
  -3   4 -14   -0.30    1.30
   1   3 -14    0.70    1.40
   4  -1 -14   -0.40    1.10
  -1   4  14    1.50    1.10
  -1   4  14   -0.60    0.80
  -3   4 -14   -0.80    0.90
   1   3 -14    0.80    1.10
   4   0 -14  254.17   22.60
  -4   4 -14  239.38   22.80
   4  -4 -14  293.17   23.90
   0   4 -14  287.67   22.30
   4   0  14  285.17   23.70
   0   4  14  268.37   22.50
   0   4  14  250.17   23.20
  -4   4  14  217.08   22.60
   0   4 -14  250.67   23.20
   4   0 -14  268.07   23.70
   5  -3 -14    1.20    1.50
   2   3  14    0.00    1.00
  -5   3 -14    0.40    1.50
   5  -2  14    1.90    1.40
   2   3  14    1.90    1.60
  -2   5 -14    0.70    1.40
  -3   5  14    1.70    1.30
  -2   5 -14   -0.20    0.90
   3   2 -14    0.80    1.00
   3   2 -14    0.50    1.40
   2   3 -14    1.80    1.60
  -3   5 -14    1.40    1.70
  -2   5  14    0.30    1.40
   3   2  14    0.40    1.00
   3   2  14    0.50    1.40
   2   3 -14    1.30    0.90
   5  -2 -14    0.10    1.20
   5  -2 -14    1.70    1.50
  -3   5 -14    0.40    1.00
  -2   5  14    1.30    1.20
   5  -3  14    3.00    1.70
   5  -1  14  129.89   13.50
  -1   5 -14  150.08   13.20
  -1   5 -14  129.09   13.90
   4   1 -14  149.29   14.50
  -5   4 -14  143.79   14.10
   5  -4 -14  163.08   14.60
   1   4  14  154.38   13.40
   4   1 -14  148.19   13.30
   1   4  14  131.69   14.00
   5  -1  14  151.38   14.60
   1   4 -14  147.49   12.90
   4   1  14  159.98   13.60
  -4   5 -14  150.98   14.60
   5  -4  14  179.48   14.60
  -5   4  14  164.98   14.40
   4   1  14  130.79   14.10
  -4   5 -14  167.48   14.00
  -1   5  14  131.99   14.00
   5  -1 -14  148.39   14.60
   5  -1 -14  140.99   13.60
   5  -5 -14    7.30    2.70
   5   0 -14    1.00    1.80
   0   5  14    7.90    2.50
  -5   5 -14    3.80    1.80
   0   5 -14    6.60    2.30
   5   0  14    5.30    1.80
   5   0 -14    5.60    1.80
   5   0  14    8.70    2.80
   0   5  14    5.60    1.70
   0   5 -14    4.50    1.30
  -5   5  14    9.00    2.60
   3   3  14  107.19   12.70
  -3   6  14  134.99   12.40
  -3   6 -14  149.59   13.50
  -3   6 -14  137.49   12.30
   3   3  14  125.29   12.00
  -3   6  14  145.19   13.60
   3   3 -14  145.89   11.70
  -6   4 -14  150.68   15.80
   4   2 -14  148.59   14.50
   2   4  14  194.18   15.00
  -2   6 -14  192.68   16.20
  -2   6 -14  164.78   14.80
   2   4  14  181.28   16.20
  -4   6  14  137.49   15.00
   6  -4 -14  175.88   16.10
   6  -2  14  183.98   15.70
   4   2 -14  174.68   16.10
  -4   6 -14  186.88   16.60
   6  -4  14  175.28   16.00
   4   2  14  170.78   15.00
  -2   6  14  157.88   16.00
   6  -2 -14  170.98   15.60
  -2   6  14  169.08   15.10
   6  -2 -14  144.79   16.20
   2   4 -14  187.78   16.00
  -4   6 -14  173.88   15.30
   6  -5 -14    0.50    1.50
   6  -1  14    0.30    1.00
  -1   6 -14    0.10    1.20
  -1   6 -14    1.00    0.80
  -5   6  14   -0.60    1.00
   1   5  14    0.30    0.80
  -6   5 -14   -0.70    1.10
   5   1 -14    0.40    0.80
   1   5  14   -0.80    1.20
   5   1 -14    1.30    1.70
   6  -1  14    0.80    1.70
  -5   6 -14   -0.60    1.00
   6  -5  14    0.50    1.60
   1   5 -14   -0.10    0.40
   5   1  14    0.20    1.00
   1   5 -14    0.90    1.30
   5   1  14    2.00    1.70
  -1   6  14    0.80    1.00
   6  -1 -14    0.70    1.60
   6  -1 -14    1.20    1.20
  -1   6  14    0.60    1.30
  -6   5  14    0.80    1.40
   0   6  14   18.70    3.80
   0   6 -14   18.20    1.80
   6   0 -14   15.00    3.80
   6   0  14   24.70    4.50
   6  -6 -14   16.60    4.30
   6   0  14   21.40    3.50
   0   6  14   19.20    2.60
   0   6 -14   12.70    3.10
  -6   6  14   16.90    3.80
  -6   6 -14   17.30    3.60
   6   0 -14   11.20    2.50
   3   4  14    0.50    1.30
  -3   7 -14    0.30    1.30
   7  -3  14    0.60    1.30
   3   4  14    1.30    1.00
  -4   7  14    0.60    1.30
  -3   7 -14   -0.70    0.80
   4   3 -14   -0.80    1.00
  -4   7  14    0.70    1.20
   7  -4 -14    0.70    1.50
   7  -3 -14    1.10    1.50
  -3   7  14    2.60    1.80
  -3   7  14    0.90    1.10
  -4   7 -14    0.50    1.20
   4   3  14    0.40    1.30
   7  -4  14    0.70    1.30
   4   3  14    1.50    1.00
   3   4 -14    0.40    1.40
  -4   7 -14    1.50    1.20
   7  -3 -14    0.00    1.80
  -7   5 -14   68.39    7.70
   7  -2  14   71.49    7.20
  -5   7  14   72.89    7.20
   5   2 -14   66.49    7.60
  -2   7 -14   75.89    7.70
  -2   7 -14   66.69    6.20
   5   2 -14   57.19    5.60
   2   5  14   66.99    6.30
  -2   7  14   63.79    7.60
   5   2  14   69.79    7.70
  -2   7  14   64.09    6.60
  -5   7 -14   55.29    6.80
   7  -2 -14   73.69    7.20
   7  -2 -14   64.69    8.10
   2   5 -14   78.09    7.60
  -5   7 -14   72.09    8.00
   7  -5  14   54.29    7.40
  -1   7 -14    5.10    2.10
  -7   6 -14    2.10    1.70
   6   1 -14    5.80    1.20
   7  -6 -14    7.20    2.90
   7  -1  14    7.00    2.00
   6   1 -14    4.80    2.30
   1   6  14    4.30    1.20
   1   6  14    1.70    1.70
   7  -1  14   10.40    3.30
  -6   7  14    2.50    1.70
  -6   7 -14    7.00    2.40
  -1   7  14    4.70    1.50
  -1   7  14    5.60    2.20
   7  -1 -14    6.60    2.70
   6   1  14    3.10    2.00
  -7   6  14    6.50    2.50
   7  -1 -14    5.80    1.70
   1   6 -14    5.10    2.10
   6   1  14    6.20    1.70
  -7   7 -14   -0.10    1.10
   7   0  14    2.10    1.20
   0   7  14    1.50    0.80
   0   7  14    1.10    1.40
   7   0 -14    1.30    1.70
   7   0  14    2.20    1.90
   0   7 -14    0.60    1.20
  -7   7  14    2.20    1.80
   7   0 -14    1.30    0.90
   8  -4 -14   23.50    4.30
  -4   8  14   21.70    3.10
   4   4  14   15.60    3.60
   8  -4  14   18.10    3.80
  -4   8 -14   21.40    2.80
  -4   8 -14   22.80    4.50
   4   4 -14   20.30    3.80
  -4   8  14   14.30    3.90
  -5   8  14    2.10    1.40
   8  -3  14    3.50    1.70
   5   3 -14    2.70    1.80
  -3   8 -14    2.10    1.00
   3   5  14    0.60    1.40
  -3   8 -14    2.50    1.70
   8  -5 -14    1.40    1.70
  -3   8  14    2.90    1.90
   8  -3 -14    1.00    1.50
   8  -3 -14    1.70    2.10
   5   3  14    1.60    0.90
   5   3  14    2.60    1.90
  -5   8 -14    4.20    2.30
   3   5 -14    3.50    1.80
  -5   8 -14    1.20    1.20
  -3   8  14    1.60    1.20
   8  -5  14    0.50    1.40
   8  -2  14  120.59   11.50
  -6   8  14  121.39   11.60
   2   6  14  128.39   12.20
   8  -6 -14  115.09   12.40
  -8   6 -14  141.49   12.70
   6   2 -14  114.59   12.00
   8  -2  14  141.69   13.20
  -2   8 -14  132.69   12.10
  -2   8  14  106.39   12.00
   2   6 -14  110.49   11.60
   8  -2 -14  128.59   12.90
   8  -6  14  109.39   12.10
   6   2  14  137.09   12.50
   6   2  14  124.29   10.80
  -6   8 -14  126.89   13.90
   8  -2 -14  119.59   11.40
  -6   8 -14  119.19   11.40
   7   1 -14   62.69    6.90
  -1   8 -14   50.29    6.10
  -8   7 -14   58.59    6.50
   1   7  14   55.79    6.40
  -7   8  14   38.80    5.90
   8  -7 -14   65.09    7.60
   8  -1  14   55.99    7.00
   7   1  14   61.49    6.90
  -7   8 -14   55.49    6.00
   8  -1 -14   52.09    5.30
  -8   7  14   55.89    6.60
  -1   8  14   41.20    4.80
   8  -1 -14   45.90    6.60
  -1   8  14   54.09    6.40
   0   0  15    1.70    1.40
   0   0 -15    0.60    1.50
   0   1 -15    1.20    1.50
   0   1  15    1.20    1.40
   1   0 -15    3.60    1.90
  -1   0 -15    3.20    2.10
  -1   1  15    1.00    1.30
  -1   1 -15    1.70    1.60
   0  -1 -15    4.50    2.10
   0   1 -15    1.70    2.20
   1   0  15    2.10    1.50
   1  -1  15    0.60    1.30
   1  -1 -15    2.00    1.70
  -1   2 -15    0.70    1.70
   2  -1 -15    1.20    1.40
  -2   1 -15   -0.30    1.20
   1   1 -15    0.20    1.30
   1   1 -15    0.10    1.20
   1   1  15   -0.40    1.00
  -1   2  15    0.60    1.20
   1  -2 -15   -1.10    1.30
  -1   2 -15   -1.30    0.90
   2  -1  15   -0.20    1.20
  -1  -1 -15   -0.70    1.40
   0   2 -15    1.30    1.80
  -2   0 -15    0.70    1.70
  -2   2 -15    0.90    1.40
   2  -2 -15    0.20    1.40
   2  -2  15    1.20    1.50
   2   0  15    3.20    1.60
  -2   2  15    3.70    1.70
   2   0 -15    1.10    1.50
   0   2 -15    2.30    1.50
   2   0 -15    3.10    2.10
   0   2  15    1.10    1.30
   1   2  15    5.70    2.50
  -1   3 -15    1.70    1.90
  -1   3 -15    3.70    1.80
  -2   3  15    0.20    1.20
  -3   2 -15    4.90    2.20
   1   2  15    3.20    1.60
   2   1 -15    2.30    2.00
   2   1 -15    2.40    1.40
   3  -2 -15    1.50    1.60
   3  -1  15    3.50    1.70
  -2   3 -15    4.70    1.90
  -3   1 -15    4.30    2.20
   3  -1 -15    2.50    1.80
   2   1  15    2.70    1.60
   1   2 -15    3.80    2.20
  -2   3 -15    2.20    2.00
  -1   3  15    2.50    1.50
   3  -2  15    4.30    2.00
   1   2 -15    1.90    1.40
   3  -1 -15    1.70    2.10
  -3   2  15    1.60    1.60
   2  -3 -15    1.60    2.00
   3   0  15   12.40    2.90
   0   3 -15   11.20    2.70
   3   0 -15    9.50    2.60
   0   3  15   12.60    2.70
   3   0 -15   12.50    3.60
   0   3 -15   13.80    3.50
   3  -3 -15    8.20    2.90
  -3   3 -15   10.80    2.90
   4  -2  15    0.30    1.30
   2   2 -15   -0.10    1.40
  -2   4 -15    0.20    1.00
  -2   4 -15    0.30    1.40
   2   2  15    0.30    1.40
   2   2 -15   -0.20    0.90
   2   2  15   -0.40    0.90
  -2   4  15   -0.30    0.90
  -4   2 -15    0.20    1.40
   4  -2 -15    0.60    1.40
   4  -3 -15    1.50    1.70
  -4   3 -15    0.50    1.40
   3   1 -15    1.20    1.70
  -1   4 -15    0.90    1.50
   1   3  15    0.30    1.20
   1   3  15    2.00    1.30
  -1   4 -15    2.00    1.30
   3   1 -15    1.40    1.30
   4  -1  15    1.30    1.40
  -3   4  15    2.30    1.50
   1   3 -15    0.10    1.00
  -4   3  15    0.40    1.20
  -1   4  15    2.30    1.40
   3   1  15    1.30    1.50
   4  -3  15   -0.40    1.30
  -1   4  15    1.30    1.40
   3  -4 -15    0.70    1.60
   1   3 -15    0.30    1.50
   4  -1 -15    0.70    1.40
   3   1  15    1.50    1.30
  -3   4 -15   -0.30    1.20
   4  -1 -15    0.40    1.30
   4   0  15    3.00    2.10
   0   4  15    0.10    1.00
   4  -4 -15    1.70    1.80
  -4   4 -15   -0.20    1.10
   0   4 -15    1.30    1.60
   4   0 -15   -0.10    1.60
   0   4 -15    1.10    1.00
  -4   4  15    2.10    1.50
   0   4  15    0.70    1.60
   4   0 -15    1.70    1.40
   4   0  15    1.60    1.40
  -2   5 -15   12.10    2.50
   5  -2  15    7.50    2.40
  -3   5  15    6.20    2.10
   3   2 -15    7.30    1.90
   2   3  15    8.20    2.10
   5  -3 -15    9.30    3.00
   3   2 -15    7.80    2.70
  -2   5 -15    7.60    2.70
   2   3  15   10.60    3.10
   3   2  15   11.80    3.30
   2   3 -15    8.50    2.70
  -2   5  15    8.50    2.30
   5  -2 -15    8.20    3.40
  -3   5 -15    9.10    2.40
  -2   5  15    5.70    3.10
   5  -3  15    6.50    2.40
  -3   5 -15    7.70    2.80
   2   3 -15   10.40    2.10
   5  -2 -15   10.70    2.90
   3   2  15    8.70    2.20
   1   4  15    1.80    1.30
   4   1 -15    1.50    1.70
  -5   4 -15    0.70    1.40
   1   4  15    0.30    1.50
   4   1 -15    1.40    1.10
  -1   5 -15    0.80    1.00
  -4   5  15    0.90    1.30
   5  -1  15    0.90    1.40
   5  -4 -15    2.30    1.90
  -1   5 -15    1.30    1.70
   1   4 -15    0.80    0.90
   4   1  15    0.80    1.10
   5  -1 -15    2.20    2.10
  -5   4  15    0.60    1.40
   4   1  15    2.50    1.70
   5  -4  15    2.70    1.80
   1   4 -15    1.00    1.50
  -1   5  15    1.80    1.40
  -1   5  15    2.90    1.90
  -4   5 -15   -0.30    1.00
   5  -1 -15    1.00    1.30
   5   0  15   10.00    2.50
   5   0 -15    7.30    2.10
   5  -5 -15    6.90    2.80
   5   0  15    3.20    2.10
   0   5 -15    9.60    2.80
   5   0 -15    7.80    2.90
   0   5  15    5.90    1.90
  -5   5  15    4.70    2.00
   0   5 -15    7.20    1.70
   0   5  15   10.00    3.00
  -5   5 -15    7.50    2.40
   3   3  15   -0.30    0.90
   3   3 -15   -0.10    1.30
   3   3 -15   -0.80    0.50
  -3   6  15   -1.00    0.80
   6  -3 -15    0.50    1.50
   3   3  15    0.20    1.30
  -3   6 -15   -1.00    1.10
  -3   6 -15    0.30    1.00
   6  -3  15    0.30    1.30
   4   2 -15    1.10    1.50
   6  -4 -15    4.90    2.40
   2   4  15    5.90    1.70
   2   4  15    5.90    2.40
  -2   6 -15    3.30    1.40
  -2   6 -15    3.30    2.00
  -4   6  15    2.10    1.50
   4   2 -15    3.10    1.20
   6  -2  15    4.60    2.00
  -6   4 -15    5.40    2.40
   4   2  15    5.50    2.40
  -2   6  15    0.90    1.10
   6  -2 -15    6.70    2.90
   2   4 -15    5.20    2.20
   6  -2 -15    5.50    2.10
   4   2  15    5.90    1.80
  -4   6 -15    2.60    1.50
  -4   6 -15    3.10    2.20
   6  -4  15    6.10    2.40
   2   4 -15    3.70    1.00
  -2   6  15    5.30    2.20
   5   1 -15    5.50    2.40
  -1   6 -15    4.40    1.40
  -1   6 -15    5.20    2.30
  -6   5 -15    5.80    2.20
   6  -1  15    6.80    2.20
   6  -5 -15    4.70    2.40
  -5   6  15    3.10    1.80
   1   5  15    5.50    2.40
   1   5  15    4.80    1.60
  -1   6  15    4.70    1.70
   6  -1 -15    3.40    1.60
   5   1  15    2.30    2.00
   5   1  15    5.00    1.70
  -6   5  15    5.10    2.30
  -1   6  15    3.40    2.00
  -5   6 -15    5.40    2.00
   1   5 -15    5.90    2.20
   6  -1 -15    5.10    2.60
   0   6 -15    0.00    0.50
   6   0  15   -1.10    1.30
   6  -6 -15   -0.20    1.60
  -6   6  15    0.90    1.40
   0   6  15   -0.60    0.80
   6   0 -15    0.70    1.00
  -6   6 -15   -0.60    1.20
   0   6  15   -0.40    1.20
   6   0 -15    0.00    1.50
   0   6 -15   -0.40    1.10
   6   0  15    1.10    1.20
   4   3 -15   13.10    3.30
   7  -4 -15    9.90    3.00
  -3   7 -15   15.10    3.70
  -4   7  15    9.20    2.50
   3   4  15   12.10    2.30
   7  -3  15   13.00    3.10
  -3   7 -15   12.60    2.40
   3   4  15    7.60    2.70
  -4   7 -15   12.90    3.50
   3   4 -15   11.10    3.00
   7  -3 -15   16.30    3.50
   4   3  15   12.30    3.40
   4   3  15   17.20    2.40
  -4   7 -15   15.10    2.90
  -3   7  15   13.40    2.80
   7  -4  15   10.40    3.00
  -3   7  15   10.10    3.30
   7  -2  15   16.60    3.40
  -2   7 -15   17.10    3.70
   5   2 -15   14.60    3.50
   2   5  15    6.60    2.60
   2   5  15   15.20    2.50
  -7   5 -15    6.70    2.70
  -5   7  15   15.10    3.10
   5   2 -15   14.50    1.70
  -2   7 -15   14.70    2.10
   7  -5 -15   13.30    3.60
   7  -5  15   21.90    4.40
   5   2  15   13.10    2.40
  -5   7 -15    9.90    2.60
   7  -2 -15   19.90    4.50
   7  -2 -15   18.40    3.50
  -2   7  15   12.50    3.40
   2   5 -15   16.70    3.50
  -2   7  15   16.10    2.80
   5   2  15   14.40    3.60
   1   6  15    0.80    0.80
   7  -6 -15    2.80    2.10
  -6   7  15    0.40    1.10
   6   1 -15    0.50    0.70
   7  -1  15    0.90    1.80
   1   6  15    0.60    1.40
  -1   7 -15    0.70    1.30
   7  -1  15    0.00    1.10
   6   1 -15    2.80    1.90
  -7   6 -15   -0.10    1.30
   6   1  15   -0.20    1.30
  -1   7  15    0.90    1.00
   1   6 -15   -0.10    1.40
   6   1  15   -0.10    0.90
  -6   7 -15    0.60    1.20
  -7   6  15   -1.00    1.20
   7  -1 -15   -0.20    1.00
  -1   7  15    0.50    1.30
   7  -1 -15    1.30    1.70
   0   0 -16  286.77   25.40
   0   0  16  283.17   25.10
  -1   0 -16   64.89    7.50
   0   1 -16   69.89    7.20
   1  -1 -16   56.99    7.10
  -1   1  16   72.29    7.10
   1   0 -16   62.39    7.10
   1   0  16   60.69    6.90
   1  -1  16   41.00    6.40
   0  -1 -16   50.19    7.00
  -1   1 -16   55.99    6.90
   1   1 -16   55.19    6.80
   1  -2 -16   62.89    7.80
   1   1 -16   69.39    8.20
  -1   2  16   66.19    7.10
   2  -1  16   76.19    7.50
  -2   1 -16   54.59    7.30
  -1   2 -16   68.39    7.20
   2  -1 -16   60.09    7.30
   1   1  16   55.59    6.80
   0   2  16   48.30    5.30
   2   0  16   36.10    5.00
  -2   0 -16   47.80    6.20
   0   2 -16   45.40    5.20
   2  -2 -16   39.30    5.60
  -2   2 -16   36.50    5.20
   0   2 -16   51.09    6.40
  -2   2  16   27.90    4.80
   2   0 -16   29.10    4.80
   2   1 -16   80.39    9.40
  -1   3 -16   94.19    9.70
   3  -1  16   98.29   10.00
   3  -2 -16   97.19   10.20
   1   2  16  102.99    9.70
  -1   3 -16  109.09   10.90
  -2   3  16   96.79    9.70
   2   1 -16  107.99   10.80
  -3   2 -16   96.59   10.20
   1   2 -16   94.29    9.50
  -1   3  16   92.89    9.60
   1   2 -16   95.79   10.50
   2  -3 -16   98.39   10.60
  -3   1 -16   90.79   10.40
  -2   3 -16   97.09    9.90
   3  -1 -16  103.39   10.10
   2   1  16  100.19    9.80
   3  -2  16   91.09   10.00
   3   0 -16   50.99    7.30
   0   3 -16   61.49    6.50
   0   3  16   58.59    6.50
  -3   3 -16   53.19    6.80
   3   0 -16   59.09    6.70
  -3   3  16   49.50    6.50
   0   3 -16   61.89    7.30
   3  -3 -16   59.89    7.30
   3   0  16   69.99    7.00
   4  -2 -16  240.18   21.20
   4  -2  16  237.58   21.00
   2   2  16  202.58   20.40
  -2   4 -16  229.38   20.60
  -2   4 -16  284.57   22.30
   2   2 -16  225.58   20.30
  -2   4  16  229.38   20.60
  -4   2 -16  238.38   21.60
   4  -1  16   33.40    4.40
  -3   4  16   25.50    4.10
  -4   3 -16   29.30    5.50
   4  -3 -16   28.10    5.30
   1   3  16   29.00    5.40
   1   3  16   32.20    4.10
  -1   4 -16   21.00    4.70
   3   1 -16   31.10    4.10
   3   1 -16   35.10    5.90
   1   3 -16   24.30    3.60
  -1   4  16   27.60    3.90
   4  -1 -16   29.00    4.30
  -3   4 -16   27.20    4.10
   1   3 -16   26.20    5.20
   3   1  16   29.90    4.10
   4  -3  16   37.20    4.90
  -4   4 -16   25.60    4.50
   0   4 -16   20.60    4.50
   4   0 -16   29.30    5.50
  -4   4  16   24.40    4.30
   4   0  16   20.60    3.80
   0   4  16   14.00    3.10
   0   4  16   11.60    3.60
   0   4 -16   23.70    3.10
   4   0 -16   18.30    3.50
   4  -4 -16   26.80    5.10
  -2   5 -16   20.00    4.50
   5  -2  16   18.50    3.80
   3   2 -16   17.60    4.10
  -3   5  16   24.10    4.10
   3   2 -16   19.30    3.30
   2   3  16   20.50    4.60
  -2   5 -16   16.20    3.20
  -5   3 -16   22.00    4.60
   5  -3 -16   18.60    4.20
   2   3  16   18.90    3.30
   2   3 -16   15.80    3.90
   5  -3  16   19.00    4.10
   2   3 -16   21.20    2.90
   3   2  16   18.60    4.30
  -2   5  16   18.50    3.60
   5  -2 -16   21.30    4.10
   3   2  16   23.90    3.30
   4   1 -16   12.50    2.60
   5  -1  16   15.20    3.30
  -1   5 -16   11.20    3.40
   5  -4 -16   14.10    3.70
   4   1 -16    8.10    3.20
  -1   5 -16   14.80    2.70
  -4   5  16   13.80    3.10
   1   4  16   12.00    2.60
  -5   4 -16   21.40    4.20
   1   4  16   17.70    4.10
  -1   5  16   14.70    3.00
   5  -1 -16   17.60    4.50
   5  -1 -16   13.50    3.10
  -4   5 -16   14.00    3.10
   1   4 -16   16.70    2.70
   4   1  16   14.60    3.80
   1   4 -16   10.90    3.30
   4   1  16   19.10    3.40
  -1   5  16   12.70    3.50
   5  -5 -16   59.49    7.80
   5   0 -16   63.79    6.60
   0   5 -16   51.69    7.10
   0   5  16   64.59    6.60
   5   0 -16   60.19    7.80
   0   5  16   73.19    7.80
  -5   5 -16   58.19    7.00
   5   0  16   65.89    6.90
   3   3  16    0.60    1.70
   3   3 -16   -0.40    0.70
   6  -3  16    1.20    1.50
  -3   6 -16    0.50    1.10
  -3   6 -16    1.70    1.70
  -3   6  16   -0.60    0.90
   3   3  16    1.30    1.20
   6  -3 -16    1.70    1.70
   3   3 -16    1.10    1.60
  -2   6 -16   47.10    6.20
   4   2 -16   50.09    6.30
   6  -4 -16   40.10    6.00
   6  -2  16   37.70    5.50
  -2   6 -16   48.70    5.10
   2   4  16   48.00    6.30
   2   4  16   41.80    5.00
  -4   6  16   50.99    5.70
  -6   4 -16   41.00    6.00
   4   2 -16   46.10    4.80
   4   2  16   46.60    6.20
   6  -2 -16   44.40    5.70
  -2   6  16   45.70    5.30
   2   4 -16   42.90    5.90
  -4   6 -16   51.39    5.60
   4   2  16   52.19    5.40
   6  -4  16   43.00    6.00
   2   4 -16   46.60    4.60
   1   5  16   25.70    3.60
   6  -1  16   27.90    4.20
   5   1 -16   26.00    3.60
  -6   5 -16   30.30    5.30
   6  -5 -16   16.40    4.50
  -1   6 -16   28.80    3.50
  -5   6  16   34.20    4.60
  -1   6 -16   29.70    5.30
   5   1 -16   34.80    5.90
   1   5  16   33.70    5.70
  -5   6 -16   35.50    4.60
   5   1  16   37.70    5.40
   6  -1 -16   24.00    5.40
   5   1  16   30.40    4.00
  -1   6  16   38.40    4.10
  -1   6  16   38.70    5.20
   6  -1 -16   39.20    4.50
   0   0 -17    0.10    1.30
  -1   1  17    1.70    1.70
   0  -1 -17    0.80    1.60
  -1   1 -17    0.40    1.60
   1   0 -17    1.40    1.60
   1  -1 -17    1.40    1.70
  -1   0 -17    2.60    1.90
   1   0  17    0.00    1.30
   0   1 -17    1.70    1.70
   0   1  17    1.90    1.60
   1   1  17    0.40    1.20
  -2   1 -17    1.70    1.70
   1   1 -17   -0.20    1.20
   2  -1  17   -0.50    1.20
  -1   2  17   -0.30    1.10
   2  -1 -17    1.20    1.60
  -1   2 -17   -0.60    1.10
   1  -2 -17    0.10    1.60
   2  -2 -17    0.00    1.50
   0   2 -17    1.90    1.50
   2   0  17    1.10    1.40
   0   2  17    0.40    1.20
   2   0 -17    1.20    1.50
  -2   2  17    1.70    1.50
  -2   2 -17    0.50    1.40
  -2   3  17    0.10    1.10
   2   1 -17    0.30    1.10
  -1   3 -17    0.00    1.10
   3  -2 -17    0.60    1.50
  -3   2 -17    0.60    1.60
   1   2  17    0.50    1.20
   3  -1  17   -0.20    1.30
   2   1 -17    1.20    2.00
   1   2 -17    0.30    1.10
   1   2 -17    0.00    1.60
  -1   3  17   -0.10    1.10
  -2   3 -17    0.10    1.30
   3  -1 -17   -0.10    1.20
   3  -2  17   -1.20    1.20
   2   1  17   -1.10    0.90
   3  -3 -17   -0.80    1.40
  -3   3 -17    0.80    1.40
   3   0 -17    0.40    1.40
   0   3 -17    0.70    1.20
   0   3  17    0.50    1.20
  -3   3  17    1.20    1.50
   0   3 -17    0.20    1.40
   3   0  17    0.60    1.30
  -2   4  17   -0.40    1.10
   2   2 -17   -0.30    1.00
  -2   4 -17    0.20    1.10
   2   2  17    0.00    1.20
   4  -2 -17   -0.60    1.30
   2   2 -17    0.20    1.60
  -4   2 -17   -0.70    1.30
   4  -2  17   -0.90    1.10
  -1   4 -17    1.70    1.30
   4  -3 -17    1.60    1.70
   1   3  17    0.90    1.40
  -3   4  17    1.20    1.40
  -4   3 -17    1.00    1.60
  -1   4 -17    0.20    1.60
   4  -1  17    2.30    1.70
   3   1 -17    1.50    1.40
   3   1 -17   -0.40    1.60
   1   3 -17   -0.60    1.00
   1   3 -17   -0.10    1.50
   3   1  17    1.80    1.50
  -3   4 -17    2.10    1.50
  -1   4  17   -0.30    1.10
   4  -1 -17    0.80    1.40
   0   4 -17    0.50    1.00
   4   0 -17    0.50    1.90
   4   0  17    1.40    1.40
   0   4 -17    0.10    1.50
   0   4  17    2.20    1.50
  -4   4 -17    1.80    1.60
  -4   4  17    1.20    1.50
   4  -4 -17    2.80    2.40
   4   0 -17    1.80    1.40
  -2   5 -17    9.70    2.40
   3   2 -17   12.80    3.70
  -3   5  17    4.90    2.00
  -5   3 -17   10.20    3.20
   5  -2  17   12.50    3.20
   5  -3 -17    5.90    2.60
   3   2 -17   11.60    2.50
  -2   5 -17   13.10    3.60
   5  -3  17    7.20    2.70
   5  -2 -17   10.20    2.90
  -2   5  17    9.10    2.50
   2   3 -17    8.40    2.90
  -3   5 -17   11.80    2.80
   3   2  17   12.90    2.70
   2   3 -17    8.40    2.00
   1   4  17    2.00    2.00
   4   1 -17    0.30    1.70
  -5   4 -17    0.40    1.30
  -1   5 -17    0.80    1.70
   5  -1  17    1.00    1.50
   4   1 -17    0.10    1.10
  -4   5  17   -0.90    1.00
   1   4  17   -0.10    1.60
   5  -4 -17    1.30    1.80
  -1   5 -17    0.70    1.10
   1   4 -17    0.40    0.90
   1   4 -17    0.40    1.50
  -4   5 -17    0.00    1.10
  -1   5  17    1.10    1.30
   4   1  17    0.40    1.20
   5  -1 -17    0.30    1.30
   0   0 -18   16.00    3.90
   1  -1 -18    1.10    1.80
   0   1  18    2.60    1.90
  -1   1 -18    4.20    2.30
   1   0 -18    3.00    1.90
  -1   0 -18    4.50    2.30
   0  -1 -18    2.50    2.20
   1   0  18    1.30    1.60
   0   1 -18    4.40    2.10
   2  -1  18  100.29   10.40
   2  -1 -18  103.29   10.50
  -1   2 -18  111.19   10.50
   1   1  18   96.79   10.10
   1  -2 -18   92.69   10.90
   1   1 -18  101.99   10.20
  -2   1 -18   88.39   10.50
   2   0 -18  135.19   12.50
   0   2 -18  134.39   12.30
   0   2  18  110.89   12.00
   2  -2 -18  126.99   12.90
  -2   2 -18  114.39   12.40
   2   0  18  131.79   12.50
   3  -2 -18    1.30    1.60
   2   1 -18   -0.20    1.20
  -2   3  18    2.10    1.60
   3  -1  18   -0.50    1.30
   1   2  18    1.10    1.40
  -3   2 -18   -0.50    1.30
  -1   3 -18    0.10    1.20
  -2   3 -18    1.50    1.50
   3  -1 -18    0.50    1.40
   2   1  18   -0.40    1.10
   1   2 -18    0.70    1.30
  -1   3  18    0.10    1.20
   1  -1   0 2107.59  326.27
   1  -1   0 2160.38  326.87
   1  -1   0 2020.00  326.17
   1  -1   0 2026.70  325.87
   1   0   0 1832.22  324.97
   1   0   0 1941.41  325.37
   1   0   0 2206.38  324.77
   1   0   0 2224.08  324.67
   0   1   0 1994.30  324.47
  -1   0   0 1962.20  326.87
  -1   0   0 2122.19  324.97
  -1   1   0 2122.79  326.37
  -1   1   0 2143.49  326.87
  -1   1   0 2103.69  325.97
   0   1   0 1959.10  324.27
  -1   0   0 2059.79  325.17
   1   1   0  587.04   89.69
   1  -2   0  622.64   92.19
   2  -1   0  552.54   93.59
   1  -2   0  614.74   93.49
  -2   1   0  600.14   93.79
   2  -1   0  555.14   94.19
   2  -1   0  599.24   93.59
  -1   2   0  557.64   93.39
  -1   2   0  588.14   91.59
  -1   2   0  488.55   91.19
  -1   2   0  576.04   92.99
  -2   1   0  563.44   93.29
   1   1   0  504.05   89.49
  -2   0   0 1144.39  174.98
   0   2   0 1165.08  173.28
  -2   0   0 1045.20  174.28
  -2   2   0 1156.48  177.58
  -2   2   0 1181.28  176.98
   2  -2   0 1159.78  177.28
   2   0   0  966.70  174.58
   2   0   0  972.60  175.08
   2   0   0  947.61  173.08
   2   0   0 1045.50  173.48
  -2   2   0 1180.18  178.48
  -2   2   0 1174.28  176.68
   2  -2   0 1053.99  177.68
   0   2   0 1171.28  173.58
   3  -1   0  345.27   58.39
   2  -3   0  393.76   59.39
   3  -1   0  324.67   59.69
  -2   3   0  325.17   59.29
  -2   3   0  183.88   60.49
   3  -1   0  353.96   58.69
  -3   1   0  270.07   57.79
  -3   1   0  206.68   58.69
   2   1   0  349.47   55.39
   2   1   0  330.67   55.49
   3  -2   0  375.66   61.99
   2  -3   0  350.46   60.09
   3  -2   0  408.26   61.39
  -2   3   0  332.97   57.49
  -1   3   0  320.47   53.89
   1  -3   0  342.07   57.99
   3  -1   0  367.06   59.79
  -3   2   0  395.66   61.69
  -3   2   0  335.57   59.29
  -1   3   0  317.97   57.29
  -1   3   0  337.47   58.19
  -1   3   0  336.47   53.99
  -2   3   0  382.96   58.39
  -3   3   0  147.39   29.40
  -3   0   0   52.89   18.30
   3  -3   0   91.09   24.60
   3   0   0   80.69   17.00
  -3   0   0  125.79   23.50
   3  -3   0  133.79   31.80
  -3   3   0  117.29   28.90
   0   3   0  120.79   20.40
   0   3   0   73.79   16.80
   3   0   0   73.29   17.10
   3   0   0  113.49   24.60
   3   0   0   34.30   16.10
   4  -2   0 8202.98 1389.26
   4  -2   0 9946.71 1390.16
  -4   2   0 7081.79 1386.66
   2  -4   0 9116.19 1388.06
   4  -2   0 9486.05 1388.06
  -2   4   0 8149.28 1383.36
   4  -2   0 9162.88 1387.76
  -4   2   0 8966.00 1389.06
  -2   4   0 8224.58 1383.26
  -2   4   0 9999.00 1389.36
  -2   4   0 8583.14 1386.76
   4  -1   0  933.21  155.78
  -3   4   0  921.01  159.98
   4  -1   0  927.61  157.78
  -4   1   0  897.31  157.28
   4  -1   0  987.90  156.28
   4  -3   0 1069.29  162.78
  -3   4   0  957.50  159.18
  -4   3   0  828.32  157.18
  -3   4   0 1009.30  156.98
  -3   4   0  936.01  156.78
   3  -4   0  974.80  160.08
   3   1   0  915.31  153.48
   3   1   0  905.11  153.68
  -4   1   0 1010.00  157.58
   4  -3   0  997.30  159.78
  -1   4   0  980.10  155.88
   3  -4   0  896.81  158.08
  -4   4   0 1056.29  187.28
   4   0   0 1171.78  180.38
   0   4   0 1045.20  181.58
   4  -4   0 1277.77  192.88
   4   0   0 1080.29  185.98
   4   0   0 1018.40  185.78
  -4   0   0 1102.19  185.28
  -4   4   0 1079.69  189.88
   0   4   0 1145.39  182.48
   4   0   0 1205.08  180.28
   4  -4   0 1313.97  191.58
   5  -2   0  708.43  139.99
   5  -2   0 1083.49  147.09
  -5   2   0  946.21  144.29
  -5   3   0  728.33  142.49
  -5   3   0  907.61  143.59
  -2   5   0  913.41  140.49
  -2   5   0  683.63  139.69
  -2   5   0  922.61  134.49
  -2   5   0  901.81  134.19
   2  -5   0  855.11  138.29
  -5   2   0  933.21  144.49
   5  -3   0  662.63  139.89
  -3   5   0  920.31  143.09
  -3   5   0  670.43  141.59
  -3   5   0  602.94  136.09
  -3   5   0  898.11  139.69
   5  -3   0  957.40  146.79
   5  -2   0  899.31  141.59
   3   2   0  789.42  134.49
   5  -2   0  821.22  143.49
   4  -5   0   64.79   28.80
  -1   5   0   75.69   26.20
  -5   1   0  158.68   36.30
  -4   5   0  157.98   39.80
  -4   5   0   77.79   27.90
  -4   5   0  181.88   39.10
   5  -4   0  162.08   42.50
   5  -1   0  177.98   41.00
   4   1   0  135.19   30.90
   4  -5   0  126.09   37.30
   5  -4   0  125.89   37.30
   5  -1   0  155.58   33.50
  -5   4   0   90.79   34.00
   5  -1   0  127.99   30.00
  -5   4   0   58.89   27.20
   4   1   0  155.48   31.70
  -5   1   0  128.89   35.40
  -1   5   0  139.69   30.50
   5   0   0   30.00   13.20
   0   5   0   26.00    9.40
   0   5   0   16.50    7.00
  -5   5   0   31.10   15.30
   5  -5   0   20.90   12.90
  -5   0   0   16.80   10.40
  -5   5   0   18.50   13.50
   5  -5   0    2.30    6.50
   5   0   0    5.40    6.20
  -6   3   0  349.87   69.29
   6  -3   0  180.58   52.69
  -3   6   0  322.97   68.39
   3  -6   0  326.57   61.79
   3   3   0  232.88   40.20
  -3   6   0  287.77   46.60
   3   3   0  243.88   40.10
  -3   6   0  218.98   54.49
   6  -3   0  225.98   59.29
  -4   6   0  775.72  132.69
   6  -2   0  659.03  128.09
   6  -2   0  728.63  132.39
  -2   6   0  702.73  130.19
   6  -2   0  974.90  134.09
  -6   2   0  803.22  133.69
  -6   4   0  668.13  133.29
  -6   4   0  678.53  131.49
  -2   6   0  636.74  126.69
  -4   6   0  803.42  130.79
   4   2   0  758.92  124.69
   6  -4   0  744.33  132.59
  -4   6   0  895.81  139.19
   4  -6   0  896.01  135.19
   4  -6   0  767.22  134.99
  -4   6   0  679.53  127.39
  -6   2   0  819.02  134.29
   6  -4   0  736.63  135.29
   6  -2   0  766.72  134.19
   6  -5   0  512.85  104.19
  -1   6   0  407.26   75.79
  -6   5   0  337.37   91.39
   5   1   0  377.86   76.89
  -5   6   0  450.75   95.09
   6  -1   0  556.14   86.49
   5  -6   0  518.75  103.99
   6  -1   0  384.76   75.59
   5  -6   0  223.28   82.59
  -5   6   0  540.75   83.29
  -6   5   0  461.05   92.69
   6  -1   0  507.95   79.09
  -1   6   0  474.65   79.59
   6  -1   0  483.95   92.99
   5   1   0  385.66   77.69
   6  -5   0  529.15   98.79
  -6   1   0  638.94   86.99
  -6   1   0  383.26   88.69
   6   0   0 2186.38  350.26
   0   6   0 2277.57  341.67
   6  -6   0 2064.29  354.06
   6  -6   0 2079.39  357.66
  -6   6   0 1925.21  350.16
  -6   0   0 2289.27  350.36
   0   6   0 2065.09  342.37
   4   3   0  121.49   27.40
   7  -4   0  133.79   39.80
  -4   7   0  129.39   33.50
  -4   7   0  135.59   40.30
  -3   7   0  130.09   23.90
   4   3   0  129.99   27.30
   7  -4   0   95.69   37.90
  -7   3   0   80.89   34.40
  -3   7   0  166.08   42.40
  -3   7   0  163.08   24.80
   7  -3   0   89.09   36.50
   7  -3   0  136.89   39.60
  -4   7   0  133.69   35.50
   4  -7   0   99.99   37.20
  -7   4   0  129.69   44.90
  -7   3   0  186.18   51.09
  -3   7   0  124.29   40.90
  -7   4   0   92.19   37.40
   7  -2   0    5.30    6.50
   5   2   0    4.90    4.70
  -2   7   0    1.30    3.40
   7  -5   0    0.00    3.00
  -7   2   0   -0.90    2.70
  -5   7   0   13.30   10.50
   7  -5   0    4.70    7.50
   7  -2   0   -2.70    4.50
  -5   7   0    9.50    7.70
   5  -7   0   19.40   14.90
   5   2   0   -1.80    2.00
   5  -7   0    0.00    7.20
  -7   5   0   -4.80    2.10
  -2   7   0   -0.50    3.20
  -7   5   0    2.20    5.40
  -1   7   0  190.08   41.40
   7  -6   0  235.38   64.49
  -6   7   0  160.58   45.10
   7  -1   0  145.59   35.20
   7  -1   0  191.68   40.70
  -7   6   0  112.19   42.40
   6   1   0  202.28   48.50
   7  -6   0  160.48   49.80
  -6   7   0  108.79   43.00
  -1   7   0  292.17   53.19
   7  -1   0  128.69   42.60
   6  -7   0  148.69   48.90
  -7   6   0  218.88   59.49
   6  -7   0  192.48   59.79
  -7   7   0  301.17   71.79
  -7   7   0  314.67   78.69
   7  -7   0  466.65   99.29
   7  -7   0  273.07   75.39
   0   7   0  316.57   52.59
   0   7   0  261.27   52.59
  -8   4   0 1238.88  219.28
   8  -4   0 1312.17  222.28
  -4   8   0 1302.27  205.48
  -4   8   0 1287.97  206.18
   8  -4   0 1220.38  215.98
  -4   8   0 1183.48  213.98
  -8   5   0  187.58   56.19
  -3   8   0  181.38   47.40
   5   3   0  216.38   36.20
  -5   8   0  145.79   42.00
   8  -3   0  268.97   56.39
   8  -5   0  207.68   54.79
   8  -5   0   92.19   45.20
  -5   8   0  217.38   52.59
   8  -3   0  184.78   54.19
   8  -6   0  347.27   96.19
   6   2   0  401.96   80.69
   8  -6   0  606.04  122.09
   8  -2   0  482.35   99.89
  -6   8   0  369.26   92.09
   8  -2   0  551.34   84.29
  -8   6   0  366.16  100.19
  -2   8   0  477.35   83.09
  -8   6   0  401.46   99.79
  -6   8   0  469.95   94.89
   6   2   0  514.95   84.39
  -7   8   0   61.19   25.50
   8  -7   0   48.40   28.00
   8  -1   0   41.80    9.60
   8  -1   0   43.80   10.20
   8  -7   0   24.30   21.50
   7   1   0   54.09   22.20
  -7   8   0   27.50   16.80
  -8   7   0   51.89   26.00
   7  -8   0   37.10   23.70
  -1   8   0   34.20   18.10
  -8   7   0   17.00   16.20
  -1   8   0   39.60   16.40
   0   8   0  280.27   52.09
   8  -8   0  311.87   83.39
  -8   8   0  309.97   81.49
   0   8   0  299.47   52.89
   8   0   0  348.37   76.59
  -8   8   0  276.17   72.69
   9  -5   0  129.79   40.90
  -4   9   0   47.60   19.60
   9  -5   0   61.19   30.80
   9  -4   0   64.19   27.40
  -5   9   0  127.09   26.50
   9  -4   0  104.69   37.20
  -5   9   0   20.10   13.30
  -6   9   0    5.30    7.20
   6   3   0    1.40    3.70
   9  -6   0    2.10    9.70
   9  -3   0   -4.30    4.80
   9  -6   0    0.00    6.40
  -3   9   0    4.40    5.10
  -9   6   0    3.20    6.60
   9  -3   0    5.10    5.60
  -6   9   0   -2.20    3.40
   6   3   0    0.20    3.30
  -7   9   0   -2.20    3.60
  -7   9   0   11.30    9.50
   9  -7   0   24.90   20.10
   9  -7   0   13.30   10.80
  -2   9   0   26.30   13.80
   7   2   0   35.60   15.90
  -9   7   0   58.39   26.60
   9  -2   0   15.30    8.80
   9  -1   0  130.49   42.90
  -9   8   0   97.29   39.50
   9  -8   0  143.19   49.80
  -8   9   0   99.99   37.10
  -1   9   0  123.39   31.30
   8   1   0  209.18   48.90
  -8   9   0   77.89   33.20
  -9   9   0   24.70   16.20
   9   0   0   -1.50    4.00
  -9   9   0    9.70    9.50
   0   9   0   11.30    4.90
  -5  10   0   63.49   15.30
  10  -5   0   92.59   34.60
  10  -4   0  269.57   60.59
  -6  10   0  271.57   52.29
  10  -6   0  140.99   51.09
  -6  10   0  177.28   55.39
  -4  10   0  141.09   41.40
  10  -3   0  167.28   40.40
  10  -3   0  133.79   49.40
  -3  10   0  162.38   43.00
  -7  10   0   81.49   31.20
   7   3   0  114.89   31.20
 -10   7   0  147.99   49.90
  10  -7   0   86.99   39.20
  -7  10   0  162.18   51.69
  -8  10   0  381.56   91.99
  10  -2   0  354.26   53.69
  -2  10   0  250.87   64.19
  10  -2   0  118.69   62.19
  10  -8   0  263.17   78.99
  -8  10   0  559.34   90.19
 -10   8   0  471.05   98.89
   8   2   0  286.77   66.39
  -9  10   0   50.49   24.20
  10  -9   0   24.90   21.80
  10  -1   0   11.80   13.10
   9   1   0   11.20    9.50
 -10   9   0   18.20   18.80
  -1  10   0   29.40   13.40
  -9  10   0   14.30   10.80
 -10  10   0  330.87   79.09
  10   0   0  198.38   60.49
  -6  11   0   82.19   20.80
  11  -5   0   72.09   39.30
  -5  11   0   87.79   33.70
  11  -6   0   76.69   34.20
  11  -5   0   59.49   27.60
  11  -6   0  123.69   53.39
  11  -7   0    6.00   10.60
  -7  11   0   -0.40    4.00
  11  -4   0   -3.80    3.50
  11  -4   0   -0.20    4.60
  -4  11   0    3.50    5.30
  -7  11   0   -0.50    5.80
 -11   8   0   10.30   11.50
   8   3   0   18.40   10.20
  -8  11   0    6.90    7.80
  -3  11   0   13.70    9.20
  11  -3   0    7.70   11.30
  11  -8   0    1.20    7.60
  11  -3   0    5.30    4.70
  -8  11   0   -3.50    4.90
  11  -2   0   29.50   24.80
  -9  11   0   55.09   26.40
   9   2   0   86.19   28.90
  11  -9   0  114.69   47.20
  -2  11   0   69.49   24.30
  -9  11   0   91.69   41.50
 -11   9   0   49.20   31.20
 -11  10   0    1.60    8.20
  -1  11   0    4.20    5.10
  11  -1   0   -0.30    5.90
  10   1   0    7.10    6.40
 -10  11   0    7.00    9.50
 -11  11   0   -4.20    4.90
  11   0   0   15.90   16.40
  12  -6   0  357.26   72.89
  12  -6   0  188.88   68.59
  -6  12   0  135.39   49.40
  -5  12   0   69.79   29.70
  12  -5   0   53.29   33.50
  12  -5   0   69.09   26.60
  12  -7   0    8.50   10.70
  -7  12   0   26.10   17.90
  -7  12   0   49.70   15.20
  -8  12   0  127.29   53.49
  12  -8   0  171.78   60.19
  12  -4   0  152.98   59.99
  -8  12   0  175.98   45.60
  -4  12   0  182.18   46.00
  12  -3   0    0.10    8.20
   9   3   0   14.60    8.20
  -9  12   0    0.20    8.00
  12  -9   0   -3.70    6.00
  -9  12   0   -2.80    4.90
  -3  12   0   13.20   11.00
  12  -2   0  115.39   43.30
 -10  12   0  150.18   46.90
 -10  12   0   67.09   41.10
  -2  12   0  146.29   36.30
  12 -10   0   62.09   40.30
  10   2   0   89.19   31.80
 -12  10   0   82.29   37.60
  -1  12   0   42.80   11.60
  11   1   0    4.90   13.20
 -11  12   0   33.90   22.30
  13  -7   0   -3.30    9.30
  -7  13   0   26.60   19.80
  13  -6   0    5.10    5.90
  -6  13   0    7.90   12.20
  13  -6   0    9.00   11.60
  -5  13   0    0.20    4.60
  13  -5   0    3.90    7.20
  13  -8   0   17.00   16.90
  -8  13   0   -8.60    3.70
  13  -5   0   -1.20    7.90
  -9  13   0    1.40    7.10
  13  -4   0   49.99   15.90
  13  -9   0   39.20   30.80
  -9  13   0   16.00   11.60
  13  -4   0   16.10   17.80
   0   0  -1    1.40    1.20
   0   0  -1    0.80    1.00
   0   0  -1   -0.40    0.90
   0   0   1   -0.80    0.70
   0   0   1    2.30    1.70
   0   0   1   -0.10    1.50
   0   0   1   -1.30    0.80
   0   0  -1    0.70    1.50
   0  -1   1   31.60    7.10
  -1   1  -1   38.10   10.10
  -1   0   1   19.10    6.10
  -1   1   1   26.90    8.60
  -1   0  -1   43.30    9.50
   0   1   1   34.60    8.20
   0   1  -1   38.40    8.20
   0   1   1   33.80    6.70
   1   0  -1   21.10    7.30
   1   0   1   22.20    6.60
   1  -1   1   28.40    9.10
  -1   1   1   16.30    6.60
  -1   1   1   34.40    9.90
   1  -1  -1   18.70    7.50
   0   1  -1   16.00    5.80
  -1   0  -1   23.50    7.70
  -1   1  -1   36.60    9.40
   0   1   1   26.80    8.40
   1   0   1   18.20    6.90
   0   1   1   32.90    6.30
   0  -1   1   26.50    5.50
   1  -1   1   33.10    9.00
   1  -1   1   18.70    7.60
  -1   1  -1   32.30    8.70
   1   0  -1   24.20    6.50
   1   0   1   15.20    6.70
   1  -1  -1   28.30    8.70
  -1   1  -1   29.40    8.90
   1  -1  -1   24.20    9.10
   0  -1  -1   37.60    9.60
   1   0   1   23.60    7.40
   1  -1  -1   33.00    9.40
   1   0  -1   20.90    7.20
  -1   0   1    9.20    5.30
   1  -1   1   32.80    9.00
   0  -1  -1   23.70    6.20
   1   0  -1   29.80    8.10
  -1   1   1   35.00   10.60
  -1  -1  -1    1.40    1.10
  -2   1  -1   -1.40    0.80
   1   1   1    6.50    2.80
   2  -1  -1   -0.20    1.90
   2  -1   1   -0.60    2.20
  -1   2   1   -0.20    1.00
   1  -2   1    0.50    1.90
   1  -2   1   -0.90    1.50
   2  -1  -1   -2.90    1.40
   2  -1  -1    2.50    3.20
   1  -2  -1    0.80    2.80
   2  -1   1    0.80    2.90
   1   1   1    0.80    1.20
  -1   2  -1    1.90    2.40
   1   1  -1    0.00    0.60
  -2   1   1   -0.80    1.90
   1   1  -1    3.20    2.10
  -1   2  -1    1.00    1.60
  -1   2  -1    1.40    1.70
   2  -1   1    0.20    2.50
  -1   2   1    2.10    2.90
   2  -1   1   -0.80    2.20
  -2   1   1    5.20    3.20
  -1   2  -1    0.40    1.40
   1  -2  -1    2.10    2.80
  -2   1  -1   -1.00    0.70
   2  -1  -1    0.10    2.40
  -1   2   1    0.50    1.30
  -1   2   1   -0.40    1.10
  -2   2  -1  395.46   58.79
   0  -2  -1  350.26   56.69
  -2   2   1  372.76   58.39
   2   0   1  311.17   57.19
  -2   2   1  377.86   60.99
   2  -2   1  307.67   57.59
  -2   2  -1  308.77   59.19
   0   2  -1  328.67   55.19
   2   0  -1  300.37   57.39
   2  -2   1  323.77   59.29
   2   0   1  337.47   56.19
   2   0  -1  368.46   55.29
  -2   0  -1  371.96   57.29
   2   0  -1  390.76   57.69
  -2   2   1  246.38   57.99
   0   2   1  313.97   55.39
   2   0   1  306.07   55.29
   2   0  -1  362.66   55.79
   0   2   1  289.67   55.89
  -2   2  -1  319.37   58.59
  -2   0   1  355.36   56.99
  -2   0  -1  384.06   57.59
  -2   0   1  305.47   55.59
  -2   2  -1  262.47   57.29
  -2   2   1  346.27   59.09
   2   0   1  416.96   58.89
  -2   3   1   38.10   13.80
  -1   3  -1   47.20    8.60
  -1   3  -1   55.59   15.40
   1   2   1   46.90   10.70
   1  -3  -1   27.20    9.60
  -1   3  -1   43.60   12.60
   3  -2  -1   22.70   13.00
   3  -1   1   30.20   11.20
   3  -1   1   64.79   18.60
  -3   2  -1   27.10   11.80
  -2   3   1   33.80   11.70
   1  -3  -1   48.30   14.60
   3  -1   1   12.70    8.50
   2   1  -1   22.00    8.20
   3  -1   1   24.00   10.80
  -3   1   1   27.10   11.30
  -3   1   1   57.59   17.20
   1   2   1   24.80    7.80
   2   1  -1   42.80   10.40
  -2   3   1   26.20   11.00
  -2   3   1   32.70   13.40
   3  -2  -1   33.40   12.80
  -1   3  -1   26.20    7.00
  -3   2  -1   43.90   14.90
   2  -3   1   27.70   11.50
   2  -3   1   51.09   13.90
   3  -1  -1   37.70   14.30
   3  -2   1   31.80   12.70
  -3   1  -1   37.20   13.10
   2   1   1   33.30   10.50
  -3   2   1   52.79   17.20
  -3   1  -1   27.00   11.60
  -1   3   1   18.10    7.10
   3  -2   1   34.80   14.80
   2   1   1   15.70    7.90
  -2   3  -1   36.60   12.90
  -1   3   1   25.90    8.00
   2  -3  -1    5.10    6.80
   1   2  -1   35.60    7.00
   3  -1  -1   37.90   12.50
   1  -3   1   34.20   11.90
  -2   3  -1   42.50   16.20
  -2   3  -1    7.70    6.70
   3  -1  -1   19.40   10.60
   3  -1  -1   54.29   14.90
  -3   2   1   22.80   11.30
   1   2  -1   39.00    7.30
   2  -3  -1   41.20   16.60
   1  -3   1   35.40   10.10
  -1   3   1   22.50    9.40
  -2   3  -1   84.09   18.40
   3   0  -1   53.59   18.20
   3   0   1  101.49   23.00
   3   0  -1   87.89   15.60
   3  -3   1   44.90   18.00
   3   0   1   70.29   16.20
   3  -3  -1   72.39   23.40
   0   3   1   49.00   15.10
   3  -3   1   37.60   16.00
   3   0  -1   45.20   13.10
  -3   3   1   68.59   20.40
  -3   0  -1   74.69   19.70
  -3   3  -1   87.79   22.60
  -3   0  -1   27.40   13.20
   3   0   1   53.89   14.10
   3   0  -1   94.89   21.70
   0   3  -1   49.20   13.10
  -3   3   1   58.59   19.90
  -3   3  -1   69.79   20.90
   0   3   1   70.39   15.60
  -3   0   1   68.09   18.20
  -3   0   1   62.99   16.50
   0   3  -1   54.59   14.10
   3   0   1   83.99   21.00
   3  -3  -1   54.09   19.00
   2   2  -1    1.70    1.80
   4  -2  -1    1.80    4.50
   4  -2  -1    1.10    3.00
  -2   4   1    3.40    4.00
  -2   4  -1    2.60    3.50
   2  -4   1    1.20    2.90
   4  -2  -1   -2.50    1.40
  -2   4  -1    1.90    2.40
  -2   4  -1    0.30    1.90
   2   2   1   -0.40    1.30
  -2   4   1    0.00    1.40
  -2   4   1   -1.80    1.00
  -4   2  -1    0.80    3.40
   4  -2   1    2.00    4.10
  -4   2   1    0.40    2.00
  -4   2  -1    3.70    5.40
  -2   4   1    2.00    3.60
   2   2   1    0.60    1.40
  -2   4  -1    6.30    4.70
   4  -2   1    2.70    4.10
  -4   2   1    2.30    2.90
   4  -2   1   -2.10    1.10
   2  -4  -1    0.90    3.30
   4  -2   1   -0.50    2.00
   4  -2  -1    2.90    4.40
   2  -4   1    3.20    3.20
   2  -4  -1   -1.10    1.90
   2   2  -1    1.20    1.60
  -3   4   1   72.19   21.80
   1   3   1   48.40   11.60
  -3   4   1   53.99   22.80
   4  -3  -1   78.79   25.90
   3   1  -1   48.90   14.20
  -1   4  -1   44.00   14.70
  -4   1   1   51.29   18.00
   4  -1   1   62.89   20.40
   3  -4   1   54.29   20.10
  -4   3  -1   60.19   20.80
  -4   3  -1   64.79   21.40
  -3   4   1   73.99   20.20
   4  -1   1   48.60   18.70
   4  -1   1  110.69   25.10
   3   1  -1   61.89   17.10
   3  -4   1   71.99   23.60
  -3   4   1   27.40   15.10
  -1   4  -1   66.89   18.80
   1   3   1   63.79   13.70
   4  -1   1   27.90   12.60
  -4   1   1   69.39   21.50
  -4   3   1   54.09   19.60
   4  -3   1   54.89   20.00
  -4   3   1   20.60   14.60
   3  -4  -1   44.80   20.20
  -3   4  -1   98.19   24.30
   3   1   1   26.00   12.10
   3   1   1   48.40   16.00
   4  -1  -1   61.49   21.00
  -3   4  -1   64.69   21.40
   1   3  -1   49.70    8.80
  -1   4   1   43.00   15.70
   4  -1  -1   38.60   15.60
  -3   4  -1   69.09   23.90
   3  -4  -1   76.99   23.30
  -1   4   1   40.50   14.90
   4  -3   1   51.99   21.60
   4  -1  -1   28.20   13.40
  -4   1  -1   47.50   17.90
  -4   1  -1   55.69   18.90
  -3   4  -1   39.00   15.50
   1   3  -1   55.09    9.00
   4   0  -1  108.49   33.10
   4   0   1  177.78   36.50
  -4   4  -1  170.98   39.30
   4   0  -1  127.99   23.90
  -4   0  -1  151.18   35.00
   0   4  -1  125.09   27.80
   4   0   1  136.29   28.30
   0   4  -1   85.19   25.80
   4   0  -1  161.88   35.90
  -4   0   1  191.98   35.70
   0   4   1  152.58   29.70
   0   4   1   82.59   27.40
  -4   4   1  213.48   46.00
  -4   0  -1  224.98   39.80
   4  -4   1  178.78   40.90
   4   0  -1  176.88   24.60
   4  -4   1   70.19   32.30
  -4   4  -1  225.88   45.50
   4   0   1  139.99   25.40
   4   0   1  135.79   34.70
  -4   4   1  167.78   38.20
   4  -4  -1  175.18   41.50
  -3   5   1   -0.40    3.70
  -3   5   1    6.00    7.20
  -2   5  -1    3.10    4.50
   2  -5  -1   12.00    8.00
   5  -2   1    6.90    6.70
  -3   5   1   10.80    8.00
   3  -5   1   -1.60    2.30
   5  -2   1   10.00    7.80
  -5   2   1    9.10    8.30
   3   2  -1    2.90    3.20
   2   3   1    5.40    3.70
   3  -5   1    2.40    5.10
  -5   3  -1    2.50    5.40
   2   3   1    6.20    3.10
   5  -3  -1    8.20    7.10
  -2   5  -1    5.20    5.90
  -5   2   1   12.50    9.00
  -5   3  -1   -0.40    3.20
  -2   5  -1   11.10    4.40
   5  -2   1    3.30    7.10
  -3   5   1   13.40    7.50
   3   2  -1    3.00    3.60
   5  -2   1    9.40    6.60
  -2   5  -1    5.90    3.50
   5  -3  -1   15.60   11.20
   2  -5  -1   20.30   12.30
  -5   2  -1    7.50    7.50
  -5   2  -1   10.60    7.90
  -3   5  -1    0.10    3.50
   5  -3   1   -2.30    2.50
  -3   5  -1    4.40    4.10
   2  -5   1    8.30    5.40
   5  -2  -1   13.30    9.00
   5  -2  -1   -1.70    3.30
  -3   5  -1   20.10   13.40
   3  -5  -1    7.30    8.20
  -2   5   1   12.80   10.20
  -5   3   1    8.10    5.30
  -2   5   1    7.30    5.00
   3   2   1   23.40    8.90
   3  -5  -1   27.70   15.00
  -2   5   1   10.00    4.90
   2  -5   1    5.80    7.30
  -3   5  -1    4.00    4.30
   3   2   1    3.10    3.60
  -5   3   1    8.90    9.40
   5  -2  -1    2.50    4.20
   5  -2  -1   -0.30    2.90
  -2   5   1    6.40    3.60
   5  -1   1   33.70   16.00
  -5   1   1    5.70    7.00
   5  -1   1   59.59   18.30
   4   1  -1   37.10   13.10
  -4   5   1   21.30   13.00
   5  -1   1   29.50   13.00
  -4   5   1   33.80   16.90
   4   1  -1   16.80    9.80
   1   4   1   25.50    8.10
  -5   4  -1   27.10   15.30
  -1   5  -1   27.00   12.10
  -5   4  -1   54.19   21.10
  -4   5   1   52.49   18.20
  -5   1   1   40.70   16.50
   4  -5   1   50.89   21.50
  -1   5  -1   30.00   12.10
   5  -4  -1   39.00   17.90
   5  -1   1   25.30   13.80
   1   4   1   22.20    8.00
  -4   5  -1   49.80   18.90
   5  -1  -1   55.19   20.30
   5  -4   1   15.30   12.60
   4  -5  -1   30.70   16.60
  -5   1  -1   21.20   12.40
  -1   5   1   31.50   13.80
   5  -1  -1   32.80   13.20
  -1   5   1   46.80   16.60
   4  -5  -1   66.79   27.20
  -5   4   1   39.10   18.50
   5  -1  -1   19.60   10.30
   5  -1  -1   27.10   14.90
  -5   1  -1   16.70   10.80
  -4   5  -1   28.20   13.30
   5  -4   1   11.00    9.90
   4   1   1   32.00   13.40
   4   1   1   34.50   13.40
  -5   4   1   19.70   11.00
   5  -5  -1   15.40   12.60
  -5   5  -1   16.80   11.40
   5   0   1   47.60   19.60
  -5   5   1   35.50   17.90
   5  -5   1   46.60   23.20
   5   0   1   41.40    7.70
   0   5  -1   33.90   10.40
   5  -5  -1   41.60   21.90
   5   0  -1   54.99   19.80
   0   5   1   19.70    9.40
  -5   0   1   13.60    9.90
   5   0   1   32.90    7.00
   5   0  -1   23.50   14.00
  -5   5  -1   93.09   29.80
  -5   5   1   23.30   14.50
  -5   0  -1   34.60   16.30
   0   5   1   45.90   14.10
   5  -5   1   22.10   13.50
   5   0   1   53.99   19.20
   0   5  -1   22.10    9.50
  -3   6  -1    0.80    1.70
  -3   6  -1    6.10    4.30
   6  -3   1    0.80    4.60
   3  -6   1    3.70    7.30
  -3   6   1    3.90    2.70
  -3   6  -1    1.50    1.90
   3   3   1    2.10    1.90
  -6   3  -1   -1.40    2.00
   3  -6  -1    1.10    3.40
  -3   6  -1   -1.10    2.00
  -6   3  -1    2.00    3.40
  -3   6   1    1.00    4.00
   3  -6   1    4.70    5.50
   6  -3  -1   -3.60    2.40
   3   3   1    0.50    1.50
  -6   3   1    1.20    3.90
  -3   6   1   -0.20    1.50
  -3   6   1   -2.40    1.50
   3  -6  -1    0.70    5.00
  -6   3   1    4.40    7.50
   6  -3   1    1.00    3.90
  -2   6  -1   53.49   21.40
  -4   6   1   50.29   21.90
  -4   6   1   46.00   18.00
   6  -4  -1   21.70   14.10
  -6   2   1   46.40   20.20
  -2   6  -1   50.69   19.10
   6  -2   1   22.70   14.40
  -6   4  -1   35.30   19.00
   4  -6   1   44.30   20.40
  -4   6   1   52.49   23.80
   4   2  -1   55.99   14.90
   6  -2   1   24.80   13.50
   2  -6  -1   82.09   22.90
  -4   6   1   39.80   16.60
  -6   2   1   10.80    9.70
   6  -2   1   30.20   16.80
   6  -2   1   21.10   16.80
  -6   4  -1   22.70   15.30
   4  -6   1   14.90   13.20
   4   2  -1   21.70   10.50
  -6   4   1   61.09   24.50
   6  -2  -1   33.90   16.90
  -6   4   1   41.80   19.90
   6  -4   1   29.00   18.80
   4  -6  -1   41.10   19.10
  -2   6   1   35.40   16.60
   4  -6  -1   26.90   18.00
  -4   6  -1    5.60    8.30
   6  -2  -1   60.19   24.40
  -6   2  -1   15.20   12.80
  -6   2  -1   39.30   19.40
  -4   6  -1   45.30   19.70
  -4   6  -1   74.09   29.90
   6  -2  -1   40.90   17.80
  -2   6   1   24.00   13.30
  -4   6  -1   41.50   16.80
   6  -4   1   32.30   18.10
   4   2   1   58.59   16.40
   4   2   1   31.70   12.80
   6  -5  -1   40.30   28.10
   5  -6   1  170.78   49.99
   6  -1   1  127.19   32.10
  -5   6   1  125.59   37.20
   6  -1   1  166.88   41.20
   5   1  -1  248.88   44.40
  -6   5  -1   67.59   34.10
   1   5   1  134.89   27.00
   5   1  -1  139.49   35.80
  -6   5  -1  187.68   46.00
   1   5   1  123.09   24.50
  -5   6   1  154.48   45.20
  -6   1   1  232.88   48.60
  -6   1   1  237.68   49.70
   6  -1   1  147.19   44.10
   6  -1   1  173.98   39.30
  -1   6  -1  207.48   42.90
   5  -6   1  149.49   44.70
  -1   6  -1   94.79   29.70
   5   1   1  246.58   45.60
  -5   6  -1  127.39   37.70
   6  -5   1  141.19   44.90
  -6   1  -1  155.88   41.90
   5  -6  -1  135.89   42.60
   6  -1  -1  129.19   40.20
  -5   6  -1  137.69   42.90
  -6   5   1   81.29   33.20
   5  -6  -1   98.99   40.80
  -1   6   1  174.08   39.10
  -1   6   1  126.09   33.30
  -6   1  -1  173.88   43.70
   6  -1  -1  162.08   35.30
  -6   5   1  159.08   47.20
   6  -1  -1  153.28   33.90
   5   1   1  146.29   35.40
   6  -5   1  131.39   40.80
   6  -1  -1  187.28   47.50
   6  -6   1   32.40   17.80
   6   0  -1   61.19   23.50
   0   6   1   43.50   14.50
   6   0   1   10.20   11.40
   6   0  -1   85.69   29.00
   0   6   1   38.40   12.90
   6  -6  -1   43.60   21.20
   0   6  -1   36.30   11.30
  -6   6   1    9.70    9.90
   0   6  -1   34.50   11.80
   6   0   1   18.90   12.90
  -6   6  -1   44.10   23.30
   6  -6   1   56.89   26.70
  -6   6  -1   66.49   24.60
   6  -6  -1   47.30   25.90
  -6   6   1   47.10   21.20
  -7   4  -1   20.30   16.00
  -3   7  -1   63.39   13.20
  -3   7  -1   83.59   29.50
   7  -4  -1   88.19   31.30
  -3   7  -1   51.19   12.80
   7  -3   1   38.40   19.80
  -7   4  -1   83.59   30.90
   7  -3   1   34.20   20.10
   4   3  -1   50.89   13.20
  -3   7  -1   57.19   26.50
  -7   3   1   53.29   23.90
   4  -7   1   35.60   19.70
   4   3  -1   52.89   14.40
  -4   7   1   50.19   17.80
  -7   3   1   46.20   23.70
  -4   7   1   52.79   19.40
  -4   7   1   28.20   17.60
  -7   4   1   51.29   24.00
   7  -4   1   38.90   23.00
  -4   7  -1   26.40   14.20
   7  -4   1   33.10   19.80
  -4   7  -1   29.80   15.00
  -3   7   1   40.20   19.60
  -7   3  -1   84.89   31.60
  -3   7   1   63.99   14.90
   4   3   1   72.79   18.60
  -3   7   1   83.99   17.20
  -3   7   1   66.89   27.70
  -4   7  -1   89.59   30.20
   4   3   1   65.39   16.30
   4  -7  -1   77.29   28.30
  -7   3  -1   29.70   19.80
   7  -3  -1   43.70   20.80
  -7   4   1   56.59   26.40
   5   2  -1    1.40    3.10
   7  -2   1   -2.50    4.80
  -5   7   1    6.30    6.90
  -2   7  -1    3.20    3.90
  -7   5  -1    7.60    8.70
   5   2  -1   -1.10    1.70
   5  -7   1    1.30    4.40
  -2   7  -1   -3.60    4.10
  -5   7   1    1.60    2.40
  -7   2   1   -4.10    2.50
  -7   5  -1    5.80    8.60
   7  -5  -1    3.00    5.30
   7  -5  -1    1.30    3.50
   7  -2   1   -0.70    1.70
   7  -2  -1   -2.40    5.70
  -2   7   1   15.60   10.70
  -5   7  -1   -3.50    1.70
  -7   5   1   -0.60    6.20
   5   2   1   -1.30    2.00
   7  -5   1   13.00   11.20
  -5   7  -1   -1.30    3.10
   5  -7  -1    6.30    9.90
  -2   7   1    1.90    3.80
   7  -2  -1    5.50    4.30
  -7   5   1   13.30   11.20
   7  -5   1   -0.80    8.30
   5  -7  -1   20.10   17.10
   5   2   1   13.40    9.00
  -7   2  -1   -1.70    6.90
  -6   7   1   40.60   20.10
   6  -7   1   28.80   22.10
   1   6   1   38.40   10.40
   1   6   1   36.70   10.10
   6  -7   1   49.40   24.40
  -6   7   1   29.30   20.10
   6   1  -1   26.90   14.60
   7  -1   1   22.40   11.00
  -7   6  -1   63.59   29.20
  -1   7  -1   13.90   10.70
   7  -6  -1   38.90   20.70
  -7   6  -1   20.70   14.00
   6   1  -1   15.00   12.40
   7  -6  -1   69.39   35.40
   7  -1   1   19.80   11.30
   7  -1   1   44.20   20.10
  -1   7  -1   41.60   15.60
   6  -7  -1   49.50   31.20
   7  -6   1   25.80   18.10
  -7   6   1   22.40   15.70
   6  -7  -1   12.90   12.50
   7  -6   1   25.40   16.70
   7  -1  -1   43.20   13.30
   7  -1  -1   26.20   17.10
  -6   7  -1   32.20   21.00
  -1   7   1   60.49   19.90
  -7   6   1   25.10   19.30
  -6   7  -1   13.00   11.80
  -1   7   1   24.80   13.80
   6   1   1   43.80   18.80
   6   1   1   39.40   16.60
   7  -1  -1   55.09   16.60
  -7   7  -1   17.40   14.50
  -7   7   1   33.90   18.60
   7   0   1   14.50   12.00
   7  -7  -1   29.60   23.50
   0   7  -1   37.70   12.60
   7  -7   1   26.30   20.10
   7   0  -1   66.09   26.80
   0   7   1   32.80   11.70
   0   7   1   15.70    9.90
  -7   7  -1   50.09   22.90
  -7   7   1   30.00   18.60
   7  -7  -1   12.50   11.50
   0   7  -1   35.20   11.90
   8  -4   1    7.70    9.90
  -4   8  -1    3.70    6.70
  -4   8  -1   -1.60    2.60
  -4   8   1   -1.30    2.90
  -4   8  -1    0.90    3.30
   8  -4  -1    5.80    7.50
   8  -4   1   -0.10    3.30
  -4   8   1    0.10    2.90
  -4   8   1   -3.80    2.10
  -8   4   1    0.00    5.40
   8  -4  -1   -1.30    5.30
  -8   4  -1    4.40    7.00
  -5   8   1   88.89   28.00
  -5   8   1  116.49   34.40
  -8   5  -1   75.19   32.80
   8  -3   1   73.39   27.80
   8  -5  -1   34.00   25.40
   8  -3   1   54.19   26.70
  -3   8  -1   73.29   26.00
   5   3  -1   86.79   21.50
   5   3  -1   90.29   21.10
   8  -5  -1  120.49   38.60
  -3   8   1   31.50   19.00
  -5   8  -1   57.29   21.80
  -8   5   1   64.29   29.40
  -5   8  -1   61.99   25.80
   8  -5   1   57.09   30.90
   8  -3  -1   71.99   34.20
   5   3   1  108.69   26.00
   8  -3  -1   89.49   29.40
   8  -5   1   70.19   29.20
  -6   8   1   91.69   29.60
   8  -2   1   19.00   15.60
   8  -2   1   97.29   26.30
   8  -6  -1   65.29   34.10
  -8   6  -1   20.40   15.40
   6   2  -1   71.09   23.10
  -6   8   1   21.60   15.00
   8  -6  -1   82.49   32.10
  -8   6  -1   74.59   34.50
   6   2  -1   35.50   16.30
  -2   8  -1   54.39   20.30
   8  -6   1   23.80   17.90
  -8   6   1   22.80   16.10
   6   2   1   39.10   15.20
   8  -6   1   89.99   38.90
  -6   8  -1   19.70   13.10
  -6   8  -1   51.79   25.00
   6   2   1   49.80   20.80
   8  -2  -1   60.69   20.30
   8  -2  -1   53.49   26.70
  -2   8   1   83.39   25.50
  -8   6   1   33.50   20.10
  -8   7  -1   -0.70    3.00
   8  -7  -1   27.30   22.60
  -8   7  -1   30.20   19.40
   7   1  -1    5.30    6.60
  -1   8  -1    5.70    6.20
   7  -8   1   26.90   18.50
   8  -1   1    8.80    4.90
   8  -1   1    9.70    4.70
  -7   8   1   34.00   19.90
  -1   8  -1   18.00   10.20
   8  -7  -1   13.60   14.00
  -7   8   1    2.70    7.80
   8  -1   1   12.90    9.20
   7   1   1    2.10    5.20
  -8   7   1   24.20   14.20
  -7   8  -1   16.50   14.40
  -1   8   1    8.60    8.10
  -7   8  -1    8.90    7.80
   8  -7   1   -4.80    6.90
  -8   7   1   25.60   16.80
   8  -1  -1    1.80    6.00
   7  -8  -1    1.90    6.20
   8  -7   1   13.50   15.40
   0   8  -1    5.00    4.00
  -8   8  -1    2.90    6.80
  -8   8   1    0.40    4.40
  -8   8  -1    0.50    5.30
   8  -8   1    1.30    6.10
  -8   8   1    1.50    4.70
   8   0   1    2.60    7.80
   0   8  -1    5.00    4.90
   8  -8  -1   -3.80    3.70
   0   8   1    5.70    4.90
   0   8   1    6.00    5.50
   8   0  -1   17.20   13.80
   9  -4   1   23.10   15.20
   9  -4   1   -1.20    7.70
  -4   9  -1   14.20   10.30
  -5   9   1    2.80    5.20
  -5   9   1   15.10    8.90
   9  -5  -1   38.70   22.20
  -5   9  -1    3.00    5.50
   9  -4  -1   35.10   24.20
  -5   9  -1   20.00   10.60
   9  -5   1    6.60    9.00
   5   4   1   18.00    5.60
   9  -4  -1    0.30    5.50
  -4   9   1    6.90    7.20
   9  -5   1   41.20   20.40
   5   4   1    5.90    3.70
   9  -6  -1   10.60   12.50
  -3   9  -1    7.70    6.70
   9  -3   1   -1.90    6.60
  -6   9   1   -1.10    5.20
  -9   6  -1   -2.20    5.90
   6   3  -1    0.00    2.20
   9  -6  -1    2.30    6.10
   9  -3   1   -1.00    4.50
  -6   9   1    2.00    4.00
   6   3  -1    7.70    5.70
   9  -6   1    7.90    8.20
   6   3   1    0.10    2.20
  -9   6   1   25.60   18.80
   9  -3  -1   -2.40    2.40
   6   3   1   -1.50    3.60
  -3   9   1    6.50    7.10
   9  -6   1   -0.70    8.90
   9  -3  -1   -1.40    6.20
  -6   9  -1   -1.00    5.30
  -6   9  -1    2.60    5.10
  -9   7  -1   11.80   10.20
  -7   9   1   12.20    8.10
   9  -2   1    3.60    5.10
  -7   9   1    7.90    7.10
   9  -7  -1   -0.20    6.60
   9  -7  -1   26.80   22.90
   7   2  -1   11.50    8.30
  -2   9  -1   11.90    8.70
   9  -2   1   -2.60    5.10
  -7   9  -1   -1.70    3.40
   9  -7   1    4.90    9.50
   9  -2  -1    2.20    6.40
  -7   9  -1   16.00   11.60
  -9   7   1   10.80   12.30
   9  -2  -1    0.80    2.30
   9  -7   1   21.40   25.30
   7   2   1   18.70   11.00
  -1   9  -1   63.59   19.80
   8   1  -1   33.10   18.50
   9  -8  -1   41.00   24.20
  -9   8  -1   23.10   17.50
  -8   9   1   36.40   21.10
  -8   9   1   18.80   12.80
   9  -1   1   18.70   13.90
  -8   9  -1    0.80   10.20
  -1   9   1   28.80   12.80
  -9   8   1   30.20   22.20
  -8   9  -1   12.40   11.10
   9  -1  -1   29.60   19.10
  -9   9  -1   -1.10    8.30
   9   0  -1   23.60   16.30
   0   9  -1    8.50    4.30
  -9   9   1   -1.80    6.20
   0   9   1    5.80    5.60
  -9   9   1   -1.90    6.00
   0   9  -1    1.70    2.70
  -9   9  -1   -0.90    5.40
  -5  10   1    3.60    5.30
  10  -5   1   -1.90    9.30
  -5  10   1    1.70    2.50
  10  -5   1   -0.10    5.60
  -5  10  -1    1.30    3.90
  10  -5  -1   -2.30    6.10
  10  -5  -1   -3.00    3.30
  -5  10  -1   -0.30    1.30
  10  -4   1    2.80    9.80
  -6  10   1   -2.70    2.30
  -6  10   1    1.70    5.80
  10  -6  -1    1.10    5.20
  10  -6  -1   -6.00    6.00
  -4  10  -1   -0.30    4.70
  10  -4   1   -0.20    4.80
  -6  10  -1    6.50    7.40
  10  -6   1    4.30    8.10
  10  -4  -1   10.00    8.10
   6   4   1   11.10    5.50
  -6  10  -1    2.00    4.60
  10  -4  -1   17.60   14.20
  -4  10   1    1.40    5.80
   6   4   1    6.00    3.60
  10  -6   1    1.80   13.30
  10  -7  -1   53.79   30.20
  -7  10   1   53.09   29.50
 -10   7  -1   59.99   30.70
  -3  10  -1   36.80   17.50
  10  -3   1   83.99   26.00
   7   3  -1   42.00   16.70
  10  -3   1   53.29   21.50
  -7  10   1   16.00   11.80
  10  -7   1    8.80   13.30
 -10   7   1   45.40   27.40
  -3  10   1   40.50   17.90
  10  -3  -1   64.89   21.80
  10  -3  -1   75.09   33.70
   7   3   1   65.89   21.40
  -7  10  -1   78.09   25.30
  -8  10   1   17.50   13.70
  10  -2   1   26.30   15.60
   8   2  -1   20.90   13.20
  10  -2   1   27.70    9.50
  -2  10  -1   35.70   16.20
  -8  10   1    9.00   11.50
  10  -8  -1   21.80   18.10
 -10   8  -1   53.69   27.30
  -2  10   1   24.50   14.60
  -8  10  -1    7.70   10.30
   8   2   1   22.40   14.50
  10  -8   1   20.30   16.60
  10  -2  -1    9.30   12.40
 -10   8   1   -0.90    6.80
  10  -2  -1   25.00    8.60
  -8  10  -1   14.60   16.80
  -9  10   1   17.10   11.80
  -1  10  -1   14.30    9.60
   9   1  -1    1.70    4.10
 -10   9  -1   -0.90    6.60
  10  -1   1    1.20    4.50
  10  -9  -1   33.30   23.10
  10  -1  -1   21.70   14.10
  -1  10   1   13.60    9.00
 -10   9   1   -2.30    4.80
   9   1   1   18.80   13.50
  10  -9   1    0.20   13.70
  -9  10  -1   20.20   14.60
  -9  10  -1    5.20    7.40
  10   0   1    9.70   11.40
  10   0  -1   30.50   19.40
   0  10   1   48.30   10.90
 -10  10   1   17.70   17.00
 -10  10  -1    9.00   12.40
  -6  11   1   -1.10    3.40
  -5  11  -1   -5.00    4.20
  11  -5   1   -3.00    6.70
  -6  11   1   -2.70    3.30
  11  -6  -1    3.10    8.00
  11  -6  -1    9.50    9.50
  11  -5   1   -2.00    5.80
  11  -5  -1   -5.90    5.10
  -6  11  -1    0.50    2.70
  -6  11  -1   -1.80    3.90
  11  -5  -1    2.30    7.80
  -5  11   1   12.80   10.60
  11  -6   1    3.00    5.80
  11  -6   1   10.40   11.00
  -4  11  -1    2.40    5.60
  11  -4   1   14.50   10.40
  11  -7  -1    1.00    8.00
  -7  11   1    0.10    3.90
  -7  11   1    4.90    6.20
  11  -4   1   -1.80    3.80
  -4  11   1    2.50    5.50
  -7  11  -1   -1.00    5.30
  -7  11  -1   -6.00    6.70
  11  -7   1   11.90   10.90
  11  -4  -1    1.90    6.60
   7   4   1    3.50    3.00
  11  -4  -1    1.00    5.70
  11  -8  -1    5.20   10.10
  11  -3   1    3.70    4.70
   8   3  -1   12.30    9.70
 -11   8  -1   -0.90    6.40
  -3  11  -1    7.50    9.10
  -8  11   1   -2.20    4.70
  -8  11   1    1.90    6.80
  11  -3  -1   -1.20    6.20
  -8  11  -1    5.50    4.90
  -8  11  -1    4.40    9.00
   8   3   1   11.40    6.80
  -3  11   1    4.80    6.60
  11  -3  -1   -0.10    4.10
  11  -8   1    6.40    9.50
 -11   8   1   -4.30    5.90
   9   2  -1    8.30    9.50
  11  -2   1   13.30   15.20
  -9  11   1   13.10   16.40
  -9  11   1    5.90    7.80
  11  -9  -1    7.60   11.70
  -2  11  -1   23.10   13.90
 -11   9  -1   38.30   25.90
  11  -9   1   -1.80    6.50
  11  -2  -1   23.70   19.00
  -9  11  -1   -3.10   11.40
  -9  11  -1   15.70   13.80
   9   2   1   12.00    8.80
  -2  11   1   15.20   11.60
 -10  11   1    2.90    6.80
  10   1  -1    1.10    5.10
 -11  10  -1    2.80   10.80
  11  -1   1    5.80    5.10
  -1  11  -1   10.70    6.10
 -10  11  -1   -2.40    4.20
 -11  10   1   -1.70    3.80
  -1  11   1    7.20    5.90
  11  -1  -1   -0.60    6.20
  10   1   1   -0.10    3.70
 -11  11  -1    1.10    7.90
  11   0   1   12.00    8.00
  11   0  -1    0.60    8.20
 -11  11   1   23.90   17.50
  -6  12   1    0.00    4.30
  12  -6  -1   12.40   13.40
  12  -6  -1   -4.80   11.70
  12  -6   1   11.60   11.50
  -6  12  -1    3.70    7.50
  -7  12   1    2.60    7.90
  -5  12  -1    7.20   10.00
  12  -7  -1   -9.80    4.30
  12  -5   1   19.20   13.50
  -7  12   1   -2.00    2.30
  12  -5   1    4.60    6.50
  -7  12  -1   -3.70    3.90
  -5  12   1    5.60    9.00
  -7  12  -1    1.30    3.60
  12  -5  -1    4.80    8.20
  12  -7   1   -0.20    5.10
  12  -5  -1   -0.90    8.70
  12  -4   1   -4.60    5.10
  -4  12  -1    2.20    8.50
  -8  12   1    4.70    9.00
  -8  12   1    7.30    8.20
  12  -8  -1   -7.40    7.30
  12  -4   1    1.00    6.30
  12  -4  -1    0.70    6.20
  -8  12  -1    8.30    9.20
   8   4   1    8.10    5.00
  12  -4  -1    4.20    7.50
  12  -8   1    2.00    7.10
  -8  12  -1   11.00   10.50
  -4  12   1   -0.60    5.10
  -9  12   1    7.30    8.80
  12  -9  -1   -3.30    4.40
  -3  12  -1    2.70    5.40
  -9  12   1   12.10   13.60
  12  -3   1    6.60    4.40
   9   3  -1   -4.50    3.40
  12  -3   1    2.30    4.90
  12  -3  -1    9.70    8.30
  -9  12  -1    1.20    4.40
  -9  12  -1   -4.70    4.50
   9   3   1    6.50    7.60
  -3  12   1   -0.10    4.60
  12  -9   1    5.90    9.50
  12  -2   1   -7.20    4.40
  -2  12  -1    9.10    7.50
 -10  12   1   -1.60    9.00
  12 -10  -1    3.60   12.10
  10   2  -1   15.10   10.50
 -10  12   1   -4.10    5.90
 -12  10  -1   -6.90    4.40
  12  -2  -1   -2.40    6.10
 -10  12  -1   -6.20    3.20
  12 -10   1   -6.20    5.40
 -12  10   1   -3.60    4.00
 -10  12  -1   10.00   16.50
  -2  12   1   -3.10    3.80
  10   2   1   -1.00    3.80
 -12  11  -1    2.80    9.10
 -11  12   1    0.10    7.60
 -12  11   1   -2.50    4.50
  -1  12   1    7.50    5.60
 -11  12  -1    3.70    6.20
  -7  13   1   11.40   13.50
  -6  13  -1   -0.80    6.50
  13  -6   1   -3.90    4.50
  13  -6   1    1.80    5.30
  13  -7  -1    3.30    8.30
  -6  13   1    6.80   11.50
  13  -6  -1    1.30    6.50
  13  -6  -1    5.60    7.60
  -7  13  -1    1.00    4.90
  13  -7   1   -5.30    8.80
  -8  13   1    3.40    8.20
  13  -5   1   11.40    9.00
  13  -8  -1    4.20   10.00
  13  -5   1   -3.80    3.20
  -5  13  -1    0.00    4.40
  -8  13  -1   -1.70    2.40
  -5  13   1    3.70    7.40
  13  -5  -1    1.60    5.80
  -8  13  -1   -0.80    5.80
  13  -5  -1    0.50    8.10
  13  -8   1   -0.70    7.90
  13  -4   1    6.60    6.80
  -9  13   1    5.70    4.30
  -9  13   1    5.30    9.50
  13  -9  -1   -4.30   14.90
  13  -4   1    1.60    8.60
  13  -4  -1    3.60    6.30
  13  -4  -1   11.80    7.80
  13  -9   1    1.20    7.30
  -9  13  -1    1.60    5.70
  -9  13  -1    1.80    9.80
   0   0   2  828.72  117.79
   0   0   2  597.44  114.89
   0   0  -2  860.71  117.29
   0   0   2  672.13  115.89
   0   0   2  686.03  116.29
   0   0  -2  721.03  117.09
   0   0  -2  699.53  116.09
   1   0   2   51.39   13.00
   0   1  -2   39.90   11.40
  -1   0  -2   35.70   12.00
   1  -1  -2   39.50   12.30
   1   0   2   41.50   10.90
   0   1   2   45.30   12.10
  -1   0  -2   27.00   10.60
   0   1   2   36.40    9.70
   1   0  -2   56.39   14.40
   0   1  -2   42.20    9.70
  -1   1   2   29.50   10.70
   0  -1  -2   41.20   12.20
   1   0  -2   36.30   11.20
   1   0  -2   28.40    9.40
  -1   1  -2   37.20   10.60
   0  -1   2   14.00    7.50
   1   0  -2   23.30    9.40
   1  -1   2   43.90   12.30
  -1   1  -2   35.00   11.50
   0   1   2   46.90   14.20
  -1   0   2   32.10    9.50
   1  -1  -2   43.50   13.10
   1   0   2   46.10   13.00
   1  -1  -2   37.50   13.00
   0   1  -2   31.10    9.10
  -1   1   2   30.50   10.20
  -1   1   2   23.50   10.30
  -1   1   2   23.10   10.20
   0  -1  -2   56.89   15.10
  -1   0   2   15.70    8.20
   1  -1   2   19.50    8.50
   0   1   2   31.20   10.30
  -1   1  -2   53.99   14.00
   0  -1   2   39.50    9.80
   1   0   2   34.70   10.40
   0   1  -2   36.00   10.70
  -1   1  -2   38.40   11.90
   1  -2  -2 4390.26  839.52
  -1  -1  -2 4859.71  838.02
  -2   1  -2 5699.43  841.62
  -1   2  -2 5629.64  838.92
  -1   2  -2 5468.15  840.82
   2  -1  -2 5387.66  839.92
  -1   2   2 4999.30  840.02
   1   1   2 4982.80  839.92
   2  -1   2 5045.29  841.02
   1   1   2 5108.39  836.82
   1   1  -2 5181.28  838.32
   2  -1   2 5565.04  839.92
  -2   1  -2 5354.66  841.62
  -1   2   2 5292.77  839.52
  -1  -1   2 4743.73  837.72
   2  -1  -2 5687.63  842.82
  -1  -1  -2 5717.93  839.92
   1  -2   2 5838.92  839.02
   1  -2   2 5746.62  840.52
   1  -2  -2 5408.26  842.02
   2  -1  -2 5855.01  841.32
  -2   1   2 5068.49  840.82
  -2   1   2 5527.55  839.92
   1   1   2 4943.91  838.72
   1   1  -2 5003.00  839.32
   2  -1   2 5711.73  841.62
  -1   2   2 5387.46  839.02
  -1   2  -2 5377.26  838.92
   1   1   2 5130.19  836.32
   2  -1  -2 5983.30  841.72
  -1  -1   2 5304.97  836.32
  -1   2   2 5102.19  841.52
   2  -1   2 5345.37  841.42
   2  -2  -2 5158.78  758.62
   2   0   2 5564.74  756.72
   2   0  -2 4674.43  754.62
   2   0  -2 4679.13  756.92
  -2   0   2 5236.18  756.12
  -2   0  -2 5236.48  756.92
  -2   2  -2 5196.58  757.42
   2   0   2 4518.75  754.12
  -2   2  -2 4943.91  758.12
  -2   2   2 4996.90  756.52
  -2   2  -2 4398.36  757.42
   0   2  -2 4529.25  754.62
   2   0  -2 4448.46  755.62
   2  -2  -2 5007.00  759.72
   0  -2   2 5121.29  754.52
   0  -2  -2 4632.14  756.32
   0  -2  -2 4055.99  753.72
   0   2   2 4449.06  752.32
   2  -2   2 4923.71  756.92
   2  -2   2 4421.06  758.12
  -2   0  -2 4052.29  755.72
   0   2   2 4731.53  755.22
   2   0   2 4445.16  755.92
   2   0  -2 4644.74  753.72
  -2   0   2 5120.09  754.52
   2   0   2 5006.40  757.22
   0   2   2 4901.21  752.22
   0   2  -2 4796.32  754.42
   0  -2   2 5059.69  753.12
  -2   2   2 4714.73  757.92
   3  -2  -2    2.50    3.30
  -3   2  -2    0.40    1.50
   3  -1   2    9.90    8.50
  -3   1   2    7.00    4.60
  -2   3   2   -0.70    1.40
  -1   3  -2   -0.30    0.90
   1  -3  -2    5.50    4.30
  -2  -1  -2    3.20    2.90
  -2   3   2   -1.80    1.30
   2  -3   2   -2.20    2.00
   3  -1   2    0.20    1.60
  -3   1   2   -0.60    1.90
  -3   2  -2   -1.20    1.50
   2   1  -2   -1.00    1.00
   3  -1   2   -1.00    1.60
   1   2   2    0.50    2.00
  -1   3  -2    4.30    3.20
   2   1  -2    3.80    3.90
  -1   3  -2    2.10    3.20
   3  -1   2   -0.40    2.40
   1  -3  -2    1.50    2.20
   2  -3   2    1.70    3.40
   3  -2  -2    1.00    2.50
  -2   3   2    6.60    4.20
  -1   3  -2   -0.40    0.90
  -2   3   2   -0.10    3.10
   1   2   2    2.10    2.80
   1  -3   2    0.50    2.20
   1   2  -2    2.70    2.60
  -3   1  -2   -1.00    1.30
   2   1   2    0.40    1.90
  -2   3  -2    0.00    1.80
  -1   3   2    6.60    4.10
   3  -1  -2    1.40    2.30
   3  -1  -2    0.00    2.30
   3  -2   2   -1.50    1.90
   2  -3  -2    0.40    2.20
  -2   3  -2    0.90    3.00
  -2   3  -2    4.90    5.50
  -3   2   2    2.00    3.40
   1  -3   2    4.30    4.70
  -1   3   2    8.10    7.30
   1   2  -2    0.00    1.40
  -1   3   2   -1.00    0.90
   3  -1  -2    2.90    5.10
   2   1   2    0.90    3.00
   2  -3  -2    7.40    5.90
  -3   2   2   -2.40    0.90
  -2   3  -2    1.00    3.10
  -3   1  -2    0.00    1.60
   3  -2   2   10.00    7.60
   3  -1  -2    1.70    2.80
  -1   3   2    1.50    2.00
   3   0  -2 3095.79  525.35
   3  -3  -2 3324.47  530.25
  -3   0  -2 2712.93  523.65
   3   0   2 3326.57  523.35
   3   0  -2 2969.60  524.05
  -3   0   2 3318.77  522.55
  -3   3   2 3232.38  527.15
   3  -3  -2 3558.04  528.15
  -3   3  -2 3462.85  527.05
   3  -3   2 3181.58  528.75
   0   3   2 3347.87  522.95
   3  -3   2 3104.69  525.55
  -3   0   2 3364.76  524.55
   3   0  -2 3406.86  520.95
   3   0   2 3253.77  522.05
   0   3  -2 3355.26  521.95
  -3   0  -2 3515.35  525.25
   0   3   2 3106.69  524.05
   3   0   2 3562.54  526.25
   3   0   2 3545.45  526.25
  -3   3  -2 3289.07  527.35
   3   0  -2 3494.95  521.85
   2  -4  -2  376.46   66.29
  -2   4  -2  268.47   61.69
   2   2  -2  347.77   60.89
   2   2  -2  464.65   63.59
  -4   2  -2  248.88   69.59
  -4   2   2  417.56   68.99
   2   2   2  327.57   61.59
   2   2   2  326.27   63.19
   4  -2  -2  315.97   70.89
  -2   4  -2  412.26   63.79
   4  -2   2  444.46   71.59
   4  -2  -2  492.05   74.09
  -2   4   2  421.86   68.39
   2  -4   2  351.76   66.89
   4  -2   2  401.86   67.79
   4  -2  -2  379.96   67.19
  -2   4  -2  378.76   66.39
  -2   4   2  339.67   76.19
  -2   4   2  360.66   63.29
   4  -2  -2  374.86   77.19
  -4   2  -2  362.76   67.79
  -2   4   2  378.96   64.39
  -4   2   2  365.66   73.49
   2  -4   2  385.26   64.79
   2  -4  -2  260.07   70.29
  -2   4  -2  402.96   68.09
  -3   4   2  112.69   28.00
  -4   1   2   52.09   19.40
   3  -4   2   27.00   16.10
  -4   1   2   60.59   18.70
   3   1  -2   26.10   13.30
   4  -1   2   45.60   16.40
  -3   4   2   25.20   14.80
   3  -4   2   45.50   17.60
   1   3   2   62.19   18.00
   3   1  -2   68.09   17.50
   4  -3  -2   60.89   21.70
  -3   4   2   93.89   29.30
   1   3   2   42.10   13.40
   1  -4  -2   67.89   22.70
   1  -4  -2   80.89   19.60
  -1   4  -2   29.40   14.30
   4  -1   2   46.70   18.90
   4  -1   2   92.59   26.10
  -3   4   2   33.20   15.90
   4  -1   2  108.59   28.80
   4  -3  -2   34.40   18.30
  -4   3  -2   70.79   24.00
  -1   4  -2   52.49   17.00
  -4   3  -2   94.39   26.40
   3   1   2   86.69   20.90
  -1   4   2   65.19   12.30
   3  -4  -2   82.99   23.50
  -4   1  -2   60.49   20.60
  -1   4   2   57.59   11.70
  -3   4  -2   48.30   21.10
   1   3  -2   64.59   14.40
   1   3  -2   60.69   14.20
  -3   4  -2   83.19   22.60
   4  -1  -2   76.19   19.70
   4  -1  -2   51.49   21.50
  -4   1  -2   78.19   24.20
  -1   4   2   34.20   16.30
  -3   4  -2   49.30   18.50
   4  -1  -2   82.29   24.70
  -4   3   2   27.10   15.60
   3   1   2   56.29   18.10
   4  -3   2   70.29   25.00
  -3   4  -2   30.80   15.60
   4  -1  -2   73.19   20.20
   3  -4  -2   59.89   24.00
  -4   3   2   68.59   23.70
   4  -3   2  101.89   25.60
   4   0   2 3187.18  450.85
   4   0   2 2652.63  451.05
   0   4   2 2642.84  453.05
  -4   0   2 3323.37  453.95
   4   0  -2 2652.53  455.55
   0   4   2 2505.85  451.05
   4  -4   2 2962.10  460.65
  -4   0  -2 2657.03  454.45
   4  -4   2 3053.89  458.05
  -4   0   2 2774.92  457.75
   4   0  -2 2942.01  455.75
   4   0   2 2422.46  454.85
   4  -4  -2 2873.81  462.35
   0   4  -2 2906.91  450.55
  -4   4  -2 2999.30  457.25
   4   0  -2 2762.72  448.66
   4   0   2 2758.92  455.55
   0   4  -2 3029.60  450.95
  -4   4  -2 2907.91  458.45
   4   0  -2 2878.81  448.56
   4  -4  -2 2758.12  457.85
   5  -3  -2   24.80   17.10
  -5   2   2   30.60   17.30
  -5   2   2   77.09   23.60
   5  -3  -2   82.79   26.20
   3  -5   2   37.40   16.90
   5  -2   2   20.50   12.20
  -2   5  -2   54.59   20.50
  -2   5  -2   60.59   13.60
   2   3   2   59.99   14.30
   5  -2   2   44.00   20.20
   3  -5   2   50.69   21.90
   2  -5  -2   34.40   17.00
   2  -5  -2   63.69   20.20
   5  -2   2   39.10   17.00
   5  -2   2   51.79   21.40
   2   3   2   52.69   16.30
  -5   3  -2   57.59   23.10
   3   2  -2   40.90   13.20
  -3   5   2   51.29   18.10
   3   2  -2   53.99   14.90
  -3   5   2   32.80   14.80
  -2   5  -2   41.40   11.80
  -3   5   2   63.29   22.40
  -2   5  -2   35.00   15.30
  -3   5   2   83.09   28.20
  -5   3  -2   49.40   21.50
  -2   5   2   61.29   22.70
  -5   2  -2   15.50   13.80
   2  -5   2  100.99   23.90
   3   2   2   40.90   14.60
  -2   5   2   54.79   20.20
  -3   5  -2   63.19   21.00
   5  -3   2   48.10   19.50
   3   2   2   61.29   18.70
   2  -5   2   44.00   17.70
  -3   5  -2   39.40   19.40
   3  -5  -2   78.79   27.50
   2   3  -2   41.60   10.10
  -5   3   2   66.29   24.00
  -5   2  -2   30.30   15.80
   5  -2  -2   51.09   19.70
  -2   5   2   47.00   14.20
   5  -3   2   75.59   28.20
   5  -2  -2   49.30   21.40
  -3   5  -2   60.09   18.80
   5  -2  -2   62.09   24.90
   3  -5  -2   48.40   19.70
   2   3  -2   46.30   11.40
  -2   5   2   46.80   13.40
   5  -2  -2   19.10   14.00
  -3   5  -2   24.40   12.10
  -5   3   2   21.70   13.70
  -5   1   2 1459.15  227.48
   1   4   2 1662.33  222.88
   5  -1   2 1184.88  224.88
   5  -1   2 1510.25  230.68
  -1   5  -2 1405.46  222.78
   4  -5   2 1504.45  232.18
  -5   4  -2 1454.65  230.98
  -1   5  -2 1521.45  224.48
   5  -4  -2 1606.54  237.28
  -4   5   2  967.70  224.88
  -5   1   2 1476.65  226.18
   5  -4  -2 1203.88  227.98
  -5   4  -2 1208.48  227.88
   4   1  -2 1085.19  221.68
  -4   5   2 1411.56  226.18
   4  -5   2 1242.98  226.78
   5  -1   2 1367.36  227.88
   4   1  -2 1488.85  224.98
   5  -1  -2 1489.75  230.58
   5  -4   2 1108.09  226.68
   5  -1  -2 1415.56  228.88
  -5   4   2 1239.18  226.78
  -4   5  -2 1397.26  226.08
   5  -1  -2 1354.96  223.48
   1   4  -2 1237.58  217.88
   4  -5  -2 1554.54  235.18
  -4   5  -2 1372.86  228.98
  -4   5  -2 1466.65  227.68
   4   1   2 1505.65  226.38
   4  -5  -2 1484.55  230.18
  -5   4   2 1350.36  229.78
   5  -4   2 1430.06  232.08
   1   4  -2 1342.27  217.68
   5  -1  -2 1499.55  224.48
   5   0   2   -0.70    3.80
   5  -5  -2    8.30    7.80
   0   5   2   14.00    9.10
   5   0  -2    4.10    4.30
  -5   5  -2    7.40    7.70
  -5   5   2    8.40    9.40
  -5   0   2    8.00    7.30
  -5   0  -2    1.60    3.70
  -5   5  -2   -1.50    3.60
   5  -5   2   -2.70    5.30
   0   5  -2    7.50    4.90
   0   5  -2    0.40    2.30
   5   0   2   36.10   16.40
   0   5   2   14.10    8.10
   5   0   2   12.10    5.50
   5   0  -2   19.20   12.70
   5   0   2    7.50    4.30
   3  -6  -2  708.03  144.59
   6  -3   2  882.41  144.79
  -3   6   2  908.31  139.49
   3   3   2  869.51  135.99
   3  -6  -2  818.12  143.49
  -6   3   2  906.61  145.49
   3   3   2  870.81  137.39
   3  -6   2  703.03  142.79
   6  -3  -2  762.92  142.99
  -3   6  -2  879.21  137.99
  -6   3  -2  975.20  148.29
   3   3  -2  821.82  133.59
  -3   6   2  723.83  137.09
  -3   6  -2  755.22  136.69
  -3   6  -2  859.81  142.99
  -3   6   2 1067.59  151.88
  -3   6  -2  829.62  145.99
  -6   3  -2  982.80  149.88
  -6   3   2  819.92  145.99
   6  -3  -2  840.12  149.79
   3  -6   2  863.61  141.99
   3   3  -2  745.03  132.69
   6  -2   2 1680.53  245.58
  -4   6   2 1736.73  252.97
  -6   4  -2 1449.26  246.08
   6  -2   2 1613.94  241.78
   6  -2   2 1403.36  244.28
   2   4   2 1300.77  232.78
  -2   6  -2 1610.74  243.28
  -6   2   2 1436.06  242.78
   2  -6  -2 1558.14  241.18
  -4   6   2 1602.04  241.28
   4   2  -2 1506.85  235.88
   6  -4  -2 1321.27  248.88
   6  -2   2 1322.07  245.38
  -4   6   2 1487.25  244.38
  -4   6   2 1768.52  244.68
   6  -4  -2 1736.53  249.28
   2   4   2 1544.45  235.28
  -6   4  -2 1298.27  245.28
   4   2  -2 1467.45  237.38
  -6   2   2 1552.54  245.68
  -2   6  -2 1404.96  239.28
   4  -6   2 1336.57  241.98
  -2   6   2 1614.24  245.18
  -6   2  -2 1049.89  240.98
   6  -4   2 1611.04  246.58
  -4   6  -2 1701.63  241.88
   6  -2  -2 1393.76  246.68
   6  -2  -2 1680.93  243.48
   6  -2  -2 1644.04  248.08
   4  -6  -2 1398.86  248.08
   4  -6  -2 1434.16  244.88
   4   2   2 1362.86  236.88
  -6   4   2 1397.06  243.78
  -4   6  -2 1544.95  249.78
  -6   2  -2 1504.95  244.78
  -4   6  -2 1549.45  241.88
  -4   6  -2 1467.85  243.98
  -2   6   2 1146.89  238.48
   4   2   2 1106.39  236.98
   6  -2  -2 1362.16  240.58
  -6   1   2   17.50   12.10
  -5   6   2   -2.00    3.00
   6  -1   2    9.50    6.20
   5   1  -2    6.50    6.20
   1   5   2    4.50    5.20
   6  -1   2    0.20    2.90
   1   5   2    6.30    5.60
  -1   6  -2   16.60    9.40
   6  -5  -2   32.80   21.60
  -5   6   2    5.90    7.60
  -6   5  -2   -1.20    4.30
   5  -6   2    3.70    7.90
   6  -1   2    4.70    5.80
   5   1  -2   11.60    9.10
   6  -5  -2    9.00    8.50
  -6   5  -2   23.10   12.50
   6  -1   2    5.70    7.10
   5  -6   2   -2.20    4.50
  -6   1   2   12.20   10.10
  -6   5   2   21.60   15.10
   6  -1  -2   10.30    8.10
   6  -1  -2    6.80    8.80
   5   1   2    3.60    5.30
   6  -5   2    9.70   10.40
  -6   5   2   24.20   16.10
   6  -1  -2    1.70    5.20
  -5   6  -2    6.20    7.30
   6  -5   2    0.40    3.70
  -6   1  -2    1.00    2.70
   5  -6  -2   20.70   14.70
   1   5  -2   14.90    5.10
  -1   6   2   25.70   11.10
   1   5  -2    8.70    4.20
  -5   6  -2    9.90    8.00
  -6   1  -2    6.80    8.90
   5  -6  -2   -0.20    6.20
   6  -1  -2   14.70    8.20
   5   1   2   17.20   11.30
  -6   6   2  141.49   48.50
   0   6  -2  211.98   40.40
   6  -6   2  162.58   50.49
   0   6   2  140.29   38.70
  -6   6  -2  194.08   50.39
  -6   6  -2  184.18   53.69
   6  -6  -2  203.18   55.29
   0   6  -2  188.78   38.50
   6   0   2  172.38   50.99
   6   0   2  190.48   47.30
   6   0  -2  242.08   55.79
   6  -6  -2  163.28   57.09
   6   0  -2  174.18   46.80
   6  -6   2  150.78   53.29
  -6   6   2  181.58   50.39
   0   6   2  188.68   40.20
  -3   7  -2   -0.40    3.60
  -4   7   2    0.20    1.80
   4  -7   2    7.30    7.60
   3   4   2    5.40    4.30
   7  -3   2   13.10    9.90
  -3   7  -2    1.90    1.90
  -7   4  -2   -1.00    3.20
   4   3  -2    1.20    2.00
  -7   3   2   -2.50    2.80
   7  -4  -2    4.60    7.20
  -4   7   2    7.40    8.00
  -7   3   2   11.20   13.00
  -7   4  -2    5.70    9.60
   7  -4  -2   -3.50    2.90
   3   4   2    4.70    3.60
  -3   7  -2    6.50    3.60
   7  -3   2   10.20    7.60
   4   3  -2    8.70    5.10
   7  -3  -2   -1.50    2.60
  -3   7   2    2.30    2.60
  -7   3  -2   12.40   10.90
   7  -4   2   14.00   11.00
  -7   3  -2    1.20    6.10
  -7   4   2    4.60    8.00
  -4   7  -2   -1.30    2.70
   4   3   2    2.00    4.00
  -3   7   2    6.50    5.00
  -3   7   2    6.10    8.50
   4   3   2    7.70    5.90
  -4   7  -2    3.80    6.10
  -4   7  -2    2.60    3.80
  -7   4   2    3.10    7.50
   7  -4   2   -1.80    2.70
   7  -3  -2    9.90    9.60
   4  -7  -2    3.30    3.90
  -7   2   2  737.93  141.09
   7  -5  -2  821.12  126.59
   7  -2   2  557.54  112.89
  -2   7  -2  651.43  114.39
  -2   7  -2  767.32  117.89
  -5   7   2  564.74  113.89
  -7   5  -2  602.74  130.59
   2   5   2  642.74  107.29
   7  -2   2  571.64  126.99
  -7   5  -2  756.82  142.59
   7  -5  -2  369.16  126.39
   5   2  -2  696.43  111.89
   5  -7   2  629.64  131.39
   5   2  -2  607.24  111.79
   2   5   2  626.34  105.99
  -5   7   2  745.93  122.09
  -7   5   2  634.94  131.49
  -2   7   2  705.33  120.29
  -7   2  -2  754.72  123.59
   7  -2  -2  723.23  124.09
   5   2   2  637.04  114.89
  -2   7   2  666.13  115.39
   5   2   2  709.13  112.49
   7  -2  -2  610.54  113.99
   7  -5   2  841.42  150.58
   5  -7  -2  699.03  122.79
   7  -5   2  681.33  121.49
  -5   7  -2  549.45  128.29
  -5   7  -2  724.73  116.39
   7  -1   2   15.00   13.20
  -6   7   2   17.90   16.00
   7  -6  -2   52.09   26.00
   7  -1   2   76.89   20.90
  -1   7  -2   76.19   23.50
   6  -7   2   45.30   23.00
   7  -6  -2   32.00   24.70
  -6   7   2   68.19   24.50
   7  -1   2   68.19   22.10
  -1   7  -2  104.59   25.80
  -7   6  -2   94.19   31.80
  -7   6  -2   36.00   22.20
   6   1  -2   58.59   21.40
   1   6   2   25.20   11.80
   1   6   2   76.89   19.10
   6   1  -2   83.89   26.30
   6  -7  -2   84.39   40.10
   7  -6   2   34.20   21.70
   6   1   2   86.99   27.70
  -7   6   2   61.99   29.30
  -1   7   2   66.49   21.20
  -1   7   2   76.49   26.50
   7  -6   2  122.39   40.70
  -6   7  -2   48.10   22.50
   7  -1  -2   72.09   18.90
   7  -1  -2   32.40   19.00
   7  -1  -2   35.90   13.70
   6   1   2   83.49   28.60
   6  -7  -2   56.69   26.60
  -6   7  -2   49.80   25.70
  -7   6   2  139.09   38.20
   0   7   2    9.30    6.10
   7   0   2   14.60   10.90
   7  -7  -2    2.00    5.40
  -7   7   2    1.30    4.70
  -7   7  -2   -4.10    3.80
   7   0  -2    6.00    6.90
   0   7   2    9.20    7.20
   7  -7   2    3.10    5.60
   7  -7  -2    8.40   14.40
  -7   7  -2    5.80    5.30
   0   7  -2    7.90    5.00
  -7   7   2   12.90    9.70
   0   7  -2   14.50    8.00
   8  -4   2  170.08   52.29
   8  -4   2  143.39   42.00
  -8   4   2  110.89   40.80
  -4   8  -2  146.69   31.80
  -8   4  -2  131.09   46.00
   8  -4  -2  107.79   39.10
   8  -4  -2   85.39   38.90
  -4   8   2  163.28   33.00
   4   4   2  142.09   27.70
  -4   8   2  148.99   41.80
  -4   8  -2   72.09   25.10
  -4   8  -2  105.69   36.00
   4   4   2  146.39   30.50
   8  -3   2   52.79   21.30
  -5   8   2   48.70   18.80
  -8   5  -2   36.50   23.80
   5   3  -2   51.79   15.10
   8  -5  -2   33.80   20.70
   8  -3   2   37.80   20.40
   8  -5  -2   75.89   35.90
   5   3  -2   49.50   15.00
  -3   8  -2   26.50   15.60
  -5   8   2   22.10   13.30
   5   3   2   41.40   14.30
   8  -5   2   16.30   14.40
   5   3   2   77.09   22.70
   8  -3  -2   62.79   23.20
  -5   8  -2   48.40   19.30
   8  -5   2    8.70   11.70
  -3   8   2   84.59   27.40
  -8   5   2   19.80   15.80
  -5   8  -2   29.50   16.10
   8  -3  -2   65.99   31.00
   8  -2   2  792.32  146.29
  -2   8  -2 1025.10  149.69
  -8   6  -2  975.80  159.88
   8  -6  -2  638.74  170.28
   8  -6  -2  982.80  161.08
  -8   6  -2  513.85  160.38
   6   2  -2  717.03  144.89
  -6   8   2 1020.60  152.98
   6   2  -2 1121.79  150.28
  -6   8   2  838.12  155.58
   8  -6   2 1096.89  162.28
   8  -6   2 1019.30  190.48
  -8   6   2  860.41  156.08
  -8   6   2  883.31  159.98
  -6   8  -2 1109.59  163.58
   6   2   2  798.92  145.89
   8  -2  -2  853.71  146.89
  -2   8   2  673.83  145.79
   8  -7  -2  244.58   84.89
  -7   8   2  147.69   49.50
   7  -8   2  133.29   56.29
  -8   7  -2  223.48   66.29
   8  -1   2  203.38   53.79
   8  -7  -2  190.18   61.19
  -1   8  -2  238.08   48.30
  -8   7  -2  346.67   73.79
  -7   8   2   95.79   46.30
   7   1  -2  160.48   49.10
   1   7   2  225.68   38.00
   8  -1   2  186.48   41.40
   8  -1   2  199.48   37.70
   1   7   2  215.38   38.20
   7  -8  -2  270.37   71.49
  -7   8  -2  260.37   65.89
   8  -1  -2  263.87   65.69
  -1   8   2  280.37   52.69
  -7   8  -2  246.28   59.99
   8  -7   2  122.59   51.79
  -8   7   2  266.37   63.49
   7   1   2  230.08   52.59
  -8   7   2  303.67   75.99
   8   0  -2  395.66   85.09
  -8   8  -2  188.68   76.59
   8   0   2  418.36   82.69
  -8   8   2  316.57   89.69
   0   8  -2  407.56   63.89
  -8   8   2  378.66   86.99
   0   8   2  413.06   65.69
   8  -8   2  433.46  100.39
   0   8   2  411.56   79.59
  -8   8  -2  290.57   81.29
   8  -8  -2  274.57   84.89
   0   8  -2  323.87   61.49
   9  -5  -2    8.40   13.00
  -5   9   2   -1.40    2.40
   9  -4   2   -7.20    5.40
   9  -5  -2   16.40   14.80
   9  -4   2   12.70   10.90
  -4   9  -2    9.50    7.80
  -5   9   2   11.40    7.80
   5   4   2    2.60    3.50
   5   4   2    7.40    6.30
  -5   9  -2    8.60    5.60
  -5   9  -2   18.80   14.10
   9  -4  -2   21.30   14.80
   9  -4  -2    7.00   11.80
   9  -5   2    5.00    7.00
  -4   9   2    7.10    2.70
   9  -5   2   13.70   12.30
  -4   9   2   12.20    7.30
  -4   9   2    6.40    2.70
   9  -6  -2  152.18   62.99
   6   3  -2  243.58   52.19
   9  -3   2  136.89   50.19
   9  -6  -2  260.27   70.49
  -3   9  -2  269.57   60.19
   6   3  -2  229.88   50.89
  -6   9   2  328.07   64.09
  -9   6  -2  237.18   69.29
  -9   6   2  285.37   74.89
   9  -6   2  322.17   85.29
   9  -6   2  228.28   65.79
  -6   9  -2  261.27   58.39
   6   3   2  301.07   48.50
   9  -3  -2  262.97   60.59
   9  -3  -2  191.18   63.39
  -3   9   2  256.47   60.99
   7   2  -2   13.30   10.20
   9  -7  -2   41.10   25.10
   9  -2   2   20.10    9.50
   9  -7  -2    0.60   10.90
  -9   7  -2   25.80   18.60
  -2   9  -2   30.30   14.10
  -7   9   2   16.60   12.60
   9  -2   2    0.20    5.70
  -7   9   2   38.30   18.90
   9  -2  -2   32.80   20.60
   7   2   2   22.70   13.40
  -2   9   2    6.40    7.00
  -7   9  -2   13.70    9.70
  -7   9  -2    9.50    8.90
   9  -2  -2   27.70   12.70
   9  -7   2   -1.20    5.50
  -9   7   2    8.20    9.10
   8   1  -2    9.10    9.30
   1   8   2    9.30    4.80
  -8   9   2   17.80   15.40
   9  -1   2    1.50   10.50
  -8   9   2    7.00   10.60
  -1   9  -2    8.80    6.80
   1   8   2    5.50    4.20
  -9   8  -2    9.20   11.40
   9  -8  -2   12.90   14.20
   8   1   2    6.20    6.70
   9  -1  -2    2.90    5.70
  -8   9  -2   20.30   14.30
   9  -8   2    2.10    6.70
  -9   8   2    3.40    8.20
  -1   9   2    7.80    8.10
  -8   9  -2   11.30   13.10
   0   9   2  163.88   34.70
  -9   9  -2  143.09   49.99
  -9   9   2   65.39   34.30
   9   0  -2  172.78   49.20
  -9   9   2   99.49   40.00
  -9   9  -2   71.19   36.90
   0   9  -2  160.88   28.90
   9   0   2   87.19   33.70
   0   9  -2  152.98   30.10
  -5  10  -2  158.58   25.70
  10  -5   2  111.39   43.50
  -5  10   2  127.19   30.50
  10  -5  -2  173.78   50.39
  10  -5   2  144.89   48.00
  -5  10   2  124.89   45.80
  10  -5  -2  148.79   58.99
  10  -6  -2  128.99   60.19
  10  -4   2  269.77   69.49
  -6  10   2  366.96   68.49
  -6  10   2  308.37   77.19
  10  -4   2  240.88   65.59
  10  -6  -2  233.88   79.29
  -4  10  -2  216.18   57.99
   6   4   2  296.67   53.09
  -6  10  -2  278.27   60.49
  10  -4  -2  364.26   91.99
  10  -6   2  357.86   88.89
   6   4   2  387.66   54.09
  -6  10  -2  304.07   76.39
  10  -6   2  334.97   80.49
  10  -4  -2  285.97   67.89
  -7  10   2    8.70   13.20
  10  -3   2    4.90    6.40
  10  -3   2    2.80    7.50
  10  -7  -2    4.90   11.80
 -10   7  -2   -3.10    4.10
  -7  10   2   11.20   11.20
  -3  10  -2   17.60    9.90
   7   3  -2    6.40    5.60
  -7  10  -2   13.50   10.30
  -7  10  -2   14.40   14.00
  10  -3  -2    8.40    7.50
  10  -7   2    7.70    8.70
  10  -3  -2   17.10   16.90
  -3  10   2    7.00    6.80
 -10   7   2   -1.00    4.30
 -10   8  -2   59.29   32.00
  -8  10   2   50.79   23.50
  -2  10  -2  121.79   32.20
  10  -2   2   67.89   24.30
  10  -2   2   47.40   17.20
  -8  10   2   90.19   39.60
  10  -8  -2   49.99   33.70
   8   2  -2   83.19   28.10
  -2  10   2   66.09   23.60
  -8  10  -2  104.89   35.50
 -10   8   2   23.10   20.80
   8   2   2   91.69   29.30
  10  -2  -2   55.09   29.30
  -8  10  -2  105.49   43.60
  10  -8   2   66.29   33.20
  10  -2  -2   85.69   18.10
  -9  10   2   35.30   19.90
  10  -9  -2   12.30   11.50
  10  -1   2   18.00   11.60
   9   1  -2   10.80   10.00
  -1  10  -2   20.00    9.60
  -9  10   2   25.70   18.10
 -10   9  -2   19.70   15.60
  -9  10  -2   22.70   13.80
  10  -9   2   32.50   26.00
  -9  10  -2   12.50   13.40
  10  -1  -2   94.89   35.40
  -1  10   2   46.30   18.20
   9   1   2   13.90   11.30
 -10   9   2   27.20   20.60
 -10  10  -2  324.67   86.69
   0  10   2  370.56   61.99
 -10  10   2  327.37   88.09
  10   0  -2  318.97   84.79
  -6  11   2    6.70    6.10
  -5  11  -2    0.40    4.10
  -6  11   2    1.90    9.20
  11  -5   2   12.20   13.40
  11  -6  -2    3.30    7.70
  11  -6  -2    8.40   14.00
  11  -5   2   -4.90    3.80
  11  -5  -2   14.90   14.00
  -6  11  -2    6.40    4.60
  -5  11   2   12.60   12.60
  11  -5  -2    0.50    5.30
  -6  11  -2   11.10   13.40
  11  -6   2   29.90   20.60
  11  -6   2    7.70   12.20
  11  -4   2  117.89   34.90
  11  -4   2   32.00   19.80
  -7  11   2  136.19   46.00
  11  -7  -2  138.79   46.90
  -4  11  -2   59.69   22.00
  -7  11   2  108.09   30.50
  -7  11  -2   84.09   27.20
  11  -4  -2  107.79   32.20
  -7  11  -2   96.19   41.20
  11  -7   2   70.99   34.00
  11  -4  -2   79.49   39.40
   7   4   2  163.78   28.70
  11  -8  -2   18.40   16.50
  -8  11   2    5.30   11.10
   8   3  -2    9.80    7.80
  11  -3   2    9.10    7.30
  -3  11  -2    1.40    6.00
 -11   8  -2    6.50    8.00
  11  -3   2    0.70    7.10
  -8  11   2   -2.30    6.70
   8   3   2    5.70    6.00
  11  -3  -2   -1.70    9.10
  -8  11  -2   13.70    9.60
  11  -3  -2    4.10    5.40
  -3  11   2    5.40    7.60
  -8  11  -2   -0.80    6.00
  11  -8   2   -2.00    5.20
  -9  11   2    2.50    6.40
 -11   9  -2   -3.30    4.60
  11  -2   2    5.80    9.50
  -9  11   2   -6.00    4.70
  -2  11  -2    6.50    5.80
   9   2  -2    3.80    5.60
  11  -9  -2    2.60    8.10
  11  -2  -2   23.20   16.90
 -11   9   2   -3.20    3.60
  -2  11   2   11.10    6.10
  -9  11  -2   -7.10    4.10
   9   2   2    0.50    4.70
  -9  11  -2   11.20   11.80
  11  -9   2   -3.00    5.60
 -11  10  -2   32.80   26.20
  10   1  -2   89.89   32.00
 -10  11   2   39.60   23.70
  -1  11  -2   98.99   23.70
  10   1   2   98.99   36.40
  11  -1  -2  104.49   38.70
  -1  11   2  153.98   32.80
 -10  11  -2   42.80   26.60
  11   0   2    4.40    6.30
 -11  11  -2   31.80   21.10
  11   0  -2    8.70   11.70
 -11  11   2   14.50   15.00
  12  -6  -2    6.70   13.70
  12  -6  -2   33.20   19.90
  12  -6   2   28.40   17.10
  -6  12   2   33.60   19.70
  -6  12  -2   92.49   33.20
  12  -6   2   21.50   16.40
  12  -5   2    5.40    8.60
  12  -7  -2   23.60   17.20
  -7  12   2   10.60    6.30
  -5  12  -2    4.00    8.50
  -7  12   2   25.40   18.20
  12  -5   2   10.80   11.50
  -7  12  -2   12.90    6.90
  12  -5  -2    0.50    5.50
  12  -5  -2   22.80   13.10
  12  -7   2   21.90   14.90
  -4  12  -2  246.68   53.79
  12  -8  -2  276.57   73.49
  -8  12   2  202.08   67.39
  12  -4   2  127.69   44.00
  -8  12   2  295.27   58.59
  12  -4  -2  282.87   81.89
  12  -4  -2  260.37   55.09
   8   4   2  255.67   46.20
  12  -8   2  170.98   62.39
  -4  12   2  140.39   44.20
  -8  12  -2  196.98   65.19
  -9  12   2   36.30   19.90
  12  -3   2   81.79   19.70
  12  -9  -2   81.09   39.20
  -3  12  -2   86.69   30.70
  -9  12   2   37.40   26.40
   9   3  -2   64.79   22.80
  -9  12  -2   48.60   22.90
  12  -9   2   48.40   29.70
  -3  12   2   80.39   29.30
  12  -3  -2   53.79   30.40
  -9  12  -2   49.40   30.50
   9   3   2   49.99   21.80
  -2  12  -2  132.59   34.30
 -12  10  -2  128.79   51.39
 -10  12   2   55.39   38.20
 -10  12   2  105.79   37.20
  12 -10  -2   92.99   47.70
  10   2  -2  103.49   35.70
  12  -2   2  106.19   46.70
  10   2   2  109.69   36.40
  12 -10   2   59.59   36.20
 -12  10   2   87.09   41.90
  12  -2  -2   97.59   43.60
  -2  12   2  183.58   41.70
 -10  12  -2  113.29   41.20
 -10  12  -2   84.79   43.00
  -6  13  -2   -6.30    4.40
  -7  13   2    5.70    5.20
  13  -7  -2    6.70   11.80
  13  -6   2   -2.00    7.40
  13  -7   2   -0.10    9.00
  -6  13   2    0.20    7.00
  13  -6  -2   -2.60    5.00
  -7  13  -2   -3.90    5.90
  13  -6  -2   -2.60    6.80
  -8  13   2   98.09   42.80
  13  -8  -2   92.29   37.00
  13  -5   2   75.99   27.40
  -5  13   2   66.59   31.00
  13  -8   2   53.49   29.00
  13  -5  -2   50.19   33.50
  13  -5  -2   37.50   19.50
  -8  13  -2   48.00   28.10
  -8  13  -2   75.59   20.60
   0   0  -3    1.70    2.60
   0   0  -3    1.70    3.60
   0   0  -3    0.40    1.40
   0   0   3    1.60    2.80
   0   0   3    3.30    3.20
   0   1   3  267.17   53.09
   0   1   3  350.16   55.99
   1   0  -3  335.27   53.89
   0  -1   3  300.47   54.49
   1   0   3  248.58   54.69
   1  -1  -3  223.38   57.29
  -1   0   3  293.97   54.89
   1   0   3  356.76   56.69
   0   1  -3  310.27   53.89
  -1   0  -3  257.27   54.79
  -1   1   3  334.67   56.09
   1   0  -3  387.86   58.79
   1  -1   3  230.78   52.79
  -1   1  -3  334.37   55.79
   0   1  -3  244.28   54.19
  -1   0  -3  339.97   56.39
  -1   1  -3  310.77   56.09
   1   0   3  330.87   55.59
   0  -1  -3  363.66   57.99
   1   0  -3  378.56   56.59
   1   0  -3  288.77   54.79
   0  -1   3  322.97   53.69
   1  -1   3  322.87   55.59
   1   0   3  295.47   53.69
   0   1  -3  336.67   55.09
   0   1   3  302.57   54.99
  -1   1   3  337.07   54.59
  -1   0   3  320.77   53.79
   0  -1  -3  424.46   57.49
  -1   1  -3  315.97   55.49
  -1   2   3    2.50    3.10
  -1   2  -3   -1.90    1.10
  -1  -1  -3   -1.80    1.30
   1  -2   3    4.60    3.60
  -1   2   3   -1.10    1.40
  -1  -1  -3    1.10    2.20
  -1   2  -3   -0.90    2.10
  -2   1  -3    1.20    2.50
   2  -1  -3    3.80    4.30
   1  -2  -3    1.20    3.70
   1   1   3    1.80    1.60
  -1  -1   3   -1.30    1.00
  -2   1  -3   -0.70    2.30
   1   1  -3    0.30    1.30
   1   1  -3   -2.00    1.00
   2  -1   3    1.10    2.70
   1  -2   3   -2.50    1.20
  -2   1   3    0.30    1.40
   2  -1  -3    0.60    2.60
   1  -2  -3    4.80    3.70
   2  -1  -3   -1.00    1.50
   1   1  -3   -0.10    2.50
  -1   2   3    0.20    2.10
   1   1   3    1.80    1.90
  -1   2  -3    1.60    2.70
  -1   2  -3   -0.60    1.90
   1   1   3    3.90    4.40
  -2   1   3   -2.60    1.00
   2  -1  -3    1.70    3.80
   2  -1   3   -1.30    1.00
  -1   2   3    2.70    3.30
   1   1   3    1.00    2.40
   1   1  -3    0.60    1.50
  -1  -1   3   -1.20    1.00
   0   2   3  232.38   41.60
   0   2   3  218.88   48.90
   2   0  -3  225.18   44.90
   2  -2   3  253.37   42.10
   2   0  -3  189.08   44.20
   2   0  -3  254.77   39.90
   2  -2   3  273.37   51.09
  -2   2  -3  265.87   49.90
   2   0   3  240.88   46.90
   0  -2  -3  113.39   40.20
   0   2   3  198.48   38.20
  -2   2   3  169.28   44.50
   2   0  -3  209.58   48.70
   0   2  -3  239.98   37.80
   0   2  -3  233.88   37.60
   0  -2  -3  117.59   42.50
  -2   2   3  238.58   46.30
  -2   0   3  235.98   40.10
   0  -2   3  199.68   39.50
   0   2   3  252.47   40.50
   2  -2  -3  253.37   50.89
   2   0   3  186.48   42.10
   0   2  -3  213.48   40.20
  -2   0   3  221.98   46.60
   0   2  -3  185.58   44.00
  -2   0  -3  318.57   45.20
   2   0   3  253.37   49.50
  -2   2  -3  261.87   50.79
  -2   0  -3  196.38   45.80
   2  -2  -3  181.28   48.10
   0  -2   3  237.78   39.10
   1  -3  -3   35.20   14.30
   3  -2  -3   51.59   18.40
  -2   3   3   58.79   19.50
   1   2   3   37.30    8.40
  -3   2  -3   16.00   11.60
   3  -1   3   53.79   18.80
  -2   3   3   27.90   13.20
   3  -1   3   43.80   15.20
   2  -3   3   34.60   16.10
  -1   3  -3   28.40   10.30
  -2   3   3   39.50   17.40
  -2   3   3   56.09   16.40
   1  -3  -3   53.29   19.70
   3  -1   3   70.99   22.10
  -1   3  -3   54.79   17.40
  -3   1   3   61.59   17.10
   3  -1   3   30.60   14.20
   2   1  -3   24.70   11.80
  -3   1   3    9.30    8.90
   1   2   3   67.29   20.80
   2   1  -3   33.90   12.90
   3  -2  -3   17.00   13.10
  -3   2  -3   45.90   17.60
  -2  -1  -3   25.70   12.10
   1   2   3   38.80    8.20
  -1   3  -3   49.00   16.40
  -1   3  -3   37.50   11.60
   2  -3   3   33.00   13.20
  -2  -1  -3   51.29   16.30
   1   2   3   43.20   14.10
  -1   3   3   34.00   11.60
  -3   2   3   33.80   14.10
   1   2  -3   40.40   13.70
   2   1   3   29.10   10.50
   3  -2   3   29.50   13.40
   2   1   3   59.79   17.10
   2  -3  -3   48.20   17.50
  -2   3  -3   81.59   20.60
   3  -1  -3   49.20   15.70
  -1  -2  -3   37.90   14.30
  -2   3  -3   67.59   17.90
  -1   3   3   47.00   14.30
  -1   3   3   37.60   14.30
   3  -1  -3   30.50   15.40
   3  -1  -3   17.10   10.90
   2   1   3   57.09   19.00
  -3   1  -3   51.99   18.60
  -2   3  -3   60.39   20.00
  -2   3  -3   60.49   19.90
  -3   2   3   51.29   18.50
  -2  -1   3   23.00   10.10
   1  -3   3   33.60   13.70
   2   1   3   59.39   12.90
   3  -1  -3   21.00   11.50
  -1  -2  -3   42.40   13.30
   2  -3  -3   58.49   20.60
   1  -3   3   21.90   10.30
   3  -2   3   52.29   19.50
  -1   3   3   33.80   15.40
  -3   1  -3   30.10   14.30
   1   2  -3   16.10    9.20
  -3   0   3  240.98   48.30
   0  -3  -3  320.47   53.39
   0  -3  -3  266.27   49.20
  -3   3   3  313.77   62.39
   3   0   3  274.47   49.10
   3  -3   3  221.28   58.89
  -3   0  -3  225.28   55.09
   3   0   3  332.47   52.19
   0   3   3  326.67   62.49
   0   3   3  255.17   49.80
   3   0  -3  317.57   51.79
   3  -3  -3  164.28   55.99
   0   3  -3  287.27   49.60
  -3   3  -3  284.57   60.19
   3  -3  -3  317.67   62.99
   0   3   3  267.37   45.20
  -3   3   3  288.67   58.89
   3   0  -3  270.57   47.90
   3   0   3  293.47   60.69
  -3   0   3  264.47   55.39
  -3   0  -3  255.47   57.49
  -3   3  -3  394.56   55.89
   3  -3   3  252.97   56.19
   0   3  -3  272.87   49.20
   3   0  -3  197.18   54.59
   3   0  -3  245.88   48.10
   3   0   3  340.17   60.69
   0   3   3  264.47   44.90
   2  -4   3    0.30    3.90
  -2   4   3    1.70    3.50
   4  -2  -3   -0.60    3.30
   4  -2   3    1.10    2.80
   4  -2   3    3.80    7.00
   2   2  -3    3.80    3.30
  -4   2   3    1.30    1.90
  -2   4   3    2.80    4.20
   2   2  -3    1.80    2.00
  -2   4   3    3.30    3.10
   4  -2  -3    3.00    4.80
   2   2   3   -0.10    1.70
   2  -4   3   -0.10    2.20
  -2   4  -3    1.90    3.70
   4  -2  -3   -1.40    2.40
   2  -4  -3   -0.80    2.70
  -4   2  -3    4.00    5.60
  -4   2   3   -0.50    3.60
  -4   2  -3    0.30    2.10
  -2   4   3    1.20    2.90
   2  -4  -3   -2.00    1.80
   2   2   3    1.10    3.10
  -2   4  -3    1.90    4.20
  -2   4  -3   -1.40    3.10
  -2   4  -3   -0.30    2.90
   3   1  -3   17.30    9.10
  -3   4   3   25.00   14.20
  -4   3  -3   14.90   10.90
  -1   4  -3   25.60   11.30
  -4   1   3   28.50   12.10
   4  -1   3   15.20    9.10
  -1   4  -3   19.20    4.70
   1   3   3   25.40   12.80
  -3  -1  -3   26.30   11.00
   1   3   3   27.90   11.30
  -1   4  -3   20.40    4.80
   3  -4   3   39.80   17.80
  -1   4  -3   10.20    8.40
   1  -4  -3    9.80    8.00
  -3   4   3   70.69   23.10
   1  -4  -3   32.10   13.30
   4  -3  -3   22.70   14.20
  -4   3  -3   16.10   11.70
   3  -4   3   10.70    8.10
  -3   4   3   32.80   13.30
  -4   1   3   21.90   12.00
   4  -1   3    9.80    8.80
   4  -1   3   21.70   13.60
   4  -1   3   29.10   14.40
   3   1  -3   35.80   14.30
   4  -3  -3   31.40   15.10
   3   1   3    5.90    7.00
  -3   4  -3   19.20   10.90
  -1   4   3   30.20   14.80
  -1   4   3   46.30   16.10
   3  -4  -3   37.10   16.80
   3   1   3   48.20   18.10
   1  -4   3   43.60   13.60
   4  -1  -3   14.80   10.50
  -4   1  -3   32.20   15.40
   4  -1  -3   29.00   11.90
   1   3  -3   26.80    9.80
  -1   4   3   25.50    8.60
   4  -1  -3   27.60   14.90
  -4   1  -3   71.39   23.00
  -4   3   3   31.20   16.50
   1   3  -3   24.70    9.90
   4  -3   3   19.30   11.30
   4  -3   3   26.30   12.90
   3   1   3   25.40    6.30
  -4   3   3   24.60   12.70
  -3   4  -3   24.10   12.00
   4  -1  -3   28.20   12.20
  -3   4  -3    6.40    7.70
   3  -4  -3   31.00   16.60
  -1   4   3   24.60    8.90
   3   1   3   21.00    6.10
  -3   4  -3   22.50   14.20
   4   0  -3    1.40    3.30
  -4   0   3    4.50    5.40
  -4   4   3   13.30    9.90
   4  -4   3    3.90    7.20
   4   0   3    7.40    8.00
   4  -4  -3    0.50    4.50
   4   0  -3    4.40    6.10
  -4   4  -3    3.30    5.60
   4   0   3   10.90    6.60
  -4   0  -3    6.20    6.60
   4   0   3    7.00    5.70
   4   0  -3    0.00    2.00
   4  -4   3   18.20   11.70
   0   4  -3    0.40    1.80
   4  -4  -3    2.20    7.00
  -4   4  -3    4.10    6.60
  -4   0  -3    6.90    4.30
   0   4   3   12.50    7.50
  -4   0   3   -0.30    2.20
   0   4   3    4.10    5.20
   4   0   3   13.50    8.70
  -4   4   3    0.50    3.60
   4   0  -3    2.90    2.50
   0   4  -3   13.20    7.80
   5  -2   3  224.68   54.99
  -3   5   3  299.27   64.49
  -2   5  -3  231.58   44.90
   5  -3  -3  293.87   64.29
  -5   2   3  306.37   62.89
  -3   5   3  320.27   70.09
   5  -3  -3  338.57   75.89
   2  -5  -3  363.76   71.19
   3   2  -3  263.67   46.80
   5  -2   3  294.17   64.19
   2  -5  -3  320.07   61.59
   3  -5   3  221.08   55.99
   2   3   3  221.18   49.80
  -2   5  -3  284.57   58.89
   5  -2   3  183.78   55.49
  -2   5  -3  299.87   46.40
  -3   5   3  344.27   64.49
  -5   2   3  292.57   64.59
   2   3   3  182.88   51.89
  -5   3  -3  282.67   63.99
   3   2  -3  307.97   49.90
  -3   5   3  286.97   57.39
  -5   3  -3  166.68   55.39
   3  -5   3  337.37   70.19
  -2   5  -3  242.08   57.59
   2  -5   3  226.98   53.89
   3   2   3  281.17   58.59
  -3   5  -3  128.69   51.09
  -2   5   3  202.48   49.30
   5  -2  -3  365.76   66.69
  -5   2  -3  352.36   69.59
   5  -3   3  253.87   60.39
  -3   5  -3  259.07   53.79
   2   3  -3  229.98   45.40
  -5   3   3  183.18   57.69
   3  -5  -3  247.68   59.49
  -3   5  -3  271.57   60.59
   5  -3   3  278.97   65.79
   2   3  -3  260.67   45.40
   3   2   3  268.57   54.19
   5  -2  -3  238.18   56.99
  -3   5  -3  226.38   53.79
   2  -5   3  313.27   63.89
  -2   5   3  273.07   65.79
  -2   5   3  340.87   63.09
   5  -2  -3  365.56   70.59
  -2   5   3  292.67   48.40
   5  -2  -3  256.57   63.89
  -5   3   3  255.97   59.49
   3  -5  -3  394.96   75.49
  -4   5   3   11.20    9.70
   4  -5   3   17.60   11.00
   5  -4  -3    9.80   10.30
  -4   5   3   18.70   10.80
   5  -1   3   27.00   14.70
   5  -1   3   23.10   14.90
  -1   5  -3   10.40    7.40
   1  -5  -3    8.90    8.00
  -5   4  -3    6.80    8.10
  -5   1   3   28.90   15.80
  -5   1   3    1.40    3.10
   5  -1   3   22.60   11.00
  -5   4  -3   12.30   11.10
   4   1  -3   19.20    9.40
   5  -4  -3   21.10   14.60
   5  -1   3   28.00   14.20
   1   4   3   16.10   10.10
   4   1  -3   18.50   11.30
   4  -5   3   28.50   18.40
  -1   5  -3   10.00    8.10
   1   4   3   26.50   10.90
   1   4  -3   18.90    8.20
  -1   5   3   11.20    9.40
   5  -1  -3    3.80    5.30
  -4   5  -3   14.60   10.40
  -5   1  -3   10.30   10.80
  -5   1  -3   10.00    8.20
   4  -5  -3   -1.60    3.90
   5  -1  -3    3.70    4.40
   1   4  -3   12.60    6.20
   4   1   3   20.40   11.30
  -5   4   3    2.80    6.00
   5  -1  -3   15.30   11.30
  -5   4   3   10.70    9.60
   5  -4   3    7.30    7.00
  -4   5  -3   36.50   16.80
   4  -5  -3   12.80   11.60
  -1   5   3   14.60    9.70
   5  -4   3   27.40   17.00
   5  -1  -3   17.10   10.10
  -4   5  -3   17.20   12.10
   4   1   3   18.30   10.80
  -5   5   3   86.99   30.30
   5   0   3   46.90   19.10
   0   5   3   29.30   15.00
  -5   5  -3   82.29   28.50
   5  -5  -3   24.00   16.50
  -5   0  -3   36.00   17.60
   5  -5   3   24.90   18.30
   0   5  -3   72.69   19.20
   5   0   3   40.50   13.80
   0   5  -3   46.70   14.60
  -5   0  -3   16.20   12.00
   5   0  -3   13.30   12.80
  -5   5   3   59.59   22.20
   5   0  -3   38.10   17.90
   0   5   3   28.30   13.00
   5   0  -3   50.09    9.70
   5   0   3   54.99   22.10
  -5   5  -3   11.30   11.00
   5   0  -3   53.39   10.00
   5  -5  -3   61.29   28.50
   5  -5   3   22.30   14.40
  -5   0   3   87.59   23.10
   5   0   3   39.30   12.40
   6  -3   3    1.70    4.20
  -3   6   3   -1.10    3.60
  -3   6  -3   -3.10    3.00
   3   3   3    1.20    1.80
   6  -3  -3   -4.50    2.30
   6  -3  -3    5.60    5.20
   3   3  -3   -1.00    2.20
  -3   6  -3   -0.80    2.80
   6  -3   3    7.30    6.50
  -3   6   3    2.00    5.70
   3  -6  -3    1.50    4.70
  -6   3   3   -1.20    3.70
  -6   3  -3    1.10    6.90
  -6   3   3   -2.40    2.70
   3   3  -3   -1.00    1.70
  -6   3  -3    0.30    6.10
  -3   6  -3    2.30    3.00
   3  -6   3    0.00    2.50
  -3   6   3    3.50    5.70
  -3   6   3    0.90    3.50
  -3   6  -3    0.10    4.10
   3  -6   3   -0.70    4.20
   3  -6  -3   -0.40    5.40
   3   3   3    0.00    1.70
   2   4   3   57.39   19.40
   2  -6  -3   95.09   27.70
  -2   6  -3   80.99   26.80
  -4   6   3   47.70   25.60
  -6   4  -3   79.09   30.10
   6  -2   3   58.19   25.80
  -4   6   3   82.79   25.60
   4  -6   3   41.00   21.60
   4   2  -3   39.50   16.00
  -2   6  -3   80.89   24.10
   6  -4  -3   58.09   25.00
   4  -6   3   58.69   22.80
   2   4   3   41.80   14.40
   6  -2   3   11.30   13.60
  -4   6   3   71.39   25.20
  -6   2   3   49.00   22.70
  -6   2   3   37.50   18.90
  -4   6   3   57.39   25.80
   6  -2   3   65.29   25.50
  -6   4  -3   34.10   19.90
   4   2  -3   58.49   19.60
   6  -4  -3   44.90   24.20
   6  -2   3   37.30   17.90
   6  -2  -3   37.40   19.50
   6  -2  -3   38.90   17.00
   2   4  -3   90.19   16.00
  -2   6   3   62.69   13.90
  -6   2  -3   97.39   32.10
   4   2   3   67.69   20.20
  -4   6  -3   52.89   20.00
  -4   6  -3  100.79   34.90
   6  -4   3   73.99   28.90
  -6   2  -3   22.20   15.00
  -6   4   3   15.60   14.00
   2   4  -3   41.10   12.50
   6  -4   3   18.90   14.40
  -2   6   3   54.09   20.90
   4  -6  -3   25.20   16.80
   4  -6  -3   39.70   20.70
   4   2   3   72.79   24.50
   2  -6   3   58.79   20.90
  -6   4   3   59.19   25.10
   6  -2  -3   48.10   24.30
  -4   6  -3   62.19   24.60
  -4   6  -3   77.89   24.70
  -2   6   3   31.90   11.20
   6  -2  -3   61.59   26.00
   5  -6   3   42.00   21.00
   6  -5  -3   27.50   18.20
  -1   6  -3   12.50    8.90
  -6   1   3   25.30   14.80
   1   5   3   11.70    8.10
  -1   6  -3    6.30    5.30
  -6   1   3   27.80   15.00
   5  -6   3   29.00   17.80
   6  -1   3   53.79   23.40
   6  -1   3   38.50   18.50
   6  -5  -3   20.10   14.70
   5   1  -3    7.80    7.80
   6  -1   3   29.90   14.90
   5   1  -3   42.90   17.90
   6  -1   3   16.80    8.90
  -6   5  -3   12.80   11.10
  -5   6   3   21.10   16.20
   1   5   3   20.90   11.90
  -5   6   3   30.00   15.80
  -6   5  -3    1.80    5.00
  -5   6  -3   24.10   15.40
  -1   6   3    6.50    6.40
   6  -5   3   36.00   19.60
  -6   1  -3   36.20   17.60
  -5   6  -3   12.20    9.30
   5  -6  -3    2.90    7.70
  -6   1  -3   27.00   17.50
  -1   6   3   19.70   12.00
   6  -1  -3   14.90   10.40
  -6   5   3   35.70   17.70
   6  -1  -3   26.20   17.00
   6  -1  -3    8.70    8.60
   6  -5   3   13.60   15.10
   5   1   3   30.00   14.90
   6  -1  -3   39.00   18.50
   5  -6  -3    8.70   11.70
   1   5  -3   16.80    7.40
   5   1   3   17.00   11.10
   1   5  -3   37.60   11.60
  -6   5   3   25.40   17.50
  -6   6  -3    6.60    7.10
   6   0   3    6.20    7.50
   6   0  -3   -0.80    3.10
   0   6  -3   -0.30    1.40
   0   6   3    8.30    6.40
   6  -6  -3   -0.80    3.90
  -6   6   3    2.50    7.90
   6   0   3    2.80    2.20
   6   0   3    2.90    2.40
   6  -6   3    0.40    6.80
  -6   6   3    0.00    3.40
  -6   6  -3    2.20    3.80
   6   0  -3    2.80    7.00
   0   6   3    1.30    3.70
   0   6  -3   -2.40    2.20
   6  -6  -3   -2.20    5.90
   7  -4  -3  102.69   38.40
  -4   7   3   85.09   31.10
  -7   3   3   88.09   32.10
   4   3  -3   86.69   20.70
   3   4   3   78.69   23.60
  -3   7  -3   63.89   23.50
  -4   7   3   87.49   25.10
  -7   4  -3   36.90   24.70
  -7   4  -3   50.29   26.20
   7  -3   3   58.29   25.20
   7  -3   3   77.49   33.40
   4   3  -3   87.89   21.90
  -3   7  -3   75.69   17.00
   3   4   3   53.39   17.20
   7  -4  -3  112.49   35.10
  -3   7  -3   67.99   16.50
  -7   4   3   76.29   32.40
  -4   7  -3   80.09   28.80
   4  -7  -3   52.79   26.10
  -3   7   3   41.10   21.00
  -4   7  -3   79.59   28.20
   3   4  -3   65.49   14.60
  -3   7   3   39.80   16.20
   7  -3  -3   96.69   31.30
  -4   7  -3   77.49   22.50
   7  -3  -3   30.00   22.00
  -7   3  -3   82.59   34.10
   4   3   3   57.19   22.80
  -7   4   3   60.99   27.00
   4   3   3   59.19   19.40
  -7   3  -3   62.59   28.90
  -3   7   3   68.59   20.40
   7  -4   3   63.69   28.60
   7  -4   3   36.40   21.50
   3   4  -3   69.09   14.70
  -7   5  -3  143.49   43.70
  -7   5  -3   35.00   23.20
   5  -7   3   99.59   33.70
   7  -2   3   16.90   15.10
  -2   7  -3   95.79   30.40
   7  -5  -3   31.40   21.40
  -5   7   3   91.49   28.60
   7  -2   3   76.19   25.00
  -2   7  -3   27.40   16.20
   5   2  -3   84.59   26.10
   2   5   3   47.10   18.00
   7  -5  -3   79.79   35.20
   5   2  -3   52.09   19.50
   2   5   3   67.79   17.70
  -5   7   3   91.59   34.40
  -2   7   3   85.59   26.50
  -7   5   3   39.70   22.70
   7  -5   3  100.19   33.70
  -7   5   3   89.49   34.90
   5   2   3   94.59   26.50
  -5   7  -3   50.99   24.00
   7  -2  -3   46.70   19.90
   7  -2  -3   57.99   26.00
   7  -5   3   77.49   33.80
   5   2   3  118.99   34.40
  -5   7  -3   77.89   25.90
   5  -7  -3   65.19   28.70
   6  -7   3   -1.50    5.60
  -1   7  -3   19.30   10.30
  -7   6  -3   24.30   16.10
   7  -6  -3   16.80   14.90
  -6   7   3    8.20    8.50
   1   6   3   15.90    9.30
   7  -1   3    8.00    7.70
   7  -1   3   11.70   10.30
  -7   6  -3   28.40   18.40
  -1   7  -3   19.30   11.50
   1   6   3   11.50    7.50
   6   1  -3   18.10   11.30
  -6   7   3   24.00   12.90
  -7   6   3   17.30   13.50
   7  -1  -3   17.70    9.00
  -7   6   3   17.80   14.80
   1   6  -3   15.20    7.20
  -1   7   3   29.50   13.80
   6   1   3   24.10   14.20
   7  -1  -3   14.20   10.90
  -1   7   3   12.10   11.10
  -6   7  -3   22.00   15.20
  -6   7  -3   13.60   10.40
   7  -1  -3   20.00    9.80
   7  -6   3   30.30   19.50
   6  -7  -3   24.00   18.30
   1   6  -3   21.80    7.50
   7  -6   3    3.90    7.80
  -7   7   3  146.99   49.40
  -7   7  -3  101.89   42.90
  -7   7   3  131.59   43.20
   0   7  -3  242.18   40.60
   0   7  -3  154.28   35.80
   0   7   3  131.99   35.50
   7  -7   3  205.48   58.69
   7   0  -3  129.99   41.80
   7   0   3  131.59   39.60
   7  -7  -3  128.39   47.20
   0   7   3  118.29   36.10
  -7   7  -3  120.99   41.50
   8  -4  -3    8.90   10.10
   4   4  -3    1.20    1.90
  -4   8   3    0.60    3.90
   4   4   3   -1.40    3.30
  -4   8  -3   -2.00    1.50
   8  -4   3   -1.70    2.50
   8  -4  -3   -3.10    8.60
  -8   4  -3    1.40    5.30
  -4   8   3    4.20    7.00
   4   4   3    1.50    3.30
   8  -4   3    6.80    7.10
   4   4  -3    0.20    1.40
  -4   8  -3   -1.40    4.20
  -8   4   3    0.80    6.60
   3   5   3   -0.40    2.70
  -3   8  -3    9.30    8.20
   5   3  -3    3.30    4.90
   8  -5  -3    1.30    4.80
  -5   8   3   -1.40    3.50
   8  -5  -3   16.10   15.90
   8  -3   3    8.70    7.80
  -5   8   3    5.20    5.20
  -8   5  -3    2.10    7.30
   8  -3   3    5.80    7.30
   5   3  -3    2.60    3.40
   3   5   3   -1.40    1.50
  -3   8   3   -2.60    4.20
   5   3   3   14.60    8.00
   8  -5   3   -1.40    3.60
  -5   8  -3    8.90    7.00
   8  -3  -3   -2.10    4.80
   8  -3  -3    1.00    4.00
   8  -5   3   16.60   14.40
  -5   8  -3   -0.50    5.50
   5   3   3   -0.30    4.30
  -8   5   3    7.50    9.00
  -6   8   3   51.69   23.90
   2   6   3   55.69   14.90
   8  -2   3   57.49   25.00
   8  -6  -3   30.90   23.00
   8  -6  -3  100.49   40.80
  -2   8  -3   59.99   22.00
  -8   6  -3   50.29   23.70
  -8   6  -3   33.10   21.10
   8  -2   3   42.00   18.70
   6   2  -3   51.19   21.10
  -6   8   3   27.80   15.80
   2   6   3   29.00   12.50
   8  -6   3   75.69   32.20
   8  -6   3   70.09   36.00
  -6   8  -3   44.30   20.80
  -2   8   3   31.80   16.80
   8  -2  -3   57.19   19.10
  -8   6   3   17.90   14.60
  -8   6   3   36.00   23.70
  -6   8  -3   18.50   13.80
   8  -2  -3   54.19   24.80
   6   2   3   66.89   21.90
   8  -7  -3   37.40   23.80
  -7   8   3    5.30    5.40
   8  -1   3   18.60    8.30
   7   1  -3   10.50    8.60
  -8   7  -3   33.00   19.50
   8  -1   3   27.20   14.50
  -8   7  -3    8.30   10.50
  -7   8   3    4.50    6.50
  -1   8  -3   29.20   13.60
   1   7   3    3.60    5.50
   1   7   3    7.70    5.60
  -7   8  -3   31.10   16.90
  -7   8  -3   14.90   13.30
  -1   8   3    2.70    5.20
   8  -7   3   -2.40    3.80
   1   7  -3   10.70    4.30
   7  -8  -3   -5.30    4.30
   8  -1  -3    4.80    4.80
   1   7  -3   10.60    3.90
  -8   7   3   -5.80    4.40
   7   1   3    8.90    8.60
  -8   7   3   14.20   15.20
   0   8  -3  108.49   24.30
   0   8  -3   93.69   21.10
   8   0  -3   27.00   21.40
  -8   8   3  104.49   40.80
   8   0   3  110.99   32.70
   8  -8  -3   21.60   20.70
  -8   8  -3   35.30   21.60
  -8   8   3   76.99   30.50
   0   8   3   87.39   24.50
  -8   8  -3   66.79   32.30
   8  -8   3   44.10   27.40
   9  -4   3   38.80   22.30
   9  -4   3   48.00   24.70
   5   4  -3   54.59   11.60
   4   5   3   56.29   14.40
  -5   9   3   51.29   19.60
   4   5   3   56.89   16.60
   9  -5  -3   67.49   29.90
   9  -5  -3   51.19   30.20
   5   4  -3   59.59   12.10
  -4   9  -3   14.50   13.10
  -4   9   3   25.40   14.10
   5   4   3   75.59   23.80
   5   4   3   67.09   18.30
  -5   9  -3   20.40   13.70
   9  -5   3   63.19   28.60
   9  -5   3   46.70   27.80
  -4   9   3   50.89   12.90
   9  -4  -3   22.60   16.20
  -5   9  -3   46.40   16.90
   9  -3   3   10.00    9.70
  -6   9   3    6.90    7.50
   3   6   3    4.80    2.90
   9  -6  -3   -0.10    4.90
  -3   9  -3   13.90    9.80
  -9   6  -3   -3.90    5.10
   6   3  -3    7.40    6.20
   9  -3   3    4.20    7.00
  -6   9   3    4.00    7.60
   6   3  -3    7.70    6.10
   9  -6  -3   -1.30    6.00
   9  -3  -3    2.80    8.60
   9  -3  -3    8.60   10.10
  -6   9  -3    5.60    6.70
   9  -6   3   33.60   21.90
   6   3   3   10.60    8.80
   9  -6   3   -2.20    3.90
  -6   9  -3    8.00    8.00
  -9   6   3   23.40   19.30
  -3   9   3   13.80   10.10
  -2   9  -3   18.60   10.60
  -7   9   3    4.70    8.90
   7   2  -3    8.10    8.30
   2   7   3   12.20    6.30
  -7   9   3    3.30    4.30
   9  -7  -3   52.69   25.60
   9  -2   3    5.00    7.00
  -9   7  -3   12.10   12.20
   2   7   3    7.20    4.60
   9  -2   3    7.10    7.30
  -7   9  -3   29.20   14.90
  -7   9  -3    2.40    5.90
   7   2   3   20.00    9.40
   9  -2  -3   10.80   10.60
   9  -2  -3    2.90    3.80
  -2   9   3   44.40   19.40
   9  -7   3   10.40   14.30
  -9   7   3   12.20    9.70
   8   1  -3   86.19   30.00
   1   8   3   33.90   13.30
  -8   9   3   38.30   22.10
  -9   8  -3   53.59   29.10
   9  -1   3   36.30   17.20
  -8   9   3   43.50   21.40
   1   8   3   23.50   17.50
   9  -8  -3   53.69   33.20
  -1   9  -3   66.09   20.70
   9  -1  -3   50.79   28.90
  -8   9  -3   58.69   27.80
  -1   9   3   77.09   25.10
  -9   8   3   58.89   28.20
   8   1   3   54.29   23.60
   9  -8   3   23.50   21.60
  -8   9  -3   32.30   19.90
  -9   9   3   17.00   14.70
   9   0   3   13.70   11.70
   0   9   3   44.70   15.40
  -9   9  -3   21.10   18.20
   0   9  -3   55.69   14.90
   9   0  -3   22.10   18.00
  -9   9  -3   44.80   22.70
  -5  10  -3    0.20    2.60
  10  -5   3   -1.50    3.40
  -5  10   3    8.90   10.10
  10  -5  -3    0.50    3.60
  10  -5   3   -0.80    6.80
   5   5   3   -2.00    2.70
  -5  10   3   -0.10    2.10
  -5  10  -3   -1.10    4.90
  10  -5  -3    4.90    7.60
   5   5   3    0.90    2.10
  -6  10   3   68.59   29.70
   6   4  -3   35.20    8.80
  10  -6  -3   28.10   19.70
  10  -4   3   24.90   17.80
  -6  10   3   33.90   15.30
  10  -6  -3   14.60   20.80
  10  -4   3   18.90   15.10
  -4  10  -3   37.00   15.00
  -6  10  -3   81.39   32.10
  10  -4  -3    8.70   12.20
  10  -4  -3   35.00   18.20
  10  -6   3   18.80   15.70
  -4  10   3    5.80    5.50
  10  -6   3    9.10   12.60
   6   4   3   18.80    9.60
  -6  10  -3   14.30   10.20
  10  -3   3    2.50    6.80
  10  -3   3   -3.10    3.60
  -3  10  -3   -3.10    3.40
  10  -7  -3   -1.60    5.90
  -7  10   3   26.10   17.10
   7   3  -3   -0.90    4.30
 -10   7  -3    2.00    7.90
  -7  10   3    3.50    4.50
  10  -7   3    9.90   10.50
  10  -3  -3    2.60    5.20
   7   3   3   -0.90    3.90
 -10   7   3   11.90    8.40
  -7  10  -3    4.20    7.30
  -7  10  -3    0.60    5.30
  10  -3  -3   -0.30    6.20
  -3  10   3    3.30    5.50
  10  -2   3   -1.90    2.30
  -8  10   3    0.40    5.50
  10  -2   3    3.80    7.80
 -10   8  -3   -0.20    9.20
  -2  10  -3    3.20    3.70
  -8  10   3   18.50   13.10
   8   2  -3   -2.10    6.50
  10  -8  -3   -1.10    7.80
   8   2   3   10.00    7.90
  -8  10  -3   -1.20    5.40
  -8  10  -3   -2.70    7.50
  10  -2  -3    1.20    2.20
  10  -2  -3    0.80    4.40
 -10   8   3   12.80   11.00
  -2  10   3    8.30    9.60
  10  -8   3   -6.60    5.20
  -1  10  -3    1.60    3.10
   9   1  -3   -0.70    3.50
  -9  10   3   -0.40    5.20
  -9  10   3   -6.00    3.70
  10  -1   3    3.70    5.70
 -10   9  -3   -2.90    4.50
  10  -9  -3   -1.10    5.80
   1   9   3    2.30    3.50
   9   1   3   -4.60    3.50
  -9  10  -3    2.00    6.20
  -9  10  -3    3.70    6.40
  -1  10   3    1.50    3.20
  10  -1  -3    8.50   10.50
  10  -9   3   -2.40    5.30
 -10   9   3    2.30    6.60
 -10  10  -3   10.90   14.00
  10   0  -3   11.30   10.30
  10   0   3   13.90   11.50
 -10  10   3   14.40   15.30
   0  10   3   32.70   12.10
  -5  11  -3   11.30   11.80
  11  -6  -3   31.40   26.70
  11  -5   3   15.90   14.40
  11  -5   3   17.10   14.90
  -6  11   3   70.39   17.90
  -6  11   3   10.30   11.80
  11  -6  -3   42.60   24.40
  -5  11   3    4.70   10.00
  -6  11  -3   22.80   16.10
  11  -5  -3   34.20   20.50
  11  -5  -3   25.40   23.30
  11  -6   3   38.70   22.90
  11  -6   3    6.20    8.60
  -6  11  -3   43.90   12.60
  11  -4   3   -1.40    4.50
  11  -7  -3    9.60    9.40
   7   4  -3   -1.60    1.80
  -7  11   3    2.90    7.10
  -4  11  -3    2.60    6.00
  -7  11   3   -1.50    5.90
  11  -4   3    2.60    5.70
  11  -7   3    0.90    7.60
  -7  11  -3   -4.50    6.90
  11  -4  -3    1.10    4.40
  11  -4  -3   17.10   13.30
  -7  11  -3    4.20    4.40
  -4  11   3   -1.50    3.80
   8   3  -3   12.10    8.60
  11  -8  -3   -3.30    9.30
  11  -3   3    8.10    7.00
  11  -3   3   -2.40    4.30
  -3  11  -3   14.40    9.80
 -11   8  -3   -3.20    4.10
  -8  11   3    4.60   10.00
  -8  11   3    6.50    6.70
  -3  11   3   11.90    8.20
  11  -8   3    0.40    5.10
   8   3   3    2.20    3.90
  11  -3  -3    5.50   10.40
  11  -3  -3    0.20    3.80
  -8  11  -3    2.10    7.30
  -8  11  -3   -2.50    4.30
  -2  11  -3   15.70    8.00
  11  -9  -3    0.70    7.90
  -9  11   3   15.00    8.70
  -9  11   3    0.20    6.10
 -11   9  -3   10.00   11.20
   9   2  -3   23.70   15.80
  11  -2   3    1.10    3.20
 -11   9   3   14.60   18.10
  11  -9   3    8.40   12.90
  11  -2  -3   -1.40    8.80
   9   2   3    5.30    5.60
  -2  11   3   -4.40    3.10
  -9  11  -3   18.70   21.70
  -9  11  -3   -0.20    3.40
  10   1  -3    3.10    7.20
 -10  11   3   30.40   20.20
  -1  11  -3   15.60    6.90
  11  -1   3    3.20    5.40
 -11  10  -3   11.90   14.40
 -10  11  -3   -5.10    4.30
  10   1   3    1.70    6.50
  11  -1  -3   23.00   19.00
 -11  10   3   -5.50    6.80
  -1  11   3    9.20    6.70
 -11  11  -3   -1.00    4.30
  11   0   3    3.00    7.10
   0  11   3    4.50    3.70
 -11  11   3    8.50    9.00
  11   0  -3   -4.10    5.40
  -6  12  -3   -3.90    4.30
  12  -6  -3    4.30    8.30
  12  -6   3   -4.40    4.80
  12  -6  -3   -3.70    5.90
  12  -6   3   -4.50    5.40
  -6  12   3   -1.30    4.20
  -7  12   3    2.70    3.20
  -5  12  -3   -1.20    4.60
  12  -7  -3    5.40    8.00
  -7  12   3   10.20   12.70
  12  -5   3    3.10    7.30
  12  -5   3    7.80   10.00
  12  -7   3    1.70    5.50
  12  -5  -3   -1.10    9.10
  -7  12  -3    7.10    4.70
  -7  12  -3   -6.40    5.10
  -5  12   3    1.50    9.40
  12  -5  -3   -8.20    5.60
  -4  12  -3    3.50    7.30
  12  -4   3   -3.00    3.60
  12  -8  -3   -6.70    4.30
  12  -4   3   -1.90    4.70
  -8  12   3   18.90   18.00
  -8  12   3   -0.20    3.20
  12  -4  -3    1.90    5.40
  -8  12  -3    3.20    9.50
   8   4   3    3.50    3.90
  -8  12  -3   13.60    9.10
  12  -8   3   -2.50    6.00
  -4  12   3   -0.40    6.70
  12  -4  -3    7.30    6.40
  12  -3   3    4.60    9.30
  12  -3   3    1.30    2.70
  12  -9  -3    7.00   11.20
  -9  12   3   18.50   17.50
  -3  12  -3    1.10    4.70
  -9  12   3   -0.10    5.10
   9   3  -3   -1.30    3.60
  -9  12  -3   -4.10    6.40
  12  -3  -3   -3.00    4.80
  12  -9   3   -0.70    6.70
   9   3   3    6.20    6.40
  -3  12   3    2.70    6.80
  -9  12  -3    0.60    4.10
 -12  10  -3   -3.20    7.50
  12  -2   3    6.10   12.20
  12 -10  -3   24.40   24.40
  10   2  -3    9.20   10.10
 -10  12   3    6.10    8.20
  -2  12  -3    3.90    6.70
 -10  12  -3   29.90   26.70
 -12  10   3    3.60    9.80
 -10  12  -3   22.30   16.10
  10   2   3   16.10   13.40
  -2  12   3   17.60   11.90
  12  -2  -3   12.90   16.30
  13  -6   3   11.10   12.50
  13  -6   3   -1.00    7.80
  -7  13   3    9.10   10.10
  -6  13  -3    1.50    6.20
  13  -7  -3    3.00    8.70
  13  -6  -3   -5.50    6.00
  13  -7   3   14.30   15.10
  -6  13   3    8.10   10.40
  -7  13  -3   -2.40    5.90
  13  -6  -3    0.60    5.10
  13  -5   3   -9.00    8.60
  -8  13   3    0.10    5.80
  13  -8  -3   11.20   10.90
  13  -5   3   48.30   32.60
  -8  13   3    4.00    6.10
  13  -8   3    6.10    9.20
  -8  13  -3    5.30    4.40
  -5  13   3   -4.00   11.50
  13  -5  -3   -1.20    4.70
  -8  13  -3   -0.90    5.90
  13  -5  -3    2.90    7.50
   0   0   4 6833.52 1078.49
   0   0  -4 6502.15 1080.49
   0   0   4 7454.35 1077.49
   0   0  -4 6451.95 1078.89
   0   1  -4 1144.69  190.98
   1  -1  -4 1121.09  190.88
  -1   1   4 1146.79  190.68
   1   0  -4 1158.08  189.98
  -1   0   4 1286.67  190.98
   0   1   4 1193.38  190.58
   0   1  -4 1193.58  189.38
   0   1   4 1297.47  188.98
   1  -1   4 1090.39  189.58
  -1   1  -4 1077.99  190.68
   0   1   4 1189.78  193.78
   1   0  -4 1280.87  191.28
   0   1   4 1194.58  190.48
  -1   0  -4  912.51  188.88
   0   1  -4 1190.88  187.88
  -1   1  -4 1140.09  190.18
   0  -1  -4 1141.49  190.98
   0  -1   4  917.31  186.88
   1   0   4 1203.28  188.38
   0   1  -4 1138.39  189.38
   1   0   4 1283.67  196.58
   1   0  -4 1260.97  188.68
   0  -1  -4 1119.69  191.98
  -1   1   4 1108.59  188.18
   1   0  -4 1111.29  192.18
   1  -1  -4 1296.37  194.38
  -1   2  -4  913.81  132.19
   1   1  -4  809.52  129.89
  -1   2   4  836.12  130.89
  -2   1   4  818.82  130.99
  -2   1  -4  679.63  129.99
   1  -2  -4  832.82  133.39
  -2   1  -4  749.53  130.29
  -1  -1   4  916.41  129.69
  -1  -1  -4  732.53  129.79
   1   1   4  881.91  132.99
   1   1  -4  819.62  130.99
  -1  -1  -4  896.71  132.49
   1   1   4  795.52  129.29
   1   1   4  855.11  130.39
   2  -1   4  697.13  127.79
   1   1  -4  766.32  126.99
  -1   2  -4  689.33  127.99
   1  -2  -4  800.52  130.99
   1  -2   4  550.04  126.09
  -2   1   4  604.14  126.79
  -1   2   4  962.60  136.69
  -1   2   4  801.02  128.49
  -1   2   4  798.52  130.49
   1  -2   4  842.32  130.19
   1   1   4  652.13  125.89
   2  -1  -4  693.73  129.69
   1   1  -4  731.43  125.69
  -1  -1   4  770.22  126.39
   2  -1  -4  825.72  133.49
   2  -1   4  706.93  129.29
  -1   2  -4  815.62  127.89
  -2   2  -4 1870.91  329.57
  -2   2  -4 1994.00  330.97
  -2   2   4 1850.11  327.97
   0  -2  -4 1876.11  330.87
   0  -2   4 2074.89  328.27
   2   0  -4 2193.68  329.97
   2   0   4 2198.48  331.17
  -2   0   4 2209.38  327.77
   0   2   4 1806.72  325.97
   2   0  -4 2092.39  326.97
   0   2  -4 2225.48  330.47
   2  -2   4 2028.40  330.97
   2  -2  -4 1904.51  332.87
   0   2   4 1654.93  330.47
   2  -2  -4 1698.43  329.47
  -2   0  -4 2560.64  333.07
   0   2   4 2017.00  328.27
   2   0  -4 2003.90  328.57
   0   2  -4 1957.40  325.77
   2   0   4 1702.53  329.97
  -2   2   4 2048.10  330.57
  -2   0   4 2245.88  330.17
   0  -2  -4 2292.47  330.57
   0   2  -4 2250.67  329.37
   2   0  -4 2101.89  332.07
   2   0   4 2188.68  327.77
   2   0   4 2008.30  329.27
   0   2  -4 2189.38  325.77
  -2  -1  -4 1246.18  211.28
  -2  -1  -4 1250.47  211.08
   1  -3  -4 1366.86  212.38
  -1   3  -4 1199.48  210.38
  -1  -2   4 1373.86  211.68
   1   2   4 1380.76  207.38
   3  -2  -4  979.00  212.38
  -2   3   4 1213.68  209.48
   2   1  -4 1177.68  211.38
  -1  -2   4 1324.27  206.48
  -1   3  -4 1205.28  207.18
   1  -3  -4 1267.77  213.68
   3  -1   4 1176.48  212.18
   2   1  -4 1303.57  205.28
  -2   3   4 1189.28  211.08
   3  -2  -4 1541.55  215.28
   2  -3   4 1238.38  211.78
  -3   2  -4 1439.56  214.48
   1   2   4 1239.08  205.58
  -1   3  -4 1406.86  208.08
   3  -1   4 1396.06  210.48
  -3   1   4 1222.68  209.58
   2  -3   4 1252.67  209.88
   3  -1   4 1352.46  218.48
   1   2   4 1317.37  214.18
   1   2   4 1294.67  210.18
  -3   2  -4 1120.99  212.28
  -2   3   4 1453.75  215.38
  -1   3  -4 1282.67  210.98
   3  -1   4 1284.97  212.58
   2   1  -4 1395.06  205.28
   2   1  -4 1297.87  209.98
  -3   1   4 1323.87  211.78
  -2  -1   4 1297.37  207.08
  -1   3   4 1231.18  208.18
  -2   3  -4 1536.55  211.58
  -3   2   4 1083.69  209.28
   3  -2   4 1038.90  209.28
   1  -3   4 1278.37  210.88
   2   1   4 1255.27  212.58
   1  -3   4 1311.37  208.98
   3  -1  -4 1428.96  210.98
   2   1   4 1220.68  208.38
  -3   1  -4 1284.67  212.58
  -3   1  -4  993.60  210.38
  -2   3  -4 1271.07  212.78
   3  -1  -4 1224.38  214.38
  -1   3   4 1321.57  215.08
  -1   3   4 1428.46  210.58
   2  -3  -4  944.11  209.88
  -2   3  -4 1423.86  213.48
   3  -1  -4 1408.86  212.48
   2  -3  -4 1375.86  216.58
   1   2  -4 1271.97  210.08
   2   1   4 1293.97  210.18
  -1  -2  -4 1352.46  210.58
   3  -2   4 1348.57  213.38
  -3   2   4 1224.38  212.08
   3  -1  -4 1364.86  213.08
  -2  -1   4 1288.27  209.58
  -1   3   4 1308.57  211.38
  -1  -2  -4 1263.37  211.58
   1   2  -4 1270.27  202.38
   1   2  -4 1319.17  209.88
   1   2  -4 1282.17  202.48
   0   3  -4  557.24   98.09
   3   0   4  614.24   97.39
   3  -3  -4  605.84  102.99
   0   3  -4  570.04   91.19
  -3   0  -4  601.34  101.99
   0   3  -4  552.04   91.09
  -3   0   4  593.14   97.79
  -3   3   4  558.94  101.59
   3   0  -4  569.84  101.89
   0   3   4  667.93  104.79
   3   0   4  580.64  100.19
   3   0  -4  511.65   96.59
  -3   3  -4  630.04  104.19
   0   3   4  538.05   98.79
   0  -3  -4  649.83  103.29
   3   0  -4  540.85   99.49
   0   3   4  570.54   94.19
   3   0  -4  585.84   96.49
  -3   0   4  593.34   99.79
   0   3  -4  456.95   96.59
   3   0   4  756.22  102.99
   3  -3  -4  390.76  107.49
  -3   0  -4  599.04  100.69
   0  -3  -4  540.55   98.39
   3  -3   4  687.13  105.49
   3   0   4  552.74  101.99
   3  -3   4  505.25   98.69
   0  -3   4  594.14   95.89
  -3   3  -4  536.35   99.79
  -2   4  -4 4425.86  683.43
  -4   2   4 4442.46  686.83
  -4   2  -4 4035.40  688.73
  -2   4  -4 4907.21  688.93
   2  -4   4 4929.91  686.13
   2   2   4 4483.45  684.43
   2   2  -4 4076.39  683.93
  -4   2   4 3775.92  687.53
   2   2   4 4236.18  676.93
   2  -4  -4 4295.47  691.03
  -2   4  -4 4396.46  683.43
   2   2   4 4385.66  676.93
  -2   4   4 3815.02  683.13
   2  -4  -4 4361.06  688.13
  -2   4   4 3394.56  683.73
  -2   4   4 4898.31  693.23
  -2   4   4 4621.14  687.63
   4  -2   4 3830.52  688.83
   2   2  -4 4125.39  683.13
  -4   2  -4 4043.00  689.13
   4  -2  -4 4118.79  687.43
   4  -2   4 4643.34  687.03
  -2   4  -4 4641.44  689.13
   4  -2  -4 4717.13  693.13
  -1   4  -4  423.56   68.29
  -1   4  -4  520.85   76.89
  -3  -1  -4  520.35   78.19
   3  -4   4  506.45   77.39
   4  -1   4  470.05   74.89
  -4   3  -4  436.46   87.79
  -4   1   4  482.85   78.19
  -3   4   4  477.05   79.29
   4  -1   4  342.77   82.89
   4  -1   4  519.75   94.49
  -3  -1  -4  417.36   74.59
   4  -3  -4  518.45   92.99
   1  -4  -4  404.56   74.89
   3  -4   4  511.75   94.59
   4  -1   4  452.15   87.19
  -1   4  -4  258.77   75.09
  -1   4  -4  366.66   67.99
   1  -4  -4  441.66   78.19
   3   1  -4  354.26   72.69
  -3   4   4  417.96   83.19
  -4   1   4  349.17   72.69
   1   3   4  516.75   79.69
   1   3   4  411.46   73.19
   3   1  -4  237.98   75.89
  -4   3  -4  510.15   81.59
   4  -3  -4  496.75   95.39
   4  -1  -4  538.55   96.29
   4  -1  -4  525.25   79.19
  -1   4   4  250.27   79.79
   4  -3   4  338.87   85.09
   3   1   4  371.46   73.19
   3   1   4  420.46   86.39
   3  -4  -4  506.15   80.39
  -3   4  -4  445.36   85.59
   1   3  -4  487.65   73.99
   3   1   4  349.57   69.79
  -1   4   4  340.17   70.39
  -3   4  -4  509.35   76.59
   1   3  -4  294.37   70.39
   3  -4  -4  474.95   95.79
  -4   3   4  401.86   75.19
   3   1   4  350.46   68.79
  -3   4  -4  469.55   90.29
   1  -4   4  346.07   72.79
  -4   3   4  392.86   87.99
  -1   4   4  413.86   75.09
  -1  -3  -4  659.33   81.09
   4  -3   4  410.76   75.49
  -1   4   4  349.47   69.69
  -3  -1   4  409.96   71.09
  -4   1  -4  515.15   92.39
  -4   1  -4  436.36   87.69
  -3   4  -4  417.56   86.19
   1  -4   4  486.75   73.59
   4  -1  -4  486.55   75.19
   4  -1  -4  345.07   80.19
  -4   0   4  841.12  133.19
  -4   4  -4  820.42  135.69
   4  -4  -4  741.73  139.29
   4   0   4  681.53  128.29
   0  -4  -4  981.90  133.39
   0   4  -4  814.62  130.79
   0   4   4  839.12  132.29
   4   0   4  740.43  131.49
   4  -4   4  694.33  137.09
   4   0  -4  751.02  135.09
  -4   0   4  740.13  130.49
   0   4  -4  800.52  130.99
   4   0  -4  588.24  125.99
  -4   0  -4  760.02  133.89
  -4   4   4  882.91  134.89
   0   4   4  938.31  137.79
   4   0  -4  618.44  126.89
  -4   4   4  947.71  140.29
   4  -4  -4  754.12  136.29
  -4   4  -4  878.81  138.49
  -4   0  -4  893.41  136.69
   4   0  -4  749.23  132.29
   4   0   4  784.52  133.19
  -2   5  -4  296.37   69.59
  -5   2   4  270.77   71.69
   5  -3  -4  230.78   70.59
   5  -2   4  351.96   78.49
   3  -5   4  386.56   72.69
  -5   3  -4  308.07   72.99
   5  -2   4  341.37   76.79
   5  -2   4  258.27   66.09
   2   3   4  334.07   59.09
   3  -5   4  318.87   76.69
  -3   5   4  320.67   73.09
  -3   5   4  305.47   67.39
   3   2  -4  321.97   58.79
   5  -3  -4  227.08   66.09
   2  -5  -4  292.07   73.39
   2  -5  -4  394.66   77.79
  -3   5   4  555.44   85.89
  -2   5  -4  327.97   56.39
  -5   2   4  314.97   68.99
  -2   5  -4  325.87   56.69
   2   3   4  442.76   66.99
  -2   5  -4  300.47   68.29
   3   2  -4  276.47   64.09
  -3   5   4  291.67   78.19
  -5   3  -4  263.87   69.19
   5  -2  -4  498.85   87.29
   3  -5  -4  285.07   75.09
  -3   5  -4  225.98   61.89
  -2   5   4  418.06   62.09
  -5   3   4  367.46   79.69
   5  -2  -4  287.97   74.39
   2   3  -4  315.07   57.79
  -5   3   4  397.86   74.09
  -3   5  -4  243.78   61.79
   2  -5   4  404.96   80.69
  -3   5  -4  254.27   67.39
  -2   5   4  341.07   58.39
   3   2   4  341.97   72.19
  -3   5  -4  298.27   71.69
  -5   2  -4  437.56   83.39
   5  -2  -4  467.35   67.29
  -2   5   4  455.65   78.49
  -2   5   4  378.56   82.19
   5  -3   4  387.66   81.69
   5  -3   4  262.17   66.69
   2  -5   4  315.37   67.29
   3  -5  -4  318.27   74.89
  -5   2  -4  323.97   75.19
   3   2   4  292.77   63.39
   2   3  -4  252.37   56.29
  -5   1   4   76.89   28.40
  -5   1   4  193.68   44.20
   4   1  -4  120.99   32.80
   1   4   4  161.38   33.40
   5  -4  -4   32.70   25.80
   4   1  -4  135.89   34.10
  -4   5   4   42.20   25.80
   4  -5   4   69.79   32.50
  -5   4  -4  115.39   38.10
  -4   5   4   83.69   28.00
  -1   5  -4  119.79   32.30
  -1   5  -4  120.19   32.60
   1  -5  -4  135.29   36.60
   4  -5   4   70.79   28.70
   5  -1   4  141.09   41.20
   5  -4  -4  124.19   37.50
  -5   4  -4  141.49   39.90
   1   4   4  125.19   35.60
   5  -1   4  157.48   38.90
  -4  -1  -4  105.59   33.60
   5  -1   4   67.89   28.50
   5  -1   4   88.89   27.40
   5  -1  -4  123.19   32.40
   4  -5  -4  113.19   39.00
   1   4  -4   89.99   25.10
  -4   5  -4   94.69   30.70
   1   4  -4  105.59   27.70
  -1   5   4  110.89   32.20
   5  -1  -4   79.79   27.70
   5  -1  -4  117.09   37.00
   4   1   4  117.39   22.10
   4  -5  -4  122.19   43.30
  -1   5   4  114.39   37.90
  -1   5   4  128.69   23.00
  -1   5   4   93.89   20.50
   5  -4   4  118.49   34.80
  -4   5  -4  112.59   36.50
   5  -4   4  143.89   42.70
  -5   1  -4   43.90   24.00
  -5   4   4  106.09   36.20
  -5   1  -4  112.49   36.50
  -5   4   4  130.49   36.30
   5  -1  -4  110.49   37.00
   4   1   4  123.79   19.30
   4   1   4   63.89   29.40
   4   1   4  110.99   30.60
  -5   0   4  452.95   84.59
  -5   5   4  516.95  107.89
   5   0   4  519.65   82.09
   0   5  -4  565.04   85.39
  -5   5   4  559.54   90.19
   5  -5  -4  499.45  109.19
   5  -5  -4  558.04  108.29
   5   0  -4  483.95   78.89
   5   0  -4  485.65   99.49
   5  -5   4  408.56   95.19
   5  -5   4  672.43  117.39
   0   5   4  467.55   97.69
   0   5  -4  468.25   83.59
   5   0  -4  492.15   79.09
  -5   5  -4  337.07   92.49
   5   0   4  322.77   89.09
   5   0   4  493.65   84.29
   0   5   4  384.26   82.69
  -5   0  -4  427.46   95.29
  -5   0  -4  402.96   94.79
   5   0   4  506.55  102.79
   5   0  -4  500.85   88.69
  -5   5  -4  438.66  103.19
  -6   3   4    8.50    8.50
  -3   6   4   38.00   20.50
   3  -6   4   25.70   16.50
  -3   6   4   15.00   10.30
   6  -3  -4   -1.40    4.70
  -3   6  -4    6.10    6.10
   3  -6  -4    2.50    7.20
   6  -3   4   22.80   15.90
   3  -6   4   12.70   10.20
   3   3   4   14.70    9.60
   6  -3  -4    2.90    8.00
  -3   6  -4   17.60    8.70
   3  -6  -4    3.60    3.30
  -6   3   4   10.30   10.00
  -3   6  -4   17.90   12.70
  -3   6  -4   16.00   12.20
   3   3  -4    6.60    5.80
   3   3  -4    5.90    5.10
   3   3   4    0.00    1.90
  -6   3  -4    3.60    7.60
  -6   3  -4    3.70    6.40
   6  -3   4   13.80   11.50
  -3   6   4   14.80    8.60
  -3   6   4   11.20   11.00
  -2   6  -4  731.93  128.69
   6  -2   4  779.52  135.29
   2  -6  -4  732.13  133.69
  -6   2   4  879.01  137.09
  -6   2   4  730.43  130.79
  -6   4  -4  699.23  134.09
  -2   6  -4  840.92  131.49
   2   4   4  738.13  124.59
  -6   4  -4  757.02  134.69
   2  -6  -4  717.23  130.29
   4  -6   4  725.33  130.59
   6  -2   4  817.52  135.59
   6  -4  -4  838.12  159.48
   4  -6   4  708.83  134.99
   2   4   4  843.02  130.49
  -4   6   4  812.52  133.49
   4   2  -4  892.51  127.29
   6  -4  -4  667.33  131.89
  -4   6   4  726.43  127.69
  -4   6   4  689.63  132.39
   6  -2   4  723.33  128.59
   2  -6   4  535.25  123.89
  -2   6   4  734.63  121.59
  -6   4   4  778.02  132.29
   2   4  -4  790.22  122.99
  -4   6  -4  860.91  137.89
  -6   2  -4  748.53  133.59
  -4   6  -4  637.84  126.79
   4  -6  -4  478.55  139.19
   6  -2  -4  731.63  135.19
   4  -6  -4  895.91  138.09
  -6   2  -4  725.43  134.19
  -2   6   4  737.33  122.09
   2   4  -4  799.52  123.19
  -2   6   4  742.83  135.19
  -4   6  -4  630.74  125.79
  -4   6  -4  689.23  131.69
   6  -2  -4  721.63  128.99
   4   2   4  780.52  126.29
   6  -4   4  959.30  142.39
  -6   4   4  520.15  139.19
  -2   6   4  635.04  126.99
  -6   1   4  299.97   66.19
   5  -6   4  476.85   94.39
   5  -6   4  238.78   66.99
   1   5   4  370.46   70.59
   5   1  -4  360.16   69.09
   5   1  -4  319.97   67.69
  -6   5  -4  305.97   76.79
   6  -1   4  386.26   73.29
  -1   6  -4  318.97   63.49
   1   5   4  397.76   66.69
  -5   6   4  276.17   65.39
  -6   5  -4  212.08   64.79
   6  -1   4  154.38   53.69
   6  -1   4  246.28   66.49
  -1   6  -4  273.17   63.19
   6  -5  -4  294.57   73.29
   6  -5  -4  200.98   69.49
   5   1   4  383.36   79.29
   5  -6  -4  249.97   75.59
   6  -1  -4  264.87   69.19
   5   1   4  259.57   63.29
   6  -5   4  313.57   79.89
   6  -1  -4  276.57   58.89
  -6   5   4  270.97   67.39
  -5   6  -4  313.77   76.29
  -6   5   4  225.78   71.39
   1   5  -4  314.57   53.19
  -1   6   4  329.37   67.09
  -1   6   4  407.06   78.79
   1   5  -4  240.48   55.49
   6  -1  -4  368.96   64.39
  -6   1  -4  185.98   62.19
   5  -6  -4  231.48   70.59
  -5   6  -4  395.46   73.09
   6  -5   4  247.28   66.89
   0   6   4 1914.61  304.87
  -6   6   4 1896.91  305.77
   6  -6  -4 1808.92  310.67
  -6   6  -4 1788.62  305.67
   6  -6   4 1850.31  308.07
   6   0  -4 1816.12  305.67
  -6   6   4 1838.92  311.57
   6   0   4 2027.80  306.97
   0   6   4 1833.62  299.97
   6   0   4 1861.81  296.67
   6  -6  -4 1732.53  314.57
   6  -6   4 1831.92  313.67
   0   6  -4 1903.71  299.27
   6   0   4 1693.63  294.17
  -6   6  -4 1833.12  309.77
   7  -3   4  268.67   73.39
   7  -4  -4  264.47   76.69
  -3   7  -4  263.07   50.69
   7  -4  -4  361.66   77.49
  -7   3   4  335.17   75.79
  -4   7   4  343.07   65.99
  -4   7   4  350.46   76.09
  -7   4  -4  287.87   77.29
  -3   7  -4  324.87   68.79
   4   3  -4  300.67   54.49
   3   4   4  308.57   54.19
  -3   7  -4  283.77   50.69
   7  -3   4  327.17   70.79
   3   4   4  313.17   67.79
   4   3  -4  305.77   54.29
  -7   4  -4  409.16   87.89
   4   3   4  292.57   68.69
   3   4  -4  313.97   52.29
   7  -4   4  393.06   85.69
   4   3   4  285.27   60.39
   7  -3  -4  244.88   66.19
  -4   7  -4  128.29   57.39
  -3   7   4  340.37   71.69
  -7   4   4  298.87   71.49
  -7   4   4  155.38   63.49
   3   4  -4  307.57   51.49
   7  -3  -4  228.18   72.39
  -3   7   4  337.87   54.59
  -4   7  -4  214.28   57.19
  -7   3  -4  210.98   67.99
  -3   7   4  365.26   56.19
   7  -4   4  451.15   82.99
   2   5   4   75.49   21.40
   7  -2   4   75.19   30.80
  -7   5  -4   53.99   31.10
   2   5   4   81.29   26.10
  -7   5  -4   54.99   27.00
   7  -2   4   50.59   20.60
  -2   7  -4   60.29   22.60
   7  -5  -4   54.09   27.80
   5   2  -4   65.89   23.60
   5  -7   4   53.59   25.90
  -5   7   4   72.59   30.30
  -5   7   4   62.09   24.60
   7  -5  -4   32.00   24.80
   5   2  -4   45.20   19.40
  -2   7   4   57.59   22.50
   7  -5   4   95.59   35.50
  -7   5   4   59.09   30.60
   5  -7  -4   26.20   19.40
   5   2   4   81.99   26.10
  -5   7  -4   65.99   23.50
  -7   5   4   67.89   28.60
   7  -5   4   47.30   25.20
   7  -2  -4   71.69   25.80
   5   2   4   79.89   33.80
  -5   7  -4   48.60   23.50
   2   5  -4   50.99   15.30
   2   5  -4   59.29   16.50
   7  -2  -4   60.39   29.90
  -7   6  -4   52.59   27.40
  -6   7   4   94.19   33.60
   7  -6  -4  240.78   68.89
   7  -1   4   62.29   22.20
   1   6   4  131.09   29.90
   1   6   4  128.39   33.90
  -7   6  -4   68.79   34.90
  -1   7  -4   76.39   28.00
   7  -6  -4   98.69   39.70
   6  -7   4   63.59   30.80
  -6   7   4   98.09   39.30
   6   1  -4  113.09   34.70
   7  -1   4   84.99   32.00
  -1   7  -4   70.89   24.20
   6   1   4   73.09   28.50
   7  -6   4   54.99   28.40
  -6   7  -4   87.89   34.90
   7  -1  -4  149.59   30.20
  -7   6   4   33.90   23.00
   7  -6   4   95.09   42.80
   7  -1  -4   71.69   22.30
   6  -7  -4   62.69   33.50
   7  -1  -4   45.60   26.70
   1   6  -4  117.19   27.30
  -1   7   4   83.29   27.90
   1   6  -4   88.09   22.10
  -6   7  -4   62.79   26.70
  -7   6   4  181.68   55.29
   0   7  -4  184.58   36.40
   0   7  -4  193.78   40.00
   7  -7  -4  110.79   43.70
   0   7   4  100.89   32.20
   7   0  -4  155.28   44.60
  -7   7   4  110.39   38.60
  -7   7  -4  142.09   49.90
   7   0   4   87.99   34.10
  -7   7  -4   99.59   38.40
  -7   7   4  106.19   44.90
   8  -4   4 1233.18  206.88
  -4   8  -4 1366.06  202.18
   8  -4   4  998.30  197.28
  -8   4  -4 1388.86  211.28
   8  -4  -4 1286.17  202.08
   4   4  -4 1243.88  187.58
   8  -4  -4  728.83  209.68
   4   4  -4 1183.28  187.38
   4   4   4  997.50  193.78
   4   4   4 1046.40  189.68
  -4   8  -4 1207.98  189.48
  -3   8  -4   82.39   27.20
  -8   5  -4   89.79   37.60
  -5   8   4   60.79   24.40
   8  -3   4   33.90   21.00
   5   3  -4   99.19   25.30
   8  -3   4   54.59   23.10
   8  -5  -4   68.19   33.60
   8  -5  -4   86.59   34.00
   3   5   4   85.19   21.00
   5   3  -4   69.69   21.40
  -5   8   4  106.19   28.40
   3   5   4   36.50   17.60
  -8   5   4   16.20   16.20
  -3   8   4   54.29   12.30
  -3   8   4   44.40   20.50
   5   3   4   89.59   26.50
   3   5  -4   60.99   12.80
   3   5  -4   59.99   12.70
  -5   8  -4   30.20   18.10
   8  -3  -4   94.89   31.00
  -5   8  -4   60.69   22.60
  -3   8   4   44.90   12.00
   8  -5   4   17.40   13.80
   8  -3  -4   32.80   19.20
   8  -5   4   73.59   34.10
   2   6   4  199.18   40.00
  -6   8   4  155.98   47.90
   8  -2   4  155.58   46.80
  -8   6  -4  185.88   57.19
   8  -6  -4   81.19   42.80
   8  -6  -4   69.29   39.50
   6   2  -4  147.39   43.10
   2   6   4  218.58   46.30
  -2   8  -4  164.58   43.10
  -8   6  -4  235.08   66.49
   8  -2   4  147.59   42.00
  -6   8   4  139.39   46.70
  -2   8   4  205.48   49.10
   8  -6   4  194.48   63.19
  -6   8  -4  123.69   42.60
   8  -2  -4  297.57   55.99
   2   6  -4  189.78   29.50
  -6   8  -4  167.68   46.20
  -8   6   4  240.18   60.99
   6   2   4  183.48   47.80
   8  -6   4  150.78   51.49
   2   6  -4  163.18   28.80
   8  -2  -4  203.98   60.09
  -7   8   4  -12.30    5.00
   8  -1   4    3.10    3.90
   7   1  -4   -1.50    3.80
  -8   7  -4   -5.70    4.10
  -8   7  -4   -3.80    3.10
   8  -1   4    0.50    5.90
   1   7   4    2.80    4.90
  -7   8   4   -1.80    3.50
   8  -7  -4   -5.20    4.30
  -1   8  -4    7.00    5.70
  -1   8   4    3.10    5.90
   1   7  -4    1.70    2.40
   8  -7   4   -0.70    3.50
   7   1   4    1.00    5.60
  -7   8  -4   -1.90    3.00
   8  -1  -4   -0.50    1.80
   1   7  -4    2.60    3.50
   7  -8  -4    1.50    9.70
  -7   8  -4   -1.60    5.80
  -8   7   4   -5.70    4.10
  -8   7   4   -1.40    4.40
   8  -1  -4    1.70    3.70
   8  -1  -4    3.90    2.80
   8  -8   4  417.76  105.99
   8   0  -4  349.17   91.79
  -8   8   4  446.76  100.19
  -8   8  -4  285.17   93.09
   8   0   4  477.65   93.39
  -8   8   4  664.93  128.39
  -8   8  -4  562.14  107.39
   0   8   4  473.85   79.59
   0   8  -4  405.56   74.89
   8  -8  -4  383.26  104.59
   4   5   4   92.69   26.40
   5   4  -4  128.49   26.40
   5   4  -4  102.59   24.30
   4   5   4   93.79   29.20
  -5   9   4  147.89   35.00
   9  -5  -4   75.59   33.60
  -4   9  -4   64.49   24.70
   9  -4   4   63.29   33.00
   9  -5  -4  141.19   51.49
   9  -4   4   92.19   34.20
   9  -5   4   58.39   31.10
   9  -4  -4   80.99   32.20
   9  -4  -4   79.49   40.20
  -5   9  -4  126.59   31.20
   5   4   4  119.99   31.30
  -4   9   4  126.19   25.10
   9  -5   4  102.79   43.00
   9  -3   4    9.70    9.90
   3   6   4   16.90    7.60
   3   6   4   20.00   10.40
   9  -6  -4    9.20    9.00
   9  -3   4   21.00   13.20
  -3   9  -4   12.00   10.90
   6   3  -4   23.00   12.80
  -6   9   4   15.30   11.40
  -6   9   4    9.10    6.60
  -9   6  -4   13.10   14.00
   9  -6  -4   -7.00    4.20
   9  -6   4   10.40   12.20
   6   3   4   -1.50    2.90
  -6   9  -4   11.80   10.30
   9  -3  -4    6.40    6.70
  -6   9  -4   -0.60    2.60
   9  -3  -4    8.10    7.60
  -3   9   4   17.50    9.90
   9  -6   4   67.89   33.70
  -9   6   4    9.50   11.50
   9  -2   4   22.40   16.70
   9  -2   4  106.59   27.20
  -7   9   4   58.99   25.90
  -7   9   4   20.40   16.10
   7   2  -4   66.29   24.60
  -2   9  -4   67.19   23.50
   9  -7  -4   91.29   37.60
   2   7   4  102.69   21.90
  -9   7  -4   74.69   33.60
  -7   9  -4   21.40   15.30
   9  -2  -4   91.99   23.10
  -9   7   4   40.00   25.10
   9  -2  -4  120.99   44.50
   9  -7   4   17.40   17.40
   7   2   4   47.40   20.40
  -7   9  -4   62.89   26.80
  -2   9   4   51.79   21.00
  -8   9   4   62.39   29.70
  -1   9  -4   56.09   20.90
  -8   9   4   44.50   23.80
   9  -1   4   35.10   18.90
   9  -8  -4  115.89   46.60
  -9   8  -4   52.59   29.10
   8   1  -4  107.69   33.90
   1   8   4   92.99   24.30
   8   1   4   83.39   28.60
   9  -8   4   35.90   25.10
  -1   9   4  154.28   37.60
  -8   9  -4   50.99   25.50
  -8   9  -4   58.59   26.30
  -9   8   4   76.79   33.20
   9  -1  -4  107.49   41.20
  -9   9   4   -2.80    3.70
   9   0  -4   -2.30    2.80
  -9   9  -4   -0.10   10.80
   0   9   4   -0.30    2.60
  -9   9  -4   -4.70    4.20
   0   9  -4    1.00    2.60
   9   0   4    3.10    6.50
  -5  10  -4   -0.90    5.60
  10  -5  -4    7.20   11.00
  10  -5   4   -3.60    6.40
  10  -5   4    6.10   10.20
   5   5   4   17.80    9.10
  10  -5  -4    4.10    8.80
  -5  10  -4    4.20    2.60
  -5  10   4    0.80    6.00
  -5  10   4    6.10    6.00
  10  -4   4   87.59   44.00
  -6  10   4  190.38   62.19
  10  -4   4  117.79   46.80
   6   4  -4  241.18   39.10
  10  -6  -4  209.78   73.09
  -6  10   4  237.18   52.89
  10  -6  -4  286.57   70.89
   4   6   4  221.68   37.20
   6   4  -4  193.98   40.60
   4   6   4  221.28   38.30
  10  -4  -4  115.49   55.19
  -6  10  -4  231.58   50.19
  -4  10   4  332.97   68.89
  10  -4  -4  206.78   54.89
  10  -6   4   89.19   45.40
  10  -6   4  303.87   81.69
   6   4   4  289.87   51.19
  -6  10  -4  223.88   64.59
  10  -3   4    5.50    9.20
  -3  10  -4   91.69   27.40
   3   7   4   94.69   16.60
 -10   7  -4    8.50   11.60
   7   3  -4   39.40   16.60
  10  -7  -4  117.39   43.60
   3   7   4   36.00   10.90
  -7  10   4   12.20   15.50
  -7  10   4   59.09   24.00
  10  -3   4   56.59   21.40
  -3  10   4   45.60   18.00
  10  -3  -4   79.29   25.50
  -7  10  -4   93.09   38.30
   7   3   4   79.99   24.00
  10  -7   4   43.20   28.90
  10  -3  -4   51.79   28.80
  -7  10  -4   37.60   18.40
 -10   7   4   61.49   31.30
  10  -8  -4  306.87   97.69
   8   2  -4  332.17   87.79
   2   8   4  441.86   74.39
  -8  10   4  687.63  133.49
 -10   8  -4  429.06  107.69
  -8  10   4  497.35  100.19
  10  -2   4  391.36   77.39
  -2  10  -4  566.74   85.39
  -8  10  -4  724.13  137.19
  10  -2  -4  465.45   74.29
  -8  10  -4  358.96   90.79
  10  -8   4  291.47   97.09
   8   2   4  405.06   91.09
 -10   8   4  674.53  123.19
  -2  10   4  479.45   94.19
  10  -2  -4  461.55  109.29
  -9  10   4   58.59   27.20
  -1  10  -4   15.10    9.30
   9   1  -4    4.70    8.40
   1   9   4   44.50   14.40
  10  -9  -4   46.80   31.50
  -9  10   4   13.40    8.90
  10  -1   4    6.90    7.00
 -10   9  -4   11.70   13.70
  -9  10  -4   12.40   14.30
  -1  10   4   29.30   15.90
  -9  10  -4   10.10    8.90
 -10   9   4   60.19   29.30
   9   1   4   16.70   14.30
  10  -1  -4   27.50   17.00
 -10  10   4   69.79   35.90
   0  10   4   46.70   18.70
 -10  10  -4   94.69   35.50
  10   0   4   34.20   16.30
  10   0  -4   13.60   12.80
   0  10  -4   40.20   11.30
  -6  11   4   48.30   16.20
  11  -6  -4   12.90   15.40
  -5  11  -4   33.50   19.60
  -6  11   4   74.59   33.70
  11  -6  -4    7.10   10.40
  11  -5   4   85.99   31.90
  11  -5   4   17.40   13.80
  11  -6   4   42.20   24.60
  -6  11  -4   56.99   27.10
   6   5   4   49.90   14.70
  -5  11   4   57.29   27.10
  11  -5  -4   11.90   12.60
  11  -6   4   12.70   13.30
  -6  11  -4   30.00   10.40
  11  -5  -4   23.20   23.00
  -7  11   4    3.10    4.90
  -7  11   4   16.10   13.90
  11  -4   4   -1.80    4.70
  11  -4   4    1.00    9.90
   7   4  -4    4.20    4.50
  11  -7  -4   20.40   15.20
  -4  11  -4    3.60    5.30
  11  -4  -4    7.50    8.80
   7   4   4    4.50    7.20
  11  -7   4    5.20   10.10
  -7  11  -4    7.10    7.50
  -4  11   4   -1.50    4.30
  -7  11  -4    6.00    8.80
  11  -4  -4   -4.50    5.00
  11  -3   4   10.70    9.70
  -8  11   4   12.10   15.50
  -3  11  -4   42.00   19.20
  11  -8  -4   46.10   27.00
  11  -3   4   14.00   12.70
 -11   8  -4   19.10   18.70
   8   3  -4   60.79   21.40
  -8  11   4   50.19   23.30
  -3  11   4   72.79   23.40
  11  -3  -4    8.20   13.80
  11  -3  -4   56.49   18.80
   8   3   4   68.89   24.00
  -8  11  -4   42.10   27.90
  -8  11  -4   55.89   22.30
  11  -8   4   52.09   31.20
   9   2  -4   66.19   25.10
  11  -9  -4   13.90   16.70
  -9  11   4   69.59   30.00
 -11   9  -4   79.39   34.20
  -2  11  -4   13.50   11.30
  -9  11   4   63.29   34.00
   9   2   4   28.60   17.10
  11  -9   4   37.80   28.40
  -9  11  -4   55.49   34.50
 -11   9   4   21.40   19.60
  -2  11   4   46.40   20.60
  -9  11  -4   63.69   28.00
  11  -2  -4   40.70   26.00
   1  10   4    2.60    3.20
 -11  10  -4    7.50   10.60
  -1  11  -4    7.40    6.10
 -10  11   4   -4.30    4.30
  11  -1   4    1.60    6.40
  10   1  -4    6.20    9.80
  11  -1  -4   18.40   12.20
  -1  11   4    1.80    3.70
  10   1   4   -2.20    4.50
 -10  11  -4    0.80    5.70
 -11  10   4   -1.80    6.10
   0  11   4    3.10    5.00
  11   0  -4    1.30    6.30
 -11  11   4   26.80   18.90
  11   0   4    4.50    8.50
 -11  11  -4   -7.80    5.70
  12  -6  -4  328.97   75.19
  -6  12   4  342.27   79.39
  -6  12  -4  355.96   83.59
  12  -6   4  251.87   69.59
  12  -6  -4  111.39   59.99
  12  -5   4   18.80   12.70
  -7  12   4    7.30    5.90
  -7  12   4    3.90    9.70
  12  -5   4   22.50   16.30
  12  -7  -4    3.90    9.40
  -5  12  -4   30.30   19.40
  -7  12  -4   14.80    7.10
   7   5   4   17.90    8.80
  12  -5  -4   40.80   19.80
  -7  12  -4   27.30   18.00
  12  -5  -4   83.39   39.70
  -5  12   4    0.60    7.10
  12  -7   4   21.30   15.80
  12  -4   4   59.69   21.20
   8   4  -4   60.49   14.20
  -8  12   4   56.99   31.50
  12  -4   4   63.49   38.00
  -8  12   4   49.10   20.50
  -4  12  -4   30.20   16.30
  12  -8  -4   73.39   32.90
  -4  12   4   19.70   11.10
  -8  12  -4   40.50   17.00
  12  -4  -4   91.39   44.50
  -8  12  -4   27.90   22.70
  12  -4  -4   54.49   22.40
  12  -8   4   53.09   29.80
  -9  12   4   18.80   15.70
  -3  12  -4    1.20    4.10
  12  -3   4    2.70    4.70
  12  -9  -4    7.40    7.70
  12  -3   4   -4.70    6.10
   9   3  -4    2.10    3.70
  -9  12   4   -4.30    5.50
  12  -9   4   -2.70    9.90
   9   3   4    3.00    4.90
  12  -3  -4    1.80    9.90
  -9  12  -4   20.00   18.00
  -9  12  -4    1.30    6.80
  -3  12   4   -2.60    5.50
  10   2  -4  130.29   40.20
  12 -10  -4  206.98   70.49
 -12  10  -4   67.99   42.60
  -2  12  -4  145.49   37.90
 -10  12   4   90.09   38.40
  12  -2   4   62.39   36.00
  10   2   4  127.79   38.50
 -10  12  -4  104.69   38.60
  -2  12   4  242.18   51.89
 -12  10   4  137.89   54.19
  12  -2  -4  132.39   49.40
 -10  12  -4  159.58   61.89
  -7  13   4   14.50   13.30
  -6  13  -4   83.39   46.70
  13  -6   4   17.00   15.00
  -7  13  -4   29.50   20.00
  -6  13   4   67.19   32.10
  13  -7   4   17.00   17.30
  13  -6  -4   30.10   26.90
   0   0  -5    0.20    2.30
   0   0   5    0.70    1.60
   0   0  -5    2.20    2.20
   0   0   5    1.60    2.60
  -1   0   5    2.50    3.50
   1  -1  -5   -1.30    2.10
  -1   1   5    5.00    4.60
   0  -1   5    4.40    4.40
   1   0   5    1.10    2.90
   0   1   5    0.00    2.20
   0  -1   5    0.20    1.80
   0  -1  -5    5.10    6.40
   1  -1  -5    4.70    5.60
   0   1  -5    5.20    5.50
   1  -1   5    2.00    2.50
   0  -1  -5    3.60    3.50
   0   1  -5    4.30    6.90
  -1   1  -5    1.40    3.90
   1  -1   5    2.10    3.90
   1   0  -5    0.60    2.60
   0   1  -5    6.70    5.60
   1   0   5   -0.50    2.00
  -1   0   5    2.80    4.30
  -1   1  -5    0.40    3.10
   0   1   5    0.20    2.00
   1   0  -5    1.10    2.50
   1   0  -5    4.90    7.20
  -1   0  -5    1.60    3.20
   1   0  -5    0.60    2.80
  -1   0  -5    7.30    6.80
  -1   1   5    6.20    5.40
   0   1  -5    2.20    4.20
   1   1   5    2.90    2.60
   1   1   5    1.40    3.60
   1   1  -5    3.70    3.40
   1   1  -5    2.30    2.60
  -1   2  -5    3.10    4.30
   1  -2   5    0.90    3.10
   2  -1  -5    1.90    4.40
  -1   2  -5    2.00    2.80
   1   1   5   -0.70    2.40
   1   1   5    1.00    4.20
   2  -1   5    3.20    3.20
  -2   1  -5    4.70    6.10
  -1   2  -5   -0.20    2.80
   1  -2   5   -1.30    1.80
  -1   2  -5    0.50    2.30
   1   1  -5   -0.10    3.10
   2  -1   5    5.30    4.90
  -2   1   5   -0.60    1.80
   1   1  -5    5.80    6.00
  -2   1  -5   -1.20    1.80
  -1  -1   5    2.60    4.20
  -1  -1  -5    6.50    5.90
  -1  -1   5    1.40    2.50
  -1   2   5    2.50    3.30
  -1   2   5    4.00    4.40
   1  -2  -5    1.50    4.20
  -2   1   5    8.20    6.10
  -1  -1  -5    4.00    3.10
   1  -2  -5   21.30   10.70
   2  -1  -5   -0.70    3.70
   0  -2   5   49.90   16.40
   2  -2  -5   62.89   23.20
   0   2  -5   82.49   24.10
  -2   0   5   50.29   17.60
   0   2   5   37.60   16.90
   0  -2  -5   67.79   24.10
   2   0  -5   64.39   24.10
  -2   0  -5   39.90   18.30
   0   2  -5   98.49   26.40
  -2   2  -5   37.30   18.60
   2   0  -5   54.79   18.40
   0  -2   5   85.59   24.00
  -2   0   5   49.60   18.90
   2  -2   5   22.10   12.90
   0   2   5   71.79   25.80
   2   0   5   30.00   14.10
  -2   2   5   48.80   19.20
   2  -2   5   59.09   20.60
   0   2  -5   29.10   12.70
   2  -2  -5   44.50   20.70
  -2   2  -5   43.80   17.40
  -2   0  -5   64.99   24.20
  -2   2   5   29.70   14.90
   0   2  -5   28.70   13.00
   2   0  -5   83.39   24.80
   0   2   5   20.90   13.20
   2   0   5   62.69   21.50
   0   2   5   42.40   15.30
   2   0   5   74.79   24.70
   2   0  -5   40.10   16.70
   0  -2  -5   75.19   23.30
  -3   1   5   23.10   12.00
  -1  -2   5   24.40   10.60
   2   1  -5   33.50   15.20
  -2   3   5   37.20   14.90
   2   1  -5   41.10   13.40
   3  -1   5   17.40   12.70
  -1   3  -5   15.30    8.80
  -2  -1  -5   21.50   11.90
  -1   3  -5   12.10   10.60
   1   2   5   36.30   15.00
  -3   2  -5    3.50    4.60
   3  -2  -5   37.50   19.40
   3  -1   5   29.20   13.70
   2  -3   5   31.00   13.10
  -3   2  -5   17.50   13.00
   1  -3  -5   40.30   17.50
   3  -2  -5   21.40   13.40
   1   2   5   57.49   23.20
  -2  -1  -5   14.50    9.40
   2   1  -5   24.80   13.90
  -1   3  -5   42.20   18.50
   1   2   5   18.90    8.40
   1   2   5   26.30   12.50
   1  -3  -5   16.90   10.30
   2  -3   5   17.80   11.50
   2   1  -5   26.00   10.20
  -3   1   5   25.30   13.20
  -1  -2   5   28.40   13.60
  -1   3  -5    4.20    4.90
  -2   3   5   27.40   14.40
   1  -3   5   28.70   12.70
  -2   3  -5   20.10   10.70
   1  -3   5   36.80   15.70
  -3   1  -5    9.90    8.60
   2  -3  -5   39.50   19.10
   1   2  -5   16.50    7.30
   3  -1  -5   21.80   12.80
  -1   3   5   36.00   16.90
   3  -1  -5   11.50    9.40
  -2   3  -5   26.10   14.10
  -1   3   5   24.90   13.00
   3  -2   5   15.10   10.00
  -1   3   5   27.80   18.10
   3  -1  -5   24.20   12.40
  -3   2   5   -0.40    4.50
  -2  -1   5   13.90    7.70
  -1  -2  -5    9.50    8.90
   3  -1  -5   14.10    9.20
   2  -3  -5   61.79   23.20
  -3   2   5   23.90   12.60
   1   2  -5   29.20   14.60
  -3   1  -5   15.00   10.20
  -2   3  -5   30.90   13.80
   2   1   5   18.30   10.60
   2   1   5   32.50   13.40
  -1  -2  -5   18.20   12.10
  -1   3   5   10.60    8.10
   1   2  -5   22.70   12.70
   1   2  -5   18.30    7.30
   2   1   5   17.10    8.80
  -2   3  -5   12.80    9.70
   2   1   5   12.60    8.80
  -2  -1   5   12.00    8.20
   3  -3  -5   21.90   13.90
   3   0   5    5.40    5.50
   3  -3   5    7.70    7.80
   0   3   5    3.60    4.80
   0   3  -5   13.50    6.60
   3  -3  -5   14.30    9.50
   0  -3   5    8.60    6.50
   3   0   5   19.50   11.30
   0   3   5   12.90    7.10
  -3   3   5   16.60    9.50
   0  -3   5   15.50    9.80
   0  -3  -5   25.80   15.50
   0   3  -5   18.10   11.30
   3  -3   5   25.20   12.70
  -3   3   5    2.90    6.70
  -3   0  -5    6.20    6.60
   0   3  -5    9.50    8.30
  -3   0   5   11.40    7.70
   0   3   5   40.20   16.20
   3   0  -5    2.70    5.70
   0   3   5   17.30   13.80
   3   0  -5   23.70   13.80
   3   0  -5   11.20    7.90
  -3   0   5   10.50    8.80
  -3   0  -5   20.20   13.40
   0   3  -5   13.50    6.20
   3   0   5   13.00   11.50
   0  -3  -5   11.20    7.20
   3   0   5    3.80    5.60
  -3   3  -5   11.20    9.90
  -3   3  -5   10.70    9.40
   2   2  -5    7.90    6.10
   2  -4   5    1.90    3.10
  -2   4   5    6.10    5.80
  -2  -2  -5    1.10    3.80
   2  -4   5    2.30    4.20
  -4   2   5    2.80    3.90
   2   2   5    2.80    3.80
  -2  -2  -5   -0.10    3.50
   2   2  -5    4.70    5.20
  -2   4   5   -0.90    2.60
  -4   2  -5    0.00    4.20
  -2   4  -5    3.00    4.20
   4  -2   5    1.90    4.00
  -4   2   5    3.90    5.20
   4  -2  -5    4.80    8.20
   2  -4  -5    0.40    2.90
  -2   4  -5    3.70    5.00
   4  -2   5   -1.70    2.20
  -4   2  -5    0.10    3.70
  -2   4  -5   -0.60    3.20
   2   2   5   -2.00    2.60
  -2   4   5    7.90    7.90
   4  -2  -5    7.80    7.20
   2   2   5   -0.30    2.00
   2   2   5    0.20    3.60
  -2   4   5    4.20    5.60
   2  -4  -5    8.90    7.40
  -2   4  -5   -0.10    3.40
   3  -4   5   49.20   20.00
   4  -1   5   23.30   13.20
   1  -4  -5   39.50   20.70
  -1   4  -5   39.40   17.90
  -3   4   5   19.10   14.10
   4  -3  -5   41.10   20.40
  -4   1   5   12.20   10.50
   3   1  -5   63.89   22.10
   4  -3  -5   39.20   22.30
  -3   4   5   25.60   14.00
  -1   4  -5   45.30   18.50
   4  -1   5   19.00   14.30
  -4   1   5   59.69   22.20
   1   3   5   32.60   14.70
   3  -4   5   33.00   18.70
  -1   4  -5   25.00   10.00
   3   1  -5   22.30    8.30
   3   1  -5   39.90   18.40
   1   3   5   52.59   13.20
   4  -1   5   36.30   17.40
  -3  -1  -5   28.30   15.20
   4  -1   5   24.80   14.90
   1  -4  -5   38.30   18.10
  -1   4  -5   39.40   11.80
   1   3   5   20.90    8.60
  -4   3  -5   15.00   11.70
  -4   3  -5   10.40   10.50
   1   3   5   34.80   18.90
   3   1  -5   26.60    9.30
  -3  -1  -5   23.40   14.30
   4  -3   5   47.60   18.50
  -3   4  -5   39.30   16.70
  -3   4  -5   32.60   18.00
  -4   3   5   42.50   18.80
   3  -4  -5   26.20   16.60
  -4   1  -5   57.49   22.90
   1  -4   5   46.30   19.20
  -1   4   5   27.50   14.50
   4  -1  -5   13.70   12.00
  -1   4   5   19.70   10.20
  -4   3   5   41.90   19.60
   3   1   5   23.00   13.30
   3  -4  -5   28.60   15.60
   4  -3   5    8.80   11.00
  -3  -1   5   47.30   21.50
   3   1   5   20.90   12.50
  -3   4  -5   27.30   13.90
  -1  -3  -5   35.60   15.90
   4  -1  -5   40.20   16.90
   3   1   5   33.50   12.00
   1  -4   5   32.40   14.50
   4  -1  -5   45.70   21.20
  -1  -3  -5   69.39   25.50
   1   3  -5   21.40   12.60
  -1   4   5   13.10   12.90
   1   3  -5   63.59   21.10
  -4   1  -5   18.50   13.30
  -1   4   5   62.39   18.70
  -3  -1   5   42.90   15.40
   4  -1  -5   19.40   12.40
   3   1   5    7.20    8.60
  -4   0   5   74.69   24.80
   0  -4  -5   77.29   29.80
  -4   0  -5   38.70   21.40
   0   4   5   79.29   19.00
   4   0  -5   96.99   23.60
   4   0   5   92.69   24.00
   0  -4  -5   57.39   22.10
   0   4   5   56.79   15.60
  -4   0   5  102.39   31.30
   4   0   5   52.39   23.00
   4  -4   5   72.39   25.70
   4   0  -5  137.59   36.60
   0   4   5   41.60   21.90
   0   4  -5   61.79   21.90
   4  -4   5   54.19   27.20
   4  -4  -5   21.90   16.20
   4  -4  -5   49.30   26.90
   4   0   5  102.99   34.70
  -4   4   5   79.09   29.70
   4   0  -5   96.99   32.90
  -4   4   5   65.69   24.80
   0   4   5  100.59   29.60
   4   0  -5   82.79   22.00
   4   0   5  106.19   30.50
  -4   4  -5   60.39   24.40
  -4   4  -5   60.29   26.90
   0   4  -5   45.80   20.60
  -4   0  -5   85.29   29.90
  -5   2   5    6.60    9.10
   5  -3  -5   25.70   18.50
   2  -5  -5   22.90   16.30
  -2   5  -5   47.80   21.60
   5  -2   5   40.20   20.70
  -5   3  -5   51.99   24.90
  -2   5  -5   24.80   11.40
   3  -5   5   58.69   21.60
   5  -2   5   54.79   20.10
  -2   5  -5   35.90   16.60
  -3   5   5   27.60   16.20
  -3   5   5   17.20   11.60
   3  -5   5   30.00   19.00
  -5   2   5    3.30    8.80
  -5   3  -5   53.09   23.80
   2   3   5   50.29   22.40
  -2   5  -5   37.20   13.10
   5  -3  -5   37.80   19.90
   2  -5  -5   23.80   16.80
  -3  -2  -5   28.00   16.60
  -3   5   5   29.10   16.70
   2   3   5   28.20   13.80
   3   2  -5   29.70   15.20
   3   2  -5   64.89   21.30
  -2   5   5   45.90   19.90
   3   2   5   36.20    7.70
   3   2   5   27.80   16.80
   2   3  -5   47.70   16.70
  -2   5   5   33.50   14.90
   3   2   5   56.29   20.30
   5  -3   5   41.00   19.20
  -2   5   5   43.20   23.60
   2   3  -5   65.49   22.40
  -3   5  -5   43.20   19.90
   2  -5   5   33.80   18.90
  -2   5   5   90.49   25.50
   5  -2  -5   53.59   21.30
   3  -5  -5   13.70   12.80
   3  -5  -5   38.50   22.00
  -5   3   5   33.00   17.30
  -3   5  -5   20.80   13.80
  -5   2  -5   33.40   20.10
  -5   2  -5   65.49   27.80
  -5   3   5   41.30   21.70
   5  -3   5   29.10   19.10
   5  -2  -5   14.20   14.50
   5  -2  -5   66.59   24.20
   2  -5   5   42.50   18.10
   3   2   5   40.00    8.00
  -3   5  -5   42.90   22.40
  -3   5  -5   22.50   12.50
   4  -5   5   23.00   13.80
   4   1  -5   35.30   17.30
  -5   1   5   20.40   14.10
  -5   1   5   33.70   16.40
   5  -4  -5   29.80   22.10
   5  -1   5   17.30   11.60
  -4  -1  -5    7.70    8.80
  -5   4  -5   33.40   17.80
   5  -1   5   19.10   13.50
  -1   5  -5   31.90   15.00
  -5   4  -5   41.10   21.90
   1  -5  -5   20.90   12.10
   1   4   5   16.10    9.80
  -1   5  -5   16.80   12.50
   4   1  -5   14.10   11.80
   5  -4  -5   20.60   14.10
  -4  -1  -5    3.40    7.50
  -4   5   5   17.90   14.90
   1   4   5   41.00   21.70
   5  -1   5    9.70   10.10
  -4   5   5    9.70    8.10
   1  -5  -5   33.00   17.70
   5  -1   5   27.70   18.70
   4  -5   5   20.60   17.00
   1  -5   5   36.80   15.30
  -5   4   5    4.90    7.40
   5  -1  -5   25.80   18.00
   4   1   5   17.60   12.00
   5  -4   5   25.20   20.00
   1   4  -5   12.70   10.00
  -5   1  -5   21.80   15.80
   4   1   5   22.60   10.10
  -5   4   5   17.30   13.60
  -1   5   5   14.50    8.30
   4   1   5   16.20    7.60
   1   4  -5   21.80   12.00
  -4   5  -5   38.90   17.30
   4  -5  -5   16.50   13.40
   5  -1  -5   17.70   11.80
  -5   1  -5   29.30   17.20
  -1   5   5   34.40   17.70
  -1   5   5   16.00    7.70
   4   1   5   27.60   15.90
  -4   5  -5   28.00   17.20
   5  -1  -5   14.80   11.30
  -1   5   5   46.60   23.00
   5  -4   5   32.10   16.60
  -5   0  -5   45.30   20.80
  -5   0  -5   28.00   17.30
   0   5  -5   17.10   10.30
  -5   0   5   14.90    9.90
  -5   5   5   12.20   10.60
   5   0  -5   17.40    8.10
  -5   5  -5   23.10   15.10
   5   0   5   23.60   11.50
   0   5   5   14.10   11.50
   0  -5  -5   18.80   12.30
   5  -5   5    5.50    8.90
   5  -5  -5   15.00   12.70
   5   0  -5    1.00    5.40
   0   5   5   22.60   13.20
   5   0  -5   13.30   10.30
   5   0  -5    6.30    4.80
   0   5  -5   16.80   11.00
   5   0   5    6.50    5.90
  -5   5   5    0.30    4.50
   5  -5   5   19.00   12.60
  -5   0   5   22.00   13.70
   5  -5  -5    6.90   13.10
   5   0   5   45.40   21.60
   5   0   5    9.20    7.30
  -5   5  -5   16.70   14.60
  -6   3   5    2.20    6.70
  -3   6  -5    6.00    4.80
   3   3  -5   -0.70    3.50
   3  -6   5    0.50    4.50
  -6   3  -5   -3.70    4.50
   3   3   5    1.60    2.70
   3   3   5   -1.00    3.30
  -3   6   5    4.10    6.00
   3  -6  -5    0.50    5.90
  -6   3  -5   -1.10    4.40
   6  -3  -5   -0.80    5.00
   3  -6   5   -7.30    3.50
   6  -3  -5   -2.00    3.40
  -6   3   5    1.90    3.80
   3   3  -5   -0.90    3.20
   6  -3   5   -0.20    5.90
   3  -6  -5   -1.50    5.90
  -3   6  -5    5.00    6.10
  -3   6  -5   -1.80    3.40
  -3   6   5    2.00    3.70
  -3   6   5    5.80    7.60
  -2   6  -5   32.70   17.90
  -4   6   5   65.39   22.60
   4  -6   5   52.39   25.60
   2   4   5   18.90   12.00
   4   2  -5   28.90   14.10
  -4   6   5   31.50   20.90
   4   2  -5   64.29   24.30
   2   4   5   39.50   19.40
   6  -2   5   48.70   24.20
   6  -4  -5   23.70   15.60
  -6   4  -5   69.89   29.10
   2  -6  -5   39.10   21.00
  -6   4  -5    2.80    8.80
   4  -6   5   14.40   13.00
  -2   6  -5   38.70   10.40
  -6   2   5   42.40   21.70
  -2   6  -5   44.70   11.00
   6  -2   5   16.90   14.10
   6  -4  -5  115.99   42.80
  -6   2   5   53.59   23.90
  -2   6  -5   45.30   20.40
  -4   6  -5   52.09   24.90
  -6   2  -5   20.40   16.80
  -6   2  -5   45.40   22.20
   4   2   5   49.60   24.20
  -6   4   5   33.40   21.10
   4  -6  -5   21.20   16.20
   4  -6  -5   13.70   12.20
  -2   6   5   29.30   12.10
   6  -4   5   22.40   16.20
   2   4  -5   29.00   13.50
   2   4  -5   50.89   17.80
   6  -2  -5   23.30   12.60
   6  -2  -5   34.10   22.90
  -2   6   5   34.80   13.80
   6  -4   5   60.29   29.90
  -4   6  -5   58.19   21.80
   4   2   5   24.60   13.80
  -6   4   5   33.50   19.40
  -2   6   5   27.30   15.80
   5   1  -5   97.99   30.30
   1   5   5   94.79   33.80
  -6   5  -5  106.59   39.40
   5   1  -5   64.39   25.50
  -5   6   5  121.59   42.20
   6  -5  -5   94.39   40.10
   6  -1   5   39.30   22.50
   5  -6   5   82.09   33.20
   5  -6   5  124.79   44.40
   6  -1   5   73.49   23.90
  -5   6   5   67.49   25.70
  -1   6  -5   86.79   27.80
   6  -5  -5   32.00   21.30
  -6   5  -5   64.69   29.50
  -6   1  -5   55.99   27.80
  -5   6  -5   70.79   29.20
   5   1   5   67.69   26.50
   5   1   5   72.09   14.20
   1   5  -5   68.49   23.30
  -1   6   5   24.30   17.60
   6  -1  -5   20.30   19.10
   5  -6  -5   76.69   33.20
  -6   5   5   46.60   23.20
   1   5  -5   89.09   25.80
  -6   5   5   53.49   28.10
   6  -1  -5   92.19   25.60
   6  -5   5   92.99   38.80
   5   1   5   82.29   15.40
   6  -1  -5   85.49   25.30
  -5   6  -5   70.49   27.80
   5  -6  -5  128.59   47.00
   6  -5   5   88.49   33.30
   6   0   5   15.60   10.90
   6  -6   5   -2.10    8.60
  -6   6   5   49.70   26.30
   0   6  -5    6.60    6.80
  -6   6   5    7.80    7.30
   0   6  -5   15.20   10.30
   6   0   5   31.50   11.00
  -6   6  -5   11.50    9.70
   6  -6  -5   15.30   18.20
   6  -6   5    0.70    6.00
   6   0  -5   17.60   14.90
   6  -6  -5   24.00   19.70
  -6   6  -5   14.50   14.90
   6   0   5   49.40   22.60
   0   6   5   19.50   10.50
  -3   7  -5   34.10   12.40
  -3   7  -5   21.30    9.20
  -4   7   5   10.80    9.80
   7  -4  -5   16.30   19.00
   3   4   5   76.39   22.60
  -7   3   5   13.90   12.90
  -3   7  -5   15.90   11.70
   7  -3   5   73.19   29.80
   7  -4  -5   25.60   18.70
  -7   4  -5   55.49   29.10
   3   4   5   55.19   23.00
   7  -3   5   62.29   23.70
  -7   4  -5   31.40   18.90
   4   3  -5   57.09   19.20
  -4   7   5   25.80   15.60
   4   3  -5   36.30   14.70
   3   4  -5   23.30   11.70
  -4   7  -5   54.99   24.60
   7  -3  -5   47.20   28.00
  -4   7  -5   18.90   11.20
  -7   4   5    5.80    9.40
  -3   7   5   26.50   12.20
   7  -3  -5   41.80   19.20
   7  -4   5   19.10   15.40
   7  -4   5   37.90   21.10
  -3   7   5   46.20   20.20
   3   4  -5   28.80   12.70
  -7   3  -5   31.10   22.00
   4   3   5   15.20   10.30
  -5   7   5   -0.90    3.60
  -7   5  -5    0.50    4.50
   7  -5  -5   -0.60    4.20
   7  -5  -5   -1.60    8.10
  -2   7  -5   -0.10    4.50
   5   2  -5    2.60    5.10
  -7   5  -5   -8.30    3.10
   7  -2   5   -1.30    6.20
  -5   7   5    3.00    7.50
   7  -2   5    3.30    5.10
   2   5   5    1.50    4.10
   2   5   5    5.50    6.40
   5   2  -5    3.40    5.80
   7  -2  -5    1.40    3.90
   7  -2  -5    3.70    7.10
   2   5  -5    3.10    3.00
   5  -7  -5   -1.10    7.10
  -2   7   5    1.80    2.10
  -5   7  -5    3.20    4.90
  -7   5   5   -2.60    3.70
   2   5  -5    3.20    4.70
  -5   7  -5   -0.80    2.70
  -2   7   5    2.30    5.40
   7  -5   5    4.30    6.30
   5   2   5    0.30    2.50
  -2   7   5    2.90    2.20
  -7   5   5   -1.50    5.60
  -1   7  -5   25.20   13.80
  -7   6  -5   11.70   10.10
  -7   6  -5   35.20   23.90
   6  -7   5   25.00   16.20
   7  -1   5   25.20   17.10
  -6   7   5   48.00   22.00
   7  -1   5   25.30   13.00
   7  -6  -5   16.80   16.90
   6   1  -5   48.40   22.50
  -6   7   5   40.40   22.30
   7  -6  -5   53.99   31.40
   1   6   5   43.90   17.70
   7  -6   5   26.40   17.30
   1   6  -5   14.30   10.80
   6   1   5   20.10   13.60
  -6   7  -5   63.29   24.70
   7  -6   5   55.19   26.30
   6  -7  -5   41.90   25.90
   7  -1  -5   24.50   12.10
  -1   7   5   72.59   25.10
  -7   6   5   24.50   20.00
  -7   6   5   24.40   16.10
  -6   7  -5   21.40   15.90
   1   6  -5   34.40   13.90
   7  -1  -5    3.50    7.00
   7   0   5   55.89   14.50
   7   0   5   49.20   14.80
  -7   7  -5   51.69   28.30
   7   0   5   75.59   28.10
  -7   7   5   63.49   27.50
   7  -7  -5   38.40   25.80
   7  -7   5   73.39   32.50
   7   0  -5   49.90   25.80
   0   7  -5   52.09   19.70
   0   7   5  112.79   31.90
  -7   7   5   43.60   26.60
  -7   7  -5   81.99   33.00
   4   4   5   -3.70    2.20
   8  -4   5   -0.10    5.10
   4   4  -5    4.30    4.80
  -4   8   5    2.50    5.80
   4   4  -5    7.80    4.60
   8  -4  -5   -3.80    2.90
  -4   8  -5   -2.20    3.10
  -4   8   5    2.10    3.70
  -8   4  -5    1.70    4.50
   8  -4  -5   -6.00    5.90
  -4   8  -5   -0.80    2.20
   8  -4   5    7.00   10.10
   8  -5  -5   41.20   28.60
  -3   8  -5   28.60   15.50
  -5   8   5   11.20   10.90
  -5   8   5   28.40   15.20
   8  -3   5   16.60   15.40
   8  -3   5   16.50   13.50
   3   5   5   56.39   19.20
  -8   5  -5   33.60   23.30
   8  -5  -5   34.00   20.10
   5   3  -5   41.50   17.80
  -3   8   5   37.60   12.00
   5   3   5   50.89   19.00
   8  -5   5   56.49   26.70
   8  -5   5   57.09   29.90
  -5   8  -5   87.39   26.60
   8  -3  -5   55.09   22.90
  -3   8   5   27.70   13.80
   8  -3  -5   25.10   21.10
  -5   8  -5   19.40   13.10
   3   5  -5   50.49   15.30
  -8   5   5   33.90   22.00
   3   5  -5   39.10   13.10
   8  -2   5   42.70   22.40
  -6   8   5   10.40   12.50
  -8   6  -5   57.29   29.80
   8  -6  -5   30.20   21.20
   8  -2   5   57.39   21.00
   8  -6  -5  136.89   53.59
   2   6   5   66.29   20.30
   6   2  -5   81.29   28.60
  -6   8   5   15.40   13.30
  -2   8  -5   23.50   15.60
  -8   6   5   30.30   21.30
  -6   8  -5   20.90   15.00
  -6   8  -5   38.10   18.90
   8  -2  -5   36.50   16.60
   2   6  -5   54.99   15.10
  -2   8   5   51.29   21.90
   8  -6   5   58.89   32.00
   2   6  -5   62.49   16.30
   8  -2  -5   29.40   22.40
   6   2   5   65.49   26.10
   8  -6   5   36.70   23.50
  -7   8   5   22.00   17.00
   8  -1   5    9.00    6.50
  -8   7  -5    8.50   11.50
   8  -1   5    4.90    7.70
  -7   8   5    5.90    9.30
  -8   7  -5   28.50   21.30
   8  -7  -5   24.40   21.80
   7   1  -5   16.30   13.90
  -1   8  -5    7.70    6.20
   1   7   5    6.00    7.50
   1   7  -5    9.80    6.70
   8  -1  -5   18.10    7.20
  -7   8  -5   11.40   11.10
   8  -7   5   25.60   21.80
  -8   7   5   25.50   18.10
   1   7  -5   20.30   10.30
  -8   7   5   28.80   24.30
  -7   8  -5    9.70    9.20
   7   1   5    4.20    9.50
  -1   8   5   24.70   14.70
   8  -1  -5   11.50   12.60
   8  -8   5    1.90   14.10
  -8   8   5   18.00   14.80
   0   8  -5    7.60    6.60
  -8   8  -5   -3.00    3.00
   8  -8  -5   11.60   12.60
   0   8   5    4.80    7.50
  -8   8  -5   -0.80    8.20
   8   0   5   10.50   10.60
   8   0  -5   12.70   10.50
  -8   8   5    2.80    4.70
   9  -5  -5   15.30   10.40
  -5   9   5   25.30   13.80
   9  -4   5   57.89   26.70
   5   4  -5   14.50    8.30
   9  -5  -5   57.09   32.20
  -5   9   5   82.49   33.20
   9  -4   5   34.50   19.70
   4   5   5   21.20   10.90
  -4   9  -5   25.00   13.10
  -5   9  -5    4.40    5.20
  -4   9   5   13.00    7.10
   9  -4  -5   26.70   17.70
   9  -5   5   23.20   16.40
  -5   9  -5   30.10   12.60
   9  -5   5   19.20   19.60
  -4   9   5    5.40    6.80
   5   4   5   41.00   16.60
   4   5  -5   20.20    7.20
   9  -4  -5   30.10   22.00
   4   5  -5   15.20    7.20
   3   6   5   10.20    8.10
  -6   9   5    5.10    4.90
  -6   9   5   21.30   14.20
   9  -6  -5   39.10   27.30
  -3   9  -5   10.00   10.40
   9  -6  -5   12.50   10.10
   6   3  -5    6.90    7.10
  -9   6  -5   12.50   11.70
   9  -3   5    4.30    7.80
   9  -3   5   11.30    7.80
  -6   9  -5    5.30    6.00
   9  -3  -5   -4.60    8.40
   6   3   5   23.90   13.50
  -6   9  -5   -1.80    5.90
   9  -6   5   -2.50    9.00
  -9   6   5   13.60   12.40
   9  -3  -5   11.40    8.30
  -3   9   5    6.00    8.20
   9  -6   5   24.90   16.80
   9  -2   5    7.50    8.30
  -9   7  -5    3.70    8.00
  -7   9   5    5.00    7.00
   7   2  -5   -3.30    2.70
  -7   9   5    1.30    7.10
  -2   9  -5    9.60    7.50
   9  -2   5    1.70    6.50
   9  -7  -5   -1.80    4.50
   2   7   5   14.30    8.30
  -7   9  -5   -0.90    4.50
   9  -7   5    1.10    6.40
   9  -2  -5   -1.00    3.30
  -2   9   5   19.90   11.60
   9  -2  -5   19.90   16.30
   7   2   5   10.60    5.60
  -9   7   5   -0.90    4.30
   2   7  -5    7.40    3.60
   2   7  -5    2.70    3.10
  -7   9  -5   -2.60    3.00
  -1   9  -5   33.90   15.30
   9  -1   5    4.90    8.90
   1   8   5   48.10   18.50
  -8   9   5    6.00    8.70
   8   1  -5   11.90   13.00
  -8   9   5   46.70   22.50
   9  -1   5   40.30   11.80
   9  -8  -5   63.39   33.10
  -9   8  -5   65.69   31.30
   1   8  -5   30.40   10.30
   8   1   5   64.39   23.10
   9  -8   5    3.60    7.30
   9  -1  -5    6.70   11.20
  -1   9   5   10.80   10.40
  -9   8   5   19.70   14.60
  -8   9  -5    0.00    8.20
  -8   9  -5   58.49   25.50
  -9   9   5    7.10    7.20
   9   0   5   -3.90    5.70
   0   9  -5    2.50    3.50
  -9   9  -5   20.50   17.10
   0   9   5    5.20    7.80
   9   0  -5   -0.20    7.70
  -5  10  -5   -1.30    1.50
  10  -5   5    0.20    6.20
  -5  10   5    3.20    7.00
  10  -5   5   -6.00    6.60
  10  -5  -5    0.10    7.30
  10  -5  -5   -0.70    5.70
  -5  10   5    1.00    3.90
   5   5   5    2.60    5.00
  -5  10  -5   -2.10    3.80
  10  -6  -5    4.80    9.30
  -6  10   5    0.50    8.70
  -4  10  -5    3.10    5.10
  10  -6  -5   17.80   19.30
  10  -4   5   -0.20    4.50
   4   6   5   13.10    8.00
  10  -4   5    5.10    9.80
  -6  10   5   12.20    9.50
   6   4  -5    2.40    3.40
  -6  10  -5   23.00   17.00
   6   4   5    7.90    6.20
  10  -4  -5    5.20    6.70
  -4  10   5    4.70   10.20
  10  -6   5   22.20   16.20
  -6  10  -5   -1.30    3.60
  10  -6   5   15.50   15.00
  10  -4  -5   -8.40    6.30
  -7  10   5    8.80   11.20
  10  -3   5   25.30   13.70
   7   3  -5    8.80    8.90
  -7  10   5   37.40   24.30
 -10   7  -5   -6.30    5.90
  10  -7  -5    1.90    7.90
  10  -3   5   11.10   12.20
   3   7   5   24.70   11.00
  -3  10  -5   16.40   11.90
  -3  10   5   18.70   11.20
  10  -7   5   31.60   23.60
  -7  10  -5    7.30   13.60
  -7  10  -5   16.70   11.50
  10  -3  -5   23.80   19.00
   7   3   5   22.30   13.70
  10  -3  -5   32.40   17.00
  -8  10   5   24.40   21.40
  -8  10   5    5.40    9.20
   2   8   5   13.70    8.50
  -2  10  -5   -1.50    3.20
  10  -2   5   10.50    7.60
   8   2  -5    0.00    3.30
  10  -8  -5   -4.30    5.90
  10  -2   5    1.00    5.70
 -10   8  -5   42.30   25.00
  10  -2  -5   10.00    5.20
  10  -2  -5   -5.60    3.70
  -2  10   5   -1.80    2.90
   8   2   5   11.30   10.40
  -8  10  -5    6.70    7.60
  -8  10  -5   12.60   18.00
 -10   8   5   13.90   15.70
  10  -8   5    1.50    7.10
  10  -1   5    2.90    6.20
  -1  10  -5   19.60   11.00
   9   1  -5    7.30    8.10
  10  -9  -5   -8.10    5.40
  -9  10   5   -4.20    4.60
   1   9   5    6.70    6.10
 -10   9  -5   -4.00    4.90
  -1  10   5   19.10   12.90
  10  -1  -5    1.20    6.00
   9   1   5   15.20   10.70
  -9  10  -5    4.60   12.50
  -9  10  -5   17.00   12.30
 -10   9   5   17.00   11.20
  10   0   5    1.60    6.90
   0  10   5    9.90    7.50
 -10  10  -5    9.80   12.10
  10   0  -5    9.60   13.70
   0  10  -5   21.70    9.00
 -10  10   5   56.79   28.50
  11  -6  -5   -1.30    5.70
   5   6   5    3.30    4.20
  -6  11   5    1.60    4.40
  -6  11   5    7.30    8.40
  11  -5   5    1.90    6.60
  11  -6  -5   -1.40    4.60
  -5  11  -5   -0.40    4.40
  11  -5   5    0.50   12.10
  -6  11  -5   -0.10    4.60
  -6  11  -5    0.80    2.90
   6   5   5   -2.10    3.90
  11  -5  -5   -3.80    4.20
  -5  11   5   -0.30    5.10
  11  -6   5   -4.10    5.00
  11  -6   5    7.80   10.30
  11  -5  -5    0.10    7.30
  11  -4   5    3.40    5.70
   4   7   5    8.20    4.50
  -7  11   5   -2.30    5.80
  11  -4   5   -0.60    5.80
  -4  11  -5    1.90    4.20
   7   4  -5    2.20    3.20
  -7  11   5   11.70    7.50
  11  -7  -5    3.80    6.20
  -7  11  -5    0.50    6.00
  11  -4  -5   -5.10    3.80
  -4  11   5   -4.10    5.50
  11  -7   5   -2.10    3.40
  11  -4  -5   -4.10    6.80
   7   4   5   -0.30    5.60
  -7  11  -5   11.10    7.40
   8   3  -5   14.20   10.70
  11  -3   5    5.10    6.30
  -8  11   5   16.40   13.50
  -3  11  -5   23.30   11.80
 -11   8  -5   -6.70    6.60
  11  -8  -5    1.30    6.20
   3   8   5    8.80    4.10
  -8  11   5   10.50   16.10
  11  -3   5    7.80    8.20
  -3  11   5   -1.20    4.60
  -8  11  -5   -3.40    5.70
  -8  11  -5   -3.70    3.50
  11  -3  -5    6.90    4.60
  11  -8   5   -6.10    4.50
   8   3   5   14.30   10.50
  11  -3  -5    1.00    5.30
  -9  11   5    3.40    5.50
   2   9   5   21.60    9.10
  -2  11  -5    9.80   11.10
   9   2  -5   39.40   19.90
  -9  11   5   10.60   11.40
  11  -2   5    3.50    7.40
  11  -9  -5   38.90   26.50
 -11   9  -5   16.40   15.80
 -11   9   5   21.30   19.30
   9   2   5   13.90   10.10
  -9  11  -5   60.99   40.20
  11  -2  -5    6.50   14.20
  11  -9   5   14.30   11.70
  -2  11   5   35.10   19.90
  -9  11  -5   12.50   11.70
  -1  11  -5    9.30    8.20
  10   1  -5   -3.00    4.10
 -11  10  -5   10.00    8.40
   1  10   5    2.70    4.30
  11  -1   5    1.90    8.30
 -10  11   5   -7.10    3.70
  11  -1  -5    5.80    9.60
  -1  11   5    0.60    7.00
  10   1   5   -0.60    7.70
 -11  10   5    7.60   11.10
 -10  11  -5   -1.60    4.80
  11   0   5    0.30    4.40
 -11  11  -5   -2.90    5.50
   0  11   5    1.80    3.80
 -11  11   5    0.20    7.70
  12  -6  -5    1.40    5.20
   6   6   5   -1.20    2.00
  12  -6  -5   -0.40    9.20
  -6  12  -5    0.50    5.40
  12  -6   5    0.20    6.90
  12  -6   5   -0.60    5.50
  -6  12   5   -7.60    4.30
  -5  12  -5   20.40   17.70
  12  -5   5    3.80    7.80
  -7  12   5    4.00    6.40
  12  -5   5   -3.40    4.80
  12  -7  -5    6.00    9.30
  -7  12   5    8.20   10.20
  -5  12   5   -2.50    3.50
   7   5   5   11.40    7.40
  12  -5  -5   -4.00    6.70
  12  -7   5    4.40    6.10
  -7  12  -5    1.00    3.10
  12  -5  -5    8.80   11.70
  -7  12  -5   -5.60    4.40
  12  -8  -5   -1.70    5.00
  12  -4   5  -11.60    5.50
  -8  12   5    8.20   13.30
   8   4  -5   -1.00    3.70
  12  -4   5    3.30    6.20
  -8  12   5   12.60   10.00
  -4  12  -5    0.00    6.10
  12  -8   5    1.00    7.60
  12  -4  -5    9.40   15.10
  -4  12   5    2.90    7.00
  -8  12  -5    2.50    5.40
   8   4   5   11.10    9.80
  12  -4  -5   21.50   12.30
  -8  12  -5    5.70   12.90
  12  -9  -5   10.40   11.10
  -9  12   5   10.60   13.10
  -3  12  -5   -2.00    4.30
  12  -3   5   11.30    8.60
  12  -3   5   10.00    7.40
   9   3  -5    4.20    4.90
  -9  12   5    7.90   10.20
  -3  12   5    6.40    7.40
  12  -3  -5   -5.40    7.60
  -9  12  -5    4.60   11.70
   9   3   5    3.10    6.70
  -9  12  -5    5.70    6.70
  12  -9   5   -1.20    5.90
   0   0  -6   31.40   20.10
   0   0  -6  108.69   31.40
   0   0   6  103.19   27.20
   0   0   6  159.48   36.70
   0  -1  -6   11.80   10.20
   0  -1  -6    7.80    6.80
  -1   1   6    4.80    3.20
   0  -1   6   -1.60    2.30
   1  -1  -6    7.40    6.70
   1   0   6    1.50    2.80
  -1   0   6    0.30    1.70
   1   0  -6    1.40    3.70
   0   1  -6    7.60    6.90
   0   1   6   -1.20    3.80
  -1   0   6   -2.90    1.70
   1   0   6    1.30    5.00
   1  -1   6   -0.40    2.50
  -1   1   6    0.20    3.60
   1  -1   6   -2.90    1.70
  -1   0  -6    1.70    4.70
  -1   1  -6   -1.50    3.10
   0   1   6   -3.10    1.40
   0  -1   6    0.70    2.70
  -1   1  -6   -0.90    2.40
   1  -1  -6    2.30    4.20
  -1   0  -6    0.90    4.10
   1   0  -6    1.10    2.00
   0   1  -6    1.50    3.30
   2  -1  -6 2015.00  341.57
  -2   1   6 2099.79  342.17
  -1   2   6 2261.17  339.37
  -2   1   6 1859.41  337.67
  -1  -1   6 1981.60  337.57
   1   1  -6 2251.67  342.77
  -2   1  -6 2082.69  342.27
  -1   2  -6 2094.39  342.77
   1  -2  -6 1948.71  344.87
   1  -2   6 2040.70  338.97
  -1  -1  -6 2229.38  343.87
   1   1  -6 2405.46  340.57
   1   1   6 2260.47  337.97
   1  -2   6 2170.38  341.07
  -2   1  -6 1868.21  341.87
   1  -2  -6 1997.90  342.07
   2  -1  -6 1742.13  342.57
  -1  -1   6 2216.38  340.57
   1   1   6 2177.68  341.67
  -1  -1  -6 1984.40  342.97
   1   1  -6 2165.98  337.57
   2  -1   6 1888.01  340.07
   1   1   6 2099.29  341.17
   1   1  -6 2293.07  344.77
  -1   2  -6 2092.39  339.97
  -2   0  -6 3712.63  592.94
  -2   2   6 3790.62  593.14
   2  -2  -6 3673.13  595.94
   2  -2   6 3599.04  591.54
   0   2  -6 3991.50  587.74
   2   0  -6 3590.34  592.24
   0   2   6 4167.68  599.14
   2  -2  -6 4038.70  594.44
   2   0  -6 3951.50  588.94
   0   2  -6 3553.74  587.84
  -2   0  -6 4100.09  595.64
   0  -2  -6 3554.44  592.94
  -2   2  -6 3586.04  593.14
   0  -2   6 3950.90  591.24
   0   2   6 3329.47  587.24
  -2   0   6 3792.12  588.14
   2   0   6 3548.04  591.04
  -2   2   6 3630.14  589.04
  -2   2  -6 3020.40  589.44
   2   0  -6 3382.26  594.14
   2  -2   6 3456.45  589.04
   0   2  -6 3674.03  592.54
   0   2  -6 3781.62  591.14
   0  -2  -6 3653.23  594.34
   0   2   6 3866.01  592.04
   0   2   6 3592.24  590.94
   3  -2  -6   49.30   24.10
  -1   3  -6   77.69   24.80
  -2   3   6   78.49   24.90
  -1   3  -6  100.49   30.90
  -3   2  -6  111.59   34.50
   2   1  -6   30.80   20.00
   2   1  -6   70.29   22.40
  -1  -2   6   67.09   24.50
   3  -2  -6   96.99   33.60
   1  -3  -6   91.99   33.90
   1   2   6   99.29   24.80
  -3   1   6   59.79   22.40
   1   2   6   96.89   35.00
   1   2   6   84.59   28.90
  -3   2  -6  110.39   32.90
   2  -3   6   72.09   26.80
   1  -3  -6  146.39   37.70
  -2  -1  -6  100.49   32.20
   3  -1   6  153.28   34.30
   2   1  -6   83.49   23.60
   3  -1   6   93.59   28.60
  -1   3  -6   85.59   25.50
  -2   3   6   32.20   20.30
  -1  -2   6  107.59   26.50
  -2  -1  -6   73.39   30.10
   2  -3   6   77.39   26.60
  -3   1   6   40.10   21.50
   1   2   6   62.89   24.10
  -1   3  -6   78.59   27.90
  -1  -2  -6   73.19   30.10
   2   1   6  104.29   30.30
  -2   3  -6  104.29   30.10
   1  -3   6   67.59   25.60
  -1   3   6  131.09   42.20
  -1   3   6   59.19   24.40
  -1   3   6   64.99   25.00
  -3   1  -6   55.59   26.10
   1   2  -6   91.69   23.20
   2  -3  -6   99.99   33.20
  -3   2   6   45.80   20.80
   2   1   6  141.19   35.90
  -2  -1   6   53.59   23.70
   1   2  -6   78.09   21.30
   3  -1  -6   69.49   29.20
  -2  -1   6   78.49   23.40
   3  -2   6   67.79   24.70
   1   2  -6   56.49   24.80
  -2   3  -6   62.99   26.20
  -1   3   6   65.99   22.50
   3  -2   6   85.59   30.30
   2   1   6  115.69   36.80
   3  -1  -6  104.69   30.80
   2   1   6   68.49   21.70
  -2   3  -6   90.99   29.60
  -3   2   6   44.00   23.10
   3  -1  -6  104.69   29.70
   1   2  -6  135.99   34.60
  -1  -2  -6   72.09   27.40
   2  -3  -6   25.70   18.90
  -3   1  -6   75.19   28.30
   1  -3   6  116.69   30.50
   0  -3  -6 1315.97  195.38
   3  -3  -6 1419.96  198.48
  -3   0   6  942.01  190.38
  -3   0  -6 1204.48  194.98
   3   0   6 1043.30  190.98
   0   3  -6  970.30  184.38
   3  -3   6 1227.78  192.38
   3   0  -6 1120.59  189.88
   3   0   6 1123.09  188.98
  -3   0  -6 1167.28  195.78
   3   0   6 1304.27  198.78
   0   3  -6  827.52  187.98
  -3   3   6 1356.86  192.48
   0  -3   6 1163.88  190.58
   0  -3   6 1296.37  190.18
   3  -3  -6 1248.18  200.28
  -3   0   6 1166.28  189.68
   0   3   6 1119.79  191.78
   3   0   6 1200.08  194.28
  -3   3  -6 1270.27  197.38
   0   3   6 1284.87  191.58
   0   3  -6 1106.49  185.58
   3   0  -6  954.50  187.28
  -3   3   6  844.92  190.38
  -3   3  -6 1345.57  195.68
   0   3  -6 1187.08  192.68
   2   2  -6   11.70    4.90
  -4   2   6   11.90   10.00
   2  -4   6   25.60   14.00
  -4   2  -6    6.90    8.40
   2  -4  -6   17.00   14.70
  -2   4   6    2.10    4.50
  -2   4   6   42.90   19.70
   4  -2  -6   12.40   12.50
  -4   2   6   15.50   12.50
   2   2   6   38.90   22.00
  -2   4   6    2.70    3.80
   2   2   6   26.20   14.40
  -2   4  -6   11.80    9.00
  -2  -2   6   15.10    9.40
  -4   2  -6   29.10   18.40
  -2   4  -6   19.60    9.30
   2  -4  -6   12.70   11.40
   2   2  -6   27.00    8.50
   4  -2   6   17.20   10.90
   4  -2  -6    0.40    4.30
   2   2   6   14.60    7.50
   2   2   6   40.40   16.00
   4  -2   6    5.70    6.10
   2  -4   6   21.80   12.90
  -2   4  -6   46.30   20.80
  -2  -2  -6   16.00   12.90
   2   2  -6   15.20   10.90
   2   2  -6   12.40   10.20
  -2   4  -6   23.80   14.60
  -2  -2  -6   14.50   12.60
   1   3   6   -3.50    4.50
  -1   4  -6    1.30    3.70
   4  -1   6    3.60    4.00
   1  -4  -6   -1.40    5.10
  -3  -1  -6    4.70    5.70
  -3   4   6    3.30    3.80
   3  -4   6   -0.80    3.20
  -4   3  -6    6.00    4.00
  -1   4  -6    1.50    3.10
  -1   4  -6    1.00    4.00
   3   1  -6   -4.00    3.40
   1  -4  -6    5.10    6.10
   4  -1   6    5.60    8.80
  -4   1   6    0.30    3.30
   3   1  -6    2.90    6.00
   4  -1   6    1.80    4.40
  -4   1   6    1.90    2.90
  -1  -3   6    2.70    3.50
   1   3   6   -1.70    2.40
   1   3   6    5.40    5.00
   3   1  -6    0.50    2.90
   1   3   6    1.50    4.00
   3  -4   6    0.60    3.90
   3   1  -6   -0.20    2.40
   4  -3  -6   -1.20    2.40
  -4   3  -6   -3.90    2.50
   4  -3  -6   -1.10    4.30
  -1   4  -6    0.40    2.90
  -3   4   6   -1.30    2.70
  -3  -1  -6    4.10    5.60
   4  -1  -6   -0.70    3.50
  -1  -3  -6   18.40   11.80
   1   3  -6    2.40    1.60
   3   1   6   -1.60    1.60
   4  -1  -6   -2.80    3.90
  -1   4   6    6.40    8.50
   1  -4   6    1.70    2.60
   1   3  -6   12.20    8.10
  -3   4  -6    2.70    3.90
   1  -4   6    6.90    6.30
  -3   4  -6    1.60    4.10
  -1   4   6   13.90    8.70
  -1  -3  -6   11.30    9.30
  -4   3   6    1.10    4.20
   4  -3   6    3.50    5.20
   4  -3   6    0.50    2.10
   1   3  -6   -2.50    1.90
  -3  -1   6    6.50    5.20
  -4   1  -6   -0.20    3.70
  -4   1  -6    7.90   10.60
   4  -1  -6    2.10    5.10
   3   1   6   -1.20    4.30
   3  -4  -6   -0.90    5.10
  -4   3   6   -2.10    1.60
   3   1   6    0.30    3.10
   3   1   6    7.10    6.60
   1   3  -6    0.80    1.60
  -1   4   6    0.50    2.70
  -1   4   6    2.40    4.10
  -3  -1   6    5.70    7.50
   4  -1  -6    6.70    5.50
   3  -4  -6    4.90    8.70
   0   4   6 1989.80  288.77
  -4   4   6 1758.42  293.37
   4  -4   6 1925.11  301.07
   4   0  -6 2041.80  297.87
   0   4  -6 1705.93  280.47
   0   4  -6 1759.02  280.57
   0   4   6 1863.21  293.67
   0  -4   6 1811.82  289.57
  -4   4  -6 1812.72  294.87
   4   0   6 1947.91  295.97
   4   0   6 1811.02  289.37
   0  -4  -6 1879.41  295.47
   4   0  -6 1354.36  287.07
   4   0  -6 1640.84  288.27
  -4   4   6 1789.42  296.97
   0   4  -6 1735.63  291.97
   4   0  -6 1816.42  297.47
   4   0   6 1728.43  294.17
  -4   0   6 1803.22  291.57
  -4   4  -6 2026.90  301.87
   4  -4   6 1720.83  293.97
   0  -4  -6 1972.50  298.17
  -4   0   6 1622.74  293.07
   0   4  -6 1872.81  293.27
  -4   0  -6 1634.44  296.17
   0   4   6 1643.34  285.37
  -4   0  -6 1894.71  297.07
  -3   5   6   -4.20    2.00
  -2   5  -6   16.90   13.20
   3  -5   6    5.00    3.80
   5  -3  -6   -5.70    3.90
   5  -2   6   -4.50    2.50
  -5   3  -6   10.40    9.70
  -2   5  -6    2.50    5.00
   5  -2   6    0.20    3.70
   2  -5  -6    1.60    4.10
   3   2  -6   10.20    8.90
   2   3   6    2.40    2.40
   2   3   6   -1.70    3.90
   2  -5  -6    6.80    8.40
   5  -3  -6    9.50    9.90
  -5   3  -6   15.50   13.10
  -3   5   6    4.10    5.90
  -3  -2  -6   13.20   11.60
  -5   2   6    5.10    6.60
  -2   5  -6    4.80    5.80
   3   2  -6    7.30    7.10
   3  -5   6   16.60   12.70
   2   3   6    7.00    6.90
   2   3   6    7.00    3.70
  -3  -2  -6    5.20    4.80
  -3   5   6   16.60   14.20
  -2   5  -6    6.20    6.20
  -5   2   6   -3.30    2.20
   2   3  -6    0.60    2.20
   3  -5  -6    3.60    9.90
   2   3  -6    3.30    4.80
  -3   5  -6   16.50   12.30
  -5   3   6    6.80    9.30
  -2   5   6    4.00    6.40
   5  -2  -6   18.70   11.90
   3   2   6    0.90    2.30
  -2  -3  -6    3.90    7.10
   2  -5   6   -1.10    2.50
  -3   5  -6    2.70    6.90
   2  -5   6    1.30    3.10
   3   2   6    8.90    6.00
   5  -3   6    0.60    6.00
  -3   5  -6    2.90    5.20
   3   2   6   10.00    9.10
   3  -5  -6   -1.40    6.10
  -5   2  -6    8.60    8.80
  -2   5   6    1.80    6.20
  -2   5   6    0.40    2.10
  -5   2  -6    9.60    8.10
  -5   3   6   -0.90    4.20
   3   2   6   15.00   10.70
   5  -3   6   -2.00    2.10
   5  -2  -6    7.50    9.40
   5  -2  -6   15.70    8.50
  -2   5   6   20.50   12.30
  -3   5  -6    3.60    7.40
  -5   1   6  821.62  132.79
   4   1  -6  971.10  136.59
   1   4   6  650.93  146.29
  -4  -1  -6  751.02  132.79
  -4  -1  -6  694.63  133.49
   5  -4  -6  733.53  158.58
   5  -1   6  677.73  145.29
  -4   5   6  559.44  141.79
   1  -5  -6  857.01  136.59
   1   4   6  677.03  129.09
   4  -5   6  980.10  144.79
   5  -1   6  732.33  129.09
   4   1  -6  655.33  119.79
   1   4   6  729.93  118.99
   5  -4  -6  624.14  143.89
  -1   5  -6 1105.99  139.89
   1  -5  -6  825.12  138.89
   5  -1   6  735.13  133.49
   1   4   6  782.32  119.39
   4  -5   6  847.12  134.99
  -4   5   6  767.52  130.89
   4   1  -6  680.53  119.79
  -5   1   6  780.52  135.19
  -1   5  -6  583.94  119.99
  -1   5  -6  771.52  132.19
  -1   5  -6  748.23  120.69
   4   1  -6  691.33  132.69
  -5   4  -6  735.23  134.39
  -5   4  -6  731.73  152.48
   1  -5   6  876.01  131.29
   5  -4   6  840.92  134.69
   4   1   6  697.23  127.19
  -1  -4  -6  969.10  136.19
   1   4  -6  800.92  130.19
   4  -5  -6  384.56  138.79
   1   4  -6  903.41  133.09
   4   1   6  793.82  125.79
   5  -1  -6  713.33  129.79
  -1   5   6  729.33  124.49
  -1   5   6  686.53  130.99
   5  -1  -6  999.90  134.09
   4  -5  -6  506.35  141.39
  -5   1  -6  740.03  136.49
   5  -1  -6  850.81  140.29
   5  -1  -6  543.15  142.69
   4   1   6  623.14  129.59
  -1   5   6  953.10  129.49
  -4   5  -6  822.52  139.19
  -5   4   6  765.72  133.19
  -4  -1   6  811.02  129.49
   5  -4   6  899.91  143.19
  -4   5  -6  615.34  129.79
  -5   1  -6  840.32  138.09
  -1   5   6  757.22  138.59
  -5   5   6  232.98   55.09
  -5   5  -6   55.89   34.70
  -5   5   6  221.18   57.79
   0   5   6  225.38   49.80
   5   0  -6  190.38   52.79
   5   0   6   99.19   37.90
   5   0  -6  170.58   38.20
   5   0   6  273.07   61.49
   0   5  -6  183.88   43.80
   5  -5  -6  113.29   49.20
   5   0  -6  149.49   36.90
  -5   5  -6  193.58   57.69
   5  -5  -6  187.78   52.99
   5  -5   6  150.78   45.70
   0   5  -6  153.08   43.40
   5  -5   6  173.88   57.29
   0   5   6  164.58   27.50
   5   0   6  233.48   45.70
  -5   0  -6  154.08   49.20
   0   5   6  161.48   27.60
   3   3  -6  948.11  148.99
  -6   3  -6  831.52  155.68
   6  -3  -6  575.04  155.28
   6  -3  -6  873.91  177.78
  -3   6  -6  987.40  155.78
   3   3   6  950.50  157.18
  -6   3  -6  636.74  162.78
   3   3  -6  889.11  148.29
  -6   3   6  902.91  157.28
   3   3   6  829.02  147.39
   6  -3   6  754.12  149.19
  -3   6   6 1010.70  155.48
  -3   6  -6  859.51  145.09
  -3   6   6  838.72  146.69
   3  -6  -6  959.70  158.38
  -6   3   6  861.31  152.38
  -6   4  -6  910.21  174.98
  -4   6   6  863.81  172.88
  -2   6  -6  962.50  162.18
   4   2  -6 1149.29  174.28
  -2   6  -6  913.31  172.28
  -6   2   6 1031.70  174.48
   6  -4  -6 1035.20  183.78
   6  -2   6  990.90  177.58
   6  -4  -6  729.93  171.28
  -4   6   6 1057.39  171.18
   4  -6   6 1085.49  175.18
  -2   6  -6 1014.40  162.28
   4   2  -6 1285.97  175.08
   2   4  -6  922.91  168.48
  -6   4   6 1024.50  174.78
   6  -4   6 1068.99  182.48
   6  -4   6 1085.79  175.38
  -2   6   6  977.60  165.38
  -4   6  -6  995.10  176.48
   2   4  -6  981.00  167.98
  -2   6   6 1164.68  175.48
   4   2   6 1035.60  171.38
   6  -2  -6  921.61  178.68
  -6   4   6  783.22  174.08
   4  -6  -6  883.01  176.18
  -6   2  -6 1234.78  183.28
   6  -5  -6   -2.00    7.20
   5   1  -6    2.40    4.70
   5  -6   6    3.50    2.90
   6  -1   6    2.60    2.80
  -5   6   6   -3.90    4.30
  -6   5  -6   -0.80    5.70
   6  -5  -6    5.10    9.10
  -6   5  -6    2.70    4.30
  -1   6  -6   -2.90    2.60
   1   5   6    2.30    2.80
   6  -1   6   -0.40    5.20
  -5   6   6   -2.70    2.90
   6  -5   6   -1.50    5.20
  -6   5   6   -3.60    5.20
  -1   6   6    0.90    5.30
   5   1   6   -1.00    4.50
   5   1   6   -0.50    2.30
   1   5  -6    3.20    3.50
  -1   6   6   -0.40    1.70
  -5   6  -6    2.70    5.10
   6  -5   6   -1.80    5.00
  -1   6   6   -1.20    1.80
   1   5  -6   -0.50    2.90
   5   1   6    1.40    1.70
   6  -1  -6   -1.50    2.90
   5  -6  -6    2.60   10.00
  -5   6  -6   -4.10    5.20
  -6   5   6    7.50    7.80
   5  -6  -6   -1.20    4.70
   6  -1  -6    8.90    8.20
   0   6  -6  200.18   45.90
  -6   6  -6  157.98   47.40
   6   0   6  122.19   40.30
   6   0  -6  138.79   27.60
  -6   6  -6  131.59   50.09
   6  -6   6  214.88   56.39
   6  -6  -6  166.08   58.69
   6   0  -6  133.79   44.80
   6  -6  -6  162.08   52.29
  -6   6   6  107.99   38.60
   0   6   6   69.29   30.50
   6   0  -6  111.99   26.30
  -6   6   6  198.18   58.19
   6   0   6  100.39   30.10
  -4   7   6   46.20   19.90
   3   4   6   38.30   16.90
  -3   7  -6   32.40   13.10
  -3   7  -6   32.80   17.60
   7  -4  -6   39.60   21.30
   7  -3   6   48.60   22.90
   7  -4  -6   28.80   23.40
  -7   4  -6   73.69   31.20
   4   3  -6   23.70   13.20
   7  -3   6   16.50   16.00
  -4   7   6   35.40   17.90
   7  -4   6   40.50   25.60
  -4   7  -6   39.60   19.40
  -7   4   6   23.80   17.40
   7  -3  -6   56.29   24.20
   3   4  -6   26.80   14.40
  -3   7   6   49.00   22.30
   3   4  -6   20.30   14.10
   4   3   6   45.80   18.80
  -7   3  -6   54.59   28.70
  -3   7   6   24.80   12.30
  -4   7  -6   41.20   16.70
   7  -3  -6   36.80   22.80
  -2   7  -6  366.16   70.09
   5   2  -6  183.78   56.29
  -7   5  -6  279.17   72.29
   2   5   6  231.98   57.29
  -7   5  -6  371.06   85.99
   7  -5  -6  270.97   70.59
   7  -2   6  246.48   66.99
  -5   7   6  328.57   66.09
   7  -5  -6  118.99   57.89
   5  -7  -6  329.97   88.69
  -5   7  -6  195.38   59.39
   2   5  -6  242.08   54.49
  -2   7   6  205.48   56.59
   7  -5   6  341.87   76.69
   7  -2  -6  182.68   54.29
  -5   7  -6  274.17   60.89
  -2   7   6  224.18   43.80
  -7   5   6  307.47   80.99
   5   2   6  227.18   58.79
   7  -5   6  171.28   65.19
  -2   7   6  265.37   43.80
  -7   5   6  396.46   78.79
   2   5  -6  255.67   57.29
   7  -2  -6  331.47   80.99
  -7   6  -6   -2.80    4.30
   7  -1   6    9.90    7.50
   6  -7   6    4.00    7.90
  -1   7  -6   10.80   10.80
   7  -6  -6   27.00   20.50
   7  -1   6   36.00   19.10
  -7   6  -6   13.60   14.50
  -6   7   6   26.60   16.70
  -6   7   6   25.40   17.40
   1   6   6   63.59   21.30
   6   1  -6    7.80   11.50
   7  -6  -6   37.60   24.50
   7  -6   6    3.50    9.70
  -6   7  -6   36.30   22.70
   6  -7  -6   23.50   19.60
   7  -1  -6   20.80   10.30
   1   6  -6   22.70   13.20
  -7   6   6    7.80    7.40
   6   1   6   14.10   11.90
  -7   6   6    5.60   10.10
  -6   7  -6   48.00   21.80
  -1   7   6   45.60   20.00
   7  -6   6   44.50   26.10
   7  -7   6   -2.30    6.50
   0   7  -6   -2.20    3.60
  -7   7   6    3.00    8.40
   7   0  -6   14.50   15.90
   7   0   6    2.40    8.50
  -7   7  -6   16.00   13.10
   0   7   6    7.20    7.50
   7   0   6    8.60    5.40
  -7   7  -6    1.40    6.80
   7  -7  -6   18.10   17.50
  -7   7   6    3.40    7.30
   4   4   6  188.28   43.20
   8  -4   6  116.39   41.50
  -4   8   6  150.88   35.40
  -4   8  -6   77.79   28.60
   8  -4   6  134.09   48.30
   4   4  -6  174.58   39.70
   8  -4  -6   50.69   31.00
  -4   8  -6  165.98   35.00
   8  -4  -6  121.99   48.90
   5   3  -6    2.70    6.00
   8  -3   6    9.80    9.40
   8  -5  -6    8.90    9.50
   8  -5  -6    0.40    8.60
  -8   5  -6    1.80    6.00
  -5   8   6   -4.60    4.80
  -3   8  -6    6.70   10.00
   3   5   6    5.00    5.00
   8  -3   6   -2.40    6.80
  -5   8   6    9.80    8.90
   8  -3  -6   -3.90    5.60
   3   5  -6    5.70    5.10
  -5   8  -6   -2.20    3.60
  -3   8   6    2.60    6.50
   3   5  -6    9.00    7.20
   8  -3  -6    2.40    4.00
  -5   8  -6    5.20    6.00
   5   3   6    3.00    3.90
  -3   8   6   -1.10    2.90
   8  -5   6    0.20    3.20
  -8   5   6   13.60   15.20
   8  -5   6   -6.20    4.60
  -6   8   6  360.26   80.59
   8  -6  -6  272.87   95.29
  -2   8  -6  424.06   81.59
   2   6   6  288.47   72.89
  -6   8   6  322.77   80.99
   6   2  -6  513.35   94.09
   8  -6  -6  266.37   85.89
   8  -2   6  271.27   77.29
  -8   6  -6  324.37   92.39
   2   6  -6  424.26   68.09
  -6   8  -6  496.55   90.09
  -2   8   6  343.87   75.39
   6   2   6  347.27   79.19
   8  -2  -6  429.26   82.29
   8  -6   6  414.26   97.29
  -8   6   6  383.46   91.59
   8  -2  -6  339.17   91.89
   8  -6   6  460.15  109.09
  -7   8   6  221.08   62.99
  -1   8  -6  390.26   66.19
  -7   8   6  375.26   81.79
   8  -1   6  241.58   51.29
   1   7   6  280.27   60.29
   8  -1   6  164.28   52.19
  -8   7  -6  288.17   84.19
   7   1  -6  280.97   66.69
   8  -7  -6  201.88   68.09
  -8   7  -6  296.67   76.49
  -8   7   6  199.08   60.59
   7   1   6  188.88   55.49
   8  -1  -6  335.47   78.29
   8  -7   6  309.37   76.69
  -7   8  -6  103.79   50.19
  -1   8   6  308.67   61.99
  -7   8  -6  169.98   55.89
   1   7  -6  282.27   53.89
   8  -1  -6  231.48   42.50
  -8   8   6  421.86   91.59
   8   0   6  235.28   70.59
  -8   8  -6  320.97   90.39
  -8   8  -6  475.15   98.19
   0   8  -6  379.86   67.79
   0   8   6  451.55   84.19
  -8   8   6  455.35  105.19
   8  -8  -6  362.36   98.99
   8   0  -6  348.07   90.19
   9  -4   6    9.60    8.00
  -4   9  -6    6.00    6.50
  -5   9   6    3.30    8.80
   5   4  -6    3.50    4.70
   9  -5  -6    5.70    8.80
  -5   9   6   11.00    9.50
   9  -5  -6   15.30   18.40
   4   5   6   17.80   11.90
   9  -4   6   20.80   15.40
  -4   9   6    8.90   11.30
  -5   9  -6    3.40    5.60
  -5   9  -6    5.20    9.10
   9  -5   6    0.40    3.20
   4   5  -6    4.40    4.60
   5   4   6    7.00    6.80
   9  -5   6   14.70   16.90
   9  -4  -6   -0.20    4.20
  -4   9   6    3.70    4.30
   9  -4  -6   17.40   19.30
   6   3  -6  103.39   35.80
   9  -3   6  134.89   41.30
   3   6   6  135.19   36.20
  -6   9   6  153.88   43.60
  -6   9   6   78.89   38.70
   9  -6  -6  149.09   52.49
   9  -6  -6  159.58   61.89
  -9   6  -6  172.68   59.19
   3   6  -6  193.28   41.50
   6   3   6  217.58   49.50
   9  -6   6  178.88   64.29
   9  -3  -6  138.79   40.90
   3   6  -6  154.28   32.70
  -6   9  -6  171.98   43.30
  -6   9  -6  189.38   58.59
   9  -3  -6   90.09   44.50
   9  -6   6   41.70   30.30
  -9   6   6  181.48   56.19
  -2   9  -6   41.10   18.70
  -9   7  -6    9.60   10.80
   9  -7  -6   57.79   32.80
   9  -2   6   22.10   14.90
   7   2  -6   48.70   22.80
   2   7   6   44.90   18.40
   9  -2   6   70.79   23.40
  -7   9   6   30.60   17.50
  -7   9   6   20.80   12.50
   9  -7   6    0.30    9.60
  -7   9  -6   38.00   17.70
  -2   9   6   28.90   13.90
   2   7  -6   48.00   14.10
   7   2   6   58.89   22.80
  -9   7   6   39.90   23.90
   9  -2  -6   15.60    9.50
   9  -2  -6  106.49   43.90
  -7   9  -6   31.50   24.90
   9  -1   6   -2.20    4.20
   9  -8  -6    6.00    8.40
  -9   8  -6    6.00   11.20
  -1   9  -6    1.30    5.50
   1   8   6    5.10    5.40
  -8   9   6    0.10    4.30
  -8   9   6   -2.40    4.30
   8   1  -6   10.30   11.10
   9  -1   6    0.30    2.40
  -8   9  -6   -0.70    3.50
  -1   9   6    5.80    6.30
  -9   8   6    5.00    8.80
  -8   9  -6    5.20    5.00
   9  -8   6   -6.40    3.70
   1   8  -6    1.00    3.20
   8   1   6    0.70    6.00
   9  -1  -6    1.90    4.60
   0   9  -6  182.78   36.60
  -9   9   6   42.10   28.20
   9   0  -6  115.59   42.30
  -9   9  -6  146.59   49.60
   0   9   6  112.19   35.30
  -5  10   6  251.97   53.89
   5   5   6  277.27   61.49
  -5  10  -6  281.97   74.09
  -5  10  -6  283.97   45.40
  10  -5  -6  175.38   71.49
  10  -5  -6  256.37   69.39
  10  -5   6  347.77   79.99
  -5  10   6  289.37   73.79
   5   5  -6  232.78   46.10
  10  -5   6  194.18   63.09
  -4  10  -6  300.97   67.49
  -6  10   6  237.58   54.49
   6   4  -6  267.07   51.69
  10  -4   6  156.78   52.79
  -6  10   6  299.27   74.99
  10  -6  -6  127.39   60.59
  10  -6  -6  132.09   55.09
   4   6   6  314.67   55.49
  -4  10   6  275.07   69.19
   6   4   6  238.48   55.19
  -6  10  -6  261.87   53.39
  10  -4  -6  252.37   61.49
  -6  10  -6   91.49   48.20
  10  -4  -6  142.79   61.69
  10  -6   6  287.87   71.99
  10  -6   6  205.08   88.09
  -7  10   6   -2.30    4.90
   3   7   6    0.20    3.10
   7   3  -6    4.40    6.90
 -10   7  -6   14.00   15.60
  -3  10  -6   -0.10    3.80
  10  -3   6    2.90    3.80
  10  -3   6   -2.60    4.60
  10  -7  -6    7.20    9.40
  -7  10   6    7.50    9.20
  10  -3  -6   -5.00    8.40
   7   3   6    5.30    5.40
  -7  10  -6   -8.00    3.90
  10  -7   6    1.60    6.20
  -3  10   6   -3.10    2.90
  -7  10  -6    2.60    5.10
  10  -3  -6    0.50    3.60
  10  -8  -6   63.59   36.00
   8   2  -6  105.39   34.00
   2   8   6  144.19   34.20
  10  -2   6   41.80   22.30
  -8  10   6  107.79   35.00
  -8  10   6   82.89   42.60
 -10   8  -6  128.29   48.50
  -2  10  -6   49.50   23.80
  10  -2   6   85.99   26.40
  10  -2  -6  216.18   66.39
  10  -8   6   74.59   40.20
  -2  10   6   67.69   24.60
  10  -2  -6   85.29   20.10
   8   2   6  129.79   34.80
  -8  10  -6   94.59   33.30
  -8  10  -6  143.79   52.59
 -10   8   6   22.40   20.10
   9   1  -6   13.90   13.60
 -10   9  -6   21.20   16.60
  10  -9  -6    4.30   12.90
  10  -1   6    1.00    5.10
   1   9   6    8.10    8.80
  -9  10   6    3.50    5.70
  -1  10  -6   27.70   13.90
  -9  10  -6   30.20   26.00
   1   9  -6   35.90   10.90
 -10   9   6   34.00   23.90
  -9  10  -6   51.99   25.30
   9   1   6    2.50    5.90
  -1  10   6   22.10   14.60
  10  -1  -6    7.00   10.10
   0  10   6   90.69   30.00
  10   0  -6  146.29   48.10
 -10  10   6  114.79   42.50
 -10  10  -6   91.39   38.50
  10   0   6   45.50   24.10
   0  10  -6  118.39   27.70
  11  -5   6    0.30    5.50
  -5  11  -6    1.70    6.20
  -6  11   6    7.90    7.40
   6   5  -6    0.30    1.90
  11  -5   6   -5.00    4.30
   5   6   6   -1.50    3.30
  -6  11   6   -5.90    5.30
  11  -6  -6   -5.60    5.30
  11  -6  -6    0.20    7.40
  -6  11  -6    4.30    4.30
  11  -5  -6   14.60   19.80
  -6  11  -6   -3.40    4.40
  -5  11   6    8.40    9.70
  11  -5  -6    0.10    5.50
  11  -6   6   -0.90    6.30
   6   5   6    2.50    5.40
   4   7   6   91.69   24.00
  11  -4   6   48.20   23.70
  11  -7  -6   47.40   27.10
  -7  11   6   60.79   23.80
   7   4  -6   56.59   20.10
  -4  11  -6   57.49   27.30
  11  -4   6   27.90   17.00
  -7  11   6   90.39   41.50
  11  -4  -6   53.39   22.90
  -7  11  -6   11.40   16.40
   7   4   6   75.49   25.80
  11  -4  -6   40.10   30.50
  11  -7   6  103.99   42.10
  -7  11  -6   95.59   27.70
  -4  11   6  108.89   37.00
  11  -8  -6   23.80   20.40
  -3  11  -6   52.79   22.40
   3   8   6   67.69   19.30
 -11   8  -6   63.19   33.70
  -8  11   6   85.79   30.90
  -8  11   6   53.39   33.10
   8   3  -6   45.30   21.00
  11  -3  -6   32.90   27.90
  11  -8   6   49.90   29.50
  11  -3  -6   12.00   10.40
  -8  11  -6   57.79   23.40
   8   3   6   40.70   20.50
  -2  11  -6   -0.40    4.20
 -11   9  -6    1.00   10.40
  -9  11   6    0.80    5.00
  -9  11   6   -0.80    6.50
  11  -2   6   -4.90    6.40
   2   9   6    7.10    6.50
  11  -2   6    1.70    2.40
   9   2  -6    7.30    8.70
  11  -9  -6    0.70    8.00
  -9  11  -6   -0.50    9.70
  -2  11   6    3.90    6.70
   9   2   6    1.80    4.90
 -11   9   6   -1.60    7.20
  -9  11  -6   -3.70    5.30
  11  -9   6   -0.30    6.20
  11  -2  -6    3.10   10.10
 -10  11   6   27.20   20.20
  11  -1   6   22.70   13.60
 -11  10  -6   90.09   41.10
  10   1  -6   52.29   26.10
  -1  11  -6   58.89   19.70
   1  10   6   69.79   22.40
  -1  11   6   38.10   21.30
 -11  10   6   29.30   23.30
 -10  11  -6   28.50   17.40
  10   1   6   43.80   22.50
  11  -1  -6   50.99   28.90
  -6  12  -6   19.60   17.70
  12  -6  -6   14.60   23.00
  12  -6   6   75.19   34.80
  12  -6  -6   68.19   31.60
  -6  12   6   74.09   32.60
   6   6   6   72.89   20.40
  -5  12  -6    5.90    9.30
  12  -7  -6    5.10    7.10
  -7  12   6   -4.10    4.20
  12  -5   6   -1.40    3.80
  -7  12   6    4.20    4.70
  12  -5   6   -4.80    4.20
   5   7   6    5.10    3.50
  -7  12  -6   12.40   15.10
   7   5   6    2.40    5.20
  12  -7   6    3.30    8.30
  -7  12  -6    1.10    3.50
  12  -5  -6   -3.50    4.30
  12  -5  -6    0.40    5.10
  -5  12   6    5.10    8.90
  -8  12   6  124.49   37.40
   8   4  -6  186.98   36.30
  12  -4   6  152.48   56.09
  12  -8  -6  100.79   46.40
  -4  12  -6   78.59   27.50
  -8  12   6  162.48   60.89
  12  -4  -6   93.19   47.50
  -8  12  -6   27.20   28.10
   8   4   6  113.09   35.20
  -8  12  -6  155.08   37.90
  12  -4  -6  220.28   46.40
  -4  12   6   83.39   35.80
  12  -8   6  130.49   47.70
   9   3  -6   77.19   27.60
  -9  12   6   15.50   22.90
  12  -9  -6   75.29   38.70
  12  -3   6   79.19   38.10
  -3  12  -6   52.89   23.70
  -3  12   6   46.60   20.90
  -9  12  -6   99.49   33.90
   9   3   6   98.39   30.00
  -9  12  -6   55.59   32.80
  12  -3  -6   31.40   23.30
  12  -9   6  176.28   58.99
   0   0   7    0.30    1.60
   0   0  -7   -4.00    3.20
   0   0   7    1.90    3.40
   0   0  -7    3.70    5.00
   1   0   7   10.80    9.10
  -1   0   7    7.00    7.70
  -1   1   7   13.40   11.40
   0   1  -7   12.80   10.30
  -1   1   7    4.00    4.80
   0  -1  -7   19.70   12.30
  -1   1  -7   17.50   12.80
   0   1   7   18.10   10.90
   0   1   7    0.50    5.60
   1   0  -7    2.10    2.50
  -1   0  -7   12.40   10.40
   1   0  -7    1.60    4.80
  -1   0   7   11.10    8.40
  -1   0  -7    3.40    5.40
   0   1  -7   10.70   11.40
   1   0   7   22.20   12.20
  -1   1  -7   20.10   13.50
   1  -1  -7   18.70   14.40
   1  -1   7   11.50   10.40
   1  -1   7    7.30    7.80
   1  -1  -7   15.00   13.40
   0  -1  -7   -2.80    3.30
   0  -1   7    1.10    5.00
   2  -1  -7    5.20    7.20
   2  -1   7    0.10    3.10
   1   1   7   -0.60    1.70
  -1   2   7    1.30    3.60
   1  -2   7    3.70    4.40
   1  -2  -7    1.60    5.80
  -2   1   7    1.50    4.50
  -2   1  -7    7.10    6.80
   2  -1   7    3.70    5.20
   1   1  -7    0.70    3.10
   1   1  -7    4.00    5.30
  -1   2  -7   -0.50    3.10
   1   1  -7    1.50    3.10
   1   1  -7   -0.30    3.10
  -1  -1  -7   -3.80    2.40
   1  -2  -7   -2.40    3.00
  -1   2   7   -0.10    1.50
  -1  -1   7    3.70    4.50
  -1  -1   7    1.40    3.20
  -2   1   7   -1.90    2.60
  -1   2  -7    0.50    6.40
   1  -2   7   -1.50    2.90
   1   1   7   -0.70    4.10
  -1  -1  -7   -0.90    3.40
   2  -1  -7    4.50    5.10
  -2   1  -7   10.00    7.50
   0  -2   7  112.59   36.10
   2  -2   7  145.89   37.50
   0   2   7   83.49   32.50
   2  -2  -7   78.89   32.70
   0  -2  -7  145.69   43.50
   0   2  -7  135.99   33.40
   0   2   7  153.38   37.80
   2  -2   7  117.09   36.70
   2  -2  -7   81.69   35.20
   0   2  -7  123.59   37.80
   2   0   7  120.89   37.70
   2   0  -7  123.39   34.50
   0   2  -7  108.99   34.70
  -2   2   7  138.39   41.40
   2   0  -7  106.79   39.20
  -2   0  -7  162.48   46.00
  -2   0  -7   78.89   32.60
   2   0   7   83.69   28.20
  -2   0   7   58.29   26.90
  -2   2   7  101.79   31.20
  -2   2  -7   78.49   32.90
  -2   2  -7   87.29   31.00
   0  -2  -7  116.19   37.60
   0  -2   7  117.99   33.60
  -2   0   7  130.29   39.10
   0   2  -7   60.59   25.90
   2   0  -7  119.09   34.90
   1   2   7   14.20   12.70
   1  -3  -7   37.10   23.30
  -3   1   7   22.80   15.50
  -2   3   7   25.60   13.60
   2   1  -7   12.10    9.70
  -1   3  -7   15.90   11.80
   2  -3   7   32.40   17.10
   2   1  -7    4.60    8.70
  -1   3  -7   25.30   15.60
   1   2   7   35.50   16.10
  -1   3  -7   12.40   12.00
  -1  -2   7   17.80   13.50
  -3   2  -7   18.80   13.50
  -2  -1  -7   28.60   18.60
   2   1  -7   36.80   15.30
   3  -2  -7   42.40   23.30
   1   2   7   51.89   28.00
  -1  -2   7   52.19   20.00
  -3   1   7   19.20   10.90
  -2   3   7   38.60   19.20
  -2  -1  -7   25.30   18.30
  -1   3  -7   49.90   20.00
   1  -3  -7   20.90   14.00
   3  -2  -7   83.09   28.70
   2  -3   7   24.30   15.30
   3  -1   7   36.50   17.70
   3  -1   7   26.40   14.80
   1   2   7   45.50   20.60
  -3   2  -7   46.50   24.10
   2   1  -7   33.00   19.90
   2  -3  -7   28.70   20.00
  -1  -2  -7   50.29   25.30
   1  -3   7   45.80   20.40
  -1   3   7   14.80   10.40
   1   2  -7   71.49   20.50
   1   2  -7   28.80   13.40
   2   1   7   60.39   27.60
  -3   1  -7   59.49   25.40
  -1   3   7   40.10   21.20
  -2   3  -7   20.60   13.30
   3  -1  -7   27.30   16.20
   3  -2   7   31.10   18.10
  -3   2   7   21.30   14.70
   1  -3   7   37.40   18.10
  -1   3   7   27.50   16.40
   1   2  -7   50.39   22.30
  -2  -1   7   59.99   22.30
   2  -3  -7   17.70   13.00
   3  -2   7   32.00   16.40
  -1  -2  -7   44.40   21.90
  -2  -1   7   52.89   19.30
   2   1   7   25.30   15.00
   2   1   7   74.49   27.80
  -3   1  -7   28.30   18.00
   2   1   7    6.30    7.80
  -2   3  -7   38.20   19.60
  -3   2   7   36.00   17.00
   3  -1  -7   33.30   19.80
   1   2  -7   45.40   20.40
   3   0   7   15.20   11.30
   0   3   7   38.50   22.30
   0  -3   7   43.50   18.50
  -3   3  -7    5.20    8.90
  -3   0  -7   41.00   21.60
   0   3  -7   10.90    9.90
   0   3   7    7.00    8.80
  -3   3   7   22.90   13.00
   0  -3  -7   21.30   14.80
   0  -3   7    8.00    7.70
  -3   3  -7    7.50    9.00
   3  -3   7   19.60   13.50
   3   0  -7   45.70   22.50
  -3   3   7   17.30   14.90
   0   3   7    9.20    7.70
  -3   0   7   28.60   16.00
  -3   0   7   11.90    9.80
   3   0  -7   18.00   11.20
   3   0  -7   42.00   20.30
   0   3  -7    4.30    5.50
   3  -3  -7   28.30   16.40
   0   3  -7   23.70   14.20
   3  -3   7    4.00    7.90
  -3   0  -7   18.50    9.70
   3   0   7    5.40    8.30
   3   0  -7   23.50   14.50
   0   3   7   47.20   19.50
   0  -3  -7   15.80   13.30
   3  -3  -7   21.20   18.10
   3   0   7    6.70    5.60
   0   3  -7   28.30   11.70
   2  -4  -7   -1.20    3.90
  -2   4  -7   -2.80    4.70
   4  -2   7   -0.50    2.30
   2   2   7    2.20    3.90
  -2   4   7   -2.70    4.40
   4  -2  -7    0.70    4.80
   2   2  -7    3.50    5.10
   2  -4  -7    9.50    8.00
  -2  -2  -7    0.20    3.90
  -2   4  -7   14.80   11.70
   2   2   7    1.50    3.90
   2  -4   7    2.00    6.00
  -2   4  -7    3.80    5.10
  -4   2  -7    1.60    5.60
  -2  -2   7    2.60    5.20
  -2   4   7    2.30    4.30
   4  -2  -7    3.70    4.80
  -4   2   7    0.70    3.00
  -2  -2   7   -1.20    3.40
  -2   4  -7   -0.50    3.20
  -2  -2  -7    2.30    5.80
  -4   2  -7   -2.80    2.40
  -2   4   7    0.80    4.70
   2   2   7    0.50    3.40
   2   2  -7   -1.80    3.30
   2   2  -7   -0.60    2.20
   2  -4   7    0.90    3.70
   2   2  -7   -0.70    2.40
   4  -2   7   -2.00    2.50
   2   2   7    9.60    7.40
  -4   2   7    3.30    5.70
   4  -1   7   38.70   22.00
   1  -4  -7   26.80   19.70
   3   1  -7   36.70   19.70
  -1  -3   7   10.80    9.60
   3   1  -7   35.10   18.50
  -1   4  -7   11.80    7.90
   1   3   7   38.80   20.10
  -3   4   7   22.20   13.40
   3  -4   7   23.50   14.00
   1   3   7   50.19   15.90
  -3  -1  -7   14.60   12.80
   3   1  -7   49.80   17.40
  -1   4  -7   41.30   16.70
   1   3   7   28.60   14.50
   3  -4   7    7.80    8.90
  -1  -3   7   35.10   16.20
   1   3   7    7.30    8.00
  -3  -1  -7   41.30   21.40
   4  -1   7    4.10    6.20
   4  -3  -7   31.30   18.90
   3   1  -7   19.00   10.70
  -3   4   7   19.70   12.80
   1  -4  -7   47.40   22.90
  -4   3  -7   17.90   14.50
  -4   3  -7   36.50   19.60
   4  -3  -7   15.60   14.40
  -1   4  -7    5.70    8.50
  -4   1   7    2.60    6.30
  -1   4  -7   17.50   12.50
  -4   1   7   24.60   15.00
  -1   4   7   27.80   13.00
   1  -4   7   17.50   11.90
  -1   4   7   16.00   12.30
  -3  -1   7   17.20   10.90
   4  -3   7   43.40   21.70
   3   1   7   16.20   12.10
   3   1   7    2.60    8.10
  -3  -1   7   26.40   15.10
   4  -1  -7   25.60   15.90
   1   3  -7   20.80   14.80
   3  -4  -7    8.90   12.20
  -1  -3  -7   15.10   12.60
  -4   3   7   12.10    8.90
  -1   4   7   14.10   11.60
   3   1   7   42.40   20.80
   4  -1  -7   29.00   18.50
   1  -4   7   67.39   24.80
   1   3  -7   30.80   10.00
  -3   4  -7   42.00   22.70
  -1   4   7    0.60    5.20
   4  -1  -7   12.80   11.20
  -4   3   7   25.80   18.70
  -4   1  -7    7.30   10.70
   3  -4  -7   29.20   19.80
   4  -3   7   41.70   20.80
   3   1   7   36.10   14.80
   1   3  -7   20.80    9.00
  -3   4  -7   22.60   15.40
   4  -1  -7   18.40   13.90
  -4   1  -7    2.20    7.80
  -1  -3  -7   25.20   17.60
   1   3  -7   12.00   11.00
   0  -4   7  101.19   30.20
   0  -4  -7  112.19   39.00
   4   0  -7  131.09   42.10
   4   0  -7   86.69   28.10
   0   4  -7   67.29   19.30
   0   4   7   56.79   22.60
   0  -4  -7  106.89   36.70
   4   0   7   99.79   34.90
   0   4  -7   85.69   31.20
   0  -4   7   91.49   34.10
   4  -4  -7   61.09   31.60
  -4   0   7   97.19   34.30
   0   4  -7  149.29   40.10
   4  -4   7   26.10   23.00
  -4   4  -7  140.39   43.70
  -4   4   7   53.09   28.20
   0   4   7  106.49   34.30
  -4   4   7  121.09   35.40
   4   0  -7   64.49   24.50
  -4   0   7   97.59   31.50
  -4   4  -7  122.19   37.20
   4  -4  -7   62.79   28.80
   4   0  -7   91.59   34.90
  -4   0  -7  100.49   35.80
   0   4  -7   73.49   19.80
   0   4   7   72.59   21.90
   4  -4   7  125.09   37.00
   4   0   7   86.29   32.10
   4   0   7   66.49   24.10
  -4   0  -7  100.89   38.40
   0   4   7   79.09   35.00
   2   3   7   -2.00    3.10
   5  -2   7    3.20    6.70
  -5   3  -7    2.70    7.50
  -5   2   7   -0.10    5.40
   2  -5  -7   -6.80    3.50
   5  -3  -7    7.80    9.90
   3   2  -7    0.90    4.60
  -3   5   7    3.20    4.60
   3   2  -7    0.30    4.70
  -3  -2  -7   -6.70    4.80
  -5   2   7   12.30    9.30
  -3   5   7   -1.40    4.60
  -2   5  -7    2.60    4.50
  -2   5  -7    6.10    6.30
  -5   3  -7    4.80    8.30
  -2   5  -7    6.40    5.90
   2  -5  -7   19.60   15.50
   2   3   7    1.10    4.50
   3  -5   7    2.50    5.00
   2   3   7    2.10    3.30
   3  -5   7    5.50    8.20
   5  -2   7   -0.70    3.30
   5  -3  -7    5.70    7.50
  -5   3   7    4.20    7.50
   5  -2  -7    7.10    9.70
  -2   5   7    0.50    3.20
  -5   3   7    5.10    6.30
   5  -2  -7   10.80   10.10
  -5   2  -7   -3.30    5.00
   3   2   7   -1.50    3.10
  -2   5   7   -5.80    2.80
  -3   5  -7    7.10    7.10
   2   3  -7   12.90   11.20
   3  -5  -7   11.30   12.10
  -3   5  -7   -0.80    6.20
   3   2   7    1.90    2.90
   5  -3   7    1.20    4.30
   2   3  -7    4.00    7.50
   3  -5  -7   21.00   17.30
   2  -5   7    7.00    5.40
  -5   2  -7    3.40   10.50
   3   2   7    1.90    4.00
   5  -3   7   -4.50    3.10
   4  -5   7   13.70   12.30
   4   1  -7    6.70    5.10
   5  -1   7    6.90    8.00
  -1   5  -7   13.10    7.00
   1   4   7    1.70    5.00
   5  -4  -7   12.00   11.30
   5  -1   7   22.00   14.50
   4   1  -7   18.10    8.20
  -5   1   7   12.20    9.80
  -1   5  -7   11.40    6.60
  -1   5  -7   19.50   13.90
  -4   5   7   14.60   10.40
   4   1  -7   12.30   12.40
   1   4   7   20.80    9.70
   4  -5   7   11.70   14.20
   1   4   7   12.00    6.80
  -5   4  -7   28.00   20.50
   5  -4  -7   10.10    9.40
  -4   5   7    3.10    7.30
  -5   4  -7   17.10   13.30
  -5   4   7   18.60   13.60
  -5   1  -7   -0.90    4.20
   4  -5  -7   21.50   18.80
   5  -4   7   16.00   16.60
  -1   5   7   28.40   14.60
   5  -1  -7   23.50   17.10
   4   1   7    7.90    7.40
  -4   5  -7   30.10   16.20
  -4   5  -7    8.70   11.20
  -1   5   7   19.10    9.80
   1   4  -7   18.70   14.90
  -5   4   7    8.40    8.90
   4   1   7   36.00   15.50
   4  -5  -7   16.20   15.10
   1   4  -7    3.70    5.00
  -5   1  -7   -1.30    3.50
  -1   5   7   29.80   16.90
   5  -4   7   15.00   13.70
   5  -1  -7   23.30   12.30
   4   1   7    8.70   11.20
   5   0   7   11.10    8.80
  -5   5  -7   25.90   15.90
  -5   5   7   21.10   19.40
   5   0  -7   43.70   16.20
   5   0   7   40.90   18.70
   5   0  -7   62.89   26.40
   5  -5   7   40.20   25.10
   0   5  -7   16.90   12.40
  -5   5   7   21.70   14.90
   0   5   7   39.30   12.10
   5  -5   7   33.20   19.70
   0   5   7   48.00   21.60
  -5   5  -7   13.80   15.30
   0   5   7   26.50   11.30
   5  -5  -7   32.80   21.10
   5  -5  -7   37.90   24.60
  -6   3  -7   24.00   17.10
  -3   6   7    6.70    6.30
   6  -3   7    1.70    5.90
  -6   3   7    2.20    5.00
   6  -3   7    4.30    8.20
  -3   6  -7    3.90    7.80
   3   3  -7    2.30    3.60
   3   3   7   -1.50    5.70
   6  -3  -7    0.10    5.20
  -3   6   7    0.30    3.70
   6  -3  -7   -0.20    4.70
  -3   6  -7   -0.90    3.10
  -6   3  -7    4.00    6.00
   6  -2   7   57.09   26.60
  -2   6  -7    8.60    6.50
  -4   6   7   11.10    9.40
   2   4   7   17.60   11.80
   6  -2   7   13.00   10.40
   4  -6   7    6.40    9.20
   6  -4  -7    4.30    7.60
  -4   6   7    5.90   10.40
  -2   6  -7   31.60   11.70
  -6   4  -7   27.60   18.30
  -6   4  -7    1.70    4.30
   4   2  -7   49.99   22.20
  -2   6  -7   22.80   15.90
   6  -4  -7   13.60   12.70
   6  -2  -7   53.09   22.40
   4   2   7   12.10    7.40
  -6   2  -7   35.60   20.90
  -6   4   7   11.50   13.30
  -6   4   7   24.90   17.70
  -2   6   7   22.60   14.40
   4  -6  -7   31.10   21.10
   6  -2  -7   20.70   18.30
   6  -4   7    6.00   12.10
   2   4  -7   24.00   12.90
   4   2   7   27.80   15.80
   4   2   7   23.30    8.20
  -2   6   7   21.40   11.20
  -4   6  -7    0.80    4.80
   6  -4   7   23.20   16.70
  -4   6  -7   16.40   15.60
   5  -6   7  107.09   39.20
  -5   6   7   59.19   27.50
  -5   6   7  112.99   41.70
   6  -1   7  174.68   41.40
  -6   5  -7   92.89   36.20
  -1   6  -7   71.29   30.40
   6  -1   7   76.79   31.20
   1   5   7  126.49   36.00
   5   1  -7   69.99   31.00
   6  -5  -7   61.19   31.60
  -6   5  -7  137.29   49.60
   6  -5  -7   77.79   37.00
   6  -5   7  114.39   39.70
   6  -1  -7  165.68   39.90
  -6   5   7  136.09   49.90
  -1   6   7  139.69   30.90
   1   5  -7  109.89   32.60
   6  -1  -7  188.38   54.09
   5   1   7   87.69   30.10
  -5   6  -7  103.79   37.00
  -5   6  -7   87.59   39.10
  -1   6   7  118.59   25.80
   6  -5   7  136.69   49.60
   5  -6  -7   95.39   40.00
   5   1   7   95.49   26.20
  -6   5   7   94.59   35.60
  -1   6   7   87.49   31.90
   6   0  -7   55.89   15.20
   6  -6   7   54.69   26.20
   6  -6  -7   15.80   15.40
   6   0  -7   39.30   12.80
   0   6  -7   55.99   23.90
  -6   6   7   35.90   20.20
  -6   6  -7    5.30   11.00
  -6   6  -7   35.80   21.40
   0   6   7   31.50   17.80
   6   0   7   31.20   14.60
   6   0   7   30.80   16.70
  -6   6   7   37.50   24.80
   6  -6  -7   25.20   25.50
   6   0  -7   52.49   25.70
   7  -3   7   67.89   33.70
   4   3  -7   24.70   15.10
  -4   7   7   30.00   16.00
  -3   7  -7   30.30   12.90
   7  -4  -7   39.50   26.50
   7  -4  -7   45.70   24.90
   3   4   7   47.30   19.70
  -7   4  -7   79.39   33.20
  -3   7  -7   37.70   18.80
  -4   7   7   56.19   21.80
   4   3   7   35.30   19.40
   7  -3  -7   84.59   38.50
  -4   7  -7   50.69   19.30
   3   4  -7   46.30   19.70
   7  -4   7   46.70   30.50
  -7   4   7   78.99   30.70
   7  -4   7   54.79   24.90
  -4   7  -7   25.20   16.70
  -3   7   7   31.20   14.60
  -3   7   7   16.10   11.30
  -7   3  -7   29.10   20.10
   7  -3  -7   23.40   15.70
   7  -5  -7   -9.20    5.40
  -7   5  -7   12.30   13.80
   5   2  -7    4.80    7.30
  -7   5  -7   -2.10    5.50
  -2   7  -7    7.60   10.40
   7  -5  -7    6.90   10.60
  -5   7   7    5.40   10.30
   7  -2   7    4.20    8.40
  -5   7   7   -1.70    3.00
   2   5   7   -0.70    4.80
   7  -2   7   13.60   13.80
  -5   7  -7   10.50   11.50
   5   2   7    0.60    6.40
  -2   7   7   -0.10    4.10
   2   5  -7    2.20    4.20
   7  -2  -7    1.60    4.90
   7  -5   7   -3.30    6.60
   7  -5   7   -1.70    6.90
  -7   5   7    4.50    5.60
  -2   7   7    0.30    2.20
  -5   7  -7   -1.40    4.60
   7  -2  -7    7.90    6.60
  -7   6  -7    5.60    9.30
  -6   7   7   11.60   10.80
  -1   7  -7    5.80    6.70
   1   6   7    1.90    4.70
   7  -1   7   36.20   19.90
   6   1  -7   15.80   11.70
   7  -6  -7   22.20   19.10
  -7   6  -7   19.80   19.90
   7  -1   7    4.20    5.40
   7  -6  -7    6.30   12.00
  -6   7   7   -5.10    7.30
   7  -6   7   12.10   12.10
  -7   6   7    2.70    6.90
   7  -1  -7   16.70   14.50
   7  -1  -7   -1.60    3.60
   6  -7  -7    5.50    7.40
  -1   7   7    4.60    7.20
   6   1   7    9.40    4.70
  -6   7  -7   12.60   14.90
   6   1   7    9.70    8.80
  -6   7  -7    8.60    8.20
   1   6  -7    6.20    4.60
  -7   6   7   50.09   29.50
   6   1   7   20.20    8.00
   7   0   7    8.60    7.30
  -7   7   7    8.40   10.30
   7   0  -7    6.60    9.30
  -7   7  -7    0.10    7.70
  -7   7  -7   14.40   13.10
  -7   7   7   -1.10    3.60
   0   7  -7   14.50   12.30
   7   0   7    1.80    3.30
   7  -7  -7   -3.20    4.90
   0   7   7    2.50    7.20
   7  -7   7   15.30   16.30
   4   4  -7    5.00    6.20
   8  -4  -7    1.00    7.00
  -4   8   7    2.20    6.00
   8  -4  -7   -3.10    5.20
  -4   8  -7    3.40    3.90
   8  -4   7    1.10    6.00
   4   4   7   -2.60    3.40
   8  -4   7   12.80   13.60
  -4   8  -7    2.80    4.30
  -4   8   7    1.60    4.20
   5   3  -7   53.79   22.20
   8  -5  -7   46.10   24.10
  -5   8   7   69.29   26.80
  -3   8  -7   18.10   11.00
   8  -3   7   66.99   25.90
   8  -3   7   38.30   23.10
   8  -5  -7   29.20   19.50
   3   5   7   29.40   15.50
  -5   8   7    2.00    6.10
  -8   5  -7   13.30   11.40
   8  -3  -7   35.40   24.90
  -3   8   7   24.50   11.70
   8  -5   7   -0.90   12.90
   3   5  -7   80.19   22.70
  -5   8  -7   35.30   15.50
  -5   8  -7   58.59   20.10
   8  -3  -7   69.69   28.50
   5   3   7   25.60   15.00
  -3   8   7   68.09   18.00
  -8   5   7  100.09   36.80
   8  -6  -7   16.70   16.70
   8  -2   7   52.89   23.40
   8  -6  -7   21.50   18.90
   6   2  -7   44.10   24.10
  -8   6  -7    5.00   11.70
   8  -2   7   37.30   18.20
  -2   8  -7   11.70    9.80
  -6   8   7   17.50   15.50
   2   6   7   47.60   21.10
  -6   8   7   20.40   15.70
   6   2   7   40.70   17.60
  -6   8  -7    3.30    6.30
   8  -6   7   27.10   20.20
  -2   8   7   37.40   14.30
   8  -2  -7   13.20   16.70
  -6   8  -7   38.00   17.90
   8  -2  -7   17.10   13.50
  -8   6   7   26.10   18.10
   2   6  -7   36.30   14.50
  -7   8   7    3.70    8.00
  -1   8  -7    6.20    6.80
   7   1  -7    1.60    5.80
  -8   7  -7    0.90    6.40
  -7   8   7    7.00   10.50
   8  -1   7    8.10    8.40
   8  -7  -7   -1.00    6.40
   1   7   7   11.70   10.40
   8  -1   7    1.50    4.40
   7   1   7   10.30   11.60
  -1   8   7    3.80    6.50
  -7   8  -7    0.10    5.90
   1   7  -7    0.00    5.10
   8  -7   7   -5.00    5.90
   8  -1  -7    7.10    5.00
  -8   7   7   -4.90    5.20
   8  -1  -7   13.80   16.60
  -7   8  -7    0.10    6.70
  -8   8  -7    4.30   11.50
   8   0  -7    6.50   11.20
  -8   8  -7   -4.80    4.40
   0   8   7    4.50    7.60
   0   8  -7    1.70    3.60
   8  -8  -7    6.50    9.80
   8   0   7    0.90    5.40
  -8   8   7   -0.20    7.10
   8   0   7   -0.60    1.80
   9  -5  -7   -0.10    6.10
   9  -4   7    4.90    7.90
  -4   9  -7    4.70    3.40
  -5   9   7    3.10    5.20
  -4   9  -7    3.50    7.00
   9  -4   7   -0.60    7.40
   5   4  -7    3.30    4.80
  -5   9   7   -4.80    5.10
   4   5   7    8.10    8.20
   9  -5  -7   13.90   14.80
   9  -4  -7    4.30    5.30
  -4   9   7   -1.90    2.60
   9  -5   7   11.50   13.90
   9  -4  -7   -3.50    3.90
  -5   9  -7   21.70   15.70
   9  -5   7    0.70    4.70
  -5   9  -7   -2.40    3.90
   5   4   7   -0.40    2.60
  -4   9   7    0.00    4.40
   4   5  -7    1.90    4.20
   9  -6  -7    4.80   11.10
  -6   9   7    0.60    6.20
   9  -3   7   -1.40    5.70
  -3   9  -7   -1.10    5.80
   6   3  -7   -2.60    3.90
   9  -6  -7   -3.30    5.80
   3   6   7   -0.90    3.70
  -9   6  -7    0.30    6.50
   9  -3   7   -2.20    8.20
  -6   9   7    2.60    6.90
   3   6  -7    1.40    5.10
  -6   9  -7   -3.80    2.80
  -3   9   7   -3.20    3.60
   9  -3  -7   -3.10    3.70
   9  -6   7    3.90    5.20
   6   3   7    5.70    8.00
   9  -3  -7   -2.00    4.80
  -6   9  -7   -3.60    4.90
   7   2  -7   39.20   21.00
   9  -2   7    3.50    7.90
  -7   9   7   11.50   13.70
   9  -7  -7   14.00   13.40
  -9   7  -7   12.10   12.10
   2   7   7   44.00   18.70
  -7   9   7   12.60   13.10
   9  -2   7    6.00    8.20
  -2   9  -7    4.80    7.30
  -7   9  -7   -1.80   13.90
   9  -2  -7   29.40   25.00
  -2   9   7   13.10    8.20
   2   7  -7   21.30   11.00
   9  -7   7    4.10   11.60
   7   2   7    9.90   12.00
  -9   7   7    9.90    7.70
   9  -2  -7   18.30   10.40
  -7   9  -7   44.70   21.00
  -8   9   7   -0.90   10.20
   9  -8  -7   22.00   22.00
   9  -1   7   19.90   12.60
   8   1  -7   61.19   27.20
  -9   8  -7   53.69   31.60
  -8   9   7   47.20   23.60
   9  -1   7   44.50   15.30
  -1   9  -7   35.60   17.20
   1   8   7   38.80   17.60
  -8   9  -7   18.50   12.10
   1   8  -7   46.10   16.60
   9  -8   7   29.40   26.60
   9  -1  -7   39.30   25.20
   8   1   7   28.00   14.10
  -8   9  -7   16.30   16.30
  -9   8   7    4.90   11.00
  -1   9   7   55.49   20.40
  -9   9  -7   -3.40    3.80
  -9   9   7    7.70    8.10
   9   0   7    8.30    7.50
   9   0  -7    3.60    8.90
   0   9  -7    3.30    5.20
   0   9   7    2.80    7.30
  -5  10   7    2.00    4.00
   5   5   7    5.90    4.80
   5   5  -7   -3.80    2.30
  10  -5   7   -3.90    3.90
  10  -5   7    0.70    8.10
  -5  10  -7    6.20    3.80
  10  -5  -7    2.00    9.40
  -5  10  -7   -1.20    6.10
  -5  10   7   -0.10    5.90
  10  -5  -7    2.30    9.70
   4   6   7    3.90    5.20
  -6  10   7    9.90    5.90
  10  -6  -7   10.40   12.80
   6   4  -7    4.30    5.30
  10  -6  -7    0.50    6.00
  -4  10  -7   18.20   15.80
  -6  10   7    2.90    5.10
  10  -4   7    1.10    4.00
  10  -4   7   11.50   13.70
   6   4   7   -5.00    4.10
  -6  10  -7    8.80    8.00
  10  -4  -7   -0.70    5.00
  -6  10  -7   -3.20    5.90
  10  -4  -7    1.50    7.20
  -4  10   7    2.30    1.70
   4   6  -7    4.90    4.20
  10  -6   7    3.40    5.50
  -4  10   7   13.40   13.90
   3   7   7   52.59   19.70
  -7  10   7   69.29   27.20
 -10   7  -7   82.79   38.50
  10  -3   7   18.40   13.00
  -3  10  -7   17.60   11.90
  -7  10   7   67.59   34.90
   7   3  -7   28.50   16.60
  10  -7  -7   54.09   31.70
  10  -3   7   24.50   13.20
  10  -3  -7   38.40   18.20
   7   3   7   79.99   30.50
   3   7  -7   32.30   11.00
  -7  10  -7   23.60   16.30
  10  -7   7   85.89   38.80
  -3  10   7   25.90   18.30
  10  -3  -7    5.70   15.10
  -7  10  -7   36.20   26.10
  10  -8  -7   25.40   23.10
  10  -2   7   22.10   15.60
   8   2  -7   71.79   29.70
  -2  10  -7   31.70   18.40
  10  -2   7   17.00   11.20
 -10   8  -7   44.40   27.70
   2   8   7   37.10   18.20
  -8  10   7   62.39   35.10
  -8  10   7   24.20   15.70
 -10   8   7   10.60   10.20
  -2  10   7   14.10    9.30
  10  -2  -7   20.70    9.50
  -8  10  -7   22.80   16.20
  -8  10  -7   42.10   26.20
   8   2   7    1.60    6.70
  10  -2  -7   14.60   14.40
   2   8  -7   20.10    8.50
  10  -8   7   48.10   27.90
  10  -9  -7   13.90   16.50
 -10   9  -7   16.40   12.80
   1   9   7    6.60    7.50
  10  -1   7    1.60    5.00
  -1  10  -7    0.30    4.80
  -9  10   7   -4.40    4.40
   9   1  -7   21.00   17.00
   1   9  -7    1.70    3.10
  -9  10  -7   27.80   25.40
  10  -1  -7   -1.00    5.80
   9   1   7   -1.90    4.90
  -1  10   7   -0.30    5.00
  -9  10  -7   -1.20    6.20
 -10   9   7    4.60   10.50
   0  10  -7   12.60    8.50
  10   0   7    7.40    9.10
   0  10   7   19.80   13.40
  10   0  -7   11.90   15.80
 -10  10   7   16.90   13.20
 -10  10  -7   -0.90    5.30
  -6  11   7    4.00    4.60
  -6  11   7   -3.60    8.30
   6   5  -7   10.00    6.00
  11  -5   7    7.90    9.10
  11  -6  -7   23.00   19.90
  11  -5   7   -1.60    7.40
  11  -6  -7   -1.70    7.20
   5   6   7    5.30    6.50
  -5  11  -7   17.70   14.90
  -5  11   7    3.20    2.20
  11  -5  -7    2.00    5.10
  11  -5  -7    0.70    8.70
  -5  11   7   15.20   14.60
  -6  11  -7    4.20    7.50
  11  -6   7    9.50   11.00
  -6  11  -7    4.30    4.10
   6   5   7    5.80    9.20
  -4  11  -7    0.40    6.00
  -7  11   7    8.10   10.70
  11  -4   7    1.60    7.80
  -7  11   7    6.50    5.60
   4   7   7    5.50    5.00
  11  -4   7   14.60   11.90
   7   4  -7    8.20    8.10
  11  -7  -7   24.10   18.90
  11  -7   7   16.60   15.80
  -4  11   7   -0.10    5.00
  -7  11  -7   -3.10    6.50
  -7  11  -7    6.50    7.00
  11  -4  -7    0.60    9.80
  11  -4  -7    9.00    9.70
   7   4   7   -0.10    5.00
  11  -8  -7    6.10    9.60
  -8  11   7   -4.90    7.20
  -3  11  -7    7.30    8.90
  11  -3   7   -0.80    3.20
  11  -3   7    0.30    4.70
  -8  11   7    2.30    6.70
   3   8   7   -1.80    3.40
   8   3  -7    6.90    7.40
  11  -8   7   -0.50    5.80
  -3  11   7   -6.00    4.50
  -8  11  -7    2.50    6.90
  -8  11  -7    8.70   11.80
  11  -3  -7   -3.80    5.40
  11  -3  -7    0.70    4.20
   8   3   7    0.40    5.00
  11  -2   7    9.90    5.80
   2   9   7    0.90    4.60
   9   2  -7   26.00   15.10
 -11   9  -7    4.90    9.40
  -9  11   7   -2.00    6.00
  -2  11  -7   14.30    8.80
  11  -2   7    8.80   15.90
  11  -9  -7    4.80    7.10
   9   2   7   -1.30    6.20
  11  -2  -7   12.60   14.80
 -11   9   7   12.10   14.50
  11  -9   7   -0.40    5.40
  -9  11  -7    1.00   10.60
  -9  11  -7   10.80   10.70
  -2  11   7    3.70    6.20
  10   1  -7   -0.10    7.60
  -1  11  -7    2.50    5.80
   1  10   7   -1.90    4.20
 -11  10  -7   -3.20    5.40
  11  -1   7    5.50    8.50
 -10  11   7   -6.00    5.40
  10   1   7   -2.50    7.30
  -1  11   7   -4.50    3.50
 -11  10   7    9.00   10.90
  11  -1  -7    0.10    8.10
 -10  11  -7   -1.40    5.60
  12  -6  -7    8.50    9.60
  -6  12  -7    8.90   10.10
  12  -6  -7   -2.50   12.00
  12  -6   7    4.90    6.40
  -6  12   7   -5.60    5.60
   6   6   7    2.90    5.00
   7   5  -7   12.20    5.50
   5   7   7   12.20   10.20
  -5  12  -7   -1.20    7.10
  -7  12   7    0.80    4.30
  12  -5   7   -0.70    8.70
  12  -5   7   -2.60    4.90
  -7  12   7    2.10    6.10
  12  -7  -7    3.90    7.60
  12  -5  -7    4.30    8.80
  12  -5  -7    1.10   10.00
  -7  12  -7    5.80   12.30
  -7  12  -7    8.60    5.70
  12  -7   7   13.50   13.90
   7   5   7    9.50    7.80
  -5  12   7   -1.40    7.90
  12  -4   7    1.80   11.50
  12  -4   7    6.10    6.70
   8   4  -7    3.30    4.90
  -8  12   7    6.80    9.40
   4   8   7    6.30    5.50
  12  -8  -7   -3.10    6.90
  -8  12   7    0.50    4.20
  12  -8   7   -0.60    4.70
  12  -4  -7   -2.10    3.90
  -8  12  -7    5.90    7.00
  12  -4  -7   -2.90    8.70
  -8  12  -7   -4.50    7.40
  -4  12   7    4.70    6.00
   8   4   7   10.10   10.60
   0   0   8 3564.74  640.64
   0   0  -8 4511.35  644.64
   0   0   8 3945.91  638.34
  -1   1   8  268.37   91.29
   0  -1   8  554.54   93.99
   0  -1  -8  612.74  111.29
  -1   0   8  466.25  101.09
  -1   1   8  602.94   92.19
   1  -1  -8  552.44  111.69
   1  -1   8  619.24   92.79
  -1   0  -8  382.36  101.49
  -1   0  -8  657.43   97.99
  -1   0   8  474.55   97.69
  -1   1  -8  432.56   99.59
   0  -1  -8  351.96   99.39
   0   1  -8  617.84  115.59
   0   1  -8  515.45  101.99
   1   0  -8  393.26  101.59
   0  -1   8  603.54   91.69
   1   0   8  507.25   89.29
   1  -1   8  477.35  101.89
   0   1   8  426.56   99.09
   1  -1  -8  499.45  104.49
   1   0  -8  309.67   93.39
  -1   1  -8  367.26   98.19
  -2   1  -8  294.27   76.49
   2  -1   8  229.78   63.49
  -1   2   8  372.26   77.79
   1   1  -8  462.15   76.19
   1   1  -8  350.36   78.79
  -1   2   8  288.47   64.39
   2  -1   8  375.66   78.79
   1   1  -8  205.28   62.09
   1  -2  -8  330.77   75.39
   1   1   8  318.27   67.89
  -1  -1   8  295.37   70.69
  -1  -1   8  339.17   69.29
  -2   1  -8  340.97   77.79
  -2   1   8  158.88   61.29
  -1   2  -8  301.97   67.59
  -2   1   8  254.57   65.29
   1   1   8  370.76   76.49
   2  -1  -8  304.57   78.19
  -1  -1  -8  465.75   88.09
  -1   2  -8  234.68   66.69
   1  -2  -8  239.68   72.19
  -1  -1  -8  388.86   84.29
   2  -1  -8  194.48   62.59
   1  -2   8  261.07   65.29
   1  -2   8  372.46   76.09
  -2   0  -8  508.85  104.89
   2  -2   8  488.25  103.49
   2   0  -8  488.25   96.49
   0  -2   8  419.86   92.19
   2  -2   8  251.67   84.59
  -2   0   8  522.15   97.59
  -2   0  -8  422.76  102.29
   2  -2  -8  467.65  109.49
  -2   2   8  556.84   99.69
   0   2  -8  423.56   99.19
  -2   0   8  542.05  106.69
   0   2  -8  503.85   94.69
   0   2   8  577.74   87.09
   0   2  -8  315.07   86.09
   0  -2  -8  575.74  110.69
  -2   2  -8  423.86   99.19
   0  -2   8  430.26   96.89
   2  -2  -8  501.95  104.89
   2   0   8  494.95  100.89
   0  -2  -8  474.95  101.99
  -2   2   8  659.03  113.09
  -2   2  -8  321.37   88.89
   2   0  -8  505.65  106.19
   2   0   8  439.06   91.19
   1  -3  -8  411.36  102.09
  -2   3   8  436.96   95.89
  -1  -2   8  256.07   79.99
   1  -3  -8  343.27   91.39
   2   1  -8  439.56   87.69
   2   1  -8  515.45   92.79
  -3   1   8  376.06   86.69
  -3   2  -8  421.76   93.69
   1   2   8  443.86   77.59
  -1   3  -8  671.43  112.39
  -1   3  -8  407.26   87.89
  -3   2  -8  427.16   98.79
  -1   3  -8  469.85   99.09
  -2  -1  -8  340.67   91.89
  -3   1   8  439.26   95.39
   2   1  -8  483.75   97.39
   3  -2  -8  389.26   95.89
   2  -3   8  387.26   90.49
   3  -2  -8  276.27   85.39
   3  -1   8  546.45  101.49
   3  -1   8  446.76   89.59
   2   1  -8  510.55  100.59
  -2  -1  -8  470.45  102.79
   1   2   8  538.85   99.19
  -1   3  -8  479.45   90.79
   2  -3   8  216.98   78.79
   1   2   8  495.95   96.89
  -1  -2   8  492.05   97.29
  -2   3   8  496.65   91.99
  -2  -1   8  474.65   95.89
   2  -3  -8  466.75  100.19
  -2  -1   8  498.75   91.59
   1   2  -8  480.65   78.39
   1  -3   8  412.46   93.59
   3  -1  -8  313.77   91.69
  -2   3  -8  343.17   89.99
  -3   1  -8  407.76   94.59
  -3   1  -8  438.16   98.69
   1   2  -8  445.06   77.69
   2   1   8  209.28   80.19
   2  -3  -8  411.96  102.19
   1  -3   8  315.87   85.79
   1   2  -8  610.54   90.19
  -1   3   8  449.56   87.59
  -3   2   8  412.66   97.19
   3  -1  -8  513.25   97.49
  -1  -2  -8  329.17   90.29
   2   1   8  568.04  104.29
  -1  -2  -8  382.16   94.49
  -1   3   8  532.95   99.59
  -2   3  -8  472.05   93.59
   2   1   8  455.95   78.59
  -3   2   8  402.16   88.29
   0  -3  -8  189.98   56.09
   3   0   8  176.78   45.10
   0   3   8  261.97   58.59
  -3   3  -8  322.17   64.99
  -3   0   8  197.98   48.10
   0  -3  -8  275.67   68.69
   0   3  -8  170.98   42.50
  -3   0  -8  167.58   54.19
  -3   0  -8  212.78   57.69
   3  -3   8  254.97   54.79
  -3   0   8   66.09   37.80
   0   3   8  201.98   44.70
   3  -3  -8  213.38   62.39
   3  -3   8  202.28   54.59
   3   0  -8  152.28   44.30
   0  -3   8   96.59   37.40
   0   3  -8  128.89   45.00
   0   3  -8  201.58   53.49
   3   0  -8  233.38   62.29
  -3   3   8  111.09   39.70
   0   3  -8  196.98   43.70
  -3   3   8  259.47   61.39
  -3   3  -8  201.38   56.59
   0  -3   8  175.08   48.90
   3   0  -8  206.68   54.99
   3  -3  -8  110.29   43.60
   3   0   8  167.58   48.00
   0   3   8   84.99   37.70
   3   0  -8  135.09   42.10
   2  -4   8 2373.46  367.66
   2  -4   8 1899.21  360.56
  -2   4   8 2068.59  365.06
   2   2   8 2084.59  363.16
  -2  -2  -8 2191.18  368.56
  -4   2  -8 2256.27  368.16
  -2   4  -8 1862.71  357.96
   2   2  -8 2503.25  357.26
   4  -2  -8 2474.85  368.26
  -2  -2  -8 2250.07  369.16
  -2   4   8 2018.90  359.56
   4  -2  -8 2046.70  369.66
  -4   2   8 2023.20  365.66
   2   2   8 2337.57  357.66
   2  -4  -8 2083.29  371.36
  -2  -2   8 2231.68  360.06
  -2   4  -8 2582.24  369.06
   2  -4  -8 2214.38  368.36
   2   2  -8 2266.87  355.96
   4  -2   8 2438.96  369.36
   2   2  -8 2401.86  367.36
  -4   2   8 2042.20  361.66
  -3  -1  -8  212.58   63.69
  -4   3  -8  288.97   73.29
  -4   1   8  293.97   70.09
   3   1  -8  280.67   57.69
  -3  -1  -8  257.27   69.49
  -1   4  -8  219.78   52.89
  -3   4   8  218.78   58.19
   1  -4  -8  271.37   69.19
   4  -1   8  157.98   55.79
   1   3   8  335.77   70.79
   1   3   8  338.77   58.29
  -4   3  -8  290.97   70.49
   3   1  -8  326.77   70.99
  -4   1   8  249.58   61.39
   4  -3  -8  217.88   62.89
   3  -4   8  240.08   67.89
  -3   4   8  178.48   58.69
   1  -4  -8  234.68   68.29
  -1   4  -8  342.47   76.79
   3  -4   8  225.78   59.89
  -1   4  -8  357.56   72.79
   4  -3  -8   80.29   50.19
  -1  -3   8  279.67   62.69
   4  -1   8  251.07   60.49
   3   1  -8  339.47   60.99
   3  -4  -8  220.18   64.99
  -3  -1   8  183.78   53.59
   3   1   8  157.98   48.70
   1   3  -8  244.98   50.99
  -1   4   8  351.86   73.29
   3  -4  -8  291.77   77.99
  -3   4  -8  199.78   59.29
  -1  -3  -8  289.77   72.69
  -4   1  -8  293.27   72.19
   1  -4   8  229.58   59.79
   4  -1  -8  281.57   71.29
  -4   3   8  268.57   61.79
   4  -1  -8  232.68   60.89
  -3   4  -8  146.89   51.39
  -4   3   8  128.59   54.29
  -1   4   8  203.28   52.79
   1   3  -8  268.57   52.19
   4  -3   8  231.08   59.89
   1   3  -8  314.27   70.69
   4  -3   8  399.26   83.49
   3   1   8  309.87   67.09
  -4   1  -8  318.57   73.79
  -4   4   8  392.46   77.59
   0   4   8  241.18   65.19
   4   0   8  274.77   68.59
  -4   0  -8  324.67   81.99
  -4   4   8  350.36   82.39
   4  -4   8  375.56   77.99
  -4   4  -8  248.38   66.79
   0  -4  -8  298.77   75.99
   0   4  -8  450.65   82.49
  -4   4  -8  230.48   71.89
   4  -4  -8  374.56   83.89
   4  -4   8  191.08   66.39
   4   0  -8  413.96   86.89
   4   0   8  240.28   60.29
  -4   0   8  328.57   73.19
   0   4  -8  233.38   54.39
   4  -4  -8  290.07   81.79
   0   4   8  268.77   58.69
   4   0  -8  282.07   63.99
   0   4  -8  269.97   56.89
   5  -3  -8  263.67   73.29
  -2   5  -8  175.08   47.50
   5  -2   8  179.18   57.79
   2   3   8  148.59   40.60
   2  -5  -8  256.27   66.19
  -5   3  -8  340.67   79.09
   5  -3  -8  141.09   50.49
  -5   3  -8  252.87   65.79
   3   2  -8  321.07   68.69
   2   3   8  101.79   44.40
  -2   5  -8  266.67   64.89
   3   2  -8  222.68   36.70
  -3   5   8  212.98   53.39
   3   2  -8  235.98   37.50
  -3   5   8  272.17   66.69
  -5   2   8  166.68   52.49
  -2   5   8  120.39   42.80
   2   3  -8  183.08   32.10
   2   3  -8  189.68   51.99
   2   3  -8  211.68   32.40
   3   2   8  253.17   47.80
   5  -3   8  154.08   54.99
   5  -2  -8  205.28   63.69
   3   2   8  202.68   53.19
  -3   5  -8  217.28   60.69
  -5   2  -8  125.49   51.49
  -3   5  -8  125.39   43.80
  -2   5   8  275.37   63.69
  -5   3   8  126.39   47.30
  -5   2  -8  236.18   64.39
  -5   3   8  371.36   80.39
   5  -3   8  251.27   60.19
   3  -5  -8  193.98   58.49
   5  -2  -8  233.08   59.49
   5  -1   8   60.89   27.60
   4   1  -8   57.19   18.00
   5  -4  -8   30.60   21.50
   5  -1   8   65.29   24.20
  -1   5  -8   61.69   19.00
  -5   4  -8   59.69   29.50
  -1   5  -8   62.49   19.60
   5  -4  -8   19.60   18.90
   1   4   8   69.59   26.50
   4  -5   8   28.60   18.80
  -4   5   8   59.59   32.00
   1   4   8   52.99   17.10
  -1   5  -8   32.20   19.10
  -4   5   8   48.40   22.10
   4   1  -8   35.00   21.80
  -5   4  -8   86.39   34.60
   4   1  -8   59.69   19.30
   4   1   8   58.99   24.20
  -4   5  -8   19.90   17.30
   1   4  -8   55.49   24.30
  -5   4   8   23.30   19.00
   4  -5  -8   55.99   31.60
   5  -4   8   39.00   24.70
  -1   5   8   77.69   23.20
   4  -5  -8  114.59   41.50
   5  -1  -8   73.89   28.40
  -5   1  -8  107.99   38.40
  -5   4   8   74.59   32.20
   5  -4   8   57.19   26.90
   5  -1  -8   71.39   31.20
   4   1   8   98.19   25.80
  -4   5  -8  135.39   44.70
  -1   5   8   53.29   24.70
   5  -5   8   64.89   32.40
   5  -5   8  143.49   53.59
   5   0   8   69.99   31.70
   0   5   8  102.19   27.90
   0   5  -8  124.39   39.30
  -5   5  -8  113.29   40.30
  -5   5  -8  232.28   61.99
   5  -5  -8  220.48   67.09
  -5   5   8  216.58   60.59
   0   5   8  117.89   35.20
   5  -5  -8   76.19   36.50
   5   0  -8  174.48   51.79
   5   0  -8  204.08   42.50
  -5   5   8  130.19   40.30
   5   0   8  112.79   33.40
  -3   6  -8   27.40   18.70
   3   3   8   29.50   12.30
   6  -3  -8   59.29   27.90
  -3   6   8   28.00   17.20
   3   3   8   32.30   18.60
   6  -3   8   46.30   22.20
  -6   3  -8   41.40   25.40
  -3   6  -8   46.90   19.30
  -3   6   8   29.60   16.20
   3   3   8   40.90   12.20
   3   3  -8   13.40   13.80
  -6   3   8   27.10   19.20
   6  -3  -8   55.99   31.50
  -6   4  -8  355.46   87.79
   2   4   8  306.57   68.39
  -6   4  -8  164.68   63.09
  -2   6  -8  305.17   57.89
  -4   6   8  320.67   70.39
   6  -4  -8  194.38   66.59
   2   4   8  297.47   47.70
   4   2  -8  463.65   83.29
  -4   6   8  351.46   80.49
   6  -2   8  363.86   79.89
   6  -4  -8  316.97   91.49
  -2   6  -8  306.97   73.49
   6  -2   8  296.07   68.59
   2   4   8  293.97   46.80
   4  -6  -8  289.97   79.19
   6  -4   8  342.57   86.19
  -4   6  -8  144.59   61.49
  -4   6  -8  281.77   65.89
   6  -2  -8  288.87   70.19
   6  -2  -8  265.77   75.79
  -6   4   8  188.18   63.69
  -2   6   8  278.67   61.29
   6  -4   8  289.27   71.79
   4   2   8  167.38   54.99
   2   4  -8  461.05   80.29
  -6   2  -8  235.48   71.79
  -2   6   8  211.98   60.69
   6  -1   8  130.69   42.00
   6  -5  -8  158.38   61.69
  -5   6   8  101.39   39.80
  -6   5  -8  128.69   51.69
  -1   6  -8  206.28   51.49
   1   5   8  171.58   26.00
   1   5   8  127.59   40.70
   5   1  -8  182.98   27.80
   5   1  -8  184.88   27.80
   5   1  -8  152.78   50.69
  -5   6   8  166.88   55.09
  -6   5  -8  166.68   54.29
   5  -6   8   73.49   39.30
   6  -1   8  138.19   41.50
   6  -5  -8   82.79   40.60
   5   1   8  241.28   44.30
   6  -1  -8  210.28   48.40
   5  -6  -8  105.39   46.40
   5   1   8   96.49   37.10
  -6   5   8  168.58   57.79
  -5   6  -8  195.48   59.69
  -1   6   8   75.99   34.30
  -6   5   8   81.49   39.60
   6  -5   8  210.68   66.89
  -5   6  -8  161.78   49.50
   1   5  -8  195.58   49.30
   6  -5   8  267.67   62.09
  -1   6   8  146.19   34.70
   6  -1  -8  111.29   45.90
   6  -6   8  864.01  172.78
   6  -6  -8  745.03  174.38
   6   0   8  882.51  147.09
   0   6  -8  807.52  150.38
  -6   6  -8  740.73  171.38
  -6   6   8  841.72  153.58
  -6   6   8 1015.60  165.38
   6   0  -8  962.20  160.38
   6   0  -8  833.92  143.39
  -6   6  -8  846.22  155.38
   7  -3   8  146.69   42.80
   3   4   8   95.59   33.90
   7  -4  -8  121.99   49.90
  -7   4  -8  134.59   48.90
   4   3  -8  101.39   36.00
  -3   7  -8  103.59   29.10
   7  -4  -8  107.69   42.10
  -4   7   8  110.79   35.50
  -4   7   8  117.59   36.30
   7  -3   8   61.69   35.80
  -3   7  -8  179.58   52.39
  -4   7  -8  132.19   36.30
   3   4  -8  170.88   43.50
  -3   7   8   60.99   26.40
   7  -3  -8  228.78   55.69
   7  -3  -8   76.69   40.40
   7  -4   8  106.69   47.00
   7  -4   8  126.09   42.30
   4   3   8  133.49   35.30
  -7   4   8  158.78   49.00
  -4   7  -8  106.09   43.60
  -3   7   8  154.08   37.60
  -5   7   8   -4.40    5.80
   7  -2   8   49.30   21.80
   7  -5  -8   23.10   18.00
   7  -2   8   18.60   16.40
  -2   7  -8    7.40    6.80
   5   2  -8   16.00   11.70
  -5   7   8   19.80   15.30
   2   5   8   -3.60    5.00
   7  -5  -8    1.00    5.20
  -7   5  -8    9.30   12.10
   5   2   8    8.40    7.20
  -7   5   8   34.70   21.90
   7  -2  -8   21.90   20.60
   7  -5   8   16.80   10.70
   5   2   8   13.70    4.50
  -2   7   8   26.30   12.40
   7  -5   8    3.60   11.60
   5   2   8   19.30    5.70
  -2   7   8    7.40    8.70
  -5   7  -8   33.30   17.60
   7  -2  -8   13.40   12.00
  -5   7  -8   13.20   10.80
   2   5  -8   21.20   12.90
   6   1  -8   71.39   32.60
  -1   7  -8   66.89   27.10
  -7   6  -8  126.49   48.40
   7  -1   8   18.10   12.80
   7  -6  -8   21.30   22.20
   1   6   8   47.90   19.50
   7  -1   8   46.60   23.40
  -6   7   8   41.70   25.30
  -6   7   8   23.20   16.80
  -7   6  -8   30.50   18.20
  -1   7   8   33.80   14.90
  -6   7  -8   80.79   31.90
   6  -7  -8   43.70   26.90
   6   1   8   13.00    9.50
   7  -1  -8   37.70   24.40
   1   6  -8   69.09   25.20
  -1   7   8   44.00    8.40
  -6   7  -8   54.19   27.60
  -1   7   8   53.49    9.00
   6   1   8   31.40   12.50
  -7   6   8   22.70   16.30
   7  -1  -8   80.19   24.70
   7  -7   8  114.59   43.00
  -7   7  -8  134.99   48.50
  -7   7  -8  144.39   46.40
   7   0   8  112.59   28.80
   7   0   8   47.80   24.60
   7   0  -8  148.29   48.00
  -7   7   8   78.99   39.20
   0   7  -8  145.39   39.60
   7  -7  -8  103.99   43.90
   0   7   8   53.29   23.00
  -4   8  -8  611.94  111.09
  -4   8   8  690.33  140.19
  -4   8   8  584.04  113.69
   8  -4   8  703.73  149.39
   8  -4  -8  536.75  144.99
  -4   8  -8  809.52  129.69
   8  -4  -8  596.34  133.29
   4   4  -8  695.23  117.39
  -5   8   8   97.19   30.50
   8  -5  -8   66.59   40.20
  -3   8  -8    9.00    9.20
   5   3  -8   39.90   20.60
   8  -5  -8   99.29   39.50
   3   5   8   32.80   17.00
   8  -3   8   58.89   24.90
  -5   8   8    8.10    9.70
   8  -3   8    2.70   12.90
  -3   8  -8   50.19   11.10
  -8   5  -8  130.49   49.40
   8  -3  -8   52.59   32.80
  -3   8   8   77.09   21.20
   3   5  -8   49.99   20.30
  -5   8  -8  109.29   39.90
  -5   8  -8   99.79   30.40
   8  -5   8   68.29   37.30
   5   3   8   25.40   12.80
   8  -5   8   79.29   33.20
  -3   8   8   54.89   26.50
   8  -3  -8   36.50   20.80
   8  -2   8  108.09   38.00
  -6   8   8  133.19   43.80
  -8   6  -8  131.49   49.70
   8  -6  -8  146.09   52.69
   8  -2   8  130.09   38.60
   6   2  -8  182.08   49.60
   2   6   8   75.29   29.60
  -6   8   8   48.10   27.00
  -2   8   8   97.09   38.60
   2   6  -8  182.48   41.40
  -8   6   8   91.19   40.20
   8  -2  -8  118.89   36.50
   8  -6   8  129.69   46.60
   8  -2  -8   84.09   41.60
  -6   8  -8  154.68   43.10
  -2   8   8  121.59   20.50
  -8   7  -8   14.80   14.20
   8  -1   8   -0.30    7.40
   1   7   8   -2.60    3.40
  -7   8   8    2.70    7.70
  -1   8  -8   -2.00    5.90
   7   1  -8   11.00   10.70
   8  -7  -8    5.50   10.90
  -7   8   8    3.70   10.40
   8  -1   8   17.90   10.70
   8  -1  -8   -0.40    5.10
   8  -1  -8    5.70    5.20
  -8   7   8    0.40    6.80
   8  -7   8   -1.00    6.80
   7   1   8   11.80    9.00
  -7   8  -8    0.60    7.20
  -1   8   8    0.50    3.90
   1   7  -8    1.40    5.30
  -7   8  -8   -2.10    3.50
  -8   8   8  138.99   50.19
  -8   8  -8  109.99   46.40
  -8   8  -8  181.58   59.09
   0   8   8  166.98   41.20
   8  -8  -8  284.77   78.99
   8   0  -8  197.28   59.39
   0   8  -8  126.29   40.00
   8   0   8  160.78   34.20
   9  -5  -8   67.29   38.20
  -4   9  -8   61.19   15.60
  -5   9   8   96.99   30.60
  -4   9  -8   56.79   28.00
   4   5   8  108.69   31.70
   9  -5  -8   54.49   28.40
   9  -4   8   74.09   31.00
   9  -4   8   26.80   16.90
   5   4  -8   38.30   20.60
  -5   9   8   33.80   25.10
   9  -5   8   96.39   37.50
  -4   9   8   59.19   21.10
   9  -4  -8   11.40   20.60
   9  -5   8   30.30   24.70
   9  -4  -8   27.50   19.50
   4   5  -8   51.39   19.70
  -5   9  -8   58.39   27.80
  -4   9   8   22.20   17.40
  -5   9  -8   57.09   20.40
   5   4   8   95.39   28.00
  -3   9  -8   -1.10    6.70
   9  -3   8   -0.50    3.70
   9  -6  -8   -3.40    4.60
  -6   9   8   -1.10    4.80
   9  -3   8   -7.60    5.80
   3   6   8   25.00   14.40
   6   3  -8   20.30   14.00
  -6   9   8   14.80   15.80
  -9   6  -8    5.20    8.30
   3   6  -8    8.30    5.00
  -6   9  -8    1.70    5.50
  -3   9   8   -3.80    3.10
   9  -3  -8   36.40   15.60
  -3   9   8   -1.50    1.40
  -6   9  -8   37.80   25.50
   9  -3  -8   -3.10    5.60
   6   3   8    4.00    4.90
   9  -6   8   -1.50    8.70
  -7   9   8   27.60   18.80
   9  -7  -8   -1.70    6.70
   9  -2   8   20.10   12.60
  -7   9   8   13.80    9.40
   2   7   8   70.89   25.60
  -9   7  -8   27.30   21.90
   9  -2   8   13.50   11.20
   7   2  -8   27.00   18.10
  -2   9  -8   42.20   18.20
  -9   7   8   27.60   19.80
   9  -2  -8   32.70   27.70
   7   2   8   23.50   13.10
   2   7  -8   47.50   18.60
  -7   9  -8   29.20   24.60
  -7   9  -8   28.90   17.40
  -2   9   8   33.30   20.30
   9  -2  -8   41.20   18.90
   1   8   8   83.29   27.10
  -9   8  -8   37.70   26.30
   9  -8  -8   19.30   21.20
   9  -1   8   40.60   14.60
   9  -1   8   13.30   13.00
  -8   9   8   68.39   28.40
  -1   9  -8   93.39   29.80
   8   1  -8   84.59   35.80
   8   1   8   33.70   17.10
  -9   8   8   66.89   31.90
  -8   9  -8  106.79   49.00
   9  -1  -8   42.20   28.30
  -8   9  -8   97.19   35.90
  -1   9   8   17.60   11.90
   1   8  -8   86.29   25.50
   0   9  -8   -0.20    3.30
  -9   9   8    1.90    6.60
   0   9   8   -0.10    5.60
   9   0  -8   -7.60    4.40
   9   0   8    3.00    7.30
  -9   9  -8    7.70    7.80
  -5  10   8   -0.40    6.00
  10  -5  -8   -2.30    6.80
   5   5   8    7.00    7.80
  -5  10  -8    2.10    3.50
  10  -5   8    2.50    5.90
  10  -5  -8   -0.40   10.60
  10  -5   8    7.40   12.00
   5   5  -8   -0.80    4.80
  -5  10  -8   -2.70    4.60
  -5  10   8   -1.40    3.10
  10  -6  -8  101.19   53.39
  10  -4   8  143.49   43.10
  -6  10   8  197.48   47.10
  -4  10  -8  171.58   50.69
  -6  10   8  128.09   48.70
  10  -4   8   22.90   23.60
  10  -6  -8   86.29   39.90
   6   4  -8  108.29   33.70
   4   6   8  230.18   49.30
  -4  10   8   93.89   22.40
   6   4   8  130.19   36.80
   4   6  -8  102.89   29.30
  -6  10  -8  171.18   55.39
  10  -4  -8   65.79   40.10
  10  -4  -8  102.79   38.30
  -4  10   8  117.39   42.80
  10  -6   8  100.99   42.00
  -6  10  -8  119.69   32.10
   7   3  -8   48.10   23.30
  -7  10   8   30.40   23.50
  10  -3   8   24.70   15.80
  -3  10  -8   19.90   10.30
  10  -3   8   11.30   10.60
 -10   7  -8   70.99   36.80
  -7  10   8   42.10   24.40
  10  -7  -8   23.30   20.60
   3   7   8   63.79   22.70
   3   7  -8   58.39   19.20
  10  -7   8  100.79   41.30
  -3  10   8    5.10   11.90
  -7  10  -8   43.30   26.30
  -7  10  -8   32.80   17.70
  10  -3  -8   32.90   17.70
  10  -3  -8   20.60   22.00
   7   3   8   30.00   19.00
  -8  10   8  224.88   75.79
  -8  10   8  236.08   64.09
   8   2  -8  376.36   78.59
   2   8   8  367.36   66.99
  10  -2   8  107.19   41.10
 -10   8  -8  276.17   79.89
  10  -8  -8  228.38   75.59
  -2  10  -8  171.18   49.00
   2   8  -8  303.87   52.49
  10  -2  -8  152.28   62.29
  -8  10  -8  234.78   59.09
  -2  10   8  341.07   73.89
 -10   8   8  206.08   66.49
  10  -8   8  229.48   71.49
  -8  10  -8  324.77   86.69
   8   2   8  166.98   48.80
  10  -2  -8  185.48   42.00
   1   9   8    3.40    6.80
  10  -9  -8   12.80   15.30
   9   1  -8    7.90   11.00
  -1  10  -8   11.50    9.80
  -9  10   8   22.40   17.00
 -10   9  -8    0.40    8.50
  10  -1   8   -4.20    7.70
   1   9  -8   27.90   11.90
  -1  10   8   22.80   13.80
  10  -1  -8   10.90   11.90
 -10   9   8   14.70   16.10
  -9  10  -8   -5.20    5.10
   9   1   8    2.10    6.30
 -10  10  -8   82.89   34.40
  10   0  -8  104.49   41.80
   0  10  -8   67.59   22.90
 -10  10   8   24.60   22.40
   0  10   8   87.79   31.60
  11  -5   8   42.70   24.60
  11  -6  -8   20.60   16.90
  -6  11   8   42.90   27.00
  -6  11   8   25.60   15.30
  -5  11  -8   45.20   27.40
  11  -5   8   15.70   12.90
   5   6   8   43.60   18.20
   6   5  -8   39.60   18.00
   6   5   8   46.80   22.70
  -6  11  -8   57.49   29.70
  11  -5  -8   73.19   32.10
  -5  11   8   17.50   20.10
  -6  11  -8   27.50   11.80
   5   6  -8   36.30   14.20
  -5  11   8   35.60   11.70
  11  -6   8   42.90   26.00
  11  -4   8   -2.70    4.60
  -7  11   8   -1.30    5.70
   4   7   8    4.10    6.00
   7   4  -8    0.90    3.30
  11  -7  -8   28.30   17.60
  11  -4   8   -2.10    2.80
  -7  11   8   -0.30    8.80
  -4  11  -8    0.80    6.80
   7   4   8    0.90    6.00
  -7  11  -8    8.00    9.20
  -4  11   8    1.90    5.50
  11  -7   8   12.20   12.60
  11  -4  -8   -1.50    6.80
  11  -4  -8    3.40    4.60
   4   7  -8    5.90    4.00
  -7  11  -8    2.10    5.60
   3   8   8    8.00    9.50
  11  -3   8    1.00    3.40
  -8  11   8   -0.60    7.80
  -8  11   8    8.80    9.50
  -3  11  -8    4.70    7.30
  11  -3   8   16.50   16.20
  11  -8  -8    2.20    9.90
   8   3  -8   23.80   12.80
  11  -8   8   -2.00   10.70
   8   3   8   48.70   24.20
  11  -3  -8   -0.60    3.90
  11  -3  -8   38.00   24.20
  -8  11  -8   -2.00    6.40
   3   8  -8   21.30    6.70
  -3  11   8    6.80    8.70
  -8  11  -8   10.10   13.80
  -2  11  -8   43.30   19.00
  11  -9  -8   58.39   29.60
   9   2  -8   27.10   17.80
  11  -2   8   31.40   12.60
  11  -2   8   63.59   31.70
   2   9   8   39.20   17.40
 -11   9  -8    9.00   12.40
  11  -2  -8    8.20   16.60
  -9  11  -8   54.49   34.90
   9   2   8   12.20   11.10
  -9  11  -8   14.70   10.20
  -2  11   8   19.80   11.30
 -11   9   8   24.70   19.80
   2   9  -8   35.90   11.00
  -6  12  -8  105.59   45.50
  -6  12   8  146.19   33.40
   6   6   8  228.18   52.19
  -6  12   8  282.47   73.89
  12  -6  -8  145.99   71.59
  12  -6   8  191.78   60.39
   0   0   9   -3.40    2.20
   0   0  -9   -1.20    4.70
   0   0   9    6.40    3.80
   0   0  -9    3.70    5.80
   1   0   9   11.20   11.40
   1   0   9   13.60   10.60
  -1   1   9   52.19   21.70
  -1   0   9   27.40   16.80
  -1   0  -9   89.79   35.00
   1  -1  -9   10.00   10.80
   1   0  -9   49.20   22.90
   0   1  -9   21.10   13.50
   1   0  -9   44.70   24.20
  -1   0  -9   61.39   26.40
   0   1   9   57.79   24.60
   0  -1  -9   35.00   20.80
   0   1  -9   37.40   21.60
   0  -1   9   58.89   27.70
  -1   1   9   64.89   27.20
  -1   1  -9   42.30   23.10
   0   1   9   14.80   12.80
   1  -1   9   20.90   16.30
   0  -1  -9   15.00   15.30
   1  -1   9   23.00   15.10
   1  -1  -9   25.30   17.70
   0  -1   9    8.50   10.10
  -1   1  -9  105.89   36.60
  -1   0   9   19.10   14.90
   2  -1   9   -0.20    2.60
   2  -1   9    2.10    7.00
  -2   1   9   -3.00    4.20
  -2   1  -9   10.40    8.40
   1   1   9    2.90    3.50
   1   1  -9   -4.90    3.00
  -2   1  -9   -4.00    4.10
   1   1  -9   -5.00    2.80
  -1  -1  -9   -0.30    5.20
   1  -2   9   -4.80    2.50
  -1   2   9    2.10    6.10
   1  -2   9   -1.30    3.10
  -2   1   9    2.00    4.60
   1   1  -9    7.90    8.80
   2  -1  -9    5.60    7.90
  -1  -1  -9    3.70    5.90
  -1  -1   9   -1.90    2.70
   1   1   9    7.90    7.50
  -1   2  -9    1.90    4.30
  -1   2  -9    0.40    6.10
  -1   2   9    6.80    8.80
   1  -2  -9   -4.10    2.70
  -1  -1   9   -0.70    3.70
   2  -1  -9    2.90    3.80
   1  -2  -9    2.20    7.90
   2  -2  -9   12.90   12.80
  -2   0   9    0.70    4.90
  -2   0  -9    9.50   11.40
   2   0   9    8.20    8.40
   2  -2   9   14.30   12.30
   0   2  -9   -1.60    6.20
  -2   2   9   -3.30    4.70
   0  -2  -9   31.70   20.20
   0  -2  -9    2.60    6.50
   0   2   9    5.40    6.30
  -2   2  -9   13.80   12.80
  -2   2  -9   -2.50    4.10
   2  -2   9    7.00    9.40
   2  -2  -9   36.90   21.80
   0   2  -9    1.80    5.70
  -2   2   9   17.10   12.20
   2   0  -9   24.10   17.30
   2   0   9   14.10   14.10
  -2   0  -9   11.50   12.60
   0  -2   9    7.40    9.00
   0  -2   9   23.20   14.00
   2   0  -9   10.00    8.50
   0   2   9    0.30    6.20
  -2   0   9    3.70    5.10
  -2   3   9    0.60    3.80
  -2  -1  -9   16.80   13.20
  -3   2  -9    0.60    4.30
  -3   1   9   -2.50    5.40
   3  -2  -9   16.00   13.00
   1   2   9    3.50    3.70
  -2   3   9   11.40   12.60
  -1  -2   9   31.50   19.10
  -1   3  -9    6.50   11.20
   1  -3  -9   -0.80    4.60
  -3   2  -9    6.60    8.70
   2   1  -9    1.20    4.50
  -1  -2   9   17.40   11.20
   2   1  -9   -0.60    3.20
  -3   1   9   -0.90    2.00
   3  -1   9   -1.50    2.90
  -2  -1  -9    4.60    6.60
   1  -3  -9   24.70   15.40
   3  -1   9    8.00    7.90
   1   2   9   -2.60    3.20
   3  -2  -9   -0.20    5.30
  -1   3  -9   15.30   10.10
   2  -3   9    9.10    7.70
   2  -3   9   -4.80    4.30
   3  -2   9    0.50    6.60
   3  -1  -9   -0.80    3.50
  -1  -2  -9    6.60    8.20
  -1  -2  -9    2.80   10.10
  -3   1  -9    6.60    9.90
  -1   3   9    5.30    6.30
   1  -3   9    8.20    8.70
  -3   2   9    2.40    4.90
  -2   3  -9    1.50    3.90
   1   2  -9    6.60    8.20
  -2  -1   9    5.40    6.50
   2  -3  -9   -4.60    5.50
   3  -1  -9    4.40    8.80
   1   2  -9    6.10    6.10
  -3   1  -9    5.90   11.10
  -2   3  -9    1.10    4.00
   2   1   9   21.20   15.50
  -3   2   9   16.60   14.40
   1  -3   9   -4.80    2.40
   2  -3  -9    1.40    6.70
  -1   3   9   19.30   14.20
   2   1   9    8.40    8.70
  -2  -1   9   -5.00    3.50
   3  -2   9    0.70    4.00
   3  -3  -9   19.20   17.00
  -3   3  -9    5.90   11.50
   3  -3   9   22.30   16.90
   3   0   9   26.30   18.60
  -3   3   9   49.60   25.80
   0  -3  -9  100.69   37.60
  -3   0   9   50.39   22.30
   0   3   9   23.40   14.10
   0   3  -9   21.30   16.40
   3   0  -9   32.60   20.90
  -3   3   9   20.80   15.30
   3  -3  -9   47.90   29.90
   0   3   9   26.90   19.20
  -3   0   9   93.49   55.09
   3   0   9   26.40   16.60
   3   0  -9    1.60    6.70
   0  -3  -9   15.80   18.80
   0  -3   9   34.20   17.50
  -3   0  -9   26.20   19.90
   3  -3   9   49.80   23.00
   0   3  -9   24.40   13.90
  -3   0  -9   39.20   22.90
   4  -2  -9    1.50    3.40
   2   2  -9    0.10    3.80
  -2   4   9   -1.10    2.20
  -2   4  -9    3.10    6.20
  -4   2  -9    7.30    8.80
   2   2   9    5.50    4.80
  -4   2   9    2.80    6.90
   4  -2   9   -3.80    3.80
   2   2   9    9.20   10.90
   4  -2  -9    0.10    5.20
  -4   2  -9   -3.20    6.90
   2  -4  -9    4.50   12.90
   4  -2   9   -6.50    5.40
  -2   4  -9    7.10   10.60
   2  -4  -9   -4.30    3.90
  -2  -2  -9   -2.40    6.00
   2   2  -9    0.60    4.40
  -2   4   9   -2.90    5.20
   2  -4   9    1.30    6.10
  -4   2   9    4.00   10.10
   4  -3  -9   -3.50    6.00
   3   1  -9   64.59   22.20
  -4   1   9   14.00   12.10
   3  -4   9   51.79   27.40
  -4   3  -9   18.10   17.50
   4  -1   9   44.90   19.70
  -3   4   9   22.40   14.70
  -1   4  -9    4.50    6.10
   4  -3  -9    2.60    7.90
  -1   4  -9    3.40    5.30
   3  -4   9   15.30   11.50
   1   3   9    7.90    8.20
   4  -1   9   40.70   22.50
   1  -4  -9   -3.70    4.20
  -3   4   9   15.50   12.90
  -4   3  -9   17.00   14.50
   1   3   9   25.10   17.40
  -3  -1  -9   12.70   13.10
   3   1  -9   33.30   20.60
   4  -3   9    7.20   10.90
  -1   4   9   57.69   27.30
  -4   1  -9    5.70    5.30
   3  -4  -9    1.10    7.20
   3   1   9   -4.20    5.10
  -4   3   9    3.10    6.50
  -3   4  -9    7.50    9.90
   3  -4  -9   -2.90    4.80
  -4   1  -9   10.30   11.80
   1   3  -9    1.00    4.20
   4  -3   9    8.60   10.90
  -3   4  -9   35.40   18.70
   4  -1  -9    7.80    7.20
   1   3  -9   10.40    7.50
   4  -1  -9   22.50   19.00
  -1   4   9   21.20   14.00
   3   1   9   12.00    9.80
  -4   3   9   54.19   28.30
  -4   4   9   11.40    6.70
  -4   4   9    7.00    6.10
   4   0  -9    4.90    8.00
   4   0   9   24.70   17.10
   4  -4   9    6.30   11.70
   0   4  -9   -2.50    4.60
   0   4   9    7.30   10.40
   4  -4  -9   12.30   11.30
   0   4   9    6.60    7.00
   4   0   9    1.10    3.70
  -4   0  -9   17.50   17.90
   4   0  -9   -7.00    5.60
  -4   4  -9    1.70    6.40
  -4   4  -9    5.40    6.10
   0   4  -9   10.80    6.80
   4  -4   9    3.60    5.90
   4  -4  -9   -3.50    6.30
   2   3   9   66.39   24.70
  -5   3  -9  118.29   42.00
  -5   2   9   47.40   27.60
   3   2  -9  115.49   39.30
  -2   5  -9   89.39   35.20
   5  -2   9   71.59   34.00
   5  -3  -9  115.29   42.20
   5  -2   9  127.89   39.20
  -2   5  -9   85.29   29.00
   3   2  -9  136.89   29.70
  -3   5   9  114.19   40.50
   5  -3  -9   64.49   36.80
  -3   5   9   90.09   33.00
  -5   3  -9   75.89   36.80
   2   3   9   94.79   33.90
   3   2   9  180.18   37.80
  -3   5  -9  181.18   46.00
   3   2   9  151.78   41.10
  -5   3   9  113.99   38.90
  -3   5  -9  235.28   61.69
   2   3  -9  121.29   26.50
   3  -5  -9  175.28   53.69
   5  -3   9   89.29   34.70
  -2   5   9   40.90   25.80
   2   3  -9  104.69   37.30
   5  -3   9   76.29   37.20
  -5   2  -9  112.99   43.30
   5  -2  -9   92.89   39.50
   2   3  -9  117.59   24.40
   5  -2  -9  112.29   38.90
  -2   5   9  125.09   35.40
   4  -5   9    2.40    4.40
   5  -1   9   -5.40    3.00
  -1   5  -9   -3.60    5.10
   5  -4  -9    0.30    9.50
   5  -1   9    2.00    6.00
   1   4   9    2.70    6.40
  -5   4  -9   -4.30    6.10
   4   1  -9    7.20    4.90
  -5   4  -9   -4.30    4.20
   1   4   9   -1.20    1.70
  -4   5   9   -3.20    4.90
  -1   5  -9   -0.40    2.80
   4   1  -9   -0.70    5.00
  -4   5   9   -3.80    3.70
   5  -4  -9   11.60   10.90
  -1   5   9   -3.90    1.80
  -5   4   9    1.50    4.50
  -5   4   9   -3.40    3.50
   4   1   9   -0.10    3.60
  -1   5   9   -0.20    3.50
   1   4  -9    4.50    3.80
   5  -4   9   -0.70    3.40
  -4   5  -9    3.50    5.10
   5  -4   9   -0.30    5.50
   4  -5  -9   -1.90    7.00
  -5   1  -9    0.20    5.20
   1   4  -9    8.70    8.50
  -4   5  -9   -4.40    7.50
   4   1   9    2.00    4.50
   5  -1  -9   -1.80    5.20
   5  -1  -9   -4.10    4.40
   1   4  -9    2.10    2.60
   0   5   9   10.10    8.00
   5  -5  -9   10.60   12.70
  -5   5  -9    2.10    4.40
   5  -5  -9   -3.40    5.40
  -5   5   9   -2.80    4.40
  -5   5  -9   -6.50    4.30
   5   0   9    2.10    7.00
   5   0  -9    4.60    7.20
  -5   5   9    7.40   14.00
   5  -5   9   13.40    8.90
   0   5  -9   21.40   14.10
   0   5   9    0.60    4.40
   5   0   9    8.00    7.00
   0   5  -9    2.40    2.50
   0   5  -9    3.40    2.30
   5   0  -9   -1.30    3.10
  -3   6  -9   -1.20    4.40
   6  -3   9    2.30    6.90
  -3   6   9    0.10    5.30
  -6   3   9   -1.00    3.90
   3   3  -9    5.00    7.70
  -3   6  -9   -4.50    3.80
   3   3   9   -2.50    2.40
   3   3   9   11.90    8.70
   6  -3  -9   11.10    6.60
  -3   6   9    1.70    4.80
   6  -3  -9    1.10    7.70
   6  -3   9   -4.00    3.90
  -6   3  -9    4.90    4.90
   6  -2   9   14.10   12.60
  -4   6   9   39.00   19.40
   6  -4  -9    2.70   10.50
   6  -4  -9   13.90   13.50
  -2   6  -9   16.60    8.90
   4   2  -9   14.90   11.20
  -6   4  -9    1.00    4.90
  -2   6  -9   10.70   14.00
   2   4   9   11.70    6.60
   2   4   9   14.10   11.10
  -4   6   9   17.60   12.40
   6  -2   9   49.70   21.90
  -4   6  -9   35.00   24.80
  -2   6   9    7.40    9.50
   6  -2  -9   17.20   15.10
   4  -6  -9   21.50   18.20
   6  -4   9   19.50   20.50
   4   2   9   16.50    9.50
  -4   6  -9   12.70   14.00
  -2   6   9    3.20    6.60
   2   4  -9    0.80    5.10
   4   2   9   11.60    9.00
   6  -2  -9   39.10   21.20
  -6   4   9   17.10   14.60
   6  -4   9   12.60   10.60
  -6   5  -9    4.40   15.60
  -1   6  -9   16.20   14.90
   6  -1   9    7.90    9.20
   6  -5  -9   12.10   15.50
  -1   6  -9    7.70    4.00
   6  -5  -9   38.70   27.30
  -6   5  -9   16.30   15.30
   1   5   9   -0.20    5.70
   6  -1   9   18.30   15.10
   1   5   9    2.70    3.30
  -5   6   9   -3.40    6.60
   5   1  -9   19.20    8.00
  -5   6   9   -2.30    2.60
  -1   6  -9   12.80    5.70
   5   1  -9    5.90   12.00
  -1   6   9   -2.50    4.60
   5  -6  -9    0.30    7.10
   6  -1  -9   37.40   27.10
   5   1   9   10.70    7.00
  -6   5   9    0.70    4.80
   6  -1  -9   -1.50    3.60
  -1   6   9   15.10    8.80
   1   5  -9   -3.00    3.10
   5   1   9    8.90    7.10
   6  -5   9   29.80   21.90
  -5   6  -9   12.10   11.20
  -5   6  -9   24.50   21.30
   0   6  -9   -2.20    4.10
  -6   6  -9    5.00    8.90
   6  -6  -9    0.80   10.30
   6  -6   9   -0.80    5.40
   0   6   9    3.80    3.90
  -6   6   9   12.90   11.90
   6   0  -9   13.10   12.60
   6   0   9    0.00    3.20
   6   0  -9    3.00    3.90
  -6   6   9    3.50    6.30
  -6   6  -9    0.90    7.70
   0   6   9   -1.00    3.10
   7  -3   9   22.10   20.10
   7  -3   9   21.50   15.20
  -4   7   9   13.60   11.50
   3   4   9    4.50    6.20
  -4   7   9    7.40   11.70
   7  -4  -9    5.00    8.00
  -3   7  -9    8.70   13.00
  -7   4  -9   18.10   17.50
   4   3  -9   27.40   18.80
  -3   7  -9   24.50   11.60
   7  -4  -9    2.90    8.10
   3   4  -9   17.70   14.60
   7  -4   9   27.70   21.90
   4   3   9   14.10    4.30
   7  -3  -9    6.90   10.40
  -3   7   9   19.60   13.30
  -4   7  -9    3.60    8.00
   4   3   9   15.50    4.60
   7  -3  -9   29.00   21.80
  -3   7   9    5.80    7.90
   7  -4   9   23.60   14.20
   4   3   9   10.70    7.80
  -4   7  -9   30.90   22.20
  -5   7   9    7.50    9.00
  -2   7  -9   22.70    7.40
   5   2  -9   37.00   21.10
  -2   7  -9   20.10   16.20
   7  -2   9   22.30   14.40
   7  -5  -9   19.00   19.70
   7  -5  -9   -1.60    6.50
   2   5   9   -1.90    4.80
  -7   5  -9    3.60    8.10
  -5   7   9   13.10   11.60
   7  -2  -9   13.90   10.10
   7  -2  -9   20.60   17.50
  -7   5   9   35.20   22.70
   5   2   9   18.00    7.60
  -5   7  -9    2.00    9.40
   7  -5   9   25.30   17.80
   5   2   9    5.80    6.50
   2   5  -9   33.20   16.90
  -2   7   9   13.10    9.70
   7  -1   9   15.80   12.80
  -6   7   9    8.00    8.60
  -7   6  -9    1.40   10.30
   7  -1   9    8.40    8.50
   6   1  -9    5.40   10.50
   1   6   9    7.30    7.10
   7  -6  -9    3.30    7.50
  -6   7   9   19.10   15.30
  -1   7  -9    3.40    8.00
  -7   6   9   16.00   14.70
   7  -6   9   41.10   22.90
   7  -1  -9   23.70   19.20
   6   1   9   18.70   16.50
  -6   7  -9   17.60   15.70
   7  -1  -9   22.80   13.90
   6   1   9   13.10    7.80
   1   6  -9   31.50   16.40
  -1   7   9    4.90    4.90
  -6   7  -9   26.50   18.80
  -1   7   9   13.00    6.50
   6  -7  -9    9.70   11.30
   7   0   9   53.79   29.20
   0   7  -9  160.28   45.40
  -7   7  -9  135.69   47.90
   7   0  -9  100.49   20.80
  -7   7   9   60.59   30.00
   7  -7  -9  164.88   57.79
  -7   7  -9   48.40   31.80
   7   0   9  135.39   33.20
   7   0  -9   91.79   41.80
   4   4  -9    6.70    6.40
  -4   8   9    2.80    4.70
   8  -4   9   -1.60    8.60
   8  -4   9    8.00    8.30
   8  -4  -9    3.50   12.90
  -4   8  -9   -1.90    2.00
   4   4   9    4.80    7.60
  -4   8  -9    5.50    7.90
  -4   8   9    2.10    8.30
   8  -4  -9    1.60    9.00
   8  -5  -9    4.50   11.50
  -5   8   9    9.30   10.10
   8  -3   9    0.90   11.40
  -8   5  -9   -0.10    6.50
   5   3  -9    2.60    4.60
   3   5   9    4.00    4.20
   8  -5  -9    3.00    7.90
   8  -3   9   -1.50    5.90
  -5   8   9   -0.50    4.80
  -3   8  -9   -2.40    4.90
  -3   8  -9    0.20    3.20
  -5   8  -9   -2.10    2.50
  -3   8   9   -1.70    4.40
   8  -3  -9    7.60   10.00
  -5   8  -9   -2.30    8.80
   8  -3  -9   -6.60    3.50
   3   5  -9    6.70    7.60
   5   3   9    2.20    3.70
   8  -5   9    0.90    4.80
  -3   8   9   -2.10    3.50
   8  -6  -9   21.20   18.90
  -6   8   9   34.90   20.50
   8  -2   9   19.10   12.20
   6   2  -9    0.80    6.20
  -6   8   9   10.40   12.20
   8  -2   9    4.30   10.40
  -2   8  -9   13.30   14.50
  -8   6  -9   14.90   15.20
   2   6   9   11.90    8.20
   8  -6   9   19.40   16.70
   8  -2  -9   53.39   32.80
   2   6  -9   25.20   16.80
  -8   6   9   19.60   14.20
   6   2   9   40.00   22.20
  -2   8   9   47.10   12.90
   8  -2  -9   12.60   11.90
  -6   8  -9    9.20   10.60
  -6   8  -9   81.09   37.60
  -2   8   9    9.40   13.10
   7   1  -9   -1.90    5.70
  -7   8   9    8.20   13.30
  -7   8   9   14.90   14.00
  -1   8  -9   26.90   18.30
   8  -1   9   -0.40    2.90
   8  -7  -9   -1.10    7.50
   1   7   9   14.90   10.70
  -8   7  -9    2.60    9.60
   8  -1   9    8.40    8.20
  -8   7   9   13.00    9.80
  -1   8   9    3.50    7.40
  -7   8  -9   12.10   12.50
  -7   8  -9   21.50   17.80
   7   1   9    6.80    3.80
   7   1   9    8.60   10.90
   8  -1  -9    5.00    6.50
   1   7  -9   13.20    9.90
   8  -7   9   19.80   15.90
   8  -1  -9   13.70   14.50
   0   8  -9   39.80   20.20
  -8   8   9   30.20   21.90
   0   8   9   12.70    7.30
   8   0   9   10.30    9.90
   8   0  -9   10.70   13.90
   8   0   9    4.10    4.10
  -8   8  -9   25.40   16.70
  -5   9   9   24.70   22.50
   9  -4   9   24.50   17.30
  -4   9  -9   13.90   13.30
   5   4  -9   70.09   25.40
   9  -5  -9   32.70   21.00
  -5   9   9   63.19   24.90
   9  -4   9   42.90   24.60
   9  -5  -9    9.90   17.90
  -4   9  -9   40.00   13.10
   4   5   9   35.30   16.10
   4   5  -9   39.60   18.30
   9  -4  -9   25.50   19.60
  -5   9  -9   37.10   17.10
   9  -4  -9   27.00   25.80
  -4   9   9   34.10   15.50
  -5   9  -9   91.79   40.10
   5   4   9   31.30   15.00
   9  -5   9   29.20   20.20
  -4   9   9   30.70   22.50
  -6   9   9    6.00    7.00
   9  -6  -9   36.10   23.40
  -3   9  -9    5.70    6.00
   3   6   9    7.90    8.00
   9  -3   9    2.20    9.70
  -6   9   9   16.50   14.60
  -9   6  -9   -2.70    4.10
   6   3  -9   -1.30    4.20
   9  -3   9    1.20    4.70
   9  -3  -9   14.40   17.00
  -3   9   9    3.90    4.20
  -6   9  -9   -2.40   21.30
   3   6  -9    4.90    4.90
  -6   9  -9   19.90   12.00
   9  -3  -9    6.80    9.50
   6   3   9    2.30    4.10
  -3   9   9   37.90   22.30
  -9   7  -9   -3.80    6.20
   9  -7  -9    1.90    8.80
   9  -2   9    0.70    6.50
   2   7   9   10.40    9.90
   9  -2   9    2.70    6.70
   7   2  -9    3.70    4.00
  -2   9  -9    0.80    5.10
  -7   9   9   -7.20    4.50
  -7   9   9    0.20    5.90
   9  -2  -9   -1.40    6.30
   7   2   9   -1.00    5.00
   2   7  -9   10.60    8.90
   9  -2  -9    4.10    5.00
  -9   7   9   -2.90    7.90
  -7   9  -9    2.60    6.60
   9  -7   9   -3.10    4.70
  -2   9   9   -2.20    5.10
  -7   9  -9   -2.70    5.40
  -1   9  -9    6.80    8.40
  -8   9   9   50.99   25.20
   8   1  -9   22.50   20.10
   9  -1   9    4.20   10.00
  -9   8  -9    5.40    8.60
   1   8   9    5.50    7.00
   9  -1   9   32.30   13.80
   9  -8  -9    4.30   12.80
  -8   9  -9   28.00   18.50
   9  -1  -9   31.80   20.10
  -8   9  -9    6.80   10.00
  -9   8   9   17.80   16.90
   1   8  -9   24.20   13.90
   8   1   9    2.30    8.10
  -1   9   9    2.90    6.60
   9   0   9    2.30    5.10
  -9   9  -9   -1.20   10.30
   0   9   9   16.10    9.50
   9   0  -9    8.80   14.50
  -9   9   9    3.40    9.10
   0   9  -9    8.80    8.30
  10  -5  -9   -2.20    8.30
  -5  10   9    1.60    5.30
  -5  10  -9    6.80    9.40
   5   5   9   13.60    8.70
  10  -5  -9    4.10    8.20
  -5  10   9    0.40    8.40
   5   5  -9    2.70    3.60
  10  -5   9   -5.90    5.00
  -5  10  -9    0.60    3.40
  10  -6  -9   19.20   12.60
  -6  10   9   24.70   14.20
   6   4  -9    5.00    6.80
  -4  10  -9   37.90   21.50
  10  -4   9   21.40   14.10
  10  -4   9    9.10   10.30
  -6  10   9   26.50   22.40
   4   6   9    4.70    5.70
  10  -6   9    1.00    9.70
   4   6  -9    5.30    6.80
  -6  10  -9   12.80   10.70
  -6  10  -9   -0.90   10.70
  10  -4  -9   -3.60    4.10
  -4  10   9    4.00    8.90
  -4  10   9   10.30    5.40
  10  -4  -9   -2.10    6.90
   6   4   9    7.30    8.90
  -3  10  -9   -2.60    5.40
  10  -3   9   -2.70    5.00
  -7  10   9   -4.10   10.80
  -7  10   9   -1.30    6.00
  10  -3   9    0.70    4.40
   7   3  -9    3.50    7.20
   3   7   9    7.60    7.50
 -10   7  -9    2.80   11.50
  10  -7  -9    7.70   10.10
   7   3   9    7.70    9.80
  10  -3  -9    0.90    6.90
   3   7  -9    2.80    6.90
  10  -7   9   -5.30    4.50
  -7  10  -9    2.00    5.20
  10  -3  -9    2.30    8.80
  -7  10  -9    9.00   10.60
  -3  10   9   -1.80    5.10
   2   8   9   11.20   11.70
  10  -2   9    1.80    3.80
  10  -2   9   -0.10    6.40
 -10   8  -9    0.00    6.40
   8   2  -9    1.70    7.50
  -8  10   9   -1.50    3.60
  -2  10  -9   -0.50    4.90
  10  -8  -9    8.90   15.10
  10  -2  -9   -0.50    4.10
   2   8  -9   -3.50    2.90
  -2  10   9    4.70    6.90
 -10   8   9   -8.10    7.00
  -8  10  -9    5.60    8.70
  10  -8   9   -8.70    6.50
  -8  10  -9    2.70    8.40
  10  -2  -9   19.90   19.50
   8   2   9    0.70    6.90
  10  -1   9    4.10    9.70
  10  -1   9   -0.60    3.20
   1   9   9    4.50    7.60
  -1  10  -9    0.30    3.60
   9   1  -9   -2.40    4.90
  -9  10   9    1.60    8.10
 -10   9  -9   -0.80    7.80
  10  -1  -9   -2.20    7.00
  -9  10  -9   10.00    9.40
  -1  10   9    6.60    8.10
 -10   9   9    0.30    7.10
   9   1   9    0.30    6.70
   1   9  -9    3.20    5.30
   0  10   9    8.70   11.60
 -10  10   9   -3.70    5.40
   0  10  -9   12.20    9.90
  10   0   9   14.20   15.30
  10   0  -9    1.50    9.30
 -10  10  -9    7.00   10.80
  -5  11  -9   18.20   15.80
  -6  11   9   12.80   19.70
  -6  11   9   -1.10    3.50
   6   5  -9    5.90    8.10
  11  -6  -9   30.60   20.30
  11  -5   9   -4.00    3.70
   5   6   9    4.60    6.30
  -5  11   9   -1.00    5.80
   6   5   9   12.00    7.70
  11  -5  -9    0.10    7.20
  -6  11  -9   -2.80    4.80
   5   6  -9    6.60    6.50
  11  -5  -9   10.90   14.60
  -6  11  -9    2.70    3.90
  -5  11   9    3.90    4.70
  11  -6   9   -2.30    4.20
  11  -7  -9   -2.60    4.10
  -7  11   9    8.70   12.70
   7   4  -9   -0.10    3.50
   4   7   9    7.10    5.60
  11  -4   9    6.90    7.90
  11  -4   9    5.20    5.20
  -7  11   9    4.10    7.50
  -4  11  -9   -2.60    6.00
  -7  11  -9   -3.10    6.70
   4   7  -9    5.20    6.80
  -7  11  -9   -2.30    3.70
  -4  11   9   -7.70    5.40
   7   4   9   -1.90    6.60
  11  -4  -9   -5.70    7.60
  11  -4  -9    4.40    7.70
  11  -7   9   -0.70    8.30
   3   8   9   10.70    8.90
  11  -3   9    9.40    7.50
  11  -8  -9  -13.10    4.40
  11  -3   9   -1.00    8.90
  -8  11   9    4.40   16.10
  -8  11   9    5.80    6.60
   8   3  -9   -0.60    5.80
  -3  11  -9   -0.30    3.70
  11  -3  -9   13.80   17.30
  11  -3  -9   -4.70    3.70
  -8  11  -9   14.70   19.20
  11  -8   9   -8.20    4.80
  -3  11   9   -1.20    5.90
  -8  11  -9    7.90    7.50
   8   3   9    2.10    8.20
   3   8  -9    9.40    6.90
   0   0 -10   67.19   33.60
   0   0 -10   53.19   26.20
   0   0  10   80.89   31.10
   0   0  10   43.00   25.70
   1  -1  10   -3.20    3.10
   0   1  10   -0.10    4.40
   1  -1 -10   10.70   13.40
   0   1 -10   -4.20    7.70
   1  -1 -10   -3.10    6.90
   1   0 -10   -0.40    4.70
   1  -1  10    2.90    8.10
   1   0 -10    1.00    5.00
  -1   0 -10   -1.80    2.40
  -1   0  10    0.50    7.10
  -1   0  10    2.50    5.80
   0  -1 -10    4.60    8.20
   0  -1  10    7.60   10.30
   1   0  10    5.50    8.30
  -1   1 -10    3.40    9.20
  -1   1  10    5.80    8.50
  -1   0 -10    0.10    6.00
   0  -1  10    4.20    7.90
  -1   1 -10    3.10    7.90
   0   1  10   -1.70    5.20
  -1   1  10   -2.50    6.20
   0  -1 -10   27.20   18.10
   1   0  10   -2.70    2.40
   0   1 -10    2.20    7.20
   2  -1 -10  894.71  187.98
  -2   1 -10  811.72  166.48
   2  -1  10  915.41  168.58
  -2   1  10 1060.89  171.68
  -1  -1 -10  942.61  171.28
  -1  -1 -10 1072.89  176.98
   2  -1  10  684.23  159.08
  -1  -1  10  789.72  165.68
  -1  -1  10 1039.50  166.48
  -2   1  10  920.11  163.88
   1   1 -10 1145.49  176.18
   2  -1 -10  779.52  164.88
  -1   2  10  991.30  163.78
   1  -2 -10  980.50  174.58
   1  -2 -10  886.31  186.08
   1   1  10 1047.10  171.08
  -1   2 -10  920.11  171.08
   1  -2  10  833.92  163.28
  -1   2 -10  949.60  164.98
  -2   1 -10 1088.19  176.78
   1   1  10  930.21  162.48
   1  -2  10  890.41  167.68
  -1   2  10 1167.08  173.08
   1   1 -10 1005.70  166.78
  -2   2  10  873.51  144.49
  -2   2  10  916.31  139.29
   2   0 -10  805.42  138.39
   2  -2 -10  856.51  170.38
   0   2 -10  726.23  157.28
  -2   2 -10  652.63  146.09
   0   2  10  764.12  134.99
   2   0  10  897.01  137.99
   0  -2 -10  399.26  140.69
   2   0  10  820.12  141.99
   2  -2  10  822.02  142.79
   0  -2  10  722.13  136.09
   0   2 -10  525.05  137.49
   0   2  10  813.22  142.09
   2  -2 -10  723.23  156.68
   0  -2 -10  964.10  176.88
  -2   2 -10  557.74  147.79
  -2   0  10  779.62  141.09
  -2   0 -10  693.43  155.28
   2   0 -10  846.62  146.29
   2  -2  10  750.22  136.29
  -2   0  10  670.13  134.49
  -2   0 -10  995.60  152.88
  -3   1  10   13.20   11.50
  -2   3  10   51.89   23.20
  -2   3  10   29.20   19.80
   3  -2 -10    3.40   10.00
  -3   2 -10   56.09   26.10
   3  -2 -10    6.50    8.80
   1  -3 -10   37.00   25.10
  -3   1  10    8.00   10.10
   2  -3  10   42.80   24.40
  -1  -2  10   21.80   17.60
   3  -1  10   56.59   28.80
   3  -1  10   10.20   11.40
  -3   2 -10   27.20   19.70
  -2  -1 -10    8.40    9.80
   2  -3  10   13.20   12.70
   1   2  10   -0.90    3.40
  -1   3 -10   38.70   24.60
   1  -3 -10   24.50   19.80
  -1   3 -10    4.90    6.80
   2   1 -10   10.90    8.00
   1   2  10   13.00   10.50
   2   1 -10    4.00   11.50
   2  -3 -10   10.40    9.60
  -1   3  10   11.30   10.30
  -2   3 -10    0.80    6.00
   2   1  10    4.30    5.70
   1  -3  10   54.79   25.20
  -1  -2 -10   16.40   16.60
  -1   3  10   43.50   23.00
   2   1  10    4.30    9.90
   3  -1 -10   37.40   22.60
   2  -3 -10   12.90   11.50
  -2   3 -10    6.40    9.10
  -3   1 -10   12.80   12.10
  -2  -1  10   52.99   24.40
  -3   1 -10   25.10   19.60
   1   2 -10   -0.70    4.50
   3  -1 -10   31.70   18.40
   3  -2  10   13.20   14.00
   1   2 -10    3.80    6.60
  -3   2  10   17.10   14.40
  -3   2  10   22.10   18.30
   3  -2  10   17.90   14.40
   0   3  10  923.61  144.79
   3  -3  10  791.22  166.08
   0  -3 -10  930.81  177.48
  -3   0 -10  786.82  172.08
   3   0  10  765.82  148.79
   0   3  10  743.73  147.59
  -3   3 -10  729.33  146.09
   3  -3  10  794.72  147.09
   3  -3 -10  807.12  178.38
   3   0 -10  836.82  152.98
   0   3 -10 1045.80  157.08
   0   3 -10  742.43  141.29
  -3   3  10  747.33  144.69
   3   0  10  934.71  146.39
  -3   3 -10  770.92  168.78
   3  -3 -10  908.31  174.08
  -3   0  10  819.82  146.59
   3   0 -10  747.23  144.29
  -3   3  10  869.61  171.28
   4  -2  10   39.40   26.30
  -2   4  10   43.30   25.80
   4  -2 -10   53.49   31.70
  -4   2 -10   46.20   25.50
  -4   2  10   82.49   31.70
  -2   4  10   28.50   17.60
   2   2 -10   19.20   13.30
  -2   4 -10   37.70   22.30
  -2   4 -10   83.79   29.40
   2  -4 -10   70.79   35.00
   2   2  10   34.60   17.70
   4  -2  10   36.20   19.60
   2  -4  10   58.69   28.30
   2   2 -10   35.00   20.80
   2   2  10   33.00   19.00
   4  -2 -10   57.99   30.10
  -4   2 -10   66.09   34.10
   1   3  10    7.80    6.50
   3   1 -10   12.00    9.90
  -3   4  10   22.00   15.90
  -4   3 -10    0.40    4.10
   4  -3 -10   -4.10    5.50
   4  -1  10    2.10    4.70
  -1   4 -10    3.50    3.80
   3   1 -10   -0.10    4.80
   4  -3 -10   -3.40    7.20
   1   3  10   -3.90    3.50
  -1   4 -10    7.60    8.40
  -4   3 -10    7.50    9.00
  -3   4  10    6.30    4.90
  -4   1  10   -1.10    4.00
   1  -4 -10   13.50   17.20
   3  -4  10    3.50    6.20
   4  -1  10    9.70   11.90
  -3   4 -10   -6.10    3.20
   4  -1 -10   -3.30    3.90
   1   3 -10   -3.30    3.00
   1   3 -10    3.20    5.90
   4  -1 -10   13.10   13.10
  -1   4  10   -0.80    6.60
   3   1  10    9.50    9.40
   4  -3  10   30.40   21.30
  -4   3  10    0.50    7.00
  -4   3  10   12.40   12.40
   3  -4 -10    7.40   13.90
  -1   4  10    3.60    5.00
  -3   4 -10   10.40    9.20
   4  -3  10    4.60    9.10
  -4   1 -10    3.40    8.40
   3  -4 -10   -4.90    6.00
   3   1  10   13.90   12.90
  -4   4  10  411.66  119.79
   4   0  10  642.14  114.99
   0   4 -10  731.43  140.09
   4  -4  10  619.64  130.79
   4   0 -10  829.12  119.59
   4  -4 -10  427.16  130.99
   0   4  10  434.86  114.49
   4   0 -10  469.15  128.19
  -4   4 -10  822.32  154.28
  -4   4 -10  650.13  132.29
   0   4 -10  745.13  111.39
   4   0  10  566.04  127.69
  -4   4  10 1001.40  137.59
   0   4  10  706.03  121.79
   4  -4 -10  536.45  136.59
   3   2 -10   18.00    9.80
   3   2 -10    7.10   11.50
   5  -2  10   44.10   26.00
   5  -3 -10   -0.70    5.50
  -3   5  10   -0.30    6.80
  -2   5 -10    6.50    7.10
  -3   5  10    3.80    5.20
   2   3  10    0.20    5.60
   2   3  10    6.70    7.40
   5  -3 -10    7.50    7.80
  -5   3 -10    0.10    9.50
   5  -2  10   -3.70    2.70
  -5   3 -10   10.80   16.90
  -2   5 -10    2.10    3.40
  -3   5 -10    3.00    7.20
   2   3 -10    1.70    3.40
  -2   5  10   -2.00    4.50
  -3   5 -10   -0.50    4.50
   5  -2 -10   12.70   18.90
   3   2  10   13.70    9.50
  -5   2 -10   14.30   15.10
   5  -2 -10   -3.60    6.90
  -5   3  10   11.30   10.20
   2   3 -10   -2.30    5.30
   5  -3  10   15.90   11.10
   3   2  10   -0.70    3.50
   5  -3  10   16.80   13.40
   3  -5 -10    9.00    8.80
  -2   5  10   -5.20    1.90
  -1   5 -10  257.77   76.59
   5  -4 -10  314.57   96.79
   4  -5  10  130.19   65.69
  -5   4 -10  424.56  102.09
  -4   5  10  618.84  114.49
   4   1 -10  260.27   65.29
   4   1 -10  449.46   95.09
  -1   5 -10  405.36   72.39
   5  -4 -10  328.37   87.19
   1   4  10  377.66   71.19
   5  -1  10  284.57   76.09
  -4   5  10  462.75   88.69
   5  -1  10  265.27   74.49
   4  -5 -10  350.36   92.09
   1   4 -10  322.47   57.49
   5  -1 -10  421.96   97.79
   1   4 -10  263.47   75.99
   5  -1 -10  370.86   80.59
  -5   4  10  319.07   79.39
   5  -4  10  408.16   88.09
  -4   5 -10  387.16   83.09
  -4   5 -10  361.76   92.89
  -1   5  10  357.36   73.09
   4   1  10  275.47   67.89
   5   0 -10   10.90   10.00
   0   5 -10    4.60    4.10
   5   0  10    2.10    6.10
   0   5  10    1.60    3.30
   0   5 -10   12.70   12.70
  -5   5 -10   11.30   13.90
   5  -5 -10   20.50   17.70
  -5   5  10   22.60   18.30
  -5   5  10   24.60   17.50
   5   0 -10   38.90   18.80
   5   0  10    0.10    5.00
  -5   5 -10   -1.50    5.50
   5  -5  10   -1.10    4.90
   3   3 -10  116.39   41.80
   6  -3  10  203.78   54.59
   3   3  10  105.59   31.90
  -3   6  10  103.59   38.00
   6  -3 -10  107.89   43.90
  -6   3 -10  383.36   86.09
  -3   6 -10  217.58   61.19
   6  -3  10  247.68   66.69
  -3   6 -10  158.18   43.70
   6  -3 -10  215.68   69.59
  -3   6  10  149.88   43.50
  -4   6  10  389.16   87.49
   4   2 -10  323.47   54.79
   6  -2  10  217.78   71.09
  -2   6 -10  505.75  101.29
   6  -4 -10  159.08   70.29
   4   2 -10  339.67   85.99
  -4   6  10  409.96   84.39
   2   4  10  347.87   59.39
   6  -2  10  345.67   79.29
  -6   4 -10  143.49   69.19
   6  -4 -10  131.89   69.59
  -2   6 -10  347.27   69.39
  -4   6 -10  394.66   95.19
  -4   6 -10  468.95   85.69
   6  -4  10  344.67   83.79
   6  -4  10  335.07   91.69
   6  -2 -10  431.36   88.79
   2   4 -10  487.15   92.79
   6  -2 -10  387.46   97.39
  -2   6  10  345.87   73.69
   4   2  10  379.66   70.99
  -6   4  10  349.07   82.89
  -5   6  10    4.10   10.60
   1   5  10    1.20    4.30
  -1   6 -10    3.00    6.10
   1   5  10   -2.30    4.00
  -5   6  10    2.60    4.30
   6  -1  10    0.60    3.30
   5   1 -10   12.30   10.20
   6  -5 -10   -5.00    9.00
   5   1 -10    5.80    4.60
   6  -1  10   -1.90    6.30
  -6   5 -10   -4.20    7.10
  -1   6 -10    3.60    3.50
  -5   6 -10    2.40    3.80
  -5   6 -10    9.60   10.90
   6  -5  10   -3.90    5.00
  -1   6  10    6.40    6.70
   6  -1 -10    4.20    7.30
   6  -1 -10    4.70    6.70
   5   1  10    4.90    5.30
  -6   5  10    0.10    5.80
   5   1  10    2.30    6.20
   5  -6 -10   -1.90    4.30
   1   5 -10   -0.20    4.40
  -1   6  10   -0.50    6.00
  -6   6 -10   20.30   19.70
  -6   6  10   17.90   18.40
   6  -6  10   34.60   23.20
   6   0 -10   53.99   19.60
  -6   6 -10   33.90   18.90
   0   6  10   42.80   23.10
   0   6 -10   14.30   11.50
   6   0 -10    6.80    7.50
   6  -6 -10   -1.70    6.50
   6   0  10   44.20   19.40
   0   6  10   19.10    9.00
   6   0  10   37.10   20.80
   4   3 -10   -1.90    4.10
   7  -4 -10   10.90   16.40
   7  -3  10   15.60   12.60
  -3   7 -10    8.50    6.50
  -4   7  10    7.00    8.00
   7  -3  10    0.60    6.10
  -4   7  10    2.00    5.10
   3   4  10    0.50    2.00
   7  -4 -10   -4.70    3.30
  -7   4 -10   15.40   14.50
  -3   7 -10    3.50    3.80
   3   4  10    0.80    4.00
   4   3  10   -3.20    4.80
   7  -4  10   19.00   23.50
   7  -3 -10    0.80    6.20
   7  -4  10   -5.10    6.20
  -3   7  10   11.10    8.50
  -4   7 -10    2.00    8.30
   3   4 -10    1.70    4.70
  -4   7 -10   15.40   12.10
   4   3  10    2.70    3.10
  -3   7  10    0.20    5.20
   7  -3 -10    6.90    6.70
   7  -5 -10   94.79   55.69
   7  -2  10  214.18   58.79
  -2   7 -10  215.88   43.60
  -7   5 -10  130.59   56.49
  -5   7  10  151.28   52.09
  -5   7  10  191.28   57.49
  -2   7 -10  173.58   60.19
   7  -5 -10  169.68   60.89
   5   2 -10  280.67   71.49
   5   2  10  304.77   51.49
   7  -5  10  161.88   58.09
  -5   7 -10  315.17   68.89
  -2   7  10  365.56   81.19
  -2   7  10  280.47   54.59
   7  -2 -10  228.88   60.19
   2   5 -10  303.37   68.09
   7  -2 -10  180.68   67.09
  -5   7 -10  299.97   82.99
   5   2  10  163.58   57.99
  -7   5  10  318.47   76.09
  -6   7  10   -3.60    6.30
  -7   6 -10   14.80   14.60
   7  -1  10   63.49   31.60
   7  -6 -10   39.90   26.60
   1   6  10   25.30   18.50
  -6   7  10   11.40   12.40
  -1   7 -10   29.60   16.90
   6   1 -10   16.80   12.70
   7  -1 -10    6.30    8.80
  -7   6  10   34.00   20.60
   6   1  10    5.70    5.30
   6   1  10   23.70   14.60
   7  -6  10   12.10   14.80
  -1   7  10   46.20   23.70
   7  -1 -10   25.00   12.70
  -1   7  10   23.70   10.60
  -6   7 -10   26.40   17.30
  -6   7 -10    1.10    7.50
   1   6 -10   13.20   11.80
   7  -7 -10   26.10   19.80
  -7   7 -10    5.70    7.30
   7   0  10    4.10    4.20
  -7   7  10    5.90    7.10
   0   7 -10    3.10    5.60
   7   0  10    2.40    6.40
  -7   7 -10    3.00   11.70
   7   0 -10    1.10    3.20
   7   0 -10   -0.40    5.20
   0   7  10    3.20    5.10
  -4   8 -10   16.80   11.40
  -4   8  10   32.20   15.80
  -4   8  10   30.10   22.00
   8  -4  10   27.70   22.00
  -4   8 -10   67.19   32.80
   4   4 -10   33.80   18.00
   8  -4 -10   21.20   13.90
   4   4  10   18.00   14.30
   8  -4 -10   48.60   32.40
   8  -4  10   29.40   19.70
  -3   8 -10   27.90   20.30
  -5   8  10   38.60   22.00
   3   5  10   -0.50    8.10
   8  -5 -10   13.90   13.70
   8  -5 -10   20.30   23.70
  -3   8 -10   24.60    9.10
  -5   8  10   35.60   26.50
   8  -3  10    6.40    9.50
   5   3 -10   21.10   14.20
  -8   5 -10   -1.90    7.20
   8  -3  10   48.90   23.90
  -3   8  10   35.70   16.70
  -3   8  10   -0.80    5.70
  -5   8 -10   35.20   17.20
   8  -3 -10    2.60    8.10
   8  -3 -10   21.00   14.40
   3   5 -10    6.10    8.50
   8  -5  10   36.30   23.60
   5   3  10    5.30    8.70
  -5   8 -10   13.90   15.30
   6   2 -10  416.46   93.29
   2   6  10  245.28   76.19
   8  -6 -10  344.57   96.19
  -2   8 -10  590.94  109.19
   8  -2  10  264.37   76.79
  -8   6 -10  421.36  103.69
  -6   8  10  494.15   97.09
   8  -6  10  337.37   89.79
  -6   8 -10  349.96   98.59
   2   6 -10  323.87   77.59
   8  -2 -10  364.96  102.39
   8  -2 -10  237.58   72.69
  -8   6  10  246.08   82.29
  -2   8  10  415.46   64.29
  -6   8 -10  398.96   87.79
  -2   8  10  450.85   95.09
   6   2  10  378.56   88.89
  -1   8 -10   99.39   36.00
  -8   7 -10   37.60   25.40
   8  -7 -10   52.49   34.30
   7   1 -10   45.40   27.70
  -7   8  10   79.79   35.70
   1   7  10  116.19   40.10
   8  -1  10   42.30   20.20
   8  -1  10   32.00   19.40
  -8   7  10   72.89   33.60
  -7   8 -10   27.40   15.70
  -7   8 -10   93.19   37.50
   7   1  10   59.09   17.10
   8  -1 -10   48.70   18.60
   1   7 -10   61.39   27.20
   7   1  10   61.59   30.80
  -1   8  10   88.69   33.50
   8  -1 -10  148.29   55.69
   8  -7  10   40.60   25.60
   8   0  10   32.60   12.60
   8   0  10   12.90   11.20
  -8   8  10   11.40   15.80
   8   0 -10   83.49   39.80
   0   8 -10  109.79   33.70
   0   8  10   58.79   25.60
  -8   8 -10  118.79   42.10
   5   4 -10   -1.80    3.30
  -5   9  10   -1.80    8.30
  -4   9 -10   -1.40    3.00
   9  -5 -10    4.50    8.20
   9  -5 -10   -5.40    4.90
   9  -4  10   -2.60    7.00
   4   5  10   -3.40    4.30
  -4   9 -10    6.40    9.20
  -5   9  10    5.40    8.90
   9  -4  10   -2.50    3.50
   9  -4 -10    1.40    5.10
  -4   9  10    3.10    6.40
  -5   9 -10   -2.10    8.70
   4   5 -10    3.40    7.20
  -5   9 -10    1.00    4.10
   5   4  10    7.90    9.80
  -4   9  10   -3.60    6.40
   9  -4 -10    1.00   13.00
  -6   9  10   80.49   31.90
  -6   9  10   82.89   41.50
   6   3 -10   66.79   29.90
   3   6  10   30.40   17.90
  -9   6 -10  174.98   61.49
   9  -6 -10   68.59   35.00
  -3   9 -10  120.99   43.30
   9  -3  10   55.69   27.50
   9  -3  10   97.99   35.60
   3   6 -10   59.59   23.50
   9  -3 -10   67.49   38.40
  -6   9 -10   89.59   42.70
  -6   9 -10   86.49   30.00
  -3   9  10  118.69   25.00
  -3   9  10  144.09   46.10
   6   3  10   51.99   26.00
   9  -6  10   59.79   32.70
   9  -3 -10   91.79   33.70
   9  -2  10   -1.30    7.20
   7   2 -10   14.30   11.40
  -2   9 -10    8.90   11.20
  -7   9  10   10.30    9.50
  -9   7 -10   -0.70    8.20
   9  -7 -10   15.40   16.50
   9  -2  10    4.30    7.00
   2   7  10    1.30    4.00
  -7   9  10    1.30   11.90
   9  -7  10   -5.30    5.10
   9  -2 -10    1.60   10.10
   7   2  10    0.00    5.90
  -2   9  10    9.00    8.60
  -7   9 -10   17.70   21.40
  -7   9 -10   -1.60    6.40
   9  -2 -10   16.50   11.70
   2   7 -10    4.70    6.60
  -9   7  10    5.30   11.40
   8   1 -10    7.80   14.10
   9  -1  10   -4.00    5.60
   1   8  10   -3.10    5.50
  -1   9 -10    7.50    8.60
  -8   9  10    7.10    8.20
   9  -1  10    5.00    5.40
   9  -8 -10   -0.60    6.70
  -9   8 -10   11.90   14.30
  -8   9 -10    1.60    5.40
   8   1  10   -1.00    3.90
   1   8 -10   -2.70    5.60
  -1   9  10    2.00    7.40
  -9   8  10   -2.60    3.30
   9  -1 -10    1.10    8.90
   9   0  10   79.89   34.80
   0   9  10   50.39   26.10
  -9   9  10   36.00   22.70
  -9   9 -10   36.20   24.70
   0   9 -10    8.40    7.90
   9   0 -10   40.20   22.50
  10  -5 -10   22.70   26.10
  -5  10  10   15.80   10.70
   5   5  10   20.70   12.40
  -5  10 -10   12.50   17.30
   5   5 -10    9.90    8.00
  -5  10 -10    9.70    6.30
  -5  10  10   20.50   12.80
  10  -5  10   12.50    8.60
  10  -5 -10   16.30   15.10
  -6  10  10  118.59   35.00
   4   6  10   79.79   27.60
  10  -4  10   60.89   29.10
  -4  10 -10  183.18   54.99
  -6  10  10   99.89   44.50
   6   4 -10   44.10   23.80
  10  -6 -10  159.98   52.99
  10  -4  10   85.19   34.50
  10  -4 -10   80.19   45.90
  -4  10  10   92.59   23.90
  -6  10 -10   55.49   23.20
  10  -4 -10  181.78   49.40
  -6  10 -10   57.49   32.00
   4   6 -10  117.59   33.90
  -4  10  10  166.88   52.49
  10  -6  10   33.00   25.10
   3   7  10    6.00    8.30
  -3  10 -10   10.00   14.20
  -7  10  10   41.00   21.30
  10  -3  10   17.10   14.50
  10  -7 -10   11.40   16.10
  -7  10  10    0.00   10.40
  10  -3  10   -0.80    4.20
   7   3 -10    1.00    7.30
   3   7 -10   -0.10    5.50
  -7  10 -10   -0.10    6.60
  10  -3 -10    2.40   15.90
  -3  10  10   22.40   17.70
  10  -7  10   16.00   17.30
   7   3  10   36.10   21.30
  10  -3 -10    4.90    4.90
  -7  10 -10   -5.20    3.90
  -2  10 -10   23.10   12.60
  10  -8 -10   18.90   22.90
  10  -2  10   40.60   18.70
 -10   8 -10   13.60   19.10
  10  -2  10    7.60   11.60
  -8  10  10   48.20   27.40
   8   2 -10   34.50   22.30
  10  -2 -10   16.80   10.10
  10  -2 -10   29.80   24.50
   2   8 -10   20.80   12.70
   8   2  10    5.80   10.80
  -8  10 -10    9.10   21.30
  -8  10 -10   48.00   23.40
  -2  10  10   28.80   17.90
  -1  10 -10   30.20   17.60
  10  -1  10   -5.10    6.10
  -9  10  10   20.80   16.20
 -10   9 -10   -3.30    5.40
   9   1 -10    4.90    9.80
   1   9  10   21.50   15.40
  10  -1  10   36.30   13.20
  10  -1 -10    2.70    9.10
   1   9 -10   12.60    8.60
 -10   9  10   23.00   17.40
   9   1  10    3.30    7.10
  -9  10 -10    7.70    9.60
  -1  10  10    9.10   10.30
  -6  11  10    6.40    7.10
  -5  11 -10   -1.10    5.10
   6   5 -10   17.50   10.20
  11  -6 -10   -4.70    5.90
  -6  11  10   -8.10    7.40
   5   6  10   -1.40    5.50
  11  -5  10    2.80    8.00
   6   5  10   18.80   13.80
  11  -5 -10    5.70   16.40
  -5  11  10   -1.90    6.30
   5   6 -10   -2.10    4.60
  -6  11 -10   -4.40    2.60
  11  -5 -10    3.80    7.40
  11  -6  10    0.60    4.90
  -6  11 -10    4.00   10.70
  11  -4  10   21.10   18.80
  -7  11  10   65.19   33.00
  -4  11 -10   72.59   30.90
  11  -7 -10   27.70   23.10
  -7  11  10  114.79   35.30
   7   4 -10   66.29   26.90
  -4  11  10  115.49   44.50
  11  -7  10   50.99   29.00
  -7  11 -10   29.60   16.80
  -7  11 -10   31.70   23.90
  11  -4 -10   24.00   16.70
  11  -4 -10   26.30   25.50
   4   7 -10   69.69   22.30
   0   0 -11   -6.30    2.80
   0   0  11   -2.20    3.20
   0   0 -11    1.10    5.30
   0   0  11    3.30    6.50
   0  -1  11   -0.60    7.70
   1   0 -11    1.70    7.90
   1   0  11   -3.00    3.90
   0  -1  11   12.40   10.70
  -1   1  11   11.20   12.10
   0   1  11   -4.30    5.00
   1  -1  11   14.00    9.80
  -1   1 -11    4.30    6.00
   0  -1 -11    2.20    5.10
   0   1  11    4.80    7.40
   0   1 -11   -4.40    6.30
   0  -1 -11    8.70   10.50
   1  -1  11    7.90    9.20
   1   0 -11   -3.50    5.00
   1  -1 -11   -3.60    5.00
   1   0  11    9.60    9.60
  -1   1 -11    0.60    4.30
   0   1 -11    9.10   11.40
  -1   0 -11    5.50    9.40
  -1   0  11   12.10   10.50
  -1   0 -11   -3.00    4.40
   1  -1 -11    5.80    5.90
  -1   1  11    7.40    8.40
  -1   0  11   -3.90    4.60
  -2   1  11    0.30    5.10
   2  -1  11   -2.90    5.00
   2  -1 -11   18.60   12.20
   2  -1 -11   -3.80    6.10
   1   1 -11    2.70    6.70
  -2   1  11   -6.40    3.60
  -2   1 -11   -4.60    3.80
   1  -2 -11   -2.50    5.30
  -1  -1  11   -0.50    2.90
  -1  -1 -11    5.10    6.50
   1  -2 -11    9.00    8.30
   1   1  11    1.00    4.30
  -1   2 -11    1.50    7.00
  -1   2 -11   -3.90    3.30
   1   1  11    0.90    3.90
  -1   2  11   -1.50    5.30
   1   1 -11   -2.50    2.80
  -1   2  11    2.70    6.30
  -2   1 -11   -4.10    4.10
   1  -2  11    2.10    8.10
   2  -1  11   -0.60    3.90
  -1  -1 -11   -0.50    6.60
  -2   0  11    1.60    6.80
  -2   2  11   -1.70    6.40
   0  -2  11    0.00    3.30
   0   2 -11    9.60   10.50
   2   0  11    3.80    5.30
  -2   2 -11   -5.60    3.40
   0   2  11   -1.20    5.40
   2   0  11   11.10    8.60
  -2   2  11   12.50   16.60
   0   2 -11    0.40    4.40
  -2   0 -11    2.20    6.30
   2  -2  11    1.60    2.80
   2  -2 -11   -0.10    7.50
   2   0 -11    6.20    7.50
   2  -2 -11   12.50   10.60
  -2   0 -11   10.10   11.90
   0  -2 -11   -2.70    5.10
   2   0 -11   -2.40    6.40
   2  -2  11    9.00    7.00
   0   2  11    3.70    4.80
  -2   2 -11   12.60   10.10
   1   2  11    8.80    8.50
   2  -3  11   20.90   14.80
  -2   3  11    4.90    6.10
   3  -1  11   14.40   13.20
  -2  -1 -11   11.30   12.50
  -1   3 -11   15.10   15.10
   2   1 -11   40.40   20.40
  -3   2 -11   15.50   13.90
   3  -2 -11    4.80    7.20
  -1   3 -11    3.70    4.60
  -3   1  11   15.30   11.80
   1  -3 -11    7.00   10.90
   3  -2 -11   -0.90    5.10
  -2   3  11   10.40    8.70
  -3   2 -11   13.60   16.30
   2   1 -11   17.90   17.40
   1   2  11   16.30   16.00
   3  -1  11   16.40   13.20
  -1   3  11   27.70   17.30
  -3   2  11    2.20    3.70
  -1  -2 -11   13.60   16.90
   2   1  11   26.30   15.80
  -3   1 -11   -1.70    8.50
  -1   3  11   -4.30    6.60
   1   2 -11    2.00    5.00
   1   2 -11   30.50   17.70
   3  -1 -11   58.59   31.60
   2  -3 -11    3.90    4.80
   3  -2  11    2.90    7.50
  -2   3 -11   12.50   13.80
  -2   3 -11    5.40    6.20
   2   1  11   12.10   11.60
   3  -2  11    7.80   10.60
  -3   1 -11    8.40   11.90
   3  -1 -11    1.50    4.90
   2  -3 -11   14.90   18.50
   0  -3 -11    7.50    8.60
   0   3 -11    6.70   10.20
   3   0 -11    4.60    7.00
  -3   3  11    9.50   13.90
   3  -3 -11   -0.80    5.80
   0   3  11    3.00    6.80
   0   3 -11    3.90    8.00
   0   3  11    7.50    7.60
   3  -3  11   19.50   14.10
   3   0  11    8.90   10.40
  -3   3 -11   22.10   16.70
   3  -3 -11   -5.60    3.30
  -3   3 -11   26.40   18.10
  -3   0 -11   28.60   21.00
   3   0 -11   -2.00    6.70
   3   0  11    5.10    7.60
  -3   3  11    6.90    7.80
   4  -2  11    1.30    8.10
   4  -2  11   18.80   15.10
  -2   4 -11    0.60    4.50
   4  -2 -11    1.40    7.00
   2  -4 -11   -0.40    9.00
   2   2  11   -5.10    4.00
   2   2  11    2.20    6.90
  -4   2 -11    8.70    6.90
  -2   4  11   -2.00    7.50
   2   2 -11    8.50    8.40
  -2   4  11   -0.50    4.10
  -2   4 -11   16.20   15.60
   4  -2 -11    0.40    3.30
   2   2 -11    6.60    8.10
  -4   2  11   -0.10    5.70
  -3   4  11    4.00    6.80
  -3   4  11    1.90    5.00
  -1   4 -11    3.00    6.70
   4  -1  11   17.10   16.20
   1   3  11   -2.20    4.40
  -4   3 -11    7.70    9.30
   3   1 -11    7.60    7.50
   3   1 -11    3.10   10.50
  -1   4 -11   24.60   20.20
   4  -3 -11   -4.40    5.80
   1   3  11    3.80    6.10
   3  -4  11   10.70   10.70
  -4   3 -11   13.60   15.20
   4  -1  11    6.70    9.30
   4  -3 -11  -10.10    3.90
  -1   4  11   14.70   15.50
   1   3 -11   -1.80    4.20
   4  -1 -11   -3.50    5.10
   3  -4 -11    4.00    7.50
   4  -3  11    3.90    7.40
   3   1  11    4.70    4.60
   4  -1 -11   20.10   15.50
  -4   3  11    3.40    9.00
  -1   4  11   17.90   12.20
  -3   4 -11   -1.70    4.40
  -4   1 -11   29.00   22.50
   1   3 -11   13.50    8.40
   3   1  11   -2.00    4.30
  -3   4 -11    2.20    8.00
   4   0  11    5.00    9.70
  -4   4  11   12.00   11.10
  -4   4 -11   22.70   15.70
  -4   4 -11   -3.30    7.30
   4   0 -11    3.50    7.30
   4  -4 -11   20.50   18.90
   4   0 -11    5.40   11.10
   0   4 -11   25.40   17.40
   4   0  11   12.00   12.20
  -4   4  11   20.90   15.20
   0   4 -11    4.80    5.30
   4  -4  11   18.50   15.70
   0   4  11   -1.00    7.10
   0   4  11    7.70    8.20
  -5   3 -11    1.00    6.00
  -3   5  11   37.40   21.90
   3   2 -11   -2.00    4.10
  -2   5 -11    2.70    4.00
  -3   5  11   12.90   11.80
   5  -3 -11   24.90   17.40
   5  -2  11   15.60   11.10
   3   2 -11   -3.80    3.20
   2   3  11   -3.50    3.30
   5  -3 -11  -10.30    5.30
  -2   5 -11   12.10   14.50
   5  -2  11    3.70   10.10
   2   3  11    7.90   10.10
  -2   5  11    7.10    7.20
  -3   5 -11    4.00    5.80
   5  -3  11   10.60   10.70
   2   3 -11    1.20    3.30
   5  -2 -11    7.00    6.90
  -5   2 -11   18.40   21.50
   2   3 -11    8.60    6.70
   3   2  11   17.10   11.40
   5  -2 -11    7.60    7.60
   3   2  11    3.30    5.90
   5  -3  11   -3.60    5.40
  -3   5 -11   11.60   14.00
  -5   3  11    1.40    8.10
  -2   5  11   26.10   14.40
  -1   5 -11    0.60    4.30
   4   1 -11    0.00    5.60
   1   4  11   -2.60    2.80
   5  -4 -11   -6.30    4.40
  -4   5  11    6.50    8.50
  -4   5  11    1.10    4.60
   5  -1  11   -2.90    5.20
   1   4  11   -0.80    3.00
   5  -4 -11   -3.70    4.90
   4   1 -11    6.50    5.40
  -5   4 -11   -3.00    3.90
  -1   5 -11   -0.50    3.90
  -5   4 -11   -2.60    4.20
   5  -1  11    5.40    5.30
   5  -1 -11   -4.40    4.50
   4  -5 -11    3.50   11.80
   5  -4  11   -2.70    3.20
  -1   5  11   -0.70    3.30
   1   4 -11    6.10    4.70
  -5   4  11    5.50    7.60
  -4   5 -11   -0.70    4.30
   1   4 -11    5.40    4.10
   5  -1 -11    0.30    6.20
   4   1  11    0.60    5.30
  -4   5 -11   -0.70    5.00
   4   1  11    3.00    5.10
  -1   5  11   -3.90    3.50
   0   5  11   24.60   17.30
   5   0 -11   25.10   21.50
   5  -5  11   12.20   12.70
   5   0  11   -2.10    3.20
   5   0 -11   18.90   10.90
   0   5 -11   12.50    7.40
  -5   5  11    9.90   11.60
  -5   5 -11   13.70   13.60
   0   5 -11    0.10    5.70
  -5   5 -11    4.30   13.10
   0   5  11   32.70   15.40
   5  -5 -11    5.70    8.60
   5   0  11    4.40   10.60
  -3   6 -11   -1.10    5.30
   3   3 -11    1.00    1.80
   6  -3 -11    0.60    8.20
  -6   3 -11    5.70   10.10
   6  -3  11    6.30    7.00
  -3   6  11    0.30    3.80
  -3   6 -11    2.40    5.30
   6  -3  11    2.00    5.80
   3   3  11    4.50    7.30
   3   3  11    1.10    3.60
   3   3 -11   16.90   12.80
   6  -3 -11   17.30   15.90
  -3   6  11   -2.40    3.90
   6  -4 -11   37.50   21.60
   6  -2  11   10.90   11.00
  -4   6  11   33.20   19.60
   4   2 -11    8.20    5.90
  -2   6 -11    0.80    3.70
  -6   4 -11   26.30   20.10
   4   2 -11   19.10   17.60
   6  -4 -11   -4.30    3.50
   2   4  11    2.10    4.60
  -2   6 -11   17.70   11.10
   6  -2  11    8.10   10.50
  -4   6  11   -2.50    5.90
   2   4  11    3.10    5.40
  -2   6  11    4.40    5.40
  -4   6 -11   -0.50    8.30
   4   2  11    6.80    7.70
   6  -2 -11    2.10    7.90
  -6   4  11   15.10   14.40
   6  -4  11   32.00   22.80
   2   4 -11    7.70    8.40
  -2   6  11   16.20   11.70
   4   2  11   24.00   12.40
   6  -2 -11   23.20   17.60
  -4   6 -11    7.30    9.70
  -5   6  11   22.00   15.70
   6  -1  11    8.50   10.50
  -1   6 -11   25.00   10.60
   1   5  11   10.20    8.50
   1   5  11   41.50   25.00
   5   1 -11   -1.60    4.30
  -5   6  11   13.20   17.70
  -6   5 -11   30.00   20.20
   5   1 -11   45.30   16.00
   6  -5 -11   19.40   17.70
  -1   6 -11   13.80   10.70
   6  -1  11    4.10    7.80
   1   5 -11    8.40    8.60
   5   1  11    0.30    4.90
  -5   6 -11   12.50   12.50
   6  -5  11    8.60   12.20
   5  -6 -11   15.10   19.00
  -1   6  11   22.30   12.90
  -6   5  11   28.30   20.00
   6  -1 -11   35.30   25.60
  -1   6  11   38.80   23.80
   5   1  11   44.70   18.40
   6  -1 -11   29.00   16.10
  -5   6 -11    9.20    9.30
  -6   6 -11   10.20   14.30
   6   0 -11   -1.10    4.80
   6   0 -11    8.20    9.90
   6  -6 -11    6.30    8.80
   6   0  11   12.10   15.40
  -6   6  11   -3.30    5.20
   0   6  11    1.90    7.00
   6   0  11   -0.40    3.60
  -6   6 -11    9.70   10.90
   0   6 -11    1.40    8.40
   0   6  11   -1.50    2.30
   7  -3  11   29.40   19.40
   7  -4 -11   11.20   17.20
   7  -3  11   43.10   24.80
  -3   7 -11   40.40   27.10
   3   4  11   43.70   13.70
  -4   7  11   33.90   20.70
  -3   7 -11   32.60   16.00
   7  -4 -11   34.10   22.80
  -7   4 -11   23.70   20.70
   4   3 -11   29.20   23.40
   3   4  11    7.70    9.40
   7  -4  11   30.70   20.20
  -4   7 -11    4.50    9.00
  -3   7  11   38.90   19.00
   7  -3 -11   59.29   29.70
  -3   7  11   34.90   24.20
   4   3  11   22.10    9.50
  -4   7 -11   23.00   21.40
   4   3  11   11.40   12.50
   3   4 -11   19.10   15.00
   2   5  11   -0.90    4.20
   5   2 -11    9.90   11.10
   7  -2  11    5.90    6.30
  -7   5 -11   23.00   17.30
  -2   7 -11    8.80    6.40
  -2   7 -11   23.30   19.20
   7  -5 -11   10.00   10.20
  -5   7  11    4.70    7.60
   2   5  11   22.40    7.50
   7  -2  11    1.70    5.60
  -5   7  11   13.30   11.90
  -7   5  11   -2.70    5.20
  -2   7  11   13.30    9.60
   5   2  11    9.10   14.50
   7  -2 -11    0.10    9.20
   7  -5  11   13.50   15.80
  -5   7 -11   27.70   16.70
   7  -2 -11   23.50   14.80
   2   5 -11   -5.30    5.10
  -5   7 -11   12.60   13.70
  -2   7  11   18.40   17.70
  -1   7 -11    4.40    9.40
   6   1 -11   11.20   11.60
   1   6  11    1.80    1.80
   1   6  11    1.00    6.60
   7  -1  11    8.70   10.80
   7  -6 -11   -1.20    9.40
   7  -1  11   -1.00    6.20
  -6   7  11   12.50   12.40
  -7   6 -11   -4.50    4.60
   7  -1 -11    5.00    5.60
   6   1  11    1.90    5.00
  -6   7 -11   19.80   24.60
  -1   7  11    8.30    9.70
  -7   6  11    7.60   13.00
   7  -1 -11    0.50    7.40
  -1   7  11   -0.10    3.20
   6   1  11    6.30    8.30
  -6   7 -11   -2.20    5.30
   1   6 -11    1.00    9.50
   7  -6  11   10.70    7.80
   7   0 -11   14.20   16.10
   7   0 -11    9.80    7.00
   7   0  11   14.30   10.30
   0   7 -11    0.90    8.10
   7  -7 -11   -3.40    5.40
  -7   7 -11   26.50   18.10
  -7   7  11    0.20    5.50
   0   7  11   15.70   15.60
   7   0  11   -1.60    6.70
   8  -4 -11   -5.80   10.70
  -4   8  11   21.80   16.50
  -4   8  11    3.00    4.70
  -4   8 -11   -1.90    7.70
   4   4 -11    8.20   10.60
  -4   8 -11    6.10    5.80
   8  -4 -11   -0.90    3.70
   8  -4  11   -5.40    3.00
   4   4  11    7.30   10.10
  -8   5 -11   17.70   15.90
   8  -3  11    1.70    9.70
  -5   8  11   -3.10    4.40
   8  -3  11   13.20   13.00
   3   5  11   14.60   15.80
  -5   8  11  -10.40    6.60
  -3   8 -11   15.40    7.50
  -3   8 -11   15.80   15.40
   5   3 -11   -0.90    4.80
   8  -5 -11   -1.90    4.90
  -5   8 -11    4.70    6.20
   8  -5  11   -2.50    4.60
   8  -3 -11   -1.00    9.00
  -3   8  11    9.50    9.70
  -3   8  11   15.70   13.10
   3   5 -11   -3.50    4.30
   5   3  11   -1.00    6.40
  -5   8 -11    1.80    7.10
   8  -3 -11   -0.20    5.60
   2   6  11    7.40   10.70
  -8   6 -11   36.00   25.00
  -6   8  11    6.20    8.20
   8  -6 -11    4.90    6.10
  -6   8  11   15.50   10.40
   6   2 -11   16.20   14.90
   8  -2  11    6.40    8.50
  -2   8 -11   -2.20    6.00
   8  -2  11   10.10   14.30
   6   2  11    2.90    4.00
   6   2  11   36.00   23.50
  -8   6  11    2.20   10.50
  -2   8  11    6.80    6.00
   8  -2 -11   38.10   27.30
  -6   8 -11    9.50   11.80
   2   6 -11   59.99   25.20
  -6   8 -11   19.20   15.80
   8  -2 -11   16.80   13.20
   8  -6  11   28.00   18.80
  -2   8  11   34.50   21.80
   7   1 -11   14.00   14.70
  -1   8 -11   10.30    9.00
   8  -1  11    7.90    7.50
  -8   7 -11   -3.80    4.30
   8  -1  11    0.30    8.00
   1   7  11   -1.50    6.00
  -7   8  11    2.60    6.70
   8  -7 -11   -7.40    5.40
   8  -1 -11    7.70    7.90
  -7   8 -11   -7.50    8.80
  -8   7  11   25.20   17.50
  -7   8 -11   -5.60    5.60
   8  -1 -11   21.10   17.60
   1   7 -11   -1.30    5.20
  -1   8  11    3.90    9.10
   7   1  11   15.50   11.40
   7   1  11   -2.70    3.10
   8   0  11    8.30    9.10
  -8   8 -11   -1.80    5.30
   0   8 -11   41.80   21.60
  -8   8  11    9.10   11.80
   8   0  11   14.80   10.50
   0   8  11   -6.90    5.40
   8   0 -11   23.90   19.80
   5   4 -11   15.80   12.80
   9  -4  11   -6.90    7.90
  -5   9  11    3.60    5.40
   4   5  11    6.40    4.80
  -4   9 -11    6.70    5.00
  -5   9  11   -4.00    7.70
  -4   9 -11   -3.50    5.30
   9  -5 -11    2.40    8.20
   5   4  11   -3.90    4.50
   9  -4 -11    4.50    6.60
  -4   9  11   12.00   12.10
   4   5 -11   -2.00    3.30
   9  -4 -11   -4.70    8.10
  -4   9  11    3.10    4.30
  -5   9 -11   12.10   17.80
  -5   9 -11   16.00   10.30
   9  -5  11   -5.30    7.60
   6   3 -11   -5.80    4.50
  -3   9 -11   -1.20    6.70
  -6   9  11   10.20   11.50
   9  -3  11    4.20    6.60
   9  -6 -11   -1.40    7.60
   3   6  11    7.40    9.00
   9  -3  11    1.90   12.00
  -6   9  11  -10.00    3.50
   9  -3 -11   -3.60    4.20
  -6   9 -11    1.10    7.40
  -3   9  11    2.20    7.90
   9  -3 -11   -8.10    6.40
  -6   9 -11    2.70    6.80
   9  -6  11   -2.60    6.50
   3   6 -11    4.20    5.80
  -3   9  11    0.20    3.60
   6   3  11    0.20    4.50
   9  -2  11   -0.20    6.50
   9  -7 -11   11.20   12.90
  -9   7 -11   17.50   18.60
   9  -2  11   17.10   14.00
   7   2 -11    7.60    9.50
  -2   9 -11   19.30   14.70
   2   7  11   20.90   17.30
  -7   9  11   19.90   15.00
   7   2  11    2.80    9.60
  -7   9 -11   13.10   13.50
   9  -2 -11   -8.10    9.80
  -7   9 -11   10.30   11.80
   2   7 -11    0.60    4.50
   9  -7  11   21.00   20.90
   9  -2 -11   -1.40    3.70
  -2   9  11    3.30    9.10
  -8   9  11   18.00   16.80
   1   8  11   23.60   15.40
   8   1 -11   14.30   13.20
   9  -8 -11   12.40   20.00
  -9   8 -11   49.20   28.40
  -1   9 -11    3.90    6.70
   9  -1  11   21.20   19.60
   9  -1  11   41.40   17.80
  -8   9 -11   60.69   28.00
   8   1  11   16.00   18.90
   9  -1 -11   19.60   15.90
  -9   8  11    6.90   10.20
  -1   9  11   26.60   15.70
   1   8 -11   11.90    7.60
   0   9 -11    7.70    7.50
   9   0 -11   -3.40   10.60
   9   0  11   13.70   14.50
   0   9  11   13.50   13.60
  -9   9 -11   20.70   20.20
  -9   9  11   -4.40    5.20
   5   5 -11   -0.50    5.50
  10  -5  11    2.60    5.30
  10  -5 -11    1.40    9.30
  10  -5 -11   -1.40   10.10
  -5  10 -11   -0.40    9.40
  -5  10  11    3.00    7.10
  -5  10  11    3.70    5.00
   5   5  11    0.10    5.00
  -5  10 -11    1.70    3.90
   4   6  11    4.40    6.20
  10  -6 -11    0.60    7.90
   6   4 -11   17.90   11.90
  -6  10  11    5.90    9.20
  10  -4  11    0.40    5.60
  -6  10  11    3.80    7.70
  -4  10 -11    0.10    9.40
  -6  10 -11   -4.90    8.10
  10  -4 -11   -1.90    9.40
  10  -6  11    3.50   13.60
  -4  10  11    3.00    3.60
  10  -4 -11    4.50    9.70
   6   4  11   18.40   14.30
  -6  10 -11    7.50    7.80
   4   6 -11   12.20    8.30
  -4  10  11    8.10   11.50
   7   3 -11   10.10   11.70
  -3  10 -11   -1.80    8.20
  -7  10  11   22.60   15.80
  10  -3  11   -2.20    5.20
  -7  10  11   -6.00   10.00
   3   7  11   -1.10    5.10
  10  -7 -11   15.40   18.30
  10  -3  11   13.30   11.50
   7   3  11   18.00   20.00
  -7  10 -11   10.90    9.50
  -3  10  11   23.60   17.90
  -7  10 -11   22.70   14.30
  10  -3 -11   -4.20    6.40
  10  -3 -11   11.60   10.30
   3   7 -11   10.70   10.00
  -8  10  11   -3.70    6.10
  10  -2  11   -0.90    2.90
  10  -8 -11   -3.70    8.80
   2   8  11    2.80    4.30
  10  -2  11   -0.70    5.80
 -10   8 -11   18.70   12.60
  -2  10 -11   -4.80    6.30
  -8  10 -11    9.70    9.30
   8   2  11   -0.50    4.30
  -2  10  11    3.60    5.60
  10  -2 -11   -0.90    3.30
  10  -2 -11    0.70    9.00
   2   8 -11   -3.90    4.10
  -8  10 -11    0.30    9.90
   0   0 -12 1992.40  288.77
   0   0  12 1586.54  272.87
   0   0  12 1291.37  262.37
   0   0 -12 1588.94  270.57
  -1   0 -12  118.59   50.69
   1  -1  12  186.38   55.79
   1  -1 -12  281.17   81.29
   0   1 -12  209.38   61.79
   0  -1  12  248.28   63.09
  -1   0 -12  351.06   90.39
  -1   1 -12  172.78   58.29
   1  -1 -12  207.68   62.99
   0   1  12  229.48   70.79
  -1   1 -12  133.49   53.69
   1   0  12  261.67   74.39
  -1   0  12  307.57   67.69
   0  -1 -12  109.09   50.59
   1   0 -12  207.98   61.49
   0  -1 -12  210.68   71.39
   0   1  12  200.78   55.89
   0   1 -12  221.68   69.69
   1   0 -12  102.89   48.90
  -1   1  12  201.98   63.39
   1   0  12  118.39   46.60
  -2   1 -12   77.29   39.40
   2  -1 -12  109.79   47.10
  -2   1 -12   94.69   38.20
   1  -2 -12   88.69   40.00
   1   1  12   46.90   28.00
  -1   2 -12   72.89   37.10
  -1   2  12   41.10   27.90
   2  -1  12  111.29   37.80
   1   1 -12  101.39   41.60
  -1  -1 -12   38.30   24.70
  -1   2 -12   78.89   32.70
   1   1 -12   98.29   36.20
  -1  -1  12   40.50   25.80
   1  -2  12   80.69   33.20
   1   1  12   98.79   35.80
  -2   1  12   46.40   25.10
   2  -1 -12  156.18   51.79
   2  -1  12   78.69   39.20
  -1   2  12   41.70   24.90
   2  -2 -12   44.00   28.30
  -2   0  12   60.59   28.30
   2   0  12   68.79   28.50
   2  -2 -12   28.90   23.40
  -2   0 -12   61.99   31.30
   0   2 -12   25.80   22.70
   2   0  12   19.60   16.70
   2  -2  12  111.09   37.00
  -2   2 -12   46.50   27.70
  -2   2  12   18.70   14.50
   0   2 -12   57.79   25.80
  -2   2  12   44.50   28.50
   0   2  12   44.30   27.20
   2   0 -12   72.19   29.60
   0  -2 -12   10.40   16.30
  -2   2 -12   49.50   27.40
   2   0 -12   63.79   31.00
   0   2  12   62.79   26.70
  -3   1  12   46.90   27.60
   3  -2 -12  168.18   59.59
   2  -3  12   69.69   33.60
   1   2  12  144.19   47.00
  -2   3  12   49.30   26.30
  -2  -1 -12   31.40   27.10
   3  -2 -12   96.19   40.10
   2   1 -12  146.29   51.29
   3  -1  12   44.40   29.40
  -2   3  12   74.79   37.00
  -1   3 -12  113.59   37.50
   3  -1  12  105.29   37.00
   1   2  12   60.79   27.30
   2   1 -12   86.59   33.50
   1  -3 -12  117.79   48.60
  -1   3 -12  138.39   50.99
  -3   2 -12   46.00   29.30
   2   1  12  139.79   41.50
  -1   3  12   35.60   24.40
   1   2 -12  168.18   55.59
  -2   3 -12   32.30   26.90
   3  -1 -12   59.19   36.40
   2   1  12   85.49   38.10
  -1   3  12   63.49   29.50
   3  -1 -12   66.09   32.50
  -2   3 -12   93.59   36.00
   3  -2  12  108.09   38.30
  -3   1 -12   83.39   39.40
  -3   2  12   87.59   34.70
   1   2 -12  113.99   36.90
   2  -3 -12  183.78   59.49
  -3   3  12   79.79   54.99
  -3   3 -12   15.00   15.80
   3   0  12   73.09   32.40
   0   3 -12   66.99   34.80
   0   3 -12   38.20   21.00
   3  -3 -12   83.29   40.20
  -3   0 -12   43.00   27.10
   0   3  12   31.90   20.90
   3   0 -12   45.60   27.90
   0   3  12   67.29   28.20
   3   0  12   43.30   22.00
   3  -3  12   30.10   21.80
  -3   3  12   19.70   16.70
   3   0 -12   66.79   29.30
  -4   2  12  871.91  164.48
  -4   2 -12 1112.19  175.08
   4  -2 -12  825.62  193.58
   2   2 -12  920.81  158.28
   2  -4 -12  923.61  194.38
  -2   4 -12  886.31  188.28
   4  -2  12 1064.39  174.38
   4  -2  12 1025.70  165.88
  -2   4  12  959.80  187.18
   4  -2 -12  573.04  168.68
   2   2  12  855.51  158.08
  -2   4  12  964.20  162.28
  -2   4 -12  825.02  160.08
  -4   3 -12  159.48   51.89
  -3   4  12  160.68   55.99
   3   1 -12   62.39   27.10
  -3   4  12   59.29   27.90
   3   1 -12  123.29   47.80
   4  -3 -12   47.80   31.60
  -1   4 -12   20.80   20.90
   1   3  12  167.28   41.50
   4  -3 -12  136.79   57.39
   4  -1  12   94.49   35.50
   4  -1  12  144.39   49.10
   1   3  12   46.50   25.50
  -1   4 -12   77.89   29.30
   4  -3  12   95.39   36.70
  -3   4 -12  105.69   38.30
   1   3 -12  192.58   58.39
  -1   4  12   96.39   33.40
  -1   4  12  101.99   34.60
   4  -1 -12   16.60   20.80
   3   1  12   41.10   21.20
   3  -4 -12   65.59   32.60
   1   3 -12   83.29   28.20
   4  -1 -12   89.79   35.30
   3   1  12  152.48   40.10
  -4   3  12   81.89   34.60
  -4   1 -12  108.69   44.50
  -3   4 -12   76.19   37.90
  -4   4  12   93.69   35.90
   0   4 -12   69.29   24.20
  -4   4 -12   98.39   42.00
   0   4 -12  127.79   45.10
   4   0  12   36.30   21.00
   4   0 -12   48.50   30.10
   4  -4  12   48.10   26.10
   0   4  12   44.00   18.90
   4  -4 -12   11.50   15.20
   4   0 -12   84.09   34.00
   0   4  12   71.69   27.20
   4   0  12   55.99   23.90
  -4   4 -12   50.39   28.20
   5  -3 -12  138.29   56.59
  -3   5  12  122.99   39.50
   5  -2  12  120.69   46.50
   2   3  12  171.88   40.60
   5  -3 -12  102.29   43.60
   2   3  12  104.29   43.00
  -2   5 -12  149.09   41.50
  -3   5  12   83.59   37.60
  -5   3 -12  111.19   45.80
   3   2 -12  175.88   39.20
  -2   5 -12  190.28   59.49
   3   2 -12  153.68   53.59
   5  -2  12   96.49   38.90
   5  -2 -12  199.88   67.99
  -3   5 -12  134.89   41.90
   5  -3  12   40.40   28.20
  -5   3  12   85.69   38.60
  -5   2 -12  191.38   62.79
   3   2  12  195.98   45.90
  -2   5  12   63.89   28.00
   2   3 -12   85.39   29.50
  -2   5  12  182.48   48.20
   5  -2 -12  174.08   52.39
  -3   5 -12  162.78   57.39
   2   3 -12   38.00   27.60
  -4   5  12   25.10   20.60
   4   1 -12   28.90   14.90
  -5   4 -12   21.90   17.10
   5  -1  12   18.90   14.20
  -4   5  12   24.80   16.00
   5  -1  12    6.40    9.20
   1   4  12   28.40   21.40
  -1   5 -12   44.20   17.80
   1   4  12   45.60   20.40
  -1   5 -12   35.70   23.70
   5  -4 -12   60.79   33.10
   4   1 -12   12.90   17.80
   1   4 -12   20.70   18.80
   4   1  12   59.59   24.30
  -4   5 -12   56.49   33.80
   5  -4  12   40.80   25.60
  -4   5 -12   20.60   12.60
  -5   4  12   26.20   21.30
   4  -5 -12   36.60   26.80
   4   1  12    7.10   10.90
   1   4 -12    8.20    8.70
   5  -1 -12   41.40   27.20
  -1   5  12   26.30   16.90
   5  -1 -12   38.30   21.70
  -1   5  12    8.70    8.90
   0   5  12   14.30   14.30
  -5   5 -12    6.90   10.80
  -5   5 -12   16.70   14.40
   5   0 -12    2.60    5.60
   5  -5 -12   -5.10    8.50
   0   5 -12    9.00    6.50
   5   0  12    0.10    5.50
   0   5  12    0.70    4.20
   0   5 -12   18.50   17.70
   5   0  12   16.40   11.40
   5   0 -12   25.00   17.80
  -5   5  12   18.90   16.10
  -3   6  12   40.00   20.30
   6  -3 -12    6.10   13.30
   3   3 -12    9.70   13.20
   3   3 -12   39.10   13.00
   3   3  12   63.29   31.60
  -3   6 -12   56.29   23.80
   3   3  12   39.00   16.30
  -3   6  12   31.30   14.80
   6  -3  12   75.29   32.10
  -3   6 -12   71.59   33.90
  -6   3 -12   44.40   29.80
   6  -3 -12   33.00   22.60
   4   2 -12  130.69   47.20
  -2   6 -12   44.10   28.50
   6  -2  12   61.79   27.60
  -4   6  12  153.38   46.80
   2   4  12   61.29   22.80
   6  -4 -12  100.39   42.60
   6  -2  12   71.39   29.90
   2   4  12   58.69   31.80
  -6   4 -12   89.99   40.30
   4   2 -12  113.49   26.80
  -4   6  12   28.50   22.00
   2   4 -12   85.49   17.60
  -4   6 -12   85.79   34.30
   6  -2 -12   54.89   30.60
   6  -2 -12   64.59   39.70
   4   2  12   62.99   25.80
   2   4 -12   94.89   40.30
  -2   6  12  153.08   49.99
   4   2  12   37.60   24.70
   6  -4  12   78.89   36.30
  -2   6  12  113.29   35.00
  -4   6 -12   96.49   45.70
  -5   6  12   88.99   35.30
  -6   5 -12  102.19   39.70
   5   1 -12   76.89   25.00
   5   1 -12  112.69   44.40
   6  -5 -12   29.10   25.60
   1   5  12   95.99   39.20
   6  -1  12   83.19   32.30
  -1   6 -12  168.08   33.10
   6  -1  12   29.40   16.70
  -1   6 -12   70.79   30.20
   1   5  12   52.39   20.20
   1   5 -12  114.69   40.10
  -6   5  12  100.29   38.80
   6  -1 -12  179.98   44.60
   6  -5  12   68.09   32.60
   5   1  12   47.20   30.50
  -5   6 -12   40.40   31.10
   5   1  12   79.49   28.40
  -1   6  12   21.10   20.70
  -5   6 -12   98.39   36.20
   6  -1 -12   36.70   28.10
  -1   6  12   80.49   27.60
  -6   6 -12  318.17   85.29
   6  -6 -12  318.17   97.59
   6   0  12  294.97   87.79
   0   6 -12  413.86   95.59
  -6   6  12  331.77   86.69
   0   6  12  298.87   83.49
   6   0  12  385.96   79.69
   6   0 -12  338.77   93.99
   7  -3  12    3.80   10.60
  -4   7  12   26.40   17.10
   7  -4 -12   42.70   27.70
  -4   7  12   52.29   31.00
   3   4  12   14.60    9.10
   3   4  12   19.20   18.70
   4   3 -12   24.10   16.80
  -3   7 -12   80.19   38.90
  -3   7 -12   50.39   21.10
   7  -4 -12    5.20   17.70
   7  -3  12   -1.80    8.60
   7  -3 -12   13.80   14.20
  -3   7  12   24.70   21.30
   7  -4  12   50.89   28.00
   4   3  12   16.20   13.40
   7  -3 -12   33.00   26.90
  -4   7 -12   65.89   37.10
  -4   7 -12    6.20    7.20
  -3   7  12   55.89   25.60
   4   3  12   25.20   11.80
   3   4 -12   17.70   15.50
   5   2 -12   -9.00    3.30
  -5   7  12    3.60    6.90
  -5   7  12   -2.50    5.90
  -2   7 -12    0.10    3.10
  -2   7 -12    1.20    6.40
   7  -2  12    4.10    6.50
   2   5  12    1.80    2.60
   7  -5 -12   -1.00    6.80
  -7   5 -12   -4.80    6.20
   2   5  12    1.60    7.90
   7  -2  12    5.00    9.50
  -5   7 -12   12.70   15.10
  -2   7  12   15.30   12.20
  -5   7 -12    1.10    5.50
   7  -5  12   -3.50    5.10
   5   2  12   -5.50    4.30
   2   5 -12   -1.60    5.70
  -2   7  12    1.70    4.10
   5   2  12    1.80    4.60
   7  -2 -12    6.20   12.00
   7  -2 -12   13.10   11.10
   6   1 -12   21.90    8.70
   7  -6 -12   30.20   22.70
  -6   7  12   11.00   12.00
  -7   6 -12    9.40   13.10
   1   6  12   29.80   22.40
   6   1 -12   19.00   16.50
   7  -1  12   17.30   12.90
   1   6  12   18.60    8.40
  -1   7 -12   47.50   28.40
   7  -1  12   42.50   26.10
  -1   7  12   26.40   20.00
  -6   7 -12   28.20   20.80
   1   6 -12   13.40   11.20
   6   1  12   26.80   14.60
   7  -1 -12   38.40   18.40
  -6   7 -12   28.40   25.20
  -1   7  12   21.60   11.30
   7  -1 -12   30.30   23.60
   7  -6  12   59.19   31.10
   6   1  12   12.70   16.40
  -7   6  12   29.70   21.10
   7   0 -12  116.69   27.50
   7  -7 -12   54.39   34.50
   7   0  12   96.09   30.80
   0   7 -12   44.10   27.00
  -7   7 -12   75.29   35.70
   7   0 -12   96.39   43.40
   0   7  12   51.69   15.80
   0   7  12   58.79   31.50
   7   0  12  107.79   41.40
  -4   8  12  286.47   79.89
  -4   8 -12  245.48   76.19
   8  -4 -12  152.38   65.39
   4   4 -12  104.59   47.00
   4   4  12  220.98   61.49
   8  -4 -12  177.58   61.69
   8  -4  12  271.47   69.89
  -4   8  12  263.87   61.09
  -4   8 -12  258.37   54.19
  -5   8  12   40.50   28.80
   8  -3  12   33.80   22.10
   8  -3  12   51.59   26.60
   5   3 -12   49.90   27.10
   8  -5 -12   44.80   28.90
  -5   8  12   40.50   22.40
   3   5  12   46.20   25.00
  -3   8 -12  105.29   24.90
  -3   8 -12   41.90   28.30
   8  -3 -12   28.70   27.60
   8  -5  12   32.90   23.50
   5   3  12   57.39   13.60
  -5   8 -12   65.19   34.30
  -5   8 -12   71.09   28.10
   3   5 -12    8.70   13.00
   5   3  12   40.90   24.30
  -3   8  12   33.50   18.10
   8  -3 -12   43.60   24.10
  -3   8  12  104.29   43.20
   8  -6 -12   45.40   34.10
   8  -2  12   62.49   29.80
   8  -2  12  144.79   56.09
   2   6  12  113.89   41.20
  -6   8  12  189.68   52.69
  -8   6 -12   91.69   43.60
   6   2 -12   46.90   29.30
  -2   8 -12  135.49   50.69
   6   2  12   80.29   38.50
  -6   8 -12   61.89   34.60
   8  -6  12  133.49   48.90
   2   6 -12   75.89   31.60
   6   2  12  125.59   27.20
  -2   8  12   82.59   25.80
   8  -2 -12   61.69   29.80
   8  -2 -12  143.59   58.99
  -6   8 -12   62.49   30.50
  -2   8  12   87.89   41.70
  -8   7 -12   15.10    9.60
   1   7  12   14.80   13.60
   8  -7 -12   15.80   12.80
  -1   8 -12   27.00   21.90
   8  -1  12    0.40    6.60
   7   1 -12   19.70   16.20
  -7   8  12   -3.70    5.70
   8  -1  12   -1.70    5.30
  -1   8  12    5.20    8.10
   8  -1 -12    9.00   12.00
   7   1  12    6.00    4.90
  -7   8 -12   18.50   16.10
   7   1  12    4.50    9.60
  -8   7  12    0.20    6.70
   1   7 -12   14.80   13.90
  -1   8  12    8.90    4.20
   8  -1 -12   29.90   14.80
  -8   8  12   30.80   22.40
   8   0 -12   59.99   31.90
   0   8 -12   87.09   32.90
  -8   8 -12   98.49   41.90
   0   8  12   67.39   30.10
   8   0  12   60.99   33.20
   8   0  12   50.69   18.30
   4   5  12   39.40   23.60
   5   4 -12   47.70   27.70
  -4   9 -12   33.80   12.70
  -5   9  12   32.20   23.70
   9  -4  12   38.80   24.50
  -5   9  12   19.70   16.40
  -4   9 -12   74.89   36.30
   9  -5 -12   57.39   29.60
   9  -5  12   76.49   37.60
  -5   9 -12   44.10   29.50
   9  -4 -12   21.10   17.20
   5   4  12   15.90   15.80
   4   5 -12   34.70   19.70
   9  -4 -12   15.00   22.30
  -4   9  12   32.50   18.10
  -6   9  12   -8.70    7.40
   6   3 -12    0.40    6.70
   3   6  12    5.30    8.40
  -6   9  12   -0.30    6.50
   9  -3  12    1.30    5.60
   9  -6 -12   -3.40    7.10
  -3   9 -12   -4.50    6.70
   9  -3  12    2.70   11.60
  -6   9 -12    0.00    5.30
   9  -3 -12   -2.40    8.60
   9  -3 -12    1.20    6.80
  -6   9 -12    2.80   15.60
   9  -6  12   -3.60    6.90
   3   6 -12    1.00    4.90
  -3   9  12   19.60   15.50
  -3   9  12    7.40    5.40
   6   3  12   18.80   14.40
   2   7  12   16.20   15.80
   9  -2  12    6.20   10.70
   9  -2  12    6.00    9.00
  -2   9 -12   -1.30    7.40
  -9   7 -12   24.20   19.10
  -7   9  12    2.00    6.30
   9  -7 -12    3.10   10.20
   7   2 -12   -1.00    7.70
  -7   9 -12    6.10    8.80
  -2   9  12   -3.10    7.40
   9  -2 -12    6.00    6.50
  -7   9 -12    0.80    9.80
   9  -2 -12    4.50   11.30
   9  -7  12   -5.90    6.70
   7   2  12   -0.10    7.30
   2   7 -12   -3.50    4.70
   9  -1  12   36.60   17.90
  -9   8 -12   40.70   27.20
   1   8  12   33.60   24.80
  -1   9 -12    9.60   14.80
   9  -8 -12   24.00   20.10
   8   1 -12   77.89   37.10
  -8   9  12   28.10   22.30
   9  -1  12   69.69   38.90
  -9   8  12   84.89   36.10
  -8   9 -12   26.20   18.60
   8   1  12   49.60   31.70
   1   8 -12   12.20   15.60
   9  -1 -12   15.10   17.90
  -1   9  12   41.20   25.40
   5   5 -12   29.90   16.10
  10  -5 -12   18.40   15.50
  -5  10  12   19.70   12.70
  -5  10 -12   33.20   19.20
  -5  10  12   14.90   16.10
   5   5  12    5.40   10.00
  10  -5  12   -0.10    6.60
  10  -6 -12   80.39   39.40
  -6  10  12  147.89   57.19
   6   4 -12   13.00   15.70
  10  -4  12   77.89   32.50
   4   6  12   98.89   34.30
  -4  10  12   50.59   29.70
   6   4  12   27.30   19.60
  -4  10  12   45.60   16.00
  -6  10 -12   53.89   19.30
  10  -4 -12   49.40   34.00
  -6  10 -12   68.49   36.20
  10  -4 -12   33.40   25.20
   0   0  13    6.00    9.00
   0   0 -13    4.50   10.40
   0   0 -13   -4.30    5.10
   1   0  13    1.20    9.00
  -1   0 -13   -1.20    5.40
   1   0  13    0.00    5.10
   0  -1  13   -2.60    6.00
  -1   1 -13    5.30   10.70
   1  -1  13   -0.40    7.40
   0   1 -13    1.80    7.60
   0  -1 -13    3.80    6.00
   0   1  13   -1.40    9.00
   1   0 -13    3.40    8.40
   1   0 -13   10.50   13.80
   1  -1 -13   -1.40    4.90
   1  -1 -13    4.20    8.80
  -1   1 -13    1.90    8.90
  -1   1  13   -3.80    3.20
  -1   0  13   -0.50    4.30
   0   1 -13    0.60    8.30
   0   1  13   -1.20    5.50
  -2   1  13   -5.00    5.40
  -1  -1 -13    0.10   10.90
   1   1 -13   -5.70    6.50
   2  -1 -13    3.30   10.40
   1   1 -13   10.80    5.70
  -1   2 -13    0.80    5.20
  -2   1 -13   -2.50    4.10
   1  -2 -13   -6.30    6.00
   1  -2  13   -0.80    4.00
  -1   2  13   10.40    8.40
  -1   2  13    0.00    6.70
   2  -1 -13   -1.00    5.80
   1   1  13   -0.80    3.00
   2  -1  13    5.30   11.10
  -1   2 -13    7.20   13.30
   1   1  13   14.40   12.20
  -2   2 -13   38.50   26.00
   0   2 -13   21.80   15.80
   0   2  13   23.10   19.50
  -2   2  13   17.80   16.20
   2   0 -13   34.50   23.40
  -2   0 -13   49.60   27.00
   2   0  13   16.50   15.40
   2  -2  13   -0.10    5.50
   2  -2 -13   16.50   16.60
   2   0  13    6.00    9.50
   0   2  13   24.50   18.00
   0  -2 -13   22.10   13.80
   2   0 -13   -5.20    8.00
   0   2 -13   23.10   19.70
  -2   2 -13   25.20   20.80
  -2   3  13    0.30    5.80
  -1   3 -13   15.90   13.30
   3  -2 -13   -6.40    4.70
   2   1 -13   -4.60    2.70
  -1   3 -13    8.60    8.70
  -3   2 -13    0.20    4.70
   1   2  13   -0.30    3.30
   3  -1  13    3.10    9.00
   1   2  13    5.40   12.00
   3  -1  13    0.10    9.70
   3  -2 -13    0.10    6.90
   2   1 -13   -3.80    5.50
   1  -3 -13    7.00   12.10
  -2   3  13   -0.20    9.40
   3  -1 -13    4.90    7.70
  -3   1 -13    5.50   10.00
   1   2 -13   -2.00    5.50
   3  -1 -13   -4.10    4.70
   2  -3 -13   13.00   14.80
   3  -2  13    3.50    6.70
   2   1  13    0.10    7.10
  -2   3 -13    6.60    6.90
   1   2 -13    0.50   14.70
   2   1  13   -2.70    4.70
  -2   3 -13   10.20   12.50
  -1   3  13   17.80   11.60
  -1   3  13    4.60    9.10
  -3   2  13   11.00   10.90
   0   3  13   20.90   17.40
  -3   3 -13    9.40   12.80
   0   3 -13   23.00   16.40
   3   0  13   25.70   18.60
   3  -3  13   28.20   22.00
   3   0 -13    2.10   11.30
  -3   3 -13   -0.40    5.50
  -3   3  13   11.30    8.90
   0   3 -13   46.00   31.60
   3   0  13   -3.70    5.90
   3   0 -13   -2.60    4.80
   0   3  13   27.60   17.60
   4  -2 -13    0.10    7.60
   4  -2 -13    6.00    9.90
   2   2 -13    0.50    4.40
   2   2 -13    2.70    5.50
  -2   4 -13   -1.80    4.30
  -2   4 -13   -3.30    3.00
  -2   4  13    2.50    7.30
   4  -2  13    7.40    7.90
  -2   4  13    1.00    8.40
   2   2  13    1.20    7.40
   2   2  13   -3.40    3.60
  -4   2 -13    3.60   10.30
  -3   4  13    5.20    8.80
  -1   4 -13   24.60   14.90
   4  -1  13    1.90    4.20
   1   3  13    2.40    7.40
   3   1 -13   18.30   17.50
   1   3  13   11.90   10.80
   4  -3 -13   10.20   11.70
   4  -1  13    8.30   12.90
  -1   4 -13    3.90    5.40
  -4   3 -13    2.80    6.80
   3   1 -13   -1.90    4.50
   3   1  13   17.80   13.50
   1   3 -13   12.90   12.30
   4  -3  13   -1.00    5.30
   4  -1 -13   21.90   16.50
   4  -1 -13   24.00   21.80
  -4   3  13    9.90   11.10
   1   3 -13   -2.70    3.30
  -3   4 -13    9.30    7.80
   3  -4 -13   10.10    9.60
   3   1  13   -4.30    4.30
  -1   4  13    9.40   11.10
  -3   4 -13   -1.40    6.10
  -1   4  13   26.90   18.00
   4  -4  13   17.00   14.90
   4   0 -13    5.50    6.60
   0   4  13   24.20   15.10
   4   0  13   23.50   16.30
   4   0  13    4.50    8.90
   0   4 -13   19.40   12.90
   4  -4 -13   32.10   22.90
  -4   4  13    5.10    8.70
   4   0 -13    7.50    8.60
   0   4  13    4.90    5.10
   0   4 -13   36.60   25.00
  -4   4 -13   51.99   29.70
   3   2 -13    0.30    4.80
   5  -3 -13    1.30    9.00
   5  -3 -13   -1.10   10.30
  -3   5  13    4.90    6.00
   2   3  13    7.20    6.50
  -2   5 -13   -2.00    5.30
  -2   5 -13   -4.30    5.50
   3   2 -13    5.90    8.60
  -3   5  13   -7.30    5.30
   2   3  13    6.60   18.50
  -5   3 -13   -0.60    7.00
   5  -2  13   -1.70    4.50
   5  -2 -13   20.60   17.50
   2   3 -13   -1.90    3.40
  -3   5 -13   -3.00    4.10
  -2   5  13   -5.40    4.10
  -3   5 -13   14.10   11.40
   3   2  13   -3.80    5.50
  -2   5  13   10.80   12.50
   3   2  13    1.70    5.40
   5  -2 -13   -5.40    6.50
   5  -3  13    2.80    8.30
   2   3 -13    6.30    7.00
  -4   5  13   43.80   23.00
   4   1 -13    3.20    5.80
  -5   4 -13   -3.30    6.20
   5  -1  13    6.10    7.10
  -1   5 -13   23.50   16.70
  -1   5 -13    6.20    7.40
   4   1 -13    2.60    9.90
   1   4  13    0.30    4.00
   5  -1  13   -1.90    5.50
   5  -4 -13   38.70   22.10
   1   4  13    6.40   12.90
  -5   4  13   47.60   26.00
  -1   5  13   19.80   18.40
   4  -5 -13   29.60   23.30
  -1   5  13   11.20   10.30
  -4   5 -13   11.40    9.00
   5  -4  13   -3.10    7.00
   5  -1 -13   -4.40    3.90
   1   4 -13   -4.10    3.30
   4   1  13   -5.10    8.00
   5  -1 -13    5.80   15.10
   4   1  13   16.60   13.00
  -4   5 -13   22.20   20.20
   1   4 -13   -2.00    7.00
  -5   5 -13    7.70    9.10
   5  -5 -13    6.00   13.30
   5   0  13    0.20    5.80
   5   0 -13    2.20    9.00
   0   5 -13   -0.70    5.40
   0   5  13   -1.40    8.20
  -5   5  13   -4.30    3.80
   0   5 -13    5.40    5.10
   0   5  13    2.10    5.20
   5   0  13   -0.70    8.70
   5   0 -13   -0.60    7.00
   3   3 -13    3.50    8.50
   6  -3 -13    8.40   14.30
  -3   6  13    1.30    7.90
   3   3  13   -2.20    2.80
  -3   6  13   -0.20    4.30
  -3   6 -13   -0.90    9.10
   3   3  13   12.40   12.30
   6  -3 -13    7.20   14.50
   6  -3  13    0.10    4.70
   3   3 -13   10.80    5.60
  -3   6 -13    5.00    5.60
  -2   6 -13   -0.50    7.30
   2   4  13   11.90   15.40
   6  -2  13    3.90    6.40
  -2   6 -13    0.60    4.90
  -4   6  13   13.40   25.80
   6  -4 -13   17.70   17.60
   2   4  13   -1.30    3.30
   4   2 -13    4.20    4.90
   4   2 -13    0.10    5.90
   6  -2  13   26.10   17.50
  -6   4 -13   -6.40    7.60
  -4   6  13   11.00    9.50
  -2   6  13    8.20   11.60
   6  -2 -13    1.10    8.10
   6  -2 -13    5.80    6.00
   2   4 -13    0.90    3.50
   4   2  13    7.30    9.30
  -4   6 -13   -2.00    6.40
  -2   6  13   -0.50    5.10
   2   4 -13    5.00   10.20
  -4   6 -13    9.70   10.20
   4   2  13    3.20    4.90
   6  -4  13   -1.90    8.00
  -1   6 -13   39.40   16.20
   1   5  13   41.80   27.50
   5   1 -13   37.50   26.50
   6  -5 -13    8.60   14.00
  -5   6  13   36.20   22.00
  -6   5 -13   29.70   20.80
   6  -1  13   21.50   15.50
  -1   6 -13   28.80   21.40
   6  -1  13   12.40   16.70
   5   1 -13   25.80   13.30
   6  -5  13   17.80   19.10
   6  -1 -13    5.60   11.30
  -5   6 -13   18.40   16.10
   5   1  13   12.70   12.00
   1   5 -13   32.10   10.10
  -1   6  13   18.30   12.90
  -5   6 -13   16.70   17.30
   1   5 -13   64.09   34.10
  -6   5  13   12.90   13.20
   6  -1 -13   13.60   14.80
   5   1  13   30.30   23.90
  -1   6  13   73.49   35.40
   6  -6 -13   -2.50    8.80
   6   0 -13   11.80   10.30
  -6   6  13   16.40   14.40
   6   0 -13   22.70   17.10
   6   0  13   31.70   17.80
   0   6 -13    9.30   14.10
   0   6  13   16.00   10.20
   6   0  13    5.00    7.00
  -6   6 -13   15.90   13.70
   0   6  13   33.90   21.60
  -4   7  13   24.10   19.30
   4   3 -13   -2.30    8.70
  -3   7 -13   -7.20    4.20
   7  -3  13    3.70    7.60
   3   4  13   16.50   14.90
  -3   7 -13   -2.20    5.10
  -4   7  13   17.30   15.50
   7  -4 -13   -1.90    8.30
   3   4  13    0.50    3.20
   4   3  13    0.00    3.60
   4   3  13    6.40    9.40
  -3   7  13    2.60    5.80
   7  -4  13   -1.90    6.70
   7  -3 -13   -2.00    5.50
   3   4 -13   -6.90    7.20
  -4   7 -13    3.00    5.60
  -4   7 -13   -8.30    5.30
   7  -3 -13   -2.60    5.70
  -3   7  13    7.40   12.90
   7  -2  13    0.50    6.00
   7  -2  13   -2.70    8.50
  -2   7 -13   14.70    9.10
   5   2 -13   17.30   19.60
  -7   5 -13   15.80   16.60
   2   5  13    5.20   11.80
  -5   7  13   15.20   13.30
   2   5  13   10.30    7.20
  -2   7 -13   15.60   15.90
   7  -5 -13    4.30   11.10
  -5   7 -13    0.20    7.30
   5   2  13   29.30   22.30
  -5   7 -13   13.20   10.20
   5   2  13    7.00    6.00
  -2   7  13    0.20    6.70
   7  -2 -13   -6.30    6.10
   7  -2 -13   16.80   10.60
   2   5 -13   -4.50    4.10
   7  -5  13    9.40   10.60
  -2   7  13   29.60   16.60
   6   1 -13   18.60    8.10
  -6   7  13    5.00    6.90
   7  -1  13    6.60   10.90
   1   6  13    8.10    5.10
   7  -6 -13    1.30   13.80
  -7   6 -13   13.60   15.30
   6   1 -13   13.00   15.60
   7  -1  13   24.50   20.40
   1   6  13   23.10   20.50
  -1   7 -13    3.80    7.60
  -1   7  13   15.60   13.80
  -6   7 -13   -4.10    4.70
   7  -1 -13   -2.60    5.00
  -1   7  13   10.90    7.70
   7  -1 -13   10.00    6.80
   1   6 -13   -4.50    4.60
   6   1  13   14.70   11.20
  -7   6  13    0.20    7.60
   6   1  13   11.00   15.00
   7   0 -13   12.10   15.00
   0   7 -13   15.00   17.70
   0   7  13   -2.40    9.30
  -7   7  13   -9.80    3.80
   7   0 -13    1.80    4.50
  -7   7 -13    5.70   13.20
   7   0  13   -1.40    4.10
   0   7  13    4.30    4.60
  -4   8  13   -1.80    7.70
  -4   8 -13   -0.80   13.00
   4   4  13   -0.50    1.80
   8  -4  13    8.30   11.30
   8  -4 -13   -7.40    6.10
   4   4  13    5.40    9.30
  -4   8  13    3.70    6.20
   4   4 -13    0.50    9.20
  -4   8 -13   -2.10    3.20
   8  -5 -13   55.89   32.40
  -3   8 -13   37.70   26.00
   3   5  13   47.80   26.10
  -5   8  13   25.00   17.60
  -5   8  13   28.80   21.40
   8  -3  13   48.40   27.10
  -3   8 -13   20.60   11.10
   5   3 -13   32.30   20.20
   3   5 -13   -0.30    9.10
   5   3  13   21.00   18.60
   5   3  13   17.70    8.30
  -5   8 -13   24.10   16.70
   8  -3 -13   -2.50    8.30
  -3   8  13   53.89   28.70
   8  -5  13   33.40   22.10
  -3   8  13   28.00   16.70
   8  -3 -13   49.99   26.70
  -5   8 -13   28.80   27.50
   6   2 -13    0.00    6.90
   8  -2  13   -1.90    5.10
   2   6  13   -0.10    5.80
  -6   8  13   28.00   19.20
  -2   8 -13   25.50   20.00
   8  -6 -13   18.70   19.50
  -8   6 -13   38.60   26.00
   8  -2  13    4.20    8.80
   2   6 -13    3.90    5.70
   8  -2 -13    7.70    9.70
  -2   8  13   21.30   12.20
  -6   8 -13   -9.30    9.40
   6   2  13   11.60    5.80
   8  -2 -13    2.20    7.60
  -6   8 -13    9.20   11.10
   6   2  13   15.00   15.20
  -2   8  13   18.60   17.90
   8  -6  13    6.40    7.50
   7   1 -13   16.80   16.70
  -7   8  13   14.00   10.80
   8  -1  13    6.50    8.10
   1   7  13    6.10   10.30
  -8   7 -13   -4.70    5.20
  -1   8 -13   14.60   17.70
   8  -7 -13   18.20   21.00
   8  -1  13    0.70    9.80
   8  -1 -13   12.90   15.60
  -1   8  13    1.60    8.20
   8  -1 -13    1.30    4.00
  -8   7  13   10.60   10.70
  -7   8 -13   -3.80    4.70
  -1   8  13    2.40    3.00
   7   1  13    7.20   10.40
   7   1  13   13.20    7.20
   1   7 -13   11.30    9.20
   0   8 -13    9.40   10.60
   8   0  13   -2.40    3.20
   0   8  13   -1.60    4.60
  -8   8  13   -2.60   11.80
  -8   8 -13   -1.10    6.10
   8   0  13   -0.40   10.10
   8   0 -13   -6.90    8.10
   5   4 -13   -1.20    5.70
   9  -5 -13   16.90   14.50
   9  -4  13   -3.70    4.50
   4   5  13   -1.50    7.50
  -4   9 -13   12.00    8.50
  -5   9  13    5.10    8.40
  -5   9  13   27.50   30.00
  -4   9 -13   -6.60    8.80
   5   4  13   18.10   12.90
   9  -4 -13    2.70    6.90
   9  -5  13   -2.60    5.70
   9  -4 -13   12.80   22.10
  -4   9  13    4.80    6.50
  -5   9 -13    0.40    4.60
  -5   9 -13   13.40   13.50
  -4   9  13    2.60    5.70
   4   5 -13   -1.10    8.00
  -6   9  13    6.10   10.70
  -3   9 -13    8.10   13.90
   6   3 -13   16.20   12.40
   3   6  13    6.10    8.50
   9  -6 -13  -10.30    4.40
   9  -3  13   -6.10    5.80
   9  -3 -13    5.30    7.20
   9  -3 -13   -3.80    6.50
  -6   9 -13    2.80   12.00
   6   3  13   12.70   10.20
  -3   9  13    8.80    7.40
  -6   9 -13   12.00   12.00
   9  -6  13   -3.30   10.60
   3   6 -13   -2.10    7.50
  -3   9  13   -0.70   10.60
   9  -7 -13    2.30    8.20
  -7   9  13   -0.60    5.20
  -2   9 -13    0.40    8.90
   9  -2  13   -7.70    4.20
   2   7  13    5.80    9.00
  -9   7 -13   -5.70    6.40
   9  -2 -13   -4.90    4.90
   9  -2 -13    9.80   12.00
   9  -7  13   17.50   15.60
  -2   9  13   -0.60    7.30
   7   2  13    0.70    5.80
  -2   9  13   -0.60    2.90
  -7   9 -13   -9.00    6.00
   0   0 -14   -4.70    4.20
   0   0  14    7.70   12.70
   1  -1  14   25.70   20.30
   1   0  14    6.20    9.90
  -1   1  14    1.60    5.00
   0  -1 -14    3.90    5.90
   0   1 -14   -1.60    7.40
   1  -1 -14   40.30   25.10
  -1   1 -14    1.30    8.60
  -1   0  14   -2.90    5.70
   0   1  14   -1.20    4.30
   1   0 -14   -2.10    7.70
  -1   0 -14    2.50    8.10
   1   0 -14    2.50    6.10
   0   1 -14   13.10   15.80
   0  -1  14   22.20   20.80
   1   1  14  243.98   86.59
   1  -2 -14  196.88   73.99
   2  -1 -14  275.37   88.09
   2  -1 -14  262.47   77.79
  -2   1  14  253.87   73.59
  -1  -1 -14  348.57   93.99
   1   1 -14  317.17   91.89
  -1   2 -14  305.57   92.49
   2  -1  14  312.57   78.59
  -1   2 -14  255.37   74.59
  -2   1 -14  272.87   83.89
  -1   2  14  234.18   71.09
   1   1 -14  298.67   77.29
   0   2  14  325.17   77.49
   2   0 -14  277.07   91.19
  -2   0 -14  207.38   78.09
   0  -2 -14  344.97   96.69
  -2   2  14  252.47   73.49
   2   0 -14  299.77   82.69
   2   0  14  307.57   78.39
   0   2  14  171.18   69.09
   2  -2 -14  384.86   94.29
  -2   2 -14  403.86   91.09
   2  -2  14  417.56   91.69
   0   2 -14  215.08   75.69
   0   2 -14  394.06   85.99
   1   2  14    4.40    6.70
  -1   3 -14   -2.30    8.80
  -3   2 -14   14.00   13.00
   3  -2 -14    2.30    6.90
   2   1 -14    2.70    5.10
  -2   3  14   -1.60    4.70
   1   2  14    7.90   11.90
   3  -1  14    5.80    8.20
  -1   3 -14   -2.40    7.60
   2   1 -14   11.00   12.90
   1   2 -14    1.30   10.00
  -3   1 -14    3.70    6.80
  -2   3 -14   -2.20    4.10
  -1   3  14    2.20    7.40
   2  -3 -14   15.20   14.80
  -1   3  14   17.30   12.80
   2   1  14   -7.20    3.10
   3  -2  14    0.70    5.50
   1   2 -14   -1.40    4.10
   2   1  14   -3.00    5.90
   3  -1 -14   -2.10    7.30
  -2   3 -14   -1.90    6.40
  -3   2  14    2.40    7.40
   3  -1 -14   -1.70    5.70
   3   0  14  163.98   52.49
   0   3  14  201.58   53.79
   3   0  14   85.59   40.00
   3  -3 -14  209.38   68.59
   0   3  14  110.59   43.50
   0   3 -14  159.88   59.09
   3  -3  14  225.18   63.49
   3   0 -14  264.97   67.99
  -3   3  14  158.08   54.39
   0   3 -14  205.38   53.99
  -3   3 -14  198.28   62.99
  -2   4  14   19.00   24.50
   2   2 -14   -7.00    5.90
  -2   4 -14    1.70    8.60
   4  -2 -14   -2.30    7.10
  -4   2 -14    0.40    5.20
   2   2  14    3.40    5.50
  -2   4  14    0.40    5.60
   4  -2 -14   -0.50   10.40
   2   2  14   -2.40    3.10
  -2   4 -14   -4.00    5.80
   4  -2  14    5.50    9.10
   2   2 -14   -1.30    3.90
  -3   4  14   -0.40    6.50
   4  -1  14   -3.90    4.20
   1   3  14   -0.40    3.70
   1   3  14    4.50    7.80
   3   1 -14    0.60    6.50
  -1   4 -14    3.00    5.80
   3   1 -14   -1.60    3.90
  -4   3 -14   -0.60    6.50
   4  -3 -14    0.20    8.10
  -1   4 -14    3.10   10.30
   4  -3  14    1.80    6.70
   3  -4 -14   -2.20    9.90
  -3   4 -14    3.20    6.60
  -3   4 -14   -0.90    4.20
   1   3 -14    2.50    4.00
  -4   3  14    9.10    7.20
   3   1  14   -2.00    3.30
  -1   4  14    1.20    5.60
   1   3 -14    4.00    7.80
   4  -1 -14    8.50   10.40
  -1   4  14    7.90    8.10
   4  -1 -14   -1.50    5.40
   3   1  14    4.70    8.50
  -4   4  14  163.98   58.49
   0   4  14  216.68   72.29
   0   4 -14  209.78   56.99
   0   4 -14  241.38   77.99
   4   0 -14  301.07   85.29
   0   4  14  204.18   56.19
   4  -4 -14  268.87   80.39
  -4   4 -14  259.37   73.19
   4   0 -14  254.77   68.39
   4   0  14  170.18   56.19
  -3   5  14   15.50   14.00
   5  -2  14    4.80    7.50
  -2   5 -14   -5.80    3.60
   3   2 -14   -0.60    3.30
   2   3  14   -1.80    9.70
   3   2 -14   17.30   15.10
  -5   3 -14    7.50   10.60
  -2   5 -14   -0.20    7.90
   5  -3 -14    1.90   10.70
   2   3  14    2.50    5.40
   2   3 -14    1.60    4.70
   3   2  14    2.70    7.20
  -3   5 -14    9.70   14.10
   2   3 -14   -1.00    5.00
  -2   5  14   -1.40    7.60
   5  -2 -14   17.00   15.30
   3   2  14    5.90   13.40
   5  -2 -14   -5.60    5.10
   5  -3  14   -6.80    6.00
  -2   5  14    7.40    7.60
  -3   5 -14   -0.90    4.80
  -4   5  14   53.19   33.40
  -1   5 -14  176.48   61.19
   5  -1  14  120.29   43.40
   1   4  14   63.19   39.20
  -1   5 -14   98.89   36.00
   4   1 -14  126.89   40.20
   1   4  14  148.89   41.90
   4   1 -14  181.58   63.89
  -5   4 -14  106.09   47.10
   5  -4 -14  101.89   49.70
  -4   5 -14  101.49   52.69
  -4   5 -14  158.28   52.69
   4   1  14  195.88   51.89
  -5   4  14  187.38   56.39
  -1   5  14  114.29   46.70
   5  -1 -14  160.48   61.69
   5  -4  14  150.88   54.39
   4   1  14  103.69   43.40
   5  -1 -14  101.19   42.40
   1   4 -14  171.18   56.59
   1   4 -14  177.88   40.90
  -1   5  14  130.29   40.10
   0   5  14   33.60   22.70
   5   0 -14    4.50    5.70
  -5   5 -14   -5.00    3.70
   5   0 -14    5.30   12.80
   0   5  14    4.90    6.90
   5  -5 -14   -0.60    7.70
  -5   5  14   44.50   26.20
   5   0  14   11.80   11.00
   5   0  14   13.40   12.20
   0   5 -14    8.30    7.70
   0   5 -14   20.40   14.10
   3   3  14   76.39   39.40
  -3   6  14  108.69   49.60
  -3   6 -14  144.59   58.09
   3   3 -14  124.59   49.90
   6  -3  14   42.20   30.30
   3   3 -14  124.29   30.70
  -3   6 -14  121.39   40.10
  -3   6  14  149.19   45.90
   3   3  14  160.38   41.70
   6  -3 -14   79.09   36.90
  -2   6 -14  278.67   78.09
   4   2 -14  148.19   54.29
   2   4  14  140.59   41.20
   6  -4 -14  139.09   54.09
  -6   4 -14  218.38   70.79
  -4   6  14  133.89   46.60
   2   4  14  234.18   68.49
   6  -2  14  204.38   56.59
  -2   6 -14   89.09   34.60
   6  -2 -14  153.08   50.69
   2   4 -14  203.98   62.09
  -4   6 -14  167.28   61.79
  -2   6  14  145.89   46.20
   6  -2 -14   54.79   36.20
  -4   6 -14  137.59   47.60
   4   2  14  144.09   40.90
   4   2  14  130.89   50.59
   6  -4  14  168.28   58.49
  -2   6  14  153.38   56.49
  -1   6 -14    1.90    7.40
  -6   5 -14   12.80   14.40
   5   1 -14   -8.40    6.60
   6  -1  14   -4.50    4.90
   5   1 -14    7.30    5.60
  -1   6 -14    3.20    5.50
   6  -5 -14    3.20    7.50
   6  -1  14   -5.30    5.90
   1   5  14    4.40    9.40
  -5   6  14    1.80    5.20
   1   5  14   -1.10    3.50
   6  -1 -14   -0.60    6.80
  -5   6 -14    1.10    7.20
  -1   6  14    4.00    5.00
   1   5 -14    1.00    2.70
  -6   5  14    1.60    5.50
   5   1  14   -0.70    5.70
   6  -1 -14    4.50    8.60
   6  -5  14    3.60   14.00
  -1   6  14   -2.00    6.70
   1   5 -14   -2.30    4.30
   5   1  14    3.40   11.00
   0   6 -14    7.10    3.90
  -6   6  14   26.90   20.90
  -6   6 -14   -0.10    7.90
   6   0 -14    6.60   10.30
   6   0  14   10.00   16.20
   0   6  14   19.40   12.90
   0   6  14   -6.30    8.90
   6  -6 -14    3.20   15.50
   6   0  14   21.60   15.50
   0   6 -14   28.30   21.30
   6   0 -14   18.10   15.00
   4   3 -14    1.10    3.90
   3   4  14    4.20    6.90
   7  -4 -14    0.60    7.30
   3   4  14    0.30    9.40
  -3   7 -14   -2.40    6.40
  -4   7  14    4.30    8.80
   7  -3  14    3.00    7.00
  -3   7 -14    4.20    6.30
   7  -4  14    6.10    6.80
  -4   7 -14   -5.90    4.80
   4   3  14   12.90   11.30
   3   4 -14   -9.00    7.20
   7  -3 -14   -9.60    8.50
   4   3  14    0.40    5.00
   7  -3 -14   17.80   18.00
  -3   7  14   13.70   13.30
  -4   7 -14    8.20   11.10
  -3   7  14    3.30   11.60
  -2   7 -14   99.59   44.40
  -5   7  14   34.10   22.80
   5   2 -14   35.80   13.80
   7  -5 -14   34.50   24.30
   5   2 -14   52.89   32.60
   7  -2  14   26.90   20.00
  -7   5 -14   82.39   38.60
   2   5  14   71.59   32.60
   2   5  14   47.30   17.90
  -2   7 -14   93.49   26.40
   7  -2 -14   37.40   32.00
  -2   7  14   35.80   27.10
  -2   7  14   94.89   29.60
  -5   7 -14   57.69   27.30
   5   2  14   48.00   35.10
   7  -2 -14   76.19   30.80
  -5   7 -14   83.59   45.50
   5   2  14   54.39   21.30
   7  -5  14   34.00   24.30
   2   5 -14   36.40   28.60
  -7   6 -14    6.10    7.50
   7  -6 -14   13.00   14.40
   7  -1  14   -1.20    6.90
   1   6  14   -0.60   10.00
   7  -1  14   11.00   10.90
   6   1 -14    4.90   10.50
  -6   7  14    9.10    8.70
  -1   7 -14   -0.20    6.00
   1   6  14   -2.30    3.10
   6   1 -14   13.90    7.50
   6   1  14    6.30    6.70
  -1   7  14   12.10    7.70
  -1   7  14   10.20   11.40
  -7   6  14   40.10   26.30
   6   1  14   44.80   30.00
  -6   7 -14   -1.40    7.80
   1   6 -14    5.50    6.50
   7  -1 -14   48.10   30.40
   7  -1 -14    2.60    6.50
   7   0 -14   -2.00    3.80
   7   0  14    0.60   11.40
   0   7 -14    0.60    5.30
   7   0  14    0.10    5.50
   0   7  14    1.30    6.70
   7   0 -14   -2.60    5.30
  -7   7 -14    9.70    9.00
   0   7  14   -0.10    2.40
  -7   7  14    7.80   11.90
  -4   8 -14    2.70    5.30
  -4   8 -14   37.40   19.20
  -4   8  14   -2.30    5.90
   8  -4  14   23.00   16.10
   4   4 -14   34.40   23.50
  -4   8  14   32.50   21.40
   8  -4 -14   19.70   13.80
  -3   8 -14    6.30    4.50
   8  -5 -14   29.30   22.90
  -3   8 -14    2.50    8.50
   3   5  14   -8.90    4.90
   5   3 -14   -3.80    5.70
  -5   8  14   10.60   10.10
   8  -3  14   -6.90    4.40
   8  -5  14   -6.90   10.10
   5   3  14   -3.60    2.20
  -5   8 -14   -0.80    6.60
  -5   8 -14   -1.50    4.70
  -3   8  14    5.00    7.30
   8  -3 -14    0.60    9.50
   3   5 -14   -0.50    6.20
   8  -3 -14   -0.20    8.40
   5   3  14   -2.20    5.70
  -3   8  14  -11.50    6.70
  -2   8 -14   38.60   31.60
   8  -2  14   90.09   54.69
   8  -2  14   69.19   31.90
  -8   6 -14  127.79   50.69
   2   6  14  122.39   48.10
  -6   8  14  167.38   51.69
   8  -6 -14  138.49   57.39
   6   2 -14  100.59   41.60
   6   2  14  136.29   33.40
  -2   8  14  118.09   46.30
  -6   8 -14  149.99   47.10
   8  -2 -14  142.69   59.89
   8  -2 -14  145.39   41.70
   2   6 -14   42.80   26.90
   8  -6  14  127.69   48.80
  -2   8  14   51.29   23.80
   6   2  14  258.77   71.29
  -7   8  14  117.89   45.10
  -1   8 -14   47.20   30.00
  -8   7 -14   55.99   29.50
   7   1 -14   32.80   27.00
   8  -1  14   56.89   33.30
   1   7  14   49.80   28.40
   8  -7 -14   50.59   35.80
   8  -1 -14   25.90   28.50
   1   7 -14   27.50   21.00
  -8   7  14   31.40   26.20
  -1   8  14   54.69   31.00
  -7   8 -14   51.89   28.10
   8  -1 -14   50.09   21.30
   7   1  14   63.09   33.30
   0   0 -15   -1.00    6.40
   0   0  15   -5.00    5.50
   0   1 -15   -2.20    6.90
   0  -1 -15   -8.50    5.70
   1   0  15    6.50    6.10
   1  -1 -15   -9.00    6.00
  -1   1 -15   -9.50    4.90
   0   1  15   15.50   15.70
   1  -1  15    8.90   12.10
   1   0 -15    1.90    6.80
  -1   0 -15   -4.20    7.00
  -1   1  15   -3.00    3.80
   1   1 -15    2.20    6.20
   1   1 -15   -0.50    7.00
   1   1  15   11.80   12.70
   1  -2 -15    6.10   10.00
  -1   2  15   16.40   11.00
  -1   2 -15    7.70   12.00
  -2   1 -15   17.00   11.80
  -1  -1 -15   -5.70    5.90
   2  -1 -15    1.30    5.00
   2  -1  15    6.90    7.80
  -1   2 -15    7.20   10.50
  -2   0 -15   -3.00    7.30
   0   2  15   -6.10    5.20
   0   2 -15   -9.00    6.00
  -2   2  15    2.70    7.70
   2   0  15    4.60    7.50
   2   0 -15    3.50    9.40
   2   0 -15    5.10   10.40
   2  -2  15   -0.90    7.90
   0   2 -15    5.70    7.80
  -2   2 -15    4.40    6.80
   2  -2 -15   20.90   19.00
  -2   3  15   -0.90    5.20
  -1   3 -15   15.10   16.80
   1   2  15    6.90   11.50
   3  -2 -15   -4.60    5.60
   3  -1  15    9.90    6.50
  -3   2 -15    5.60    6.90
   2   1 -15   -6.90    4.20
  -1   3 -15    8.20   13.40
   2   1 -15    1.10    7.60
  -3   1 -15    5.30   10.50
  -2   3 -15   -8.20    5.00
   3  -2  15   10.70   14.70
   1   2 -15    2.20    5.70
   2   1  15   12.90   13.80
   3  -1 -15   11.70   18.50
  -1   3  15   -0.90    7.10
   2  -3 -15   -1.90   10.00
   1   2 -15    3.40    7.50
   0   3 -15   -3.70    5.60
   0   3  15   21.50   13.10
   3  -3 -15   -2.20    7.30
   0   3 -15   35.20   27.00
   0   3  15    2.20    6.40
  -3   3 -15   18.50   17.70
   3   0  15   22.80   18.40
   3   0 -15   30.50   20.90
  -3   3  15    9.80   13.00
   3   0 -15   -6.10    6.40
  -4   2 -15    1.40    6.70
   4  -2 -15   29.70   20.70
  -2   4  15    0.90    7.00
   2   2 -15   -6.50    6.60
   2   2  15    4.80    7.50
  -2   4 -15    4.30    5.70
   2   2  15    0.10    7.00
  -2   4 -15   -8.40    3.60
   2   2 -15    1.20    4.00
   4  -2  15    0.90    5.90
   3   1 -15   -5.90    5.40
  -1   4 -15    1.80    8.80
  -3   4  15    1.00    6.00
   4  -1  15    1.70    6.70
   4  -3 -15   11.30   15.10
   1   3  15    2.60    5.30
  -4   3 -15   18.80   19.10
  -1   4 -15   -3.20    6.90
   3   1 -15   14.40   12.90
   1   3  15   -3.30    6.60
   4  -1 -15    2.90    9.60
   3   1  15   -3.40    4.20
   1   3 -15    1.90    9.00
  -4   3  15    3.50    6.90
   4  -1 -15   -4.80    5.20
   3  -4 -15   11.00   11.60
   4  -3  15   18.30   16.30
  -3   4 -15    0.70    8.20
  -1   4  15   -0.40    6.50
   1   3 -15    8.00   12.30
   3   1  15    6.30    8.50
  -1   4  15    2.40    5.60
   0   4  15   -8.30    7.40
   4  -4 -15    2.70    7.70
   0   4 -15   33.70   24.30
   4   0  15    9.80   10.50
   0   4  15   11.10    9.90
   4   0 -15   -1.20    7.60
   4   0 -15   22.50   22.20
  -4   4 -15   -5.70    3.70
   0   4 -15    6.10    7.00
  -4   4  15   -4.10    4.00
   5  -3 -15   -1.20   11.80
   2   3  15   17.70   11.40
  -5   3 -15    5.60   17.50
  -2   5 -15   11.50   15.40
  -2   5 -15    2.50    8.50
   3   2 -15    3.20    9.40
   3   2 -15    4.40    8.40
   2   3  15    6.00   11.60
   5  -2  15    6.30    7.00
  -3   5  15   -3.50    6.30
   3   2  15   24.60   22.30
  -3   5 -15   15.60   12.20
   5  -2 -15   -2.30    6.70
   3   2  15    9.10   11.30
  -3   5 -15    2.40   10.20
   5  -3  15    1.40    6.70
   2   3 -15   -1.50    5.10
   5  -2 -15   -5.20    5.70
   2   3 -15   12.20   11.50
  -2   5  15   11.80    9.50
  -1   5 -15    4.30    9.60
   5  -4 -15   -6.00    6.90
  -5   4 -15    9.30   16.30
   4   1 -15    4.20   10.00
   4   1 -15   11.80    8.10
   1   4  15   -3.10    4.40
   1   4  15   22.20   19.20
   5  -1  15   -7.50    3.40
  -4   5  15   -0.40    5.70
  -1   5 -15   -2.30    4.70
  -4   5 -15    4.90    6.90
   4   1  15    3.50    8.00
   5  -1 -15   -3.50    5.50
   5  -1 -15    2.20    6.50
  -1   5  15    4.60    8.70
  -5   4  15   -3.20    4.80
   4   1  15   16.80   10.10
  -1   5  15    2.30    8.90
   5  -4  15   -4.50    5.90
   1   4 -15    0.60    5.30
   1   4 -15   25.50   20.60
   0   5 -15    8.40   10.00
   0   5 -15   23.70   13.70
   0   5  15   12.70   14.00
   0   5  15    1.30    7.20
   5  -5 -15    1.70    8.00
   5   0 -15   15.80   11.70
  -5   5 -15    1.10    7.50
  -5   5  15   21.30   15.30
   5   0  15   -1.70    5.60
   5   0 -15    7.00   12.10
   5   0  15  -12.40    5.30
   3   3 -15   -7.00    5.50
   6  -3  15    7.00    9.30
  -3   6 -15    1.50    6.10
  -3   6 -15   -5.50    6.20
   3   3  15    3.40    8.00
   3   3  15   -1.40    3.80
  -3   6  15   -1.30    6.40
   3   3 -15   -1.00    3.50
   6  -3 -15  -10.80    5.60
  -2   6 -15    6.10    9.50
  -4   6  15   -5.10    3.40
  -2   6 -15    0.40    4.50
   6  -2  15    0.00    7.20
   2   4  15   13.20    9.70
   2   4  15    1.60    6.10
  -6   4 -15    3.00   10.30
   4   2 -15   -2.70    4.10
   6  -4 -15    0.10   12.60
   4   2 -15    5.30    5.50
  -4   6 -15   -6.40    5.90
  -2   6  15    3.70    6.70
   2   4 -15   -0.30    8.00
   6  -2 -15   -4.70    4.90
   4   2  15    8.30    7.70
  -4   6 -15   -1.90    7.50
  -2   6  15   -1.90    5.00
   4   2  15    2.10   10.90
   2   4 -15   14.50    7.90
   6  -4  15   -4.90    7.20
   6  -2 -15    6.40    7.60
  -1   6 -15    9.90    9.10
  -6   5 -15   -1.20    6.20
  -1   6 -15    4.50   15.50
   1   5  15   13.10   10.90
   5   1 -15    0.60    3.20
   6  -1  15   17.00   15.80
   6  -5 -15   -1.70    8.20
   5   1 -15    4.00   10.60
   1   5  15   -3.90    7.80
  -5   6  15    5.60   11.90
  -6   5  15   -0.70    4.30
   1   5 -15    2.20    4.50
  -1   6  15    1.20    7.50
   6  -1 -15    4.90    7.70
  -1   6  15   13.50    7.70
   5   1  15   -1.70    4.70
   6  -1 -15   22.00   10.90
  -5   6 -15   -6.00    3.80
   5   1  15   -0.50    8.20
   1   5 -15   12.30   10.00
   6   0  15    3.40    7.50
   6   0  15   -0.80   10.10
   6   0 -15   23.00   23.70
   0   6 -15    6.40   13.80
   0   6  15   -0.50    3.80
  -6   6  15   15.30   12.40
   0   6 -15   -2.40    2.40
  -6   6 -15    7.40   10.60
   6   0 -15   10.50    8.00
   0   6  15   12.90   13.30
   3   4  15   12.80   17.90
  -4   7  15   17.50   14.30
   4   3 -15   11.90   15.90
   3   4  15   18.20   11.10
  -3   7 -15   23.40   22.10
   7  -4 -15   11.50   12.50
  -3   7 -15    2.80    4.70
   7  -3  15    5.30   10.70
  -3   7  15   12.30   11.20
   3   4 -15   15.20   16.60
   7  -3 -15   27.40   16.50
  -4   7 -15   26.20   21.40
  -4   7 -15   -0.20    6.00
   4   3  15    9.40   16.60
   7  -4  15   13.20   13.20
   4   3  15    7.10    7.90
  -3   7  15   -0.70   15.70
  -5   7  15   14.00   14.90
   5   2 -15    8.60   12.30
   2   5  15   22.40   12.10
   7  -5 -15   -4.10    6.30
  -7   5 -15   33.60   23.60
  -2   7 -15    3.80    5.80
   2   5  15    8.90   15.90
   5   2 -15   26.60    8.60
   7  -2  15    5.10    9.00
  -2   7 -15   12.90   18.50
  -2   7  15    0.60    5.70
   2   5 -15   -1.30    8.70
  -5   7 -15   -1.00    8.20
   7  -2 -15   38.60   31.00
   7  -5  15   38.80   27.00
   7  -2 -15    1.10    8.00
   5   2  15    3.60    7.10
  -2   7  15   53.09   29.80
   5   2  15   27.60   23.80
   1   6  15    0.50    5.00
  -7   6 -15   -2.80    7.60
  -6   7  15    9.60    8.10
   1   6  15   -2.80    5.90
   7  -6 -15    0.40    7.00
   6   1 -15    5.90   15.30
   7  -1  15    7.00    7.30
  -1   7 -15   -1.30    5.00
   6   1 -15    2.90    4.00
   7  -1  15   -4.70    7.10
   7  -1 -15  -10.10    4.10
  -1   7  15    3.70    5.50
   6   1  15    0.40    5.50
   7  -1 -15   -3.30    8.00
  -6   7 -15    1.50    5.70
  -1   7  15   -4.80    6.60
   1   6 -15    3.10    7.80
  -7   6  15    2.10   10.80
   6   1  15   -8.50    7.00
   0   0 -16  198.38   75.59
   0   0  16  292.47   79.49
   1   0  16   29.00   21.40
   1   0 -16   19.40   20.60
  -1   1  16   85.99   35.90
   0  -1 -16   54.19   36.70
   0   1 -16   57.29   31.70
   0   1  16   46.90   25.50
  -1   0 -16    7.70   13.10
   1  -1 -16   51.69   32.20
  -1   1 -16   75.69   35.30
   1   1  16   16.70   16.40
   1   1 -16   69.09   30.70
  -1   2 -16   67.29   32.00
   1  -2 -16   90.79   44.00
   1   1 -16   86.59   44.50
   2  -1 -16   66.29   34.60
   2  -1  16  145.09   49.60
  -1   2  16   58.89   30.10
  -2   1 -16   13.80   14.60
   0   2  16    7.20    9.30
   2   0  16   32.50   19.90
   0   2 -16   46.40   30.80
   2   0 -16    4.40    9.90
  -2   2  16   39.20   23.90
   2  -2 -16   20.40   20.90
   0   2 -16   47.00   25.20
  -2   0 -16   79.39   49.30
   3  -1  16   79.79   36.50
   1   2  16   95.49   36.90
  -2   3  16   88.79   39.10
  -3   2 -16  116.39   49.30
  -1   3 -16   84.49   35.50
   2   1 -16   40.10   35.40
   2   1 -16   63.29   31.10
   3  -2 -16   74.99   38.70
  -1   3 -16   66.39   40.90
   3  -2  16   36.00   26.60
  -3   1 -16   35.50   30.90
   2   1  16   65.69   29.80
  -1   3  16   64.69   31.80
   2  -3 -16  131.79   56.29
   1   2 -16   74.09   40.90
   1   2 -16   60.69   30.40
  -2   3 -16  109.89   43.70
   3  -1 -16   79.49   39.00
   3  -3 -16   33.70   25.80
  -3   3  16   31.60   19.00
  -3   3 -16   76.79   40.00
   3   0  16   35.20   22.60
   0   3  16   72.29   32.50
   0   3 -16   50.19   33.60
   3   0 -16   15.50   19.90
   0   3 -16   28.40   18.70
   3   0 -16   56.69   29.90
   2   2 -16  269.27   64.49
  -4   2 -16  398.36   98.59
   4  -2 -16  170.88   62.09
   2   2 -16   82.69   52.19
   2   2  16  165.38   55.19
  -2   4  16  165.68   58.19
  -2   4 -16  187.98   62.19
   4  -2  16  286.57   75.39
  -2   4 -16  221.78   82.89
   3   1 -16   38.70   20.40
  -4   3 -16   71.59   37.40
   4  -3 -16   38.50   25.90
  -3   4  16   49.10   26.00
   3   1 -16    8.90   15.20
  -1   4 -16   52.39   33.60
   1   3  16   40.00   24.40
   4  -1  16   63.99   31.60
   4  -1 -16   52.09   33.60
  -3   4 -16   29.20   21.70
   4  -3  16   35.50   26.40
  -1   4  16   32.00   20.80
   3   1  16    5.40   11.00
   1   3 -16   39.20   21.00
   4   0 -16    0.00    8.90
  -4   4  16   35.60   22.90
   4   0 -16   29.60   27.90
   0   4  16   26.00   17.50
   0   4 -16   54.89   24.60
   4  -4 -16   13.70   14.70
  -4   4 -16   21.10   20.00
   0   4  16    1.70    9.00
   0   4 -16   53.49   33.90
   2   3  16   39.60   28.40
   5  -3 -16   69.99   36.40
   3   2 -16   19.40   15.70
   3   2 -16   30.50   22.80
  -5   3 -16    1.70   14.10
   2   3  16    6.20    7.40
  -3   5  16   29.90   21.10
  -2   5 -16    5.10   15.80
  -2   5 -16    1.20    7.40
   5  -2  16   19.00   17.70
   3   2  16    5.90    9.70
   5  -2 -16   39.10   23.20
  -3   5 -16    2.70    8.10
   5  -3  16   27.50   20.10
   3   2  16    6.00   11.60
   2   3 -16   34.10   26.30
   2   3 -16   24.00   14.20
  -1   5 -16   23.80   16.60
   5  -1  16   28.10   20.80
  -1   5 -16   65.49   37.00
   1   4  16   27.50   23.30
  -5   4 -16   22.80   24.40
   1   4  16   27.90   18.70
   4   1 -16   14.40   11.30
   5  -4 -16   -8.80    5.90
   4   1 -16    3.30   13.10
  -4   5  16   18.30   15.70
   4   1  16   42.30   30.40
   1   4 -16   13.10   12.90
  -1   5  16   14.80   12.90
  -4   5 -16   16.10   14.30
   1   4 -16   21.40   12.70
   5  -1 -16   -0.10    9.30
  -1   5  16    7.10   21.10
   5  -1 -16   25.40   25.60
   4   1  16   13.10   12.40
   5   0  16   37.80   20.00
   5  -5 -16   51.19   36.70
   5   0 -16   69.09   41.70
   0   5  16   89.19   40.60
   0   5  16   29.30   15.10
   5   0 -16   32.70   18.50
   0   5 -16  101.99   45.60
  -5   5 -16   62.69   33.20
  -5   5  16    6.80    6.20
   0   5 -16    9.20    8.10
   3   3  16   -0.60    5.00
   3   3  16   -3.00    9.30
   6  -3  16    4.60    8.50
  -3   6  16   -2.20    7.70
   3   3 -16    9.10   13.40
  -3   6 -16   -6.10    4.70
  -3   6 -16  -10.60    8.60
   6  -3 -16   -3.30   10.40
   3   3 -16   -1.10    3.60
   6  -2  16   10.40   13.20
  -6   4 -16   10.10   18.40
  -4   6  16   52.29   28.20
   6  -4 -16   39.30   28.00
   4   2 -16   29.30   16.30
  -2   6 -16   44.10   20.80
   2   4  16    7.70   11.20
   4   2 -16   42.00   33.20
  -2   6 -16   41.30   25.90
   2   4  16   62.79   24.60
   2   4 -16   18.20   16.10
  -2   6  16   39.50   21.20
   4   2  16   31.40   16.90
   2   4 -16   63.39   23.30
   6  -4  16   53.39   32.80
   6  -2 -16   69.89   34.90
   4   2  16   19.10   17.30
  -4   6 -16   71.89   32.00
   6  -5 -16   16.60   17.40
  -6   5 -16   11.40   12.50
   1   5  16   17.80   17.10
   5   1 -16    5.30    7.90
   1   5  16    5.90    9.90
  -1   6 -16   28.30   15.70
   5   1 -16   25.30   15.20
   6  -1  16   23.60   15.00
  -1   6 -16   30.70   24.80
  -5   6  16   48.10   28.90
  -1   6  16   40.50   29.20
   1   5 -16    1.80    6.10
  -1   6  16   49.00   31.20
   5   1  16   22.50   15.60
   6  -1 -16   70.89   31.70
   6  -1 -16   36.40   23.20
   1   5 -16   24.50   14.00
   5   1  16   27.90   25.10
  -5   6 -16   23.20   20.30
   0   0 -17   13.80   12.40
  -1   0 -17   -6.60    5.80
   1   0 -17    5.90    6.00
   0   1  17    4.50    6.10
   0   1 -17    2.70   10.00
  -1   1 -17    1.00    8.00
   0  -1 -17   -1.30    8.50
   1  -1 -17   -2.90   10.20
  -1   1  17   10.40    9.80
   1   0  17   -4.70    8.10
   2  -1 -17   10.10   16.10
  -1   2 -17    1.30   10.00
   1   1 -17   -7.10    3.80
   2  -1  17    6.70    9.20
  -1   2  17   13.10   12.60
  -2   1 -17   -2.10    5.10
   1   1  17    5.00    7.20
   1  -2 -17   -9.00    5.00
  -2   2 -17    2.90    8.20
   2   0  17    9.40   13.30
   0   2  17   -0.70    7.30
  -2   2  17   -1.90    6.40
   2  -2 -17    1.20    6.60
   2   0 -17   -1.50    6.00
   0   2 -17    1.00    7.10
   3  -1  17   -3.10    9.90
   3  -2 -17    8.40   12.60
  -3   2 -17    0.50    9.30
  -2   3  17    2.70   12.10
  -1   3 -17    0.30    8.00
   2   1 -17   -6.10    5.30
   1   2  17    8.70   11.20
   2   1 -17    3.00    4.30
   1   2 -17   -9.30    5.40
   3  -1 -17   -4.30    4.80
   2   1  17    5.00    7.20
  -2   3 -17   14.30   11.50
  -1   3  17   -5.80   12.70
   1   2 -17    0.90   11.60
   3  -2  17    6.10   12.50
   3   0  17   -0.30    6.60
  -3   3  17   -6.90    5.20
   0   3 -17   -2.90    7.90
   0   3 -17   -8.20    7.00
   3  -3 -17   18.10   17.20
   0   3  17    5.20    7.90
  -3   3 -17    9.00    9.70
   3   0 -17    1.20    9.90
   2   2  17   -5.20    4.30
   2   2 -17   -1.00    5.30
  -2   4 -17   -2.70    6.00
   4  -2 -17    7.30    9.20
  -2   4  17   -0.10   10.70
   2   2 -17    0.10    6.90
   4  -2  17    1.10    5.50
   1   3  17    2.40    8.00
   4  -3 -17    0.30    9.60
  -1   4 -17   -5.90    8.90
   3   1 -17   -7.20    7.10
  -3   4  17   -4.50    5.70
  -1   4 -17   -1.70    5.10
   4  -1  17  -10.50    9.90
  -4   3 -17   11.10   11.70
   3   1 -17   -3.20    8.50
   3   1  17   -0.80    6.10
  -3   4 -17   -0.10    5.90
   4  -1 -17   -3.00    9.50
   1   3 -17    3.60    4.80
  -1   4  17    3.80    5.70
   1   3 -17   -5.60    5.70
  -4   4 -17    6.20   13.80
   0   4 -17   27.70   14.50
   4   0  17   46.70   27.10
  -4   4  17    2.40    6.10
   0   4  17    5.60    9.70
   4   0 -17    0.30    7.00
   4   0 -17    7.80   10.50
   0   4 -17   18.50   22.60
   4  -4 -17    1.60   15.30
   5  -3 -17    2.40    7.30
   3   2 -17   53.09   34.20
  -2   5 -17    5.40   10.50
   5  -2  17   -4.80    5.90
   3   2 -17   13.90   13.80
  -5   3 -17    2.10    9.80
  -2   5 -17   -0.10    8.60
  -3   5  17    6.70    9.10
   2   3  17   -0.10    4.50
   2   3 -17   29.80   15.10
  -2   5  17   20.20   17.90
  -3   5 -17    4.00    9.20
   3   2  17   13.80   12.30
   2   3 -17   -8.40    6.50
   5  -3  17   -4.60    4.90
   5  -2 -17   34.20   25.20
  -5   4 -17   -0.60    9.70
   5  -4 -17  -10.00    5.40
  -4   5  17    5.50   10.70
   1   4  17   -4.40   12.40
  -1   5 -17   -1.50    6.40
  -1   5 -17   25.40   18.30
   5  -1  17   10.40   11.30
   4   1 -17    5.10    5.60
   4   1  17    1.80    8.10
   1   4 -17    0.20    5.30
  -1   5  17    7.50   10.20
   5  -1 -17    9.20   13.90
   1   4 -17   -4.50    4.60
  -4   5 -17    4.20    6.90
   0   0 -18  -10.50    7.90
  -1   0 -18   -9.80   10.00
   1   0  18   13.90   12.60
   1  -1 -18   28.00   23.50
   1   0 -18   17.90   17.80
   0  -1 -18    7.60   12.00
   0   1  18    3.80    9.60
  -1   1 -18   17.60   17.30
   0   1 -18   12.30   15.40
  -1   2 -18  145.59   51.89
   2  -1 -18   78.39   41.70
  -1   2  18   63.29   30.60
   1   1 -18   36.40   24.20
   1   1  18   59.99   31.10
   1  -2 -18   63.19   58.79
   2  -1  18   52.69   32.60
  -2   1 -18   36.30   28.50
   2   0  18   65.39   34.70
  -2   2 -18   52.69   33.50
   0   2  18   70.79   35.10
   2  -2 -18  206.68   69.29
   2   0 -18  140.59   53.09
   0   2 -18  104.69   43.20
  -3   2 -18   -8.40    7.50
   3  -1  18    2.40   10.70
  -1   3 -18   -1.90    6.60
  -2   3  18   -6.20    4.70
   1   2  18    4.40    7.50
   2   1 -18    2.30    8.60
   3  -2 -18   -1.30    7.90
   3  -1 -18   -2.60    8.10
  -1   3  18    8.40    6.70
   2   1  18    5.90    7.10
   1   2 -18   -3.40    7.30
  -2   3 -18   -2.10    5.90
   0   0   0    0.00    0.00

_computing_structure_solution     'SHELXT 2014/5 (Sheldrick, 2014)'
;
_shelx_hkl_checksum              45699
loop_
_space_group_symop_operation_xyz
'x, y, z'
'-y, x-y, z'
'-x+y, -x, z'
'-x, -y, z+1/2'
'y, -x+y, z+1/2'
'x-y, x, z+1/2'
'y, x, -z'
'x-y, -y, -z'
'-x, -x+y, -z'
'-y, -x, -z+1/2'
'-x+y, y, -z+1/2'
'x, x-y, -z+1/2'
'-x, -y, -z'
'y, -x+y, -z'
'x-y, x, -z'
'x, y, -z-1/2'
'-y, x-y, -z-1/2'
'-x+y, -x, -z-1/2'
'-y, -x, z'
'-x+y, y, z'
'x, x-y, z'
'y, x, z-1/2'
'x-y, -y, z-1/2'
'-x, -x+y, z-1/2'
loop_
_atom_site_label
_atom_site_type_symbol
_atom_site_fract_x
_atom_site_fract_y
_atom_site_fract_z
_atom_site_U_iso_or_equiv
_atom_site_adp_type
_atom_site_occupancy
_atom_site_site_symmetry_order
_atom_site_calc_flag
_atom_site_refinement_flags_posn
_atom_site_refinement_flags_adp
_atom_site_refinement_flags_occupancy
_atom_site_disorder_assembly
_atom_site_disorder_group
Br1 Br 0.6667 0.3333 0.7500 0.01500(11) Uani 1 12 d S T P . .
Zn1 Zn 0.35924(9) 0.71849(19) 0.7500 0.0193(3) Uani 0.1111 4 d S T P A 1
H1 H 0.1322(19) 0.264(4) 0.629(3) 0.029 Uiso 1 2 d DRS T P . .
Cu1 Cu 0.5000 0.5000 0.5000 0.01055(9) Uani 1 4 d S T P A .
Cu2 Cu 0.35924(9) 0.71849(19) 0.7500 0.0193(3) Uani 0.2222 4 d S T P A 2
O1 O 0.20210(10) 0.40420(19) 0.59210(11) 0.01022(17) Uani 1 2 d DS T P . .
F1 F 0.0000 0.0000 0.7500 0.0201(6) Uani 1 12 d S T P . .
loop_
_atom_site_aniso_label
_atom_site_aniso_U_11
_atom_site_aniso_U_22
_atom_site_aniso_U_33
_atom_site_aniso_U_23
_atom_site_aniso_U_13
_atom_site_aniso_U_12
Br1 0.01671(13) 0.01671(13) 0.01157(15) 0.000 0.000 0.00835(7)
Zn1 0.0150(3) 0.0476(8) 0.0062(2) 0.000 0.000 0.0238(4)
Cu1 0.00834(11) 0.00834(11) 0.01542(15) -0.00170(3) 0.00170(3) 0.00450(9)
Cu2 0.0150(3) 0.0476(8) 0.0062(2) 0.000 0.000 0.0238(4)
O1 0.0089(3) 0.0092(4) 0.0126(4) 0.0015(3) 0.00076(14) 0.00462(19)
F1 0.0159(8) 0.0159(8) 0.0284(16) 0.000 0.000 0.0080(4)
loop_
_atom_type_symbol
_atom_type_description
_atom_type_scat_dispersion_real
_atom_type_scat_dispersion_imag
_atom_type_scat_source
Br Br 0.2860 0.9640 'International Tables Vol C Tables 4.2.6.8 and 6.1.1.4'
Cu Cu 0.2470 0.4710 'International Tables Vol C Tables 4.2.6.8 and 6.1.1.4'
F F 0.0040 0.0030 'International Tables Vol C Tables 4.2.6.8 and 6.1.1.4'
H H 0.0000 0.0000 'International Tables Vol C Tables 4.2.6.8 and 6.1.1.4'
O O 0.0020 0.0020 'International Tables Vol C Tables 4.2.6.8 and 6.1.1.4'
Zn Zn 0.2600 0.5370 'International Tables Vol C Tables 4.2.6.8 and 6.1.1.4'
loop_
_geom_angle_atom_site_label_1
_geom_angle_atom_site_label_2
_geom_angle_atom_site_label_3
_geom_angle
_geom_angle_site_symmetry_1
_geom_angle_site_symmetry_3
Zn1 Zn1 Zn1 60.0 3_565 2_665
Zn1 Zn1 Cu1 119.743(15) 3_565 2_665
Zn1 Zn1 Cu1 119.744(15) 2_665 2_665
Zn1 Zn1 Cu1 119.743(15) 3_565 5_565
Zn1 Zn1 Cu1 119.744(15) 2_665 5_565
Zn1 Zn1 O1 82.64(3) 3_565 17_667
Zn1 Zn1 O1 121.39(4) 3_565 3_565
Zn1 Zn1 O1 47.69(2) 3_565 16_557
Zn1 Zn1 O1 121.39(4) 2_665 17_667
Zn1 Zn1 O1 121.39(4) 3_565 18_567
Zn1 Zn1 O1 82.64(3) 3_565 2_665
Zn1 Zn1 O1 47.69(2) 2_665 16_557
Zn1 Zn1 O1 121.39(3) 2_665 2_665
Zn1 Zn1 O1 82.64(3) 2_665 3_565
Zn1 Zn1 O1 47.69(2) 3_565 .
Zn1 Zn1 O1 47.69(2) 2_665 .
Zn1 Zn1 O1 82.64(3) 2_665 18_567
Cu1 Zn1 Cu1 110.10(4) 5_565 2_665
O1 Zn1 Cu1 43.52(2) 2_665 2_665
O1 Zn1 Cu1 43.52(2) 17_667 5_565
O1 Zn1 Cu1 117.74(4) 2_665 5_565
O1 Zn1 Cu1 163.94(4) 16_557 2_665
O1 Zn1 Cu1 117.74(4) 18_567 2_665
O1 Zn1 Cu1 117.74(4) 17_667 2_665
O1 Zn1 Cu1 163.94(4) . 5_565
O1 Zn1 Cu1 85.96(3) . 2_665
O1 Zn1 Cu1 117.74(4) 3_565 5_565
O1 Zn1 Cu1 43.52(2) 3_565 2_665
O1 Zn1 Cu1 43.52(2) 18_567 5_565
O1 Zn1 Cu1 85.96(3) 16_557 5_565
O1 Zn1 O1 80.92(5) 18_567 17_667
O1 Zn1 O1 129.28(4) 3_565 16_557
O1 Zn1 O1 77.97(6) . 16_557
O1 Zn1 O1 93.15(6) 3_565 18_567
O1 Zn1 O1 73.70(4) 17_667 16_557
O1 Zn1 O1 73.70(4) 3_565 .
O1 Zn1 O1 80.92(5) 3_565 2_665
O1 Zn1 O1 129.28(4) 18_567 .
O1 Zn1 O1 73.70(4) 18_567 16_557
O1 Zn1 O1 129.28(4) 17_667 .
O1 Zn1 O1 129.28(4) 2_665 16_557
O1 Zn1 O1 73.70(4) 2_665 .
O1 Zn1 O1 153.79(6) 18_567 2_665
O1 Zn1 O1 153.79(6) 3_565 17_667
O1 Zn1 O1 93.15(6) 17_667 2_665
Zn1 Cu1 Zn1 180.0 15_656 3_565
Cu2 Cu1 Cu2 180.0 3_565 15_656
O1 Cu1 Zn1 45.45(3) . 3_565
O1 Cu1 Zn1 45.45(3) 2_665 3_565
O1 Cu1 Zn1 134.55(3) 14_556 3_565
O1 Cu1 Zn1 134.55(3) 2_665 15_656
O1 Cu1 Zn1 134.55(3) 13_666 3_565
O1 Cu1 Zn1 45.45(3) 13_666 15_656
O1 Cu1 Zn1 134.55(3) . 15_656
O1 Cu1 Zn1 45.45(3) 14_556 15_656
O1 Cu1 Cu2 134.55(3) 2_665 15_656
O1 Cu1 Cu2 45.45(3) . 3_565
O1 Cu1 Cu2 134.55(3) 14_556 3_565
O1 Cu1 Cu2 45.45(3) 13_666 15_656
O1 Cu1 Cu2 45.45(3) 14_556 15_656
O1 Cu1 Cu2 134.55(3) 13_666 3_565
O1 Cu1 Cu2 45.45(3) 2_665 3_565
O1 Cu1 Cu2 134.55(3) . 15_656
O1 Cu1 O1 180.000(19) 14_556 2_665
O1 Cu1 O1 180.0 13_666 .
O1 Cu1 O1 95.61(6) 14_556 .
O1 Cu1 O1 84.39(6) 14_556 13_666
O1 Cu1 O1 95.61(6) 2_665 13_666
O1 Cu1 O1 84.39(6) 2_665 .
Cu1 Cu2 Cu1 110.10(4) 5_565 2_665
Cu2 Cu2 Cu1 119.744(15) 2_665 2_665
Cu2 Cu2 Cu1 119.743(15) 3_565 2_665
Cu2 Cu2 Cu1 119.743(15) 3_565 5_565
Cu2 Cu2 Cu1 119.744(15) 2_665 5_565
Cu2 Cu2 Cu2 60.0 3_565 2_665
Cu2 Cu2 O1 82.64(3) 2_665 3_565
Cu2 Cu2 O1 47.69(2) 2_665 16_557
Cu2 Cu2 O1 82.64(3) 2_665 18_567
Cu2 Cu2 O1 47.69(2) 3_565 16_557
Cu2 Cu2 O1 121.39(4) 3_565 18_567
Cu2 Cu2 O1 121.39(4) 3_565 3_565
Cu2 Cu2 O1 47.69(2) 3_565 .
Cu2 Cu2 O1 82.64(3) 3_565 2_665
Cu2 Cu2 O1 82.64(3) 3_565 17_667
Cu2 Cu2 O1 121.39(3) 2_665 2_665
Cu2 Cu2 O1 121.39(4) 2_665 17_667
Cu2 Cu2 O1 47.69(2) 2_665 .
O1 Cu2 Cu1 117.74(4) 3_565 5_565
O1 Cu2 Cu1 43.52(2) 2_665 2_665
O1 Cu2 Cu1 117.74(4) 18_567 2_665
O1 Cu2 Cu1 43.52(2) 17_667 5_565
O1 Cu2 Cu1 163.94(4) 16_557 2_665
O1 Cu2 Cu1 117.74(4) 2_665 5_565
O1 Cu2 Cu1 117.74(4) 17_667 2_665
O1 Cu2 Cu1 163.94(4) . 5_565
O1 Cu2 Cu1 85.96(3) . 2_665
O1 Cu2 Cu1 85.96(3) 16_557 5_565
O1 Cu2 Cu1 43.52(2) 3_565 2_665
O1 Cu2 Cu1 43.52(2) 18_567 5_565
O1 Cu2 O1 73.70(4) 3_565 .
O1 Cu2 O1 73.70(4) 17_667 16_557
O1 Cu2 O1 153.79(6) 18_567 2_665
O1 Cu2 O1 129.28(4) 17_667 .
O1 Cu2 O1 77.97(6) . 16_557
O1 Cu2 O1 73.70(4) 2_665 .
O1 Cu2 O1 73.70(4) 18_567 16_557
O1 Cu2 O1 93.15(6) 3_565 18_567
O1 Cu2 O1 129.28(4) 2_665 16_557
O1 Cu2 O1 129.28(4) 3_565 16_557
O1 Cu2 O1 80.92(5) 3_565 2_665
O1 Cu2 O1 93.15(6) 17_667 2_665
O1 Cu2 O1 129.28(4) 18_567 .
O1 Cu2 O1 153.79(6) 3_565 17_667
O1 Cu2 O1 80.92(5) 18_567 17_667
Zn1 O1 Zn1 14.72(6) 2_665 3_565
Zn1 O1 Zn1 10.92(4) 3_565 .
Zn1 O1 Zn1 10.92(4) 2_665 .
Zn1 O1 H1 118(2) . .
Zn1 O1 H1 109(2) 3_565 .
Zn1 O1 H1 109(2) 2_665 .
Cu1 O1 Zn1 103.68(5) . 2_665
Cu1 O1 Zn1 91.03(4) 3_565 2_665
Cu1 O1 Zn1 93.20(4) 3_565 .
Cu1 O1 Zn1 103.68(5) 3_565 3_565
Cu1 O1 Zn1 91.03(4) . 3_565
Cu1 O1 Zn1 93.20(4) . .
Cu1 O1 H1 115.7(7) . .
Cu1 O1 H1 115.7(7) 3_565 .
Cu1 O1 Cu1 117.08(5) 3_565 .
Cu1 O1 Cu2 103.68(5) 3_565 3_565
Cu1 O1 Cu2 93.20(4) . .
Cu1 O1 Cu2 91.03(4) . 3_565
Cu1 O1 Cu2 93.20(4) 3_565 .
Cu1 O1 Cu2 103.68(5) . 2_665
Cu1 O1 Cu2 91.03(4) 3_565 2_665
Cu2 O1 H1 109(2) 2_665 .
Cu2 O1 H1 118(2) . .
Cu2 O1 H1 109(2) 3_565 .
Cu2 O1 Cu2 10.92(4) 3_565 .
Cu2 O1 Cu2 14.72(6) 2_665 3_565
Cu2 O1 Cu2 10.92(4) 2_665 .
loop_
_geom_bond_atom_site_label_1
_geom_bond_atom_site_label_2
_geom_bond_distance
_geom_bond_site_symmetry_2
Zn1 Zn1 0.5183(19) 3_565
Zn1 Zn1 0.5183(19) 2_665
Zn1 Cu1 2.8377(6) 2_665
Zn1 Cu1 2.8377(6) 5_565
Zn1 O1 2.0226(11) 3_565
Zn1 O1 2.3349(14) 16_557
Zn1 O1 2.3349(14) .
Zn1 O1 2.0226(11) 18_567
Zn1 O1 2.0227(11) 17_667
Zn1 O1 2.0227(11) 2_665
Cu1 Zn1 2.8377(6) 3_565
Cu1 Zn1 2.8377(6) 15_656
Cu1 Cu2 2.8377(6) 3_565
Cu1 Cu2 2.8377(6) 15_656
Cu1 O1 1.9543(6) 13_666
Cu1 O1 1.9543(6) .
Cu1 O1 1.9543(6) 2_665
Cu1 O1 1.9543(6) 14_556
Cu2 Cu1 2.8377(6) 5_565
Cu2 Cu1 2.8377(6) 2_665
Cu2 Cu2 0.5183(19) 2_665
Cu2 Cu2 0.5183(19) 3_565
Cu2 O1 2.3349(14) 16_557
Cu2 O1 2.0226(11) 18_567
Cu2 O1 2.3349(14) .
Cu2 O1 2.0227(11) 2_665
Cu2 O1 2.0226(11) 3_565
Cu2 O1 2.0227(11) 17_667
O1 Zn1 2.0227(11) 3_565
O1 Zn1 2.0227(11) 2_665
O1 H1 0.879(18) .
O1 Cu1 1.9543(6) 3_565
O1 Cu2 2.0227(11) 2_665
O1 Cu2 2.0227(11) 3_565
