#------------------------------------------------------------------------------
#$Date: 2021-02-26 11:23:13 +0200 (Fri, 26 Feb 2021) $
#$Revision: 262255 $
#$URL: file:///home/coder/svn-repositories/cod/cif/1/56/06/1560657.cif $
#------------------------------------------------------------------------------
#
# This file is available in the Crystallography Open Database (COD),
# http://www.crystallography.net/
#
# All data on this site have been placed in the public domain by the
# contributors.
#
data_1560657
loop_
_publ_author_name
'M\;aczka, Miros\/law'
'G\;agor, Anna'
'Hanuza, Jerzy'
'Pikul, Adam'
'Drozd, Marek'
_publ_section_title
;
 Synthesis and characterization of two novel chiral-type formate
 frameworks templated by protonated diethylamine and ammonium cations
;
_journal_name_full               'Journal of Solid State Chemistry'
_journal_page_first              23
_journal_page_last               29
_journal_paper_doi               10.1016/j.jssc.2016.10.005
_journal_volume                  245
_journal_year                    2017
_chemical_formula_sum            'C9.76 H19.52 Fe0.5 N1.5 Ni1.5 O12'
_chemical_formula_weight         465.90
_space_group_crystal_system      hexagonal
_space_group_IT_number           182
_space_group_name_Hall           'P 6c 2c'
_space_group_name_H-M_alt        'P 63 2 2'
_atom_sites_solution_hydrogens   geom
_cell_angle_alpha                90
_cell_angle_beta                 90
_cell_angle_gamma                120
_cell_formula_units_Z            1
_cell_length_a                   8.1246(2)
_cell_length_b                   8.1246(2)
_cell_length_c                   7.0011(3)
_cell_measurement_reflns_used    2291
_cell_measurement_temperature    296(2)
_cell_measurement_theta_max      26.9890
_cell_measurement_theta_min      4.0890
_cell_volume                     400.22(2)
_computing_cell_refinement
;
CrysAlisPro, Agilent Technologies,
Version 1.171.37.35h (release 09-02-2015 CrysAlis171 .NET)
(compiled Feb  9 2015,16:26:32)
;
_computing_data_collection
;
CrysAlisPro, Agilent Technologies,
Version 1.171.37.35h (release 09-02-2015 CrysAlis171 .NET)
(compiled Feb  9 2015,16:26:32)
;
_computing_data_reduction
;
CrysAlisPro, Agilent Technologies,
Version 1.171.37.35h (release 09-02-2015 CrysAlis171 .NET)
(compiled Feb  9 2015,16:26:32)
;
_computing_structure_refinement  'SHELXL-2014/7 (Sheldrick, 2014)'
_diffrn_ambient_temperature      296(2)
_diffrn_detector                 'CCD plate'
_diffrn_detector_type            'Sapphire1, long nozzle'
_diffrn_measured_fraction_theta_full 0.996
_diffrn_measured_fraction_theta_max 0.979
_diffrn_measurement_device       'four-circle diffractometer'
_diffrn_measurement_device_type  'Xcalibur, Sapphire1, long nozzle'
_diffrn_radiation_monochromator  graphite
_diffrn_radiation_probe          x-ray
_diffrn_radiation_type           'Mo K\a'
_diffrn_radiation_wavelength     0.71073
_diffrn_reflns_av_R_equivalents  0.0391
_diffrn_reflns_av_unetI/netI     0.0193
_diffrn_reflns_Laue_measured_fraction_full 0.996
_diffrn_reflns_Laue_measured_fraction_max 0.979
_diffrn_reflns_limit_h_max       9
_diffrn_reflns_limit_h_min       -10
_diffrn_reflns_limit_k_max       10
_diffrn_reflns_limit_k_min       -8
_diffrn_reflns_limit_l_max       9
_diffrn_reflns_limit_l_min       -9
_diffrn_reflns_number            4657
_diffrn_reflns_point_group_measured_fraction_full 0.997
_diffrn_reflns_point_group_measured_fraction_max 0.971
_diffrn_reflns_theta_full        28.000
_diffrn_reflns_theta_max         28.366
_diffrn_reflns_theta_min         2.895
_diffrn_source                   'Enhance (Mo) X-ray Source'
_exptl_absorpt_coefficient_mu    2.285
_exptl_absorpt_correction_T_max  1.00000
_exptl_absorpt_correction_T_min  0.91183
_exptl_absorpt_correction_type   multi-scan
_exptl_absorpt_process_details
;
CrysAlisPro, Agilent Technologies,
Version 1.171.37.35h (release 09-02-2015 CrysAlis171 .NET)
(compiled Feb  9 2015,16:26:32)
Empirical absorption correction using spherical harmonics,
 implemented in SCALE3 ABSPACK scaling algorithm.
;
_exptl_crystal_density_diffrn    1.933
_exptl_crystal_description       prism
_exptl_crystal_F_000             240
_exptl_crystal_size_max          0.21
_exptl_crystal_size_mid          0.13
_exptl_crystal_size_min          0.11
_refine_diff_density_max         0.267
_refine_diff_density_min         -0.229
_refine_diff_density_rms         0.063
_refine_ls_abs_structure_details
;
 Flack x determined using 87 quotients [(I+)-(I-)]/[(I+)+(I-)]
 (Parsons, Flack and Wagner, Acta Cryst. B69 (2013) 249-259).
;
_refine_ls_abs_structure_Flack   -0.050(17)
_refine_ls_extinction_coef       .
_refine_ls_extinction_method     none
_refine_ls_goodness_of_fit_ref   1.196
_refine_ls_hydrogen_treatment    constr
_refine_ls_matrix_type           full
_refine_ls_number_parameters     24
_refine_ls_number_reflns         336
_refine_ls_number_restraints     2
_refine_ls_restrained_S_all      1.197
_refine_ls_R_factor_all          0.0337
_refine_ls_R_factor_gt           0.0274
_refine_ls_shift/su_max          0.000
_refine_ls_shift/su_mean         0.000
_refine_ls_structure_factor_coef Fsqd
_refine_ls_weighting_details
'w=1/[\s^2^(Fo^2^)+(0.0290P)^2^+0.1500P] where P=(Fo^2^+2Fc^2^)/3'
_refine_ls_weighting_scheme      calc
_refine_ls_wR_factor_gt          0.0601
_refine_ls_wR_factor_ref         0.0621
_reflns_Friedel_coverage         0.442
_reflns_Friedel_fraction_full    1.000
_reflns_Friedel_fraction_max     0.954
_reflns_number_gt                305
_reflns_number_total             336
_reflns_threshold_expression     'I > 2\s(I)'
_cod_data_source_file            JSSC-2017-245-23.cif
_cod_data_source_block           NiFe
_cod_original_cell_volume        400.22(3)
_cod_original_formula_sum        'C9.76 H19.52 Fe0.50 N1.50 Ni1.50 O12'
_cod_database_code               1560657
_shelx_space_group_comment
;
The symmetry employed for this shelxl refinement is uniquely defined
by the following loop, which should always be used as a source of
symmetry information in preference to the above space-group names.
They are only intended as comments.
;
_shelx_res_file
;

    p6322ns.res created by SHELXL-2014/7


TITL p6322 in P6(3)22
CELL 0.71073   8.1246   8.1246   7.0011  90.000  90.000 120.000
ZERR    1.00   0.0002   0.0002   0.0003   0.000   0.000   0.000
LATT -1
SYMM -Y, X-Y, Z
SYMM -X+Y, -X, Z
SYMM -X, -Y, 0.5+Z
SYMM Y, -X+Y, 0.5+Z
SYMM X-Y, X, 0.5+Z
SYMM Y, X, -Z
SYMM X-Y, -Y, -Z
SYMM -X, -X+Y, -Z
SYMM -Y, -X, 0.5-Z
SYMM -X+Y, Y, 0.5-Z
SYMM X, X-Y, 0.5-Z
SFAC C N O Fe NI H
UNIT 9.76 1.5 12 0.5 1.5 19.52
L.S. 40
BOND
FMAP 2
PLAN 20
eadp ni1 fe1
exyz ni1 fe1
acta 56
WGHT    0.029000    0.150000
FVAR       0.58128
MOLE   1
bond $h
htab
eqiv $1   -y+1, x-y+1, z
eqiv $2   -x+y, -x+1, z
eqiv $3   -x, -x+y, -z
eqiv $4   -y+1, -x+1, -z+1/2
eqiv $5   -x+y, y, -z+1/2
eqiv $6   x, x-y+1, -z+1/2
eqiv $7   -y, x-y, z
eqiv $8   -x+y, -x, z
eqiv $9   y, x, -z
eqiv $10  x-y, -y, -z
eqiv $11  -y, -x, -z+1/2
eqiv $12  x, x-y, -z+1/2

HTAB N1 O1
HTAB N1 O1_$5
HTAB N1 O1_$11

NI1   5    0.333333    0.666667    0.250000    10.12501    0.02310    0.02310 =
         0.02165    0.00000    0.00000    0.01155
FE1   4    0.333333    0.666667    0.250000    10.04165    0.02310    0.02310 =
         0.02165    0.00000    0.00000    0.01155
O1    3    0.129252    0.450200    0.088234    11.00000    0.03679    0.04029 =
         0.04490   -0.00880   -0.01755    0.01940
C1    1    0.000000    0.454907    0.000000    10.50000    0.03496    0.03347 =
         0.03825   -0.00532   -0.01063    0.01748
AFIX  43
H1    6    0.000001    0.569375   -0.000002    10.50000   -1.20000
AFIX   0

part 1
dfix 1.43 C2 N1
dfix 1.50 C2 C2_$9

free N1 N1_$7
free N1 N1_$8
free N1 C2_$12
free N1 C2_$8
free N1 C2_$7
free N1 C2_$11

C2    1   -0.011120   -0.048542    0.102058    10.31333    0.17911
N1    2   -0.046580    0.046580    0.250000    10.07833    0.06270
AFIX  23
H1A   6    0.041944    0.168955    0.255305    10.07833   -1.20000
H1B   6   -0.160748    0.035697    0.239017    10.07833   -1.20000
AFIX   0

N2    2    0.000000    0.000000    0.000000    10.04655    0.17651
HKLF 4

REM  p6322 in P6(3)22
REM R1 =  0.0274 for     305 Fo > 4sig(Fo)  and  0.0337 for all     336 data
REM     24 parameters refined using      2 restraints

END

WGHT      0.0276      0.2027

REM Instructions for potential hydrogen bonds
HTAB C1 O1_$2
EQIV $13 x-y, -y+1, -z
HTAB C1 O1_$13
HTAB N1 O1
HTAB N1 O1_$5
HTAB N1 O1_$11

REM Highest difference peak  0.267,  deepest hole -0.229,  1-sigma level  0.063
Q1    1   0.0000  0.0000  0.2500  10.16667  0.05    0.26
Q2    1   0.2455  0.6245  0.0908  11.00000  0.05    0.25
Q3    1   0.1664  0.5882  0.1778  11.00000  0.05    0.23
Q4    1   0.0036 -0.1114  0.0393  11.00000  0.05    0.22
Q5    1   0.1069  0.4441  0.0031  11.00000  0.05    0.16
Q6    1  -0.0135  0.3937  0.1257  11.00000  0.05    0.15
Q7    1   0.2327  0.4974 -0.1362  11.00000  0.05    0.15
Q8    1   0.3097  0.5255  0.0016  11.00000  0.05    0.14
Q9    1   0.1280  0.2560  0.2500  10.50000  0.05    0.14
Q10   1  -0.1798 -0.1518  0.0676  11.00000  0.05    0.14
Q11   1  -0.0361  0.3717  0.2458  11.00000  0.05    0.12
Q12   1   0.1167  0.2657  0.0019  11.00000  0.05    0.12
Q13   1  -0.0130  0.4905  0.1801  11.00000  0.05    0.12
Q14   1  -0.1158  0.1189  0.1046  11.00000  0.05    0.12
Q15   1  -0.1306  0.4260  0.1750  11.00000  0.05    0.12
Q16   1   0.2607  0.4234  0.0740  11.00000  0.05    0.11
Q17   1  -0.1590  0.3977  0.0396  11.00000  0.05    0.10
Q18   1   0.1570  0.6376  0.0606  11.00000  0.05    0.10
Q19   1   0.1046  0.2562  0.3715  11.00000  0.05    0.10
Q20   1  -0.2675  0.2675  0.2500  10.50000  0.05    0.09
;
_shelx_res_checksum              80839
_shelx_hkl_file
;
   0   0   1    0.02    0.91
   0   0  -2   68.53    3.21
   0   0   2   78.66    3.59
   0   0   2   76.05    3.44
   0   0   3    0.29    1.73
   0   0   3   -0.56    1.28
   0   0  -3    0.25    1.65
   0   0   3    0.96    1.86
   0   0   4  189.68    5.66
   0   0   4  192.38    7.08
   0   0  -4  187.51    6.92
   0   0   4  190.38    7.10
   0   0   5   -1.06    2.52
   0   0  -5    2.00    2.44
   0   0   5    0.96    2.76
   0   0   5    1.00    1.68
   0   0   6  367.65   12.19
   0   0  -6  352.72   11.92
   0   0   6  365.69   12.13
   0   0  -7    1.09    2.57
   0   0   7   -1.05    2.83
   0   0  -7    0.20    3.36
   0   0   7   -0.14    2.81
   0   0   8   73.00    7.05
   0   0   8   77.59    7.38
   0   0  -8   76.02    7.41
   0   0  -8   76.13    6.95
   0   0  -9   -8.78    4.61
   0   0  -9   -1.86    3.14
   0   0   9    4.02    4.21
   0  -1   0  262.28    3.80
  -1   1  -1 1351.55   10.31
   0  -1   1 1358.36   10.38
  -1   1   1 1357.02    8.79
   0   1   1 1332.39   10.48
  -1   0   1 1366.54    9.90
  -1   1   1 1337.92   10.30
  -1   0  -1 1346.39   10.55
   0   1   1 1354.70   10.60
  -1   0   1 1375.76   10.44
   1   0  -1 1327.91   10.23
   1  -1   1 1320.85    8.74
  -1   1  -2   17.02    2.30
  -1   0   2   16.46    2.24
   1   0  -2   16.84    2.32
   1  -1  -2   15.05    2.04
  -1   0   2   20.05    1.74
   0  -1   2   15.16    2.21
  -1   0  -2   16.46    2.09
  -1   1   2   18.30    2.31
  -1   1   2   16.95    2.23
   0   1   2   14.35    2.15
  -1   1  -2   17.43    1.87
   1   0   2   15.81    2.18
   0  -1  -2   16.29    2.17
  -1   1   2   15.66    2.11
  -1   1  -2   16.55    2.32
   0   1  -2   19.27    1.76
   1   0   2   18.49    1.98
   0   1  -2   18.68    2.19
  -1   0  -2   15.73    1.88
   1  -1   2   15.52    2.19
   0   1   2   17.38    2.35
   1   0   3   36.65    3.14
   1   0  -3   34.28    3.08
   0   1  -3   36.55    2.18
   1   0   3   31.22    2.85
  -1   0   3   34.26    3.06
   0  -1   3   34.39    3.08
   1  -1   3   35.12    2.97
   0   1   3   34.02    3.10
  -1   0   3   34.99    3.13
  -1   0  -3   31.92    2.63
  -1   0   3   35.55    2.37
  -1   1  -3   29.62    2.85
   1  -1  -3   33.91    2.83
   0   1   3   33.88    2.84
  -1   0  -3   33.30    3.03
  -1   1  -3   32.32    3.06
   0   1  -3   37.41    3.25
   0   1   3   32.88    3.04
  -1   1   3   32.57    3.01
   0  -1  -3   30.83    2.72
  -1   1   3   31.18    2.63
  -1   1   3   36.07    3.00
   1   0   4   63.88    4.44
   0   1  -4   62.83    2.92
   1   0   4   69.10    4.45
   1  -1  -4   61.43    4.12
  -1   0   4   70.23    4.68
   0  -1   4   63.69    4.34
   1  -1   4   68.95    4.48
  -1   0   4   67.25    3.45
   0   1   4   69.72    4.17
   0  -1  -4   68.30    4.37
  -1   1  -4   60.03    4.09
   0   1   4   67.33    4.62
  -1   1   4   60.68    4.34
   0  -1   4   64.39    2.81
   1   0  -4   67.67    4.53
   1  -1   4   60.98    4.23
  -1   1  -4   61.31    4.43
   0   1   4   64.86    4.51
  -1   0   4   68.23    4.50
  -1   0  -4   61.61    4.39
  -1   1   4   70.39    4.49
   0   1  -4   72.38    4.61
  -1   1   4   66.70    3.97
  -1   0  -4   59.93    3.86
  -1   1   5  260.26    8.19
   0   1   5  259.90    8.28
   1  -1  -5  253.33    8.94
   1   0   5  259.14    9.20
   0  -1   5  259.13    9.29
   0  -1  -5  248.64    8.96
  -1   1  -5  248.84    9.26
   0   1   5  258.63    9.39
   1  -1   5  256.93    9.21
  -1   0   5  249.12    9.38
   0   1  -5  249.85    9.09
  -1   0   5  255.47    9.17
  -1   0  -5  255.78    9.31
   0   1  -5  252.70    9.24
  -1   1   5  247.51    9.46
   0   1   5  256.48    9.42
  -1   1   5  256.82    9.10
   1  -1   5  261.35    9.30
   1   0   5  274.35    9.62
  -1   1  -5  260.17    9.07
  -1   0  -5  249.63    8.52
   1   0  -5  249.44    9.17
   0  -1   5  259.74    9.41
   0  -1   6   52.83    5.59
   0  -1   6   43.63    4.93
   1  -1  -6   46.98    4.91
  -1   1   6   38.70    4.86
   1   0   6   48.39    5.13
  -1   1  -6   50.93    5.08
   0   1   6   46.96    5.23
   0  -1  -6   42.91    4.74
   1   0   6   46.80    4.96
   0   1   6   46.04    5.06
  -1   0  -6   48.89    5.21
   1  -1   6   49.72    5.18
  -1   0  -6   43.42    4.55
  -1   0   6   43.31    5.10
  -1   1   6   47.01    4.84
   1   0  -6   47.31    5.00
   1  -1   6   43.94    5.00
   0   1  -6   52.37    5.47
  -1   1  -6   51.96    5.34
  -1   0   6   46.04    5.00
   0   1  -6   44.63    4.78
  -1   1   7  101.63    7.22
   1   0   7  100.25    7.40
  -1   0  -7  109.66    8.08
   1  -1   7  113.18    7.95
   1   0  -7  107.56    8.22
  -1   0  -7  103.11    7.11
  -1   1  -7  103.70    7.60
   1   0   7  112.75    8.10
   1  -1  -7  114.80    7.86
   0   1   7  100.05    7.65
  -1   0   7  106.99    7.96
  -1   0   7  104.23    7.49
  -1   1   7   99.00    7.57
   0  -1  -7   98.48    7.44
   0  -1   7  103.76    7.60
   0   1  -7  112.95    8.09
   0   1  -7  101.40    7.50
   1  -1   7  105.69    7.51
  -1   1  -7  107.29    7.44
   0  -1   7  104.50    7.80
   1   0   8   15.41    4.30
   0  -1   8    6.58    3.21
   1   0  -8   15.21    4.56
   0   1  -8   19.36    4.34
  -1   1   8   18.52    4.92
  -1   0  -8   24.84    5.21
   0   1  -8   14.42    4.20
  -1   0  -8   11.48    6.92
  -1   1  -8   16.63    4.68
  -1   0   8   14.85    4.08
   0   1   8   25.14    6.05
   0  -1  -8   19.66    4.93
  -1   0   8   14.87    4.79
   1   0  -8   14.69    4.15
   0  -1   8   13.94    4.77
   1  -1   8   17.43    4.67
   1  -1   8   13.80    4.38
  -1   1  -8   20.25    5.08
   0  -1  -8   13.41    3.89
   1  -1  -8   11.03    4.35
  -1   1   8    0.04    3.88
   1   0  -9    5.14    3.27
   0   1  -9   17.77    4.70
   1  -1  -9    8.97    3.59
   1  -1  -9    9.23    3.82
  -1   1  -9    9.52    2.92
   1  -1   9    7.60    4.66
   1   0   9   16.64    4.80
  -1  -1   0  861.16    9.22
  -1   2   0  870.51    8.63
  -1  -1   0  850.28    8.81
  -1   2   0  865.87    9.14
   1   1   0  860.04    9.50
  -1   2   0  881.52    8.97
   1  -2   0  854.95    7.38
  -2   1   0  861.79    9.30
   1   1   0  858.88    8.32
  -2   1   0  868.92    8.23
  -2   1   0  859.67    8.81
  -1  -1   1  481.46    7.43
  -2   1  -1  488.33    7.02
  -2   1  -1  489.86    6.85
  -2   1   1  466.22    7.57
   1   1   1  494.04    6.97
  -1  -1  -1  482.47    7.69
  -1  -1  -1  482.91    7.27
  -2   1   1  478.19    5.56
  -1  -1   1  477.88    7.49
  -2   1   1  515.13    6.95
  -2   1  -1  488.88    7.36
  -1   2   1  498.89    6.47
   1  -2   1  471.15    6.49
  -1   2  -1  475.36    7.54
  -2   1   1  470.32    7.42
  -1   2   1  498.69    6.85
   1   1   1  489.86    7.49
   1   1  -1  482.24    7.06
  -1   2   1  479.87    7.63
  -1   2  -1  497.89    7.51
  -1   2   1  488.03    7.55
  -1   2  -2  898.07   11.03
  -1   2  -2  882.56   11.77
   1   1  -2  912.98    9.64
   1   1  -2  900.16   11.76
   1  -2   2  870.24   10.78
  -1   2  -2  903.11   10.96
   2  -1  -2  869.47   10.72
   2  -1   2  869.72   10.47
  -2   1   2  909.22   11.20
   2  -1   2  881.62    9.50
  -1  -1   2  909.63   11.81
  -2   1  -2  906.27   10.89
  -1   2   2  886.47   11.77
  -2   1   2  891.72   10.21
  -2   1  -2  890.03   11.60
  -1   2   2  879.51   11.84
   1  -2  -2  889.25    9.30
   1   1   2  868.09   10.99
  -2   1   2  893.92   11.20
  -1  -1  -2  873.60   11.31
   1   1   3    0.07    1.75
  -1  -1   3    0.69    1.04
  -2   1  -3    3.41    1.86
  -2   1   3   -0.42    1.49
  -1  -1  -3    0.60    1.68
   1   1  -3    0.20    1.81
  -1  -1   3   -0.07    1.77
  -1   2   3    0.76    1.79
   2  -1   3    0.64    1.64
   1  -2   3    1.30    1.76
   1   1  -3    0.02    1.17
  -1   2  -3   -0.25    1.75
  -2   1   3    1.84    1.76
  -2   1   3   -0.62    1.64
  -1   2  -3    0.89    1.89
  -1   2   3   -0.48    1.72
   2  -1  -3    1.01    1.88
  -1   2  -3    2.38    1.64
   1  -2  -3    1.12    1.54
   2  -1   3    0.25    1.46
  -2   1  -3    0.76    1.60
  -1  -1   4  303.72    9.11
  -2   1  -4  309.01    9.26
  -2   1   4  310.18    8.72
  -1   2  -4  305.53    9.07
  -1  -1  -4  297.80    8.89
   1   1  -4  296.64    9.07
  -1   2  -4  324.82    7.68
  -1   2   4  311.72    8.91
  -2   1   4  319.98    9.36
  -1   2  -4  311.45    9.22
  -2   1  -4  307.84    8.66
   1  -2  -4  300.14    8.31
   2  -1   4  309.32    8.98
  -1   2   4  301.32    9.23
   1   1   4  304.01    8.87
   2  -1   4  295.99    8.37
   2  -1  -4  307.03    8.78
   1  -2   4  305.49    8.95
  -2   1   4  313.37    8.23
  -2   1   5   21.44    3.84
   2  -1   5   24.68    3.71
   1   1   5   27.48    3.84
   1   1  -5   21.67    3.78
  -2   1   5   19.67    2.97
  -1  -1  -5   25.95    3.70
  -1   2   5   24.12    3.92
   1  -2  -5   18.00    3.19
  -2   1   5   22.13    3.60
   1  -2   5   24.57    3.76
   2  -1  -5   25.61    3.82
   2  -1   5   22.32    3.57
  -1   2  -5   23.63    3.71
  -2   1  -5   16.71    3.18
  -1   2  -5   22.08    3.70
  -1   2   5   19.72    3.35
  -1  -1  -5   20.96    2.89
  -1  -1   5   27.10    3.77
  -2   1  -5   23.44    3.82
  -1  -1   6  162.39    8.42
   1   1  -6  148.85    8.25
  -1  -1   6  136.96    8.22
  -1   2  -6  161.59    8.59
   2  -1   6  156.88    8.35
  -1   2   6  152.17    7.59
  -2   1  -6  151.20    8.37
  -1  -1  -6  153.15    7.34
   1  -2   6  153.78    8.17
  -2   1   6  138.39    7.91
   2  -1   6  142.86    7.75
   2  -1  -6  150.36    7.98
  -2   1  -6  150.38    7.72
   1   1   6  152.25    8.06
  -1   2   6  158.81    8.48
  -2   1   6  156.27    8.08
   1  -2   6  156.87    8.46
   1  -2  -6  147.18    7.73
  -1  -1  -6  158.29    8.40
  -1   2  -6  147.75    8.14
  -1  -1   7    0.78    2.77
   2  -1   7    2.80    3.28
  -2   1  -7    3.44    3.60
   1  -2  -7   -0.20    2.85
   1   1   7    0.07    3.00
   1   1  -7    5.45    3.73
   1   1  -7   -0.58    3.33
   1  -2   7    2.35    3.09
  -2   1   7   -8.41    3.63
  -1   2   7    2.14    3.26
  -1  -1  -7   -0.17    2.64
   2  -1  -7   -0.03    2.79
  -2   1  -7   -5.16    2.99
  -2   1   7   -3.45    2.96
  -1   2  -7    5.23    3.55
  -1   2  -7    2.03    3.02
   1  -2   7    2.95    3.17
   2  -1   7   -0.66    3.06
  -1  -1   7    2.60    3.65
   1   1  -8   52.12    6.58
   1  -2  -8   47.31    5.70
   1   1   8   36.07    5.88
  -1  -1   8   46.11    5.98
  -2   1   8   37.30    5.47
   1   1  -8   47.33    6.56
  -1   2  -8   42.48    5.82
   2  -1   8   41.60    5.66
   2  -1  -8   41.37    5.85
  -1   2   8   34.37    5.98
   1  -2   8   37.46    5.51
  -1  -1   8   38.82    6.12
  -2   1  -8   60.47    7.26
  -2   1  -8   37.23    4.97
  -1  -1  -8   41.42    5.82
  -1   2  -8   35.44    5.45
   1  -2   8   45.47    6.65
  -2   1   8   48.53    6.24
   1  -2  -9    7.64    3.73
   2  -1   9    1.36    3.91
   2  -1  -9   -2.47    2.67
  -2   0   0  176.43    4.82
  -2   2   0  189.65    4.60
  -2   0   0  181.94    4.84
   0   2   0  183.09    4.99
  -2   0   0  181.42    4.15
   0   2   0  178.15    4.79
  -2   2   0  190.08    4.91
   0  -2   0  179.08    4.66
  -2   2   0  183.59    4.83
   0   2   1  291.32    5.81
   0   2  -1  304.75    5.66
  -2   0   1  285.14    5.61
   0  -2  -1  298.48    4.97
   0   2  -1  294.27    5.56
   0  -2   1  278.66    6.02
   2   0  -1  293.91    5.69
   0   2  -1  292.68    6.28
  -2   0   1  289.07    5.96
   0   2   1  285.71    6.33
  -2   0  -1  291.14    6.30
  -2   2   1  312.03    5.29
  -2   2   1  293.82    6.35
  -2   2   1  284.55    6.25
  -2   0   1  295.70    6.27
   2  -2   1  298.14    4.30
   0  -2  -1  281.95    6.12
  -2   2  -1  311.71    5.02
   0   2   1  292.16    6.42
  -2   2  -1  286.02    6.46
  -2   2   1  304.86    5.61
   0  -2   1  293.86    5.54
  -2   0  -1  288.44    5.78
  -2   2  -1  294.53    5.19
  -2   2  -1  286.65    6.30
   0  -2  -2  515.71    8.01
   0   2   2  504.07    9.30
  -2   0  -2  489.68    9.20
  -2   0   2  524.06    8.18
   0   2   2  492.34    9.32
  -2   0   2  516.55    8.72
   2  -2   2  495.34    7.73
  -2   2   2  515.96    8.81
   2  -2  -2  519.38    7.39
   2   0  -2  511.03    6.96
  -2   2   2  498.22    9.12
  -2   2  -2  502.42    8.96
   0   2   2  527.27    7.62
   0   2  -2  515.16    8.44
   0  -2   2  500.21    9.01
   2   0   2  510.13    7.56
  -2   2  -2  501.74    9.06
  -2   2   2  508.20    7.68
   2   0  -2  497.47    9.00
   0   2  -2  528.74    8.95
  -2   0  -2  515.56    7.20
   0   2  -2  518.57    8.92
  -2   0   2  511.40    9.14
  -2   2  -2  517.29    8.54
   0   2   3  624.76    8.26
  -2   2   3  622.37   10.46
   2  -2   3  616.65   10.58
  -2   2   3  609.57   11.21
   2  -2  -3  614.62    9.99
  -2   2  -3  599.82   10.98
  -2   2  -3  594.90   11.19
   0  -2  -3  596.94   10.31
  -2   0  -3  583.33   11.32
   0  -2   3  614.76   11.40
  -2   0   3  615.75    9.60
   2   0  -3  603.80    7.10
   0   2  -3  636.07   11.40
   2   0   3  598.94   10.13
  -2   2  -3  613.19   10.52
   2   0  -3  606.80   11.30
   0   2   3  615.88   11.47
   0   2  -3  616.62    9.75
   0   2  -3  602.88   11.19
  -2   0  -3  614.21    9.62
   0   2   3  600.86   11.42
  -2   0   3  628.45   11.11
  -2   2   3  616.46   11.40
  -2   2   4   16.77    3.02
   0   2   4   13.64    2.84
   0   2  -4   13.21    2.12
   0  -2  -4   15.00    2.70
  -2   2   4   14.09    2.68
   0   2  -4   16.91    3.03
  -2   0  -4   17.08    3.01
   2  -2  -4   11.57    2.39
  -2   0  -4   14.51    2.33
   0   2  -4   14.20    2.81
  -2   2  -4   12.25    2.73
   2  -2   4   16.13    2.81
  -2   2  -4    9.47    2.46
   0  -2   4   13.92    2.80
   2   0  -4   15.21    2.96
  -2   0   4   15.13    2.21
  -2   2   4   15.97    2.70
  -2   0   4   18.70    3.13
  -2   0   4   16.18    2.91
   0   2   4   15.07    3.10
   2   0   4   15.08    2.70
  -2   2   5  125.62    7.02
  -2   0  -5  128.81    7.10
  -2   0   5  126.19    7.08
   2  -2   5  130.08    6.90
  -2   0  -5  129.49    6.17
   2   0  -5  128.42    6.93
   0  -2   5  134.63    7.17
  -2   2  -5  123.59    6.66
   2  -2   5  135.51    6.94
   0   2  -5  136.33    7.21
   2  -2  -5  127.60    6.48
  -2   0   5  121.23    6.68
   2   0   5  128.62    6.57
   0  -2  -5  125.47    6.67
   0   2   5  118.53    6.85
  -2   2  -5  121.21    6.78
  -2   2   5  121.82    6.57
  -2   2   5  135.97    6.71
   0   2  -5  116.95    6.76
   0  -2   6   72.05    5.96
   0  -2  -6   86.28    6.33
   0   2   6   72.85    6.15
  -2   0  -6   76.20    6.17
  -2   0   6   79.37    6.27
   0   2  -6   69.58    5.70
  -2   2   6   71.34    5.75
   2  -2  -6   70.18    5.64
   2   0   6   81.01    6.01
  -2   0   6   75.22    6.43
  -2   2   6   77.59    6.32
  -2   2   6   74.09    5.58
  -2   2  -6   83.66    6.17
  -2   2  -6   80.00    6.17
   2  -2   6   70.15    5.89
   0   2  -6   73.36    6.06
   2  -2   6   73.67    6.02
  -2   0  -6   80.89    5.64
   2   0  -6   76.87    6.19
   0   2   7   37.34    5.07
   2  -2  -7   44.68    5.14
   0  -2   7   52.56    6.08
   0   2  -7   46.42    5.93
  -2   2  -7   46.59    5.54
   0  -2   7   55.94    6.33
  -2   0  -7   45.12    5.65
   2  -2   7   43.95    5.73
  -2   2  -7   43.03    5.26
   2   0   7   55.10    5.77
  -2   2   7   43.75    5.24
  -2   0   7   47.76    5.27
  -2   2   7   52.56    6.05
   0   2  -7   40.75    5.31
  -2   0   7   44.26    5.94
  -2   0  -7   45.30    4.81
   2   0  -7   51.43    5.84
   2  -2   7   47.12    5.32
   0  -2  -7   43.64    5.46
   0  -2   8    5.29    3.50
  -2   2  -8    4.71    4.16
   2  -2  -8   -2.37    2.54
  -2   0   8    4.46    3.28
  -2   0   8   -2.48    3.44
   2   0  -8    0.13    2.91
   0   2  -8    7.08    3.64
  -2   2  -8    7.85    3.59
   2  -2   8   -3.87    3.66
   2  -2   8    3.36    3.86
   0   2  -8    5.41    4.35
   0   2   8   -0.89    3.45
  -2   0  -8   -1.13    3.49
   0  -2  -8    1.01    3.09
  -2   2   8    5.80    3.75
   2   0   8    1.58    3.83
   0  -2   8    6.39    4.64
   2  -2  -9   20.88    4.43
   0  -2  -9   24.48    5.24
   2   0   9   24.16    5.09
  -2   2  -9   35.38    5.12
   2  -2   9   22.66    5.17
   1   2  -8   22.83    4.99
  -1   3   8   17.35    4.49
  -1  -2  -8   22.21    4.56
   1  -3   8   23.16    4.69
   3  -1  -8   21.93    4.88
  -2   3  -8   16.87    4.53
  -2   3  -8   50.62    6.22
  -2  -1   8   21.83    4.66
  -3   1  -8   21.69    5.26
   1   2  -8   30.81    5.68
  -2  -1   8   28.52    5.46
  -3   2   8   26.97    4.45
  -3   2   8   31.31    5.77
   1  -3   8   29.71    5.74
   2   1   8   16.48    4.40
  -1  -2  -7   36.99    5.14
   1  -3   7   37.78    5.15
   3  -2   7   34.42    4.52
  -1   3   7   46.40    5.58
   3  -2   7   35.94    5.21
  -3   2   7   42.26    5.59
   2   1   7   31.49    4.95
  -2   3  -7   34.88    5.25
   2  -3  -7   32.33    4.62
   1  -3   7   37.69    5.68
  -3   1  -7   29.57    5.26
  -2   3  -7   40.89    5.49
   1   2  -7   36.01    5.36
  -2  -1   7   39.91    5.88
   1   2  -7   30.18    5.10
  -3   1  -7   41.23    5.29
  -3   2   7   33.94    4.67
  -2  -1   7   31.93    4.99
  -1   3   7   32.64    5.30
   3  -1  -7   31.05    4.83
  -3   2   6    6.51    2.80
   1   2  -6    7.83    3.27
  -1   3   6    6.51    3.14
  -2   3  -6    5.67    3.22
  -1  -2  -6    6.43    2.86
   1   2  -6   11.36    3.67
   3  -1  -6    5.94    3.03
   3  -2   6    7.43    3.00
  -3   1  -6    9.19    3.50
   3  -2   6    4.13    3.12
  -1   3   6    9.60    3.51
  -3   1  -6   11.56    3.32
   2   1   6    6.21    3.00
  -2  -1   6    8.43    3.89
  -2  -1   6   18.00    3.39
  -2   3  -6    5.32    3.27
  -3   2   6    9.32    3.43
   2  -3  -6    5.63    2.70
  -3   2   6    3.59    2.02
   1  -3   6    4.38    2.73
  -2  -1   5  110.60    6.74
   1  -3   5  109.45    6.70
  -2   3  -5  107.78    5.72
  -3   1  -5  116.94    6.34
   1   2  -5  108.21    6.90
   3  -1  -5  116.47    6.74
   1   2  -5  115.29    6.95
  -1   3   5  109.39    6.93
   2  -3  -5  113.06    5.92
  -1  -2  -5  103.70    6.43
  -1   3   5  106.82    6.60
  -2   3  -5  112.44    6.93
   3  -2   5  117.98    6.61
  -3   2   5  103.17    5.99
  -3   2   5  108.85    6.78
  -2   3  -5  111.05    6.64
  -3   1  -5  112.32    7.00
   3  -2   5  108.18    6.11
   2   1   5  111.25    6.43
  -3   2   5  113.77    6.40
   1  -3   4  221.57    8.06
   3  -1  -4  233.40    8.13
   1   2  -4  241.55    8.64
   3  -2   4  241.68    8.06
   2  -3  -4  224.38    7.02
  -2   3  -4  232.30    8.11
  -3   2   4  227.05    7.54
  -3   1  -4  235.14    7.65
  -3   2   4  235.75    8.30
  -2   3  -4  220.39    8.26
  -1   3   4  233.86    8.61
  -2   3  -4  233.32    7.70
  -3   2   4  237.67    8.14
   3  -2   4  215.29    7.14
  -2  -1   4  229.15    8.41
   1   2  -4  222.93    6.47
  -1   3   4  213.70    8.23
   2   1   4  231.09    7.87
  -3   1  -4  219.82    8.38
  -1  -2  -4  231.63    8.15
  -3   2   3  581.31   10.06
  -2   3  -3  564.46   10.81
  -3   2   3  567.10   11.28
  -1   3   3  591.45    8.46
  -3   1  -3  556.39   10.22
  -3   2   3  561.97   10.92
   3  -2   3  561.52   10.39
   3  -1  -3  563.57    7.14
  -2   3  -3  578.07   11.26
  -3   1  -3  563.28   11.65
   2  -3  -3  562.00    9.09
   1   2  -3  573.48   11.58
  -1   3   3  564.45   11.91
  -2   3  -3  603.23   12.09
   2   1   3  567.07   10.70
   1   2  -3  565.05    9.86
   1  -3   3  562.64   11.12
  -1  -2  -3  564.47   10.97
  -1   3   3  588.57   11.99
  -2  -1   3  575.22    8.96
  -2  -1   3  582.08   11.70
   3  -1  -3  552.25   10.96
  -2   3  -2  417.63    9.03
  -3   1  -2  435.71    8.06
  -3   2   2  435.26    8.09
  -3   1  -2  442.49    9.36
   2  -3  -2  432.27    6.10
  -1  -2  -2  416.35    8.43
  -1  -2  -2  427.31    9.43
  -2   3  -2  431.90    7.85
  -2  -1   2  456.88    9.26
  -3   2   2  424.21    9.08
   1  -3   2  432.06    8.62
  -1   3   2  422.19    9.33
  -3   2   2  429.86    7.04
   2   1   2  422.05    8.03
  -1   3   2  420.27    9.27
   1   2  -2  432.01    8.95
  -1   3   2  440.60    7.64
   3  -1  -2  423.48    8.63
   1   2  -2  424.19    8.44
  -2  -1   2  420.96    9.16
  -2   3  -2  430.49    9.13
  -2  -1   2  430.19    7.60
   3  -2   2  427.02    7.36
   2  -3  -1  402.96    6.21
  -3   2   1  409.26    6.61
  -2   3  -1  402.46    8.16
  -1   3   1  392.01    7.50
   1  -3   1  402.24    7.31
  -1   3   1  410.00    6.76
  -3   2   1  414.15    6.13
   1   2  -1  388.33    7.97
   1   2  -1  405.76    6.44
  -1   3   1  405.31    8.13
  -2   3  -1  412.20    7.37
  -3   1  -1  390.38    7.88
  -3   1  -1  411.90    6.45
  -3   2   1  401.55    4.78
  -2  -1   1  395.04    7.26
  -3   2   1  391.94    8.11
   2   1   1  401.42    6.76
  -2   3  -1  421.55    6.16
  -1  -2  -1  395.31    7.37
  -1   3   1  412.25    8.38
  -2  -1   1  390.52    8.04
  -2  -1   1  393.78    7.77
   2   1   1  411.95    8.47
  -1  -2  -1  379.72    8.09
  -3   1  -1  390.90    7.04
  -3   1  -1  411.57    8.08
  -2   3  -1  414.31    5.78
  -3   2   1  416.76    8.32
  -2   3  -1  385.36    8.13
   1   2   0    0.10    1.64
  -1   3   0    2.77    1.88
  -3   1   0    1.24    1.55
  -3   2   0    0.91    1.85
  -2   3   0    0.28    1.71
  -1   3   0    0.95    1.39
   2   1   0    1.18    1.91
  -1  -2   0    1.45    1.41
  -2   3   0    1.21    1.45
  -3   1   0    0.45    1.95
  -3   1   0    1.24    1.03
  -2  -1   0    1.09    1.57
  -1   3   0    3.49    1.59
   2   1   0    0.48    1.17
  -3   1   0    1.32    1.70
   1  -3   0   -0.62    1.42
   1   2   0    1.26    1.98
  -3   2   0    0.18    1.20
   2  -3   0    1.57    0.97
  -3   2   0    0.56    1.78
  -1  -2   0    1.46    1.63
  -2  -1   0    1.37    1.78
  -2   3   0    0.72    1.49
  -2   3   0    0.38    1.52
  -1   3   0    1.12    1.79
  -3   2  -1  356.52    7.02
  -1   3  -1  352.48    7.47
  -3   1   1  356.01    5.89
  -3   2  -1  346.80    6.80
  -1  -2   1  350.07    7.33
  -1  -2   1  315.81    7.21
   1   2   1  359.65    7.74
  -2   3   1  344.96    7.61
  -1   3  -1  331.05    7.63
  -2  -1  -1  344.71    7.50
  -3   1   1  345.25    7.59
  -3   1   1  328.36    7.29
  -3   1   1  349.12    5.44
   2   1  -1  345.53    7.40
   1   2   1  346.86    7.30
  -2   3   1  361.98    7.40
  -1   3  -1  341.02    5.64
   2  -3   1  351.12    5.79
  -3   2  -1  341.79    7.47
  -1   3  -1  347.95    7.07
  -2   3   1  363.23    6.89
  -2   3   1  351.49    7.26
  -2  -1  -1  335.77    7.53
   1  -3  -1  345.48    6.83
  -3   1   1  354.35    7.18
   2   1  -2  478.77    8.50
  -1  -2   2  472.39    6.50
  -3   2  -2  474.71    9.08
  -2  -1  -2  488.58    9.80
   3  -1   2  457.36    6.52
  -1  -2   2  466.70    9.32
  -3   1   2  476.08    8.33
  -3   2  -2  468.89    9.21
  -3   1   2  468.76    9.19
   1   2   2  467.94    9.30
   3  -2  -2  472.75    8.15
  -2   3   2  466.98    9.39
   1   2   2  483.67    9.03
   2   1  -2  466.19    9.64
  -1   3  -2  466.98    8.44
  -1   3  -2  472.33    9.43
   2  -3   2  466.98    8.07
  -3   2  -2  486.78    8.05
  -3   1   2  482.35    8.20
  -2   3   2  461.96    9.66
  -2  -1  -2  458.79    9.43
  -2   3   2  490.21    7.25
  -3   1   2  480.44    9.07
   1  -3  -2  469.43    6.87
  -1   3  -2  475.48    9.37
  -1  -2   2  472.95    9.64
  -2   3   2  487.83    9.35
  -2  -1  -3  556.48   11.49
  -3   1   3  582.19   10.51
  -1   3  -3  584.80   10.91
   2  -3   3  569.01   10.63
   3  -2  -3  585.49   10.55
  -1  -2   3  581.91   11.81
  -3   1   3  588.76   11.06
   2   1  -3  581.57   11.82
  -2  -1  -3  553.87    8.22
  -3   1   3  550.04   10.63
  -2   3   3  555.58   11.70
  -1   3  -3  580.96   11.74
  -3   2  -3  562.77   11.27
   1   2   3  562.20   11.30
  -3   2  -3  571.77   11.21
  -1   3  -3  574.91   10.98
  -1  -2   3  563.74    6.90
   1  -3  -3  560.72    9.43
   2   1  -3  555.00    9.07
   1   2   3  597.94   10.10
  -2   3   3  572.33   11.61
   3  -1   3  565.99    9.38
   1   2   4  226.61    6.50
  -1   3  -4  220.00    7.20
  -3   1   4  220.83    7.62
  -1   3  -4  205.99    8.09
  -2   3   4  212.56    8.08
  -3   1   4  225.77    7.53
  -3   1   4  219.15    8.00
   3  -2  -4  213.71    7.52
   2   1  -4  212.06    8.24
  -3   2  -4  194.93    7.70
   1  -3  -4  217.01    7.10
  -1  -2   4  216.75    8.20
   1   2   4  210.21    7.97
  -2  -1  -4  215.25    8.14
  -2  -1  -4  199.93    6.20
  -3   2  -4  213.04    7.83
   2  -3   4  214.09    7.67
  -1   3  -4  215.54    7.95
  -2   3   4  203.71    8.05
   3  -1   4  206.73    6.98
   1   2   5  122.22    6.90
  -2   3   5  124.33    7.08
   1  -3  -5  119.63    6.22
  -1  -2   5  119.62    6.95
   3  -1   5  113.47    6.20
  -3   1   5  111.89    6.77
  -2   3   5  116.86    7.02
  -3   2  -5  129.63    6.94
  -1   3  -5  120.80    6.86
   3  -2  -5  120.09    6.55
  -3   1   5  126.86    6.68
  -3   1   5  121.58    6.19
   2  -3   5  124.36    6.89
   2   1  -5  123.59    7.16
  -3   2  -5  125.58    7.17
  -2  -1  -5  119.75    6.99
  -1   3  -5  116.48    6.97
  -1  -2   6    3.16    2.87
  -2   3   6    7.03    3.24
  -3   1   6    3.48    2.93
  -2  -1  -6    4.50    3.11
  -2   3   6    2.63    3.01
  -3   1   6    7.40    2.99
   3  -1   6    6.27    3.14
   1   2   6    5.72    3.12
   2   1  -6    7.02    3.40
   1  -3  -6    7.23    2.96
  -1   3  -6    5.03    2.68
  -1   3  -6    6.46    3.14
   3  -2  -6    0.75    2.66
  -3   2  -6    2.80    3.01
  -3   2  -6    6.71    3.35
   2  -3   6    8.09    3.11
  -1   3  -7   35.09    5.38
  -3   2  -7   43.23    5.61
   2  -3   7   33.81    5.25
  -3   1   7   33.56    5.18
   1   2   7   38.07    5.30
  -2   3   7   34.91    5.06
   1  -3  -7   39.17    4.90
  -2   3   7   26.64    3.38
   2   1  -7   26.89    5.07
  -1  -2   7   32.33    5.51
  -3   1   7   42.87    5.14
   2  -3   7   37.31    5.29
   3  -1   7   38.39    5.00
  -1   3  -7   34.27    5.15
  -2  -1  -7   37.83    5.29
  -1  -2   7   34.20    4.93
   3  -2  -7   38.94    5.10
  -3   2  -7   35.62    5.35
  -3   1   8   24.00    4.96
  -3   2  -8   17.38    4.90
  -3   2  -8   25.90    5.18
   2   1  -8   13.80    4.32
   2  -3   8   28.73    5.37
   2   1  -8   22.26    5.16
   1   2   8   23.44    5.32
  -1  -2   8   26.38    5.83
  -1  -2   8   17.83    4.26
  -3   1   8   27.47    4.78
  -2  -1  -8   27.84    5.79
   3  -2  -8   34.30    5.71
  -1   3  -8   23.61    5.06
   2  -3   8   22.22    4.92
  -2   3   8   25.78    4.93
  -1   3  -8   25.75    5.08
   0   3   0  485.83    6.56
   0   3   0  484.80    9.34
  -3   0   0  463.19    9.01
  -3   0   0  475.36    9.11
   0  -3   0  468.28    7.06
   0   3   0  446.04    8.91
  -3   3   0  488.19    8.66
  -3   3   0  483.91    9.04
   0  -3   0  476.14    8.87
  -3   0   0  470.14    7.24
  -3   3   0  460.78    9.04
  -3   0   0  489.11    8.07
  -3   3   0  487.75    6.98
  -3   0  -1    5.99    1.23
   0   3  -1    3.15    1.83
   0   3   1    6.04    2.10
  -3   3  -1    5.35    1.45
  -3   3  -1    6.22    1.30
  -3   3   1    7.49    1.57
   0  -3   1    4.04    1.82
   0   3  -1    6.11    1.55
   3  -3   1    5.33    0.90
  -3   3   1    4.61    1.93
   0   3  -1    2.79    2.00
  -3   3   1    4.78    1.63
  -3   0   1    5.56    1.88
  -3   3  -1    5.75    2.01
   0   3   1    6.85    1.99
  -3   3  -1    6.16    2.14
   0  -3   1    3.12    1.42
  -3   0   1    7.07    2.08
  -3   3   1    6.14    2.10
   0   3  -1    6.78    1.60
   0  -3  -1    6.39    1.92
  -3   0  -1    4.64    1.57
   0  -3  -1    4.11    1.19
  -3   0   1    7.29    1.82
  -3   0  -1    7.56    2.17
   3   0   2  543.06    8.07
  -3   0   2  557.50    9.97
   0  -3   2  537.16   10.41
  -3   0   2  555.34   10.73
  -3   3   2  566.75   11.05
   3   0  -2  535.65    9.04
   0  -3  -2  533.57   10.67
  -3   3  -2  558.83    7.91
  -3   3  -2  547.60   10.79
  -3   3  -2  554.01    9.41
  -3   0  -2  533.85    7.81
  -3   3   2  562.31    8.05
  -3   0   2  569.34   10.08
   0   3   2  552.98   11.02
   3  -3  -2  537.60    7.65
  -3   3  -2  532.62   10.74
   0   3  -2  538.66    9.72
   0   3   2  550.81    9.61
  -3   0  -2  570.67   10.32
  -3   3   2  527.17   10.71
   3  -3   2  531.27    8.07
  -3   3   2  550.72    9.85
  -3   0  -2  557.33   11.05
   0   3  -2  542.67    9.91
   0   3  -2  550.04   10.46
   0  -3  -2  537.09    8.71
  -3   0   3    6.70    2.35
   0   3  -3    7.62    2.25
  -3   3  -3    5.97    2.14
  -3   3  -3    6.36    2.38
   0  -3  -3    5.49    1.81
  -3   3   3    7.67    2.62
   3  -3   3    7.09    1.89
  -3   3   3    6.54    2.37
   0   3   3   10.45    1.86
   0  -3   3    5.54    2.36
  -3   0  -3    6.04    2.33
   0   3  -3    6.76    2.07
   3  -3  -3    7.74    1.78
   3   0  -3    6.29    1.37
   0   3   3    7.80    2.67
   3   0  -3    8.93    2.49
  -3   3  -3    8.15    2.39
  -3   0   3    8.47    2.10
   3   0   3    7.71    1.87
  -3   0  -3    8.99    1.76
   0   3  -3    8.05    2.30
   0   3   3    7.68    2.41
  -3   0  -4  230.72    7.06
   3  -3   4  230.94    7.80
   0   3  -4  229.15    8.52
  -3   3   4  239.02    8.60
  -3   0   4  226.93    8.22
   0   3  -4  239.55    7.56
  -3   0  -4  231.48    8.73
   0  -3  -4  228.10    7.71
  -3   3   4  220.87    8.49
   3  -3  -4  235.97    7.38
   0   3  -4  231.78    8.44
   3   0  -4  219.55    8.37
  -3   3   4  231.92    7.69
   3   0   4  236.45    7.63
   0   3   4  220.32    8.57
   0  -3   4  228.92    8.54
  -3   3  -4  225.54    8.26
  -3   0   4  237.27    7.30
  -3   3  -4  243.71    8.86
  -3   3   5    0.94    2.59
   3  -3   5    6.14    2.78
   3  -3  -5    2.13    2.18
  -3   0   5    1.10    2.71
  -3   0   5    3.27    3.18
   3   0   5    1.88    2.39
  -3   0  -5    6.81    3.15
   0   3  -5    2.94    3.01
   3   0  -5    4.78    3.09
   0  -3   5    3.54    2.83
   0  -3  -5    4.44    2.45
  -3   3  -5    1.60    2.79
   0   3  -5    7.02    3.44
  -3   3   5   -0.67    2.81
  -3   3  -5    6.05    3.09
   0   3   5    4.40    3.16
  -3   3   5    1.79    2.52
  -3   0   6   84.85    6.51
   0  -3   6  102.34    7.38
   3  -3   6   97.55    6.78
   3  -3   6   91.67    6.57
  -3   0  -6  113.77    7.76
  -3   3   6   96.75    7.12
  -3   0   6   88.33    6.94
   0   3   6   91.08    7.13
   0   3  -6  100.07    7.50
   0  -3  -6  102.77    6.77
   0   3  -6   99.62    7.23
  -3   3  -6   99.96    7.05
   3   0   6   89.77    6.13
   3  -3  -6   95.51    6.14
   3   0  -6   98.62    7.19
  -3   3   6  101.72    6.92
  -3   3   6   94.58    6.46
  -3   3  -6   98.65    7.11
  -3   0   7   -2.49    3.23
  -3   0  -7    7.11    3.62
   0   3  -7    3.37    3.62
  -3   3   7    0.08    3.30
  -3   3  -7    3.66    3.56
   3   0  -7    1.31    3.68
   3  -3   7    6.24    3.19
   0  -3  -7   -5.87    2.67
  -3   3  -7   -0.58    3.58
   0  -3   7   -3.31    2.73
   0   3  -7   -3.75    4.06
   3   0   7    1.51    2.54
   0   3   7    1.94    3.86
  -3   0   7    6.73    4.12
   3  -3   7   -2.69    2.94
   3   0  -8   52.30    6.96
  -3   3  -8   71.97    6.82
  -3   3   8   51.93    6.73
   0   3  -8   59.40    6.82
  -3   0   8   51.59    6.97
   3  -3   8   51.54    5.98
   0  -3   8   49.72    6.87
  -3   0   8   51.10    6.11
  -3   0  -8   58.43    7.35
   0   3   8   52.78    6.63
   0   3  -8   46.15    6.36
  -3   3  -8   58.57    7.16
   3  -3   8   50.21    6.29
  -4   2   0  370.28    7.76
   2   2   0  349.57    7.66
  -2  -2   0  357.06    8.24
  -2  -2   0  359.79    8.55
  -2   4   0  377.88    8.77
  -2   4   0  366.56    8.29
   2   2   0  356.22    8.79
  -2   4   0  365.83    7.71
  -4   2   0  369.90    8.64
  -4   2   0  372.57    4.66
  -4   2   0  343.92    8.05
  -2   4   0  384.47    8.18
   2  -4   0  363.33    6.85
  -2   4   1  174.73    5.86
  -2  -2   1  166.90    5.99
  -4   2   1  163.16    6.10
  -4   2   1  175.33    5.45
  -2   4   1  178.23    6.16
  -4   2   1  174.25    3.92
  -4   2   1  177.26    3.84
  -2  -2  -1  162.94    5.82
  -2   4   1  173.79    6.14
  -2   4  -1  176.09    4.65
  -4   2  -1  182.82    5.94
  -2  -2   1  160.78    5.94
  -4   2  -1  177.01    6.05
  -2   4   1  168.99    5.50
   2   2   1  187.43    6.61
  -2   4  -1  167.92    3.91
  -2   4  -1  171.47    5.80
   2  -4  -1  176.98    5.12
  -4   2   1  178.63    6.27
   2   2   1  166.05    5.48
  -4   2  -1  169.56    5.74
  -2   4  -1  174.70    6.40
   2  -4   1  167.35    5.00
  -2   4  -1  177.17    6.01
  -4   2  -1  182.81    4.04
  -2  -2  -1  172.48    6.26
   2   2  -1  177.13    6.29
  -4   2   2  296.10    7.43
  -2  -2   2  303.61    6.83
  -2   4   2  310.30    8.61
   2   2   2  300.42    7.84
  -2  -2   2  300.32    8.42
  -4   2   2  303.27    6.84
  -2  -2   2  306.53    8.54
  -2  -2  -2  287.46    8.04
   2   2  -2  291.25    7.90
   2  -4  -2  304.29    7.54
  -2   4   2  304.29    8.71
  -4   2  -2  306.03    8.26
  -4   2   2  298.25    8.48
  -4   2   2  304.99    6.23
  -4   2  -2  299.21    7.71
  -2   4  -2  303.75    6.85
  -2  -2  -2  307.58    8.74
  -2   4   2  307.94    7.23
   2  -4   2  311.67    7.52
  -2   4   2  315.30    7.81
  -2   4  -2  294.72    8.56
  -4   2  -2  289.10    7.79
  -2   4  -2  308.72    8.50
   2   2   2  313.93    8.50
  -2   4  -3   -0.86    2.38
  -4   2   3    0.51    1.92
  -2  -2  -3    2.33    2.34
  -2   4  -3    0.05    1.79
   2   2  -3    0.49    2.09
  -2  -2   3    0.10    2.41
   4  -2  -3   -0.50    1.93
  -2   4   3    0.91    2.34
  -2   4   3   -0.41    2.15
  -4   2   3    3.38    2.27
  -4   2  -3    1.26    1.94
  -2  -2  -3    1.62    2.01
   2   2  -3   -0.62    1.46
   2   2   3    0.62    1.91
  -4   2   3    0.58    2.27
  -4   2  -3   -7.30    2.26
   2   2   3    0.56    2.09
  -2   4  -3   -0.21    2.06
  -4   2  -3   -0.54    1.91
   2  -4   3    0.50    1.86
   2   2   4  440.65   10.45
   2  -4   4  455.31   11.57
  -2   4   4  422.98   12.24
  -2  -2  -4  462.33   12.16
  -4   2  -4  442.77   12.02
  -2   4  -4  432.17   12.10
  -4   2   4  440.57   10.54
  -4   2   4  456.39   11.79
   4  -2  -4  435.63   11.24
   2   2  -4  438.12   12.21
  -2   4  -4  440.27   11.44
  -4   2   4  440.83   11.36
  -2   4  -4  430.16   11.21
  -4   2  -4  451.04   11.32
  -2  -2   4  444.89   12.15
   2   2   4  443.10   11.56
  -2   4   4  446.17   12.33
  -4   2   5   32.72    4.24
  -4   2   5   23.77    3.88
  -2  -2  -5   27.27    4.05
  -2   4  -5   32.38    4.20
  -2   4   5   35.76    4.80
   2   2  -5   29.11    4.63
   4  -2  -5   27.66    3.98
  -2   4  -5   31.48    3.99
  -2   4  -5   28.56    4.41
  -2   4   5   29.75    4.48
  -2  -2   5   28.39    4.23
  -4   2   5   31.49    3.87
  -4   2  -5   25.03    3.89
   2  -4   5   35.33    4.28
  -4   2  -5   27.47    4.21
   2   2   5   30.52    4.08
  -2  -2  -6   20.17    3.85
  -4   2  -6   33.07    4.48
  -2   4   6   27.49    4.88
   4  -2  -6   26.13    4.34
  -4   2   6   38.18    4.76
   2   2  -6   30.07    4.67
  -2   4  -6   35.19    5.16
   2   2   6   27.76    4.32
  -4   2   6   23.42    4.06
  -4   2  -6   27.79    4.65
   2  -4   6   19.81    3.97
  -2   4   6   23.14    4.41
  -2  -2   6   25.85    4.61
  -2   4  -6   27.97    4.70
  -4   2   6   28.08    3.95
  -4   2  -7   13.28    4.47
  -2   4  -7    6.57    4.12
  -4   2  -7    9.75    3.83
   2   2   7    9.33    3.74
  -2   4  -7    5.63    3.22
   2   2  -7    8.96    4.15
   4  -2  -7    2.93    3.02
   2   2  -7    0.56    3.66
   2  -4   7    5.84    3.73
  -2   4   7   10.48    4.00
  -2   4   7   12.64    4.53
  -2  -2   7    9.74    4.47
  -4   2   7   12.79    3.77
  -4   2   7    5.45    3.47
  -2  -2  -7   16.66    4.22
  -2  -2   7    7.91    3.51
  -4   2  -8   65.07    6.98
  -2  -2   8   70.82    8.12
  -2   4   8   88.49    8.29
  -4   2   8   67.68    7.64
   2  -4   8   67.07    7.53
   4  -2  -8   64.72    6.81
   2   2   8   65.60    7.09
  -2   4  -8   66.40    7.31
   2   2  -8   64.95    7.16
  -2  -2  -8   66.19    7.37
  -2   4  -8   70.86    7.95
  -4   2   8   57.38    6.10
   2  -4   8   74.03    7.21
   2   2  -8   50.92    7.33
  -4   1  -8   17.13    4.72
   1   3  -8   20.72    5.83
   1   3  -8   13.41    4.09
  -4   3   8   13.45    4.06
  -3  -1   8   26.99    5.15
  -1  -3  -8   21.53    4.82
  -3   4  -8   27.11    4.88
   1  -4   8   11.92    4.82
   4  -1  -8    8.20    4.24
  -3   4  -8   13.70    4.77
  -1   4   8   14.38    5.00
  -1   4   7   67.71    7.02
  -3  -1   7   71.87    7.42
   1   3  -7   55.54    6.64
   4  -1  -7   59.62    6.48
  -4   1  -7   67.75    7.12
  -3   4  -7   66.91    6.72
   1   3  -7   54.78    6.23
  -3   4  -7   58.81    6.80
  -4   3   7   54.92    5.62
  -3  -1   7   62.13    6.62
  -4   3   7   59.76    6.48
  -1  -3  -7   59.92    6.36
   1  -4   7   55.71    6.21
  -1   4   6   16.72    4.41
   1   3  -6   15.71    4.03
  -3   4  -6   13.94    3.84
   3   1   6   18.74    3.57
  -3   4  -6   16.43    3.97
  -1   4   6   22.47    4.60
  -4   3   6   11.32    3.24
  -4   1  -6   15.35    4.11
  -4   3   6   15.63    3.98
   4  -1  -6   16.19    4.20
  -3  -1   6   17.47    4.39
   1   3  -6   16.63    4.20
   4  -3   6   15.60    3.60
  -3  -1   6   25.69    4.44
  -4   3   6   14.09    3.69
   1  -4   6   21.66    4.21
  -1  -3  -6   17.42    3.83
   3   1   5  122.87    6.81
  -3  -1   5  124.67    7.25
  -1   4   5  119.19    7.40
  -1   4   5  120.66    7.43
  -4   3   5  121.41    7.24
  -4   3   5  130.32    7.26
  -4   1  -5  123.81    7.57
  -3   4  -5  123.30    7.09
  -1  -3  -5  125.28    6.90
  -3   4  -5  117.50    6.73
   1   3  -5  115.03    7.16
   1  -4   5  123.48    7.15
   4  -1  -5  126.45    7.36
   1   3  -5  122.23    7.27
  -3   4  -5  121.39    7.43
  -4   3   5  116.64    6.28
   4  -3   5  105.82    6.37
  -1   4   4   83.45    5.80
   3   1   4   81.52    5.10
  -4   3   4   72.92    5.04
  -4   3   4   87.81    5.84
   1   3  -4   82.06    5.48
  -1   4   4   84.07    6.03
  -1  -3  -4   81.56    5.28
  -4   1  -4   79.38    5.66
  -3   4  -4   78.11    5.25
  -4   3   4   76.17    4.64
   1  -4   4   80.66    5.42
  -3   4  -4   89.01    5.77
   1   3  -4   83.56    5.74
   4  -1  -4   85.54    5.61
  -3   4  -4   77.03    5.73
   4  -3   4   78.18    4.96
  -3  -1   4   84.93    5.74
   1   3  -4   79.25    4.77
  -4   1  -4   88.30    4.94
   4  -3   3  221.78    6.51
  -1   4   3  211.32    8.25
   3   1   3  236.54    7.19
  -4   3   3  220.49    7.27
  -3  -1   3  214.10    8.08
  -1  -3  -3  206.38    7.17
   1   3  -3  213.07    7.33
   1   3  -3  222.97    7.89
  -3  -1   3  222.64    6.71
   1  -4   3  210.41    7.64
  -1   4   3  223.56    6.61
  -3  -1   3  232.18    8.04
  -4   3   3  218.42    6.27
  -1   4   3  217.29    8.22
  -3   4  -3  202.73    7.81
  -4   3   3  220.06    8.12
   1   3  -3  211.16    7.30
   4  -1  -3  214.55    7.72
  -3   4  -3  213.31    7.00
  -3   4  -3  219.98    8.21
  -4   1  -3  213.19    8.14
  -1  -3  -3  221.30    8.36
  -4   1  -3  217.74    6.72
  -1   4   2   64.87    4.50
  -4   1  -2   62.36    4.37
  -4   3   2   66.67    3.65
  -4   3   2   70.62    3.40
  -1   4   2   68.08    4.67
  -3  -1   2   64.19    4.28
   1   3  -2   66.15    3.77
   1   3  -2   70.86    4.27
  -3  -1   2   68.57    3.92
  -1  -3  -2   67.69    3.93
  -3   4  -2   66.82    2.88
  -4   3   2   65.23    4.41
  -3   4  -2   62.92    4.50
  -3   4  -2   71.17    3.49
   3   1   2   66.74    3.55
  -3   4  -2   65.49    4.44
  -1  -3  -2   70.43    4.53
  -4   1  -2   72.01    3.83
  -1   4   2   68.21    3.37
  -4   3   2   65.01    4.58
  -4   1  -2   62.07    3.52
  -3  -1   2   60.47    4.12
  -4   3   2   63.43    2.77
   1  -4   2   67.61    4.17
  -1   4   2   72.72    4.08
   1   3  -2   66.02    4.29
   1   3  -1  333.21    8.72
   3  -4  -1  334.22    5.75
  -3  -1   1  330.91    8.65
  -4   3   1  345.80    8.73
  -4   1  -1  339.30    8.56
  -3  -1   1  328.58    8.09
  -1   4   1  341.70    8.79
  -4   3   1  354.01    6.42
  -4   3   1  352.86    6.57
   3   1   1  343.76    6.78
  -3   4  -1  354.10    7.13
  -1   4   1  326.52    8.24
  -1  -3  -1  325.15    7.45
  -1   4   1  352.81    8.53
   3   1   1  337.14    8.97
  -3  -1   1  341.84    8.25
  -4   1  -1  338.91    8.58
  -3   4  -1  356.07    7.57
  -4   1  -1  356.57    7.00
  -3   4  -1  334.42    8.87
  -1  -3  -1  335.41    8.77
  -4   3   1  337.23    8.76
   1  -4   1  340.10    7.93
  -1   4   1  353.78    6.85
   1   3  -1  343.85    6.61
  -4   1  -1  331.04    7.23
  -3   4  -1  338.62    5.66
  -3   4  -1  343.00    8.74
   1   3   0  175.85    6.05
  -1   4   0  183.51    5.61
   1  -4   0  174.98    5.66
  -1   4   0  189.85    6.50
   1   3   0  179.98    6.48
  -1  -3   0  182.28    6.37
   1  -4   0  169.94    3.80
  -3  -1   0  166.67    6.15
  -4   1   0  181.01    6.17
  -4   3   0  186.61    4.91
   3   1   0  170.00    4.79
  -3   4   0  181.33    5.46
  -1  -3   0  176.76    5.54
  -3   4   0  179.64    5.74
  -4   3   0  183.38    6.15
  -4   1   0  193.79    6.68
   3   1   0  173.76    6.34
  -3  -1   0  180.66    5.96
   3  -4   0  176.51    3.71
  -3   4   0  186.81    6.39
  -1   4   0  180.43    3.85
  -1   4   0  182.96    6.50
  -4   1   0  167.03    5.41
  -4   3   0  175.58    6.30
  -3   4   0  182.74    6.21
  -1   4   0  182.55    5.26
  -4   1   0  193.07    4.84
  -4   3  -1  359.55    8.11
   3  -4   1  337.69    5.80
  -3   4   1  363.29    8.15
  -4   1   1  347.95    5.69
   1   3   1  342.11    8.75
  -3  -1  -1  334.91    8.63
   3   1  -1  342.74    8.58
  -4   1   1  337.22    8.71
  -1   4  -1  348.90    8.68
  -4   1   1  345.13    8.33
  -1   4  -1  349.18    6.45
  -4   1   1  358.97    6.95
  -1  -3   1  330.60    8.57
  -3   4   1  350.95    8.04
  -3  -1  -1  356.34    8.54
  -3   4   1  352.27    8.56
  -4   3  -1  337.11    8.62
  -4   3  -1  350.73    7.41
  -1   4  -1  351.93    8.10
   1   3   1  346.80    8.55
  -3   4   1  348.00    8.63
  -1   4  -1  349.91    8.98
   1  -4  -1  354.37    8.22
  -4   1   1  358.32    8.49
  -1  -3   1  346.81    8.12
  -3   4   2   52.69    4.12
  -4   1   2   54.77    3.89
   1   3   2   49.78    3.66
  -3   4   2   57.04    3.90
  -4   1   2   53.73    3.16
  -1   4  -2   55.01    4.10
  -4   1   2   54.83    4.03
   3   1  -2   54.64    3.65
   1  -4  -2   59.37    4.02
  -1  -3   2   56.52    3.88
  -4   3  -2   53.89    3.41
   3  -4   2   56.28    3.02
  -4   1   2   62.74    3.58
   1  -4  -2   53.36    2.64
  -3   4   2   57.50    3.24
   4  -3  -2   54.14    3.13
  -3   4   2   57.95    4.01
  -4   3  -2   53.48    3.93
   1   3   2   60.02    4.18
  -1   4  -2   59.04    3.41
  -1   4  -2   54.98    3.83
  -1  -3   2   59.47    4.19
  -3  -1  -2   46.93    3.89
  -3  -1  -2   48.45    3.80
  -4   3  -2   57.41    3.75
  -4   1   3  223.35    7.19
  -4   1   3  236.27    7.23
   1  -4  -3  226.25    8.04
  -1   4  -3  223.06    7.32
   1   3   3  220.26    7.07
   1  -4  -3  216.47    6.04
  -4   1   3  226.08    7.68
  -3  -1  -3  230.35    8.34
  -4   3  -3  227.48    6.37
   3   1  -3  226.97    6.81
  -1   4  -3  238.36    8.15
   1   3   3  227.29    8.09
  -3   4   3  221.01    7.85
   4  -3  -3  221.58    6.74
   3   1  -3  219.18    8.20
  -3   4   3  208.67    8.17
  -4   1   3  242.32    8.06
  -3  -1  -3  232.33    8.18
  -1   4  -3  231.98    8.05
  -4   3  -3  220.38    7.90
  -1  -3   3  228.46    8.31
  -4   3  -3  228.05    7.67
   3  -4   3  231.26    7.00
  -4   1   4   86.29    5.25
  -3   4   4   89.34    5.89
  -3  -1  -4   90.26    6.04
  -1   4  -4   88.73    5.51
  -4   3  -4   85.48    5.66
  -4   1   4   93.00    5.61
  -4   1   4   93.95    5.56
  -1   4  -4   92.25    6.06
  -3   4   4   90.60    6.11
   4  -3  -4   87.57    5.02
   3   1  -4   89.94    6.09
  -4   3  -4   89.54    5.81
  -1   4  -4   81.69    5.27
   3  -4   4   85.13    5.19
  -1  -3   4   84.78    5.96
   1   3   4   99.51    6.23
  -4   1   5  108.56    6.40
  -4   1   5  106.08    6.63
   1   3   5  104.03    6.94
  -3   4   5  101.71    6.84
  -3   4   5  107.94    7.08
  -4   1   5  101.07    5.98
  -3  -1  -5  113.37    7.17
   3  -4   5  105.78    6.28
  -4   3  -5  107.37    6.84
  -1   4  -5   97.56    6.82
  -4   3  -5   99.57    6.52
  -1   4  -5   98.74    6.43
   4  -3  -5  104.78    6.07
   3   1  -5  115.66    7.28
  -1  -3   5  109.08    7.09
  -1   4  -5  115.12    6.38
  -1   4  -6   21.20    4.43
  -4   3  -6   14.98    3.84
  -4   3  -6   15.62    3.86
  -4   1   6   15.08    3.31
  -1   4  -6   16.22    3.80
  -3   4   6   16.99    4.39
  -4   1   6   20.48    4.14
  -3   4   6   20.28    4.46
  -3  -1  -6   14.97    3.91
   3   1  -6   14.34    3.82
   3  -4   6   23.21    4.15
   1   3   6   15.78    3.93
  -1  -3   6   16.26    4.12
  -3   4   7   84.99    7.59
  -4   1   7   64.21    6.52
  -4   3  -7   65.42    6.74
   3  -4   7   52.31    6.06
  -3  -1  -7   70.59    6.91
  -1   4  -7   65.08    6.89
   1   3   7   75.31    7.09
  -1   4  -7   68.35    6.61
  -4   3  -7   73.84    7.02
   3   1  -7   68.19    7.02
  -4   1   7   74.76    6.56
  -1  -3   7   75.13    7.00
   3  -4   7   78.77    7.09
  -3   4   7   67.55    6.65
  -4   3  -8    9.43    3.97
  -1   4  -8   29.22    5.21
   3  -4   8   12.66    4.03
  -1  -3   8   21.90    5.10
  -3  -1  -8   17.82    4.93
  -3   4   8   10.49    4.00
   1   3   8   10.99    4.27
  -4   1   8    9.10    4.41
  -1   4  -8   34.66    5.75
   3   1  -8   11.83    4.58
  -4   3  -8    9.68    4.41
   3  -4   8   11.26    3.30
  -4   1   8   21.38    4.44
   0   4   0  109.79    5.36
   0  -4   0  110.82    4.14
  -4   0   0  113.92    5.49
   0   4   0  119.92    3.86
  -4   4   0  111.89    5.07
  -4   4   0  118.14    5.45
  -4   0   0  105.65    5.28
  -4   4   0  121.18    4.16
  -4   0   0  110.41    4.23
  -4   4   0  115.38    5.45
   0   4   0  116.36    5.58
   0  -4   0  112.21    5.25
  -4   0   0  120.34    4.78
   0   4  -1  505.60   11.13
  -4   0   1  524.30   11.21
   0  -4   1  507.11    9.28
  -4   0   1  534.17    9.90
  -4   4   1  522.09   11.17
   0  -4  -1  515.85    8.53
  -4   0  -1  497.82   11.15
  -4   4  -1  523.52    8.20
  -4   4  -1  503.18    9.56
   4   0  -1  496.20   10.59
  -4   4   1  517.10   10.19
  -4   4  -1  512.78   11.43
  -4   0   1  513.68   11.05
   0  -4  -1  516.57   11.06
   0   4  -1  500.74   11.27
   0   4  -1  517.79    9.23
  -4   4   1  516.14    9.23
  -4   0  -1  486.99    7.88
  -4   4   1  519.59   11.28
  -4   4  -1  500.70   11.18
   0  -4   1  510.22   10.82
   0   4  -1  535.64    9.19
   0   4   1  511.35   10.98
  -4   0  -1  523.13   10.07
   0   4   1  495.64   11.08
   0   4   2  121.36    6.06
  -4   4   2  125.47    5.36
  -4   0   2  115.57    5.87
   0  -4  -2  121.48    4.66
  -4   0  -2  118.25    6.03
  -4   4   2  117.73    5.96
  -4   4  -2  121.02    4.87
  -4   4  -2  119.81    4.59
   4   0  -2  118.85    5.22
  -4   0   2  121.96    5.68
  -4   4   2  119.66    4.74
  -4   0   2  121.69    5.41
  -4   4  -2  118.37    6.10
  -4   4   2  117.81    5.98
   0   4   2  120.67    5.49
   0   4  -2  119.36    5.22
   0  -4  -2  123.39    6.01
   0  -4   2  127.09    6.06
   0   4  -2  114.40    5.17
  -4   0  -2  121.68    5.41
  -4   4  -2  121.07    6.04
   0   4  -2  115.47    5.87
  -4   4  -3   12.50    3.05
   4   0  -3   15.08    3.19
  -4   4   3   15.68    3.31
  -4   4  -3   13.99    2.50
   0  -4   3   15.59    3.35
   0   4   3   14.41    3.20
   0   4  -3   15.25    2.95
   0   4  -3   15.25    2.94
   0   4   3   14.69    2.59
  -4   4  -3   17.53    3.51
  -4   0  -3   13.43    3.19
  -4   0   3   17.20    3.17
   0  -4  -3   15.68    2.52
   0  -4  -3   10.90    2.61
  -4   0   3   16.97    2.79
  -4   0   3   15.31    2.93
  -4   4   3   14.23    2.87
   4   0  -3   16.02    2.44
   0   4  -3   17.41    3.04
  -4   0  -3   13.30    2.76
   0   4  -4    1.57    2.55
   4  -4   4    4.04    2.22
  -4   4  -4    3.80    2.90
   0  -4  -4    0.84    1.97
  -4   4   4    2.06    2.98
  -4   4   4    2.24    2.82
   0   4  -4    1.90    2.52
   0  -4  -4    3.52    2.75
  -4   0  -4    3.93    3.32
   4   0  -4    2.66    2.83
  -4   0   4    4.64    2.83
  -4   4  -4    0.20    1.94
   0  -4   4    1.60    3.03
   0   4  -4    0.97    2.14
   0   4   4    3.05    3.16
  -4   0   4    4.46    2.49
  -4   4  -5  119.91    7.48
   4   0  -5  117.59    7.25
   0   4  -5  114.67    7.26
   0   4   5  109.74    7.27
  -4   0   5  114.38    7.06
   4  -4   5  110.24    6.36
  -4   4   5  116.54    7.44
  -4   0   5  113.25    6.91
  -4   4  -5  115.23    6.95
   0   4  -5  116.63    7.20
   0  -4   5  116.01    7.22
  -4   0  -5  116.02    7.52
  -4   4   5  116.51    7.09
   0   4   6   78.37    6.80
  -4   4   6   70.15    6.58
  -4   0   6   70.06    6.43
  -4   4   6   65.88    6.65
  -4   0  -6   61.07    6.19
  -4   4  -6   64.22    6.02
   0   4  -6   67.13    6.25
  -4   0   6   62.95    5.96
   4   0  -6   65.56    6.34
  -4   4  -6   68.12    6.38
   0  -4   6   66.70    6.28
   0   4  -6   69.34    6.35
   0   4   7   60.63    6.96
  -4   4   7   78.77    7.67
  -4   0   7   87.79    7.58
  -4   0   7   69.88    6.60
  -4   4   7   84.32    7.63
  -4   0  -7   68.58    7.18
  -4   4  -7   73.24    7.13
  -4   4  -7   75.57    7.09
   0   4  -7   75.81    6.98
   4   0  -7   73.61    7.79
   0  -4   7   88.97    7.52
   0   4  -7   86.02    7.46
   0   4   8    0.91    4.24
  -4   4  -8    6.96    4.35
  -4   4   8    2.11    3.41
   4   0  -8   14.22    5.26
  -4   0   8    6.72    3.60
   0   4  -8    1.84    3.03
  -4   0  -8   -2.83    3.73
   0   4  -8   12.13    3.94
  -4   4  -8   -1.24    2.75
  -3   5  -8    7.88    3.71
   5  -2  -8   -1.79    4.19
  -5   3   8    7.35    4.07
  -2  -3  -8    3.21    3.32
  -3   5  -7   26.73    5.62
  -2   5   7   32.68    5.83
   2   3  -7   37.58    5.94
  -3   5  -7   28.54    4.81
   5  -2  -7   33.48    5.40
  -5   3   7   43.66    5.72
   2   3  -7   40.97    6.01
  -2   5   7   28.40    5.93
  -5   2  -7   29.71    5.43
  -3  -2   7   41.89    6.19
  -2  -3  -7   33.53    5.76
   2  -5   7   29.10    4.77
  -3  -2   7   43.08    5.96
  -2  -3  -6   13.88    3.96
  -3   5  -6   17.94    4.34
   2   3  -6   13.29    4.24
  -3   5  -6   13.34    3.86
  -5   2  -6   18.95    4.33
  -2   5   6   22.66    4.72
  -5   3   6   20.76    4.17
   5  -2  -6   21.48    4.42
  -2   5   6   16.83    4.25
  -5   3   6   23.11    4.39
   2   3  -6   18.59    4.78
   2  -5   6   23.13    4.18
   3   2   6   19.35    4.17
  -3  -2   6   17.65    4.13
  -3   5  -5   85.33    6.01
  -3  -2   5   89.83    6.55
   3   2   5   80.90    5.95
  -2   5   5   95.56    7.11
  -5   3   5   84.51    6.19
  -2  -3  -5   82.66    6.86
   2   3  -5   74.27    5.97
  -2   5   5   81.60    6.77
  -2  -3  -5   88.33    6.71
  -5   3   5   83.84    6.55
  -5   2  -5   86.12    6.58
  -3   5  -5   82.10    6.22
   2  -5   5   85.31    6.29
   2   3  -5   81.92    6.55
   5  -2  -5   94.03    6.53
  -5   2  -5   84.27    5.87
  -3   5  -5   82.30    6.60
  -2  -3  -4   47.69    4.89
  -2   5   4   51.20    5.25
  -5   3   4   46.97    4.35
   2  -5   4   45.09    4.40
   3   2   4   50.53    4.53
  -5   2  -4   47.40    5.06
  -2   5   4   44.35    5.15
  -5   3   4   45.49    4.83
   3   2   4   47.36    4.47
   2   3  -4   40.77    4.23
  -3   5  -4   41.57    3.93
  -3  -2   4   42.13    4.81
  -3   5  -4   46.99    4.98
   2   3  -4   45.71    4.81
  -2  -3  -4   45.78    4.96
   5  -2  -4   45.00    4.62
  -5   2  -4   42.40    4.08
  -3   5  -4   44.60    4.91
  -5   2  -4   42.97    4.25
   2   3  -4   47.85    4.32
   2   3  -3  236.50    8.45
  -2  -3  -3  231.68    8.46
   3   2   3  242.32    8.11
  -2   5   3  237.68    9.04
  -5   3   3  247.96    7.67
  -3  -2   3  241.74    9.19
  -3   5  -3  224.43    8.96
  -5   2  -3  247.41    9.05
  -5   3   3  245.29    9.17
   3   2   3  246.92    8.91
  -5   2  -3  244.47    8.34
  -3   5  -3  230.94    7.44
   2   3  -3  239.65    7.95
  -3  -2   3  244.61    9.12
   2   3  -3  232.84    8.79
   5  -2  -3  247.96    8.59
  -2   5   3  224.24    9.11
  -5   2  -3  236.30    7.99
   2  -5   3  242.40    8.36
  -3   5  -3  238.19    9.11
  -2  -3  -3  225.31    9.03
   3  -5  -3  244.18    7.83
   3   2   2   82.79    4.57
   2   3  -2   84.27    5.20
  -2   5   2   89.90    5.61
  -3  -2   2   87.60    5.36
   2   3  -2   91.82    4.38
  -2  -3  -2   82.18    4.93
  -5   2  -2   87.29    5.34
  -2   5   2   85.82    5.49
  -5   3   2   81.01    5.23
   3   2   2   87.98    5.46
  -3  -2   2   83.41    4.56
  -5   2  -2   82.03    5.07
  -5   3   2   87.49    4.46
  -5   3   2   89.50    5.54
  -3   5  -2   84.84    5.55
  -2  -3  -2   89.05    5.60
   2   3  -2   94.92    5.51
  -2   5   2   87.10    4.55
  -3  -2   2   89.00    5.41
  -5   2  -2   90.78    4.89
  -3   5  -2   88.03    5.39
   2  -5   2   88.96    4.82
  -2   5   2   92.22    4.97
   3  -5  -2   88.50    4.24
  -3   5  -1  157.19    6.06
   2   3  -1  155.05    6.82
  -5   3   1  156.96    5.48
  -2  -3  -1  159.46    6.27
  -5   2  -1  160.04    6.43
  -3   5  -1  172.16    5.53
  -5   3   1  157.18    6.72
  -5   2  -1  157.72    6.67
   3   2   1  155.48    6.87
  -3  -2   1  157.21    6.65
   3   2   1  156.00    5.62
   3  -5  -1  159.17    4.96
  -2  -3  -1  159.64    6.87
  -3   5  -1  160.78    7.10
  -5   3   1  150.10    6.54
  -2   5   1  171.17    5.86
  -5   2  -1  165.84    6.20
  -3   5  -1  165.35    6.64
  -2   5   1  163.63    6.84
  -2   5   1  167.52    6.63
   2  -5   1  167.74    5.91
  -3  -2   1  152.33    6.44
  -2   5   1  154.57    6.42
  -3   5   0   36.22    3.36
  -2   5   0   35.18    3.58
  -2   5   0   35.54    3.62
   3   2   0   38.59    3.05
  -5   2   0   42.53    3.49
  -5   3   0   40.13    3.09
  -3   5   0   43.05    3.45
   3  -5   0   38.45    2.50
   3   2   0   40.44    3.91
  -2   5   0   42.45    3.42
  -5   3   0   40.16    3.64
  -5   2   0   38.54    3.73
   2   3   0   36.54    3.74
  -2  -3   0   40.54    3.80
   2   3   0   44.19    3.67
  -3  -2   0   38.64    3.68
  -2  -3   0   46.98    3.60
  -5   2   0   40.90    3.47
  -3   5   0   37.93    3.73
  -5   3   0   40.69    3.69
  -3   5   0   47.05    3.78
  -2   5   0   40.33    3.24
   2  -5   0   43.99    3.21
  -3  -2   0   38.36    3.60
  -3   5   1  166.94    6.52
  -5   2   1  163.55    6.16
  -2  -3   1  157.17    6.79
  -2  -3   1  160.01    6.46
   2   3   1  154.41    6.19
   3   2  -1  159.60    6.86
  -3  -2  -1  155.19    6.50
  -5   3  -1  165.03    6.06
  -2   5  -1  161.96    5.13
  -3   5   1  174.41    6.84
  -5   2   1  151.53    6.72
  -5   3  -1  167.84    6.60
  -5   2   1  162.16    6.52
   2   3   1  166.72    7.03
  -3   5   1  162.81    6.30
  -3   5   1  170.21    6.58
  -5   3  -1  153.29    6.37
  -2   5  -1  162.04    6.27
  -2   5  -1  159.25    6.87
   3  -5   1  163.03    5.09
   2  -5  -1  160.63    5.79
  -2   5  -1  160.50    6.52
  -3  -2  -1  170.03    6.89
  -2  -3   2   79.87    4.98
  -5   2   2   82.36    4.78
   3   2  -2   85.90    5.09
   2   3   2   86.32    5.29
   2   3   2   76.75    4.83
  -3  -2  -2   82.52    5.21
  -3   5   2   81.77    5.41
  -5   2   2   79.34    5.27
  -5   3  -2   81.79    4.80
  -2  -3   2   81.17    4.04
  -3  -2  -2   82.65    5.22
   3  -5   2   82.56    4.14
  -5   3  -2   88.31    5.02
  -3   5   2   86.48    4.93
  -3   5   2   87.66    4.68
  -2   5  -2   81.14    5.45
  -5   3  -2   80.79    5.01
  -2   5  -2   81.32    5.06
  -2  -3   2   76.73    5.24
   2  -5  -2   85.95    4.72
  -3   5   2   80.07    5.08
   2   3   3  250.71    8.90
  -3   5   3  234.19    8.79
   3   2  -3  259.11    8.40
  -5   2   3  259.08    8.48
   2  -5  -3  252.13    8.55
   2   3   3  241.30    8.52
  -3  -2  -3  240.20    8.92
  -3   5   3  242.39    9.37
  -5   3  -3  240.48    8.64
  -5   2   3  235.55    8.82
  -5   3  -3  267.07    8.11
  -2   5  -3  240.91    7.61
   5  -3  -3  244.76    7.79
   3   2  -3  251.42    9.41
  -3  -2  -3  246.15    9.21
  -2   5  -3  236.96    9.08
  -5   3  -3  247.04    8.76
   3  -5   3  245.57    7.76
  -2   5  -3  246.84    8.98
  -2  -3   3  248.45    9.29
  -5   3  -4   41.41    4.49
   2   3   4   45.82    4.68
  -3   5   4   50.25    5.08
  -5   2   4   50.26    4.35
   2   3   4   35.52    3.85
  -3  -2  -4   52.05    5.10
  -2  -3   4   52.27    5.28
  -5   2   4   48.04    4.71
   3  -5   4   53.78    4.46
  -2   5  -4   45.03    4.14
   5  -3  -4   48.20    4.33
  -2   5  -4   48.71    4.90
   3   2  -4   46.08    5.11
  -2   5  -4   48.11    4.73
  -3   5   4   44.80    5.16
  -5   3  -4   47.60    4.65
  -3  -2  -4   51.77    5.05
  -3  -2  -5   76.79    6.44
   2   3   5   78.36    6.18
  -3   5   5   72.73    6.34
  -5   2   5   62.73    5.15
   3  -5   5   77.18    5.72
  -3   5   5   73.92    6.49
  -3  -2  -5   86.06    6.57
  -5   2   5   82.11    6.07
  -5   3  -5   81.21    6.32
  -2   5  -5   77.33    5.84
  -5   3  -5   79.13    6.07
   5  -3  -5   80.19    5.84
   3   2  -5   75.20    6.50
  -2   5  -5   69.82    5.67
  -2  -3   5   81.84    6.48
  -2   5  -5   74.04    6.43
  -3  -2  -6   23.99    4.82
  -2   5  -6   24.21    4.49
  -5   3  -6   26.80    4.60
  -2   5  -6   15.66    4.58
  -5   2   6   20.40    3.99
  -2  -3   6   21.61    4.23
   3   2  -6   16.60    4.36
  -5   3  -6   27.49    4.75
  -3   5   6   17.02    4.51
   2   3   6   20.68    4.32
  -3   5   6   16.86    4.34
   3  -5   6   17.30    3.26
  -2  -3   7   42.51    5.79
  -2   5  -7   41.88    6.21
   3   2  -7   31.18    5.69
  -2   5  -7   35.78    5.20
   2   3   7   36.65    5.93
  -3   5   7   28.24    5.28
  -5   2   7   35.28    5.60
   3   2  -7   32.62    5.98
  -3   5   7   30.95    5.75
  -5   3  -7   37.47    5.34
  -3  -2  -7   35.66    5.81
   3  -5   7   41.45    5.15
  -5   3  -7   51.08    6.51
  -3  -2  -8    4.85    4.89
  -2   5  -8    1.82    3.24
   2   3   8    7.40    4.23
  -5   2   8    5.38    3.51
  -3   5   8   -4.04    3.43
   3  -5   8   -2.12    3.78
   5  -1  -8   37.70    6.33
  -5   1  -7    0.04    4.35
   1  -5   7    3.93    3.62
  -4   5  -7   -2.22    3.89
   1   4  -7   -0.47    3.47
  -4   5  -7    4.74    3.26
  -1   5   7    5.78    4.34
   1   4  -7    7.22    4.65
  -5   4   7    1.77    3.48
   5  -1  -7    0.61    3.71
  -4  -1   7    2.53    4.14
  -5   4   7   -5.63    3.65
  -4  -1   7   -0.04    2.78
  -1   5   6  155.71    9.80
  -5   4   6  148.85    8.81
  -4  -1   6  150.34    9.17
  -5   1  -6  153.18    9.64
  -5   4   6  165.68    9.69
  -4   5  -6  149.13    8.78
   1   4  -6  149.49    9.11
   1   4  -6  150.24    9.23
   5  -1  -6  158.11    9.30
  -1  -4  -6  150.57    9.43
  -4   5  -6  147.87    9.31
   1  -5   6  160.04    9.18
  -4  -1   6  164.89    9.36
  -1  -4  -5    6.83    3.31
   1   4  -5    1.83    2.78
  -4   5  -5    5.29    3.12
  -1   5   5    1.83    3.13
  -5   4   5    2.12    2.80
  -1   5   5    7.06    3.66
   1   4  -5   -0.86    2.66
   5  -1  -5    1.90    3.19
  -5   1  -5    2.19    3.64
  -4  -1   5   -0.18    3.64
  -4   5  -5    4.33    2.63
  -5   4   5    0.72    3.09
  -4   5  -5    3.32    3.29
   1  -5   5    3.88    2.93
  -1  -4  -4   52.72    5.28
   1   4  -4   61.20    5.11
  -1   5   4   55.64    5.51
  -5   4   4   62.55    4.93
   1  -5   4   61.88    5.42
  -1   5   4   57.17    5.75
  -1  -4  -4   57.93    4.84
  -5   1  -4   57.52    5.66
  -5   4   4   59.34    5.47
  -4   5  -4   60.84    4.81
  -4   5  -4   64.12    5.65
   1   4  -4   75.17    5.82
   5  -1  -4   65.70    5.65
  -4   5  -4   62.95    5.67
  -4  -1   4   59.58    5.34
   1   4  -4   62.55    5.06
  -4  -1   3    8.70    3.08
  -5   1  -3    3.80    2.94
   1   4  -3    4.46    2.37
  -4   5  -3    8.96    3.21
  -5   4   3    7.83    2.45
   1  -5   3    4.69    2.76
   1   4  -3    6.86    2.71
   1   4  -3    5.79    2.68
  -1   5   3    6.25    3.35
   5  -1  -3    4.57    2.54
  -1   5   3    8.30    2.54
  -5   4   3    7.10    3.10
  -4  -1   3    6.45    2.57
  -4   5  -3    5.25    2.94
  -4  -1   3    3.70    2.84
  -5   1  -3    3.80    2.13
  -1   5   3    5.97    3.00
  -1  -4  -3    6.43    2.72
  -1  -4  -3    5.60    2.47
   1   4  -2  142.24    6.88
  -1   5   2  170.01    7.69
  -4  -1   2  158.00    7.26
  -1  -4  -2  162.94    6.22
  -5   1  -2  151.55    7.16
  -1   5   2  154.82    7.20
  -5   4   2  156.47    7.30
  -4  -1   2  163.70    6.82
  -5   1  -2  156.67    7.04
   1  -5   2  150.56    6.69
  -4  -1   2  157.97    6.82
  -4   5  -2  134.25    6.95
   1   4  -2  157.68    6.59
   1   4  -2  164.43    6.05
  -5   4   2  165.54    7.55
  -5   1  -2  156.43    5.69
  -4   5  -2  151.98    7.16
  -1  -4  -2  165.10    7.44
  -5   1  -2  166.53    6.10
  -1   5   2  158.96    6.67
  -4   5  -1   20.99    3.21
   1   4  -1   18.35    3.06
  -4   5  -1   19.07    2.45
  -5   1  -1   16.87    2.32
  -1   5   1   22.31    3.32
   4   1   1   19.05    3.35
  -1   5   1   20.14    2.96
  -4  -1   1   19.65    2.87
  -1   5   1   18.62    3.27
  -4   5  -1   19.97    2.54
  -5   4   1   22.14    3.31
  -4  -1   1   21.05    3.11
  -5   1  -1   18.62    3.25
  -4   5  -1   16.54    3.19
   1  -5   1   19.60    2.86
  -5   1  -1   15.67    3.22
  -4  -1   1   16.54    2.93
   1   4  -1   20.41    3.18
  -1  -4  -1   17.26    2.45
  -5   4   1   19.34    3.16
  -1  -4  -1   20.77    3.20
  -5   1  -1   18.41    2.27
  -4  -1   0  741.53   13.28
   1   4   0  724.72   14.47
  -4   5   0  744.09   12.01
  -1   5   0  743.57   14.40
  -4  -1   0  703.86   13.98
  -5   1   0  737.26   13.89
  -4   5   0  725.59   12.82
  -5   4   0  714.46   13.38
   1   4   0  713.79   13.69
   4   1   0  707.85   14.20
  -5   1   0  690.60   13.88
   1  -5   0  750.52   13.31
  -4   5   0  715.08   13.79
  -5   1   0  715.58   12.11
  -1   5   0  735.23   14.14
  -5   4   0  729.96   14.23
  -4   5   0  735.36   14.06
  -1   5   0  759.26   11.53
  -5   1   0  742.67   11.01
  -1  -4   0  718.38   14.08
  -1  -4   0  722.80   12.18
  -4   5   1   21.04    3.18
  -5   4  -1   18.16    3.13
  -1  -4   1   20.10    3.19
  -1   5  -1   16.89    2.99
   1   4   1   23.17    3.19
  -5   1   1   19.56    2.35
  -5   4  -1   22.07    2.47
  -1   5  -1   17.27    3.17
  -4   5   1   18.95    2.62
  -4   5   1   20.06    3.15
   1  -5  -1   22.19    3.03
  -5   4  -1   18.70    2.82
  -4  -1  -1   19.88    2.88
  -5   1   1   23.78    3.42
  -1  -4   1   16.62    2.57
  -4   5   1   18.93    2.96
   4   1  -1   15.63    2.88
  -5   1   1   16.17    2.84
   1   4   1   17.93    3.01
  -4  -1  -1   19.39    3.26
  -1   5  -1   20.77    2.70
   1   4   2  165.51    7.36
  -4   5   2  160.61    6.66
  -1  -4   2  175.48    6.96
   1   4   2  164.84    7.04
  -5   1   2  171.79    7.28
   1  -5  -2  169.60    7.16
  -4  -1  -2  153.05    7.21
   4   1  -2  157.97    6.78
  -5   4  -2  167.52    6.30
  -4   5   2  166.41    7.55
  -1  -4   2  157.13    7.25
  -5   4  -2  171.72    6.31
  -5   1   2  166.38    7.28
  -1   5  -2  166.91    5.92
  -4   5   2  164.62    6.17
  -4   5   2  168.08    7.24
  -5   4  -2  157.40    7.11
  -1   5  -2  170.40    6.80
  -5   1   2  178.96    6.33
  -1   5  -2  166.25    7.45
  -4  -1  -2  166.82    7.04
  -4  -1  -3    4.92    2.40
  -5   4  -3    3.24    2.36
   1   4   3    9.17    2.72
  -1   5  -3    6.56    3.13
  -1   5  -3    6.36    2.89
  -4   5   3    6.67    2.80
  -1   5  -3    7.58    2.49
   1   4   3    7.38    3.02
   4   1  -3    4.17    2.01
  -4  -1  -3    5.14    2.84
  -4   5   3    8.82    3.27
  -5   1   3    5.38    2.42
  -5   4  -3    5.35    2.92
  -5   1   3    6.55    2.77
  -4   5   3    8.74    3.07
  -5   1   3    6.57    2.73
   1  -5  -3    4.07    2.56
   4   1  -3    4.83    2.89
  -1  -4   3    4.52    3.12
  -4   5   4   54.99    5.21
  -5   1   4   64.70    5.01
  -4  -1  -4   55.02    5.41
  -4   5   4   51.73    5.42
  -5   4  -4   63.13    5.30
  -5   1   4   59.67    5.01
  -4  -1  -4   53.01    4.96
  -1   5  -4   72.57    5.28
   1   4   4   52.87    5.05
   4   1  -4   57.32    5.59
  -1   5  -4   52.03    4.85
  -5   4  -4   64.34    5.51
  -5   1   4   57.09    4.57
  -1  -4   4   50.18    5.20
  -1   5  -4   51.52    5.11
   1  -5  -4   55.18    5.16
  -4  -1  -5    2.93    2.63
  -5   4  -5    2.76    3.22
  -4  -1  -5    4.10    3.72
   1   4   5    1.75    3.01
  -4   5   5   -4.62    3.15
  -1   5  -5    2.10    2.64
  -5   1   5    4.52    2.85
  -1   5  -5    4.41    3.17
   4   1  -5    1.16    3.10
   1  -5  -5   -0.35    2.48
  -1  -4   5    6.36    3.52
  -4   5   5    0.59    3.35
  -5   1   5   -0.05    2.24
  -1   5  -5   -3.63    3.13
  -5   4  -5    3.59    2.56
  -5   1   5    0.48    2.19
   1   4   6  167.90    9.68
  -4   5   6  158.09    9.49
  -5   1   6  154.64    9.00
  -1   5  -6  162.27    9.72
  -4   5   6  148.73    9.27
  -4  -1  -6  150.67    9.63
  -5   4  -6  145.74    9.14
  -1   5  -6  156.09    8.90
   4   1  -6  167.18    9.84
  -5   1   6  159.35    8.87
  -1  -4   6  161.08    9.31
  -5   4  -6  153.77    9.17
  -4  -1  -7    7.38    4.81
  -5   4  -7   11.61    4.32
  -5   4  -7   -1.47    3.36
  -1   5  -7   11.62    4.75
  -1   5  -7    2.35    3.39
  -4   5   7    1.67    3.42
  -5   1   7   -4.59    3.60
   4   1  -7    2.12    3.51
  -4   5   7    5.68    4.94
   1   4   7   10.21    4.24
  -5   1   7    1.53    2.22
  -1  -4   7    7.48    2.91
  -5   1   8   16.34    4.67
  -4   5   8   18.17    4.82
  -5   4  -8   21.67    5.08
   0   5   0  169.46    7.61
   0   5   0  183.24    7.69
  -5   0   0  173.24    7.60
  -5   5   0  194.49    7.42
  -5   0   0  179.81    7.66
  -5   5   0  182.90    7.53
  -5   0   0  186.55    6.68
  -5   5   0  174.86    7.65
   0  -5   0  199.69    7.90
   0   5  -1  411.54   11.40
   0   5   1  418.95   11.44
   0   5   1  433.03   11.78
   0  -5   1  420.39    9.38
  -5   0   1  438.24   11.74
  -5   0  -1  425.60   11.71
  -5   5   1  416.75   11.20
  -5   5  -1  425.54   10.07
  -5   0   1  423.73   11.48
   5   0  -1  401.60   10.96
  -5   0  -1  418.46   11.58
  -5   5   1  424.84   10.61
  -5   5  -1  410.35   11.53
   0   5  -1  447.89    9.49
   0  -5   1  429.98   11.37
  -5   5   1  416.35   11.45
  -5   5  -1  422.54   11.66
   0  -5  -1  421.81   11.40
  -5   0  -1  448.93   10.45
   0   5  -1  408.20   11.63
  -5   0   1  435.80   10.14
  -5   0   2   31.04    3.63
   0  -5   2   28.88    3.93
  -5   5  -2   30.90    4.03
   0  -5  -2   34.34    3.98
  -5   5   2   32.22    3.22
  -5   0   2   33.86    4.10
   0   5   2   32.96    4.08
   0   5   2   32.24    3.80
  -5   0  -2   27.00    4.08
   5   0  -2   32.67    3.77
  -5   5  -2   30.71    4.42
  -5   5   2   34.51    4.27
  -5   0   2   29.77    3.61
   0   5  -2   37.07    3.63
  -5   5   2   39.16    4.37
   0   5  -2   30.25    3.28
  -5   0  -2   33.76    3.46
   0   5  -2   34.17    4.22
   0  -5   3    5.35    3.26
  -5   0   3    2.20    2.63
   0   5  -3    5.26    2.63
   0   5   3    3.80    2.96
  -5   5   3    2.90    2.33
   0  -5  -3    4.33    2.98
   0   5  -3    1.85    2.93
   0   5  -3    5.66    2.67
  -5   0  -3    1.09    2.29
   5   0  -3    4.77    3.12
  -5   5  -3    4.33    3.23
  -5   5   3    5.56    2.87
  -5   5  -3    5.59    3.04
  -5   0   3    5.09    2.76
  -5   0   3   -0.57    2.80
   0   5   3    4.84    2.45
  -5   5   3    3.88    2.88
  -5   0  -3    1.81    3.21
  -5   0  -4    3.73    3.18
   0   5   4    7.96    3.13
  -5   0  -4    4.47    2.34
  -5   5  -4    5.33    2.72
   0   5  -4    8.58    3.26
   0   5  -4    9.66    3.24
  -5   5   4    5.29    2.82
   0   5  -4    7.66    2.93
   5   0  -4    9.24    3.50
  -5   5   4    4.41    3.18
  -5   0   4    5.65    2.90
  -5   5  -4    8.12    3.36
   0  -5  -4    3.75    2.79
   0  -5   4    6.34    3.41
  -5   0   4    4.16    2.70
  -5   5   5  117.76    7.56
  -5   0   5  124.69    7.42
   0   5   5  126.24    8.36
  -5   0  -5  123.83    8.52
  -5   5   5  129.49    8.42
  -5   5  -5  118.49    7.29
  -5   0  -5  133.18    7.89
   0   5  -5  112.26    7.52
   0   5  -5  114.15    7.56
   5   0  -5  116.16    7.85
  -5   0   5  129.70    7.68
  -5   5  -5  111.48    8.20
   0  -5   5  121.49    7.90
   0  -5  -5  121.35    8.07
   0  -5   6   50.79    6.12
  -5   5  -6   44.99    5.37
   0   5  -6   49.29    6.03
  -5   5   6   52.85    5.97
  -5   0   6   51.44    5.77
  -5   0  -6   54.54    6.57
  -5   5   6   52.56    6.42
   0   5  -6   47.06    5.58
   5   0  -6   59.69    6.62
   0   5   6   40.27    5.69
  -5   0   6   58.38    6.05
  -5   5  -6   50.54    6.10
   0  -5  -6   50.31    5.92
  -5   5  -7   49.67    6.17
  -5   0   7   65.61    7.19
   0  -5  -7   63.03    7.14
   0   5   7   45.04    6.48
  -5   5   7   54.78    6.70
   5   0  -7   46.89    6.72
  -5   0  -7   69.01    7.81
  -5   5   7   50.24    6.72
   0   5  -7   53.00    6.29
   0  -5   7   61.95    6.54
  -5   5  -7   64.88    7.59
   0   5  -7   65.93    7.22
  -5   0   7   50.98    5.93
  -3   6   0   34.95    4.22
  -3   6   0   31.37    3.76
   3   3   0   23.26    3.05
  -3  -3   0   34.98    3.84
  -6   3   0   32.76    3.44
  -3   6   0   35.85    3.67
  -6   3   0   31.72    3.93
   3   3   0   32.45    4.05
  -3   6   0   32.89    3.52
  -3  -3   0   35.34    4.03
  -6   3   0   26.99    3.57
  -3   6  -1   45.34    4.07
   3   3   1   45.88    3.82
   3   3  -1   45.06    4.46
  -3  -3   1   45.61    4.31
  -3  -3  -1   43.49    4.26
   3   3   1   46.90    4.78
  -6   3  -1   47.13    4.26
  -3   6   1   46.11    4.18
  -6   3   1   42.28    4.47
  -6   3  -1   48.26    4.67
  -6   3   1   43.71    4.26
  -3   6   1   46.85    3.92
  -6   3  -1   45.26    4.23
  -3   6  -1   42.39    4.58
  -3   6   1   51.59    4.54
  -3   6  -1   40.53    3.99
  -3  -3   1   43.17    4.44
  -3  -3  -1   48.20    4.66
  -3   6   1   47.41    4.38
  -6   3   1   43.95    3.68
  -3  -3   2  333.89   10.74
   3   3   2  343.14   10.02
  -3   6   2  332.83   10.69
   3   3  -2  329.89   10.68
  -3  -3   2  342.15   11.02
  -6   3   2  356.46    9.76
  -3  -3  -2  346.92   10.65
   3   3   2  344.99   11.05
  -6   3  -2  356.42   10.49
  -3   6   2  347.24   11.17
  -6   3   2  336.44   11.08
  -6   3  -2  332.56   10.28
  -3  -3   2  338.17    9.21
  -6   3   2  339.86   11.08
  -3   6   2  350.67    9.84
  -3   6  -2  320.97   11.09
  -6   3  -2  335.66   10.20
  -3   6   2  340.81    9.86
  -3   6  -2  333.97   10.49
  -3  -3  -2  353.83   11.34
  -3   6  -3   14.92    3.41
   3   3   3   15.34    3.39
   3   3   3   21.61    3.37
   3   3  -3   20.86    4.10
   6  -3  -3   18.67    3.14
  -3   6   3   19.30    3.87
  -3   6   3   21.38    4.16
  -6   3   3   21.40    4.05
  -6   3  -3   23.48    3.62
  -3   6   3   19.44    3.13
  -3  -3   3   22.63    3.73
  -6   3   3   22.26    3.18
  -6   3  -3   14.79    3.56
  -3  -3   3   19.04    4.04
  -3  -3  -3   24.94    4.05
  -3  -3  -3   17.61    3.61
  -3   6  -3   15.90    3.94
  -6   3  -3   16.03    3.30
   3   3  -3   16.83    3.15
   3   3   4  145.87    7.72
  -3   6   4  143.99    8.34
   3   3   4  137.48    7.42
  -3  -3  -4  136.83    7.84
  -3   6   4  147.13    8.65
  -6   3  -4  138.60    7.78
  -6   3   4  132.54    7.83
   3   3  -4  133.72    7.05
   6  -3  -4  136.06    7.17
   3   3  -4  138.64    8.07
  -3   6  -4  126.78    7.65
  -6   3  -4  132.67    7.27
  -3   6  -4  143.17    8.31
  -3  -3   4  134.43    7.86
  -3  -3  -4  141.59    8.26
   3   3   5   54.43    5.41
  -3   6   5   60.62    6.32
  -6   3   5   59.03    5.76
  -6   3  -5   48.06    5.72
  -3   6   5   44.62    6.01
   3   3  -5   56.07    6.05
  -3   6  -5   51.07    5.43
  -6   3  -5   55.61    5.35
  -3  -3   5   54.04    6.23
  -3   6  -5   58.38    6.12
   3   3  -5   44.35    5.13
  -3  -3  -5   52.45    5.59
  -3  -3  -5   44.18    5.46
  -6   3  -6   39.66    6.10
  -3  -3  -6   52.16    6.22
  -3   6  -6   40.84    6.16
  -3   6   6   54.95    6.47
   3   3  -6   36.99    5.15
   3   3  -6   46.12    6.00
  -3   6   6   45.96    6.52
  -6   3   6   42.46    5.54
  -3  -3   6   48.17    5.54
  -3  -3  -6   54.90    6.18
  -3   6  -7    6.28    4.74
   3   3  -7    5.73    3.22
  -6   3  -7    7.73    3.74
  -3   6   7   17.83    5.83
   3   3  -7    9.45    4.11
  -3   6   7    7.16    4.61
  -3  -3  -7   14.00    5.11
  -6   2  -7   21.17    5.84
   2   4  -7   23.78    5.21
  -4   6  -7   25.51    5.92
  -2   6   7   20.73    5.27
   2   4  -7   19.31    5.18
   6  -2  -7   18.86    4.62
  -4  -2   7   25.90    4.61
  -6   4   7   23.79    5.01
   2  -6   7   24.39    4.57
  -6   2  -6   15.94    5.09
   2   4  -6   15.20    3.99
  -4   6  -6   13.52    4.01
  -2   6   6   16.71    4.84
   2   4  -6    5.08    3.73
  -2  -4  -6    5.16    3.57
   6  -2  -6   22.33    5.32
  -2   6   6   20.74    4.87
  -6   4   6   11.49    4.17
   2  -6   6   10.38    3.58
  -4  -2   6    9.39    3.75
  -2   6   5   64.99    6.60
   2   4  -5   83.72    6.52
  -2   6   5   70.27    7.02
  -2  -4  -5   68.89    5.91
  -6   2  -5   68.68    6.77
  -6   4   5   68.02    6.58
  -4   6  -5   73.14    6.47
   2   4  -5   79.28    6.67
   6  -2  -5   75.96    6.39
   2  -6   5   73.85    6.28
  -4   6  -5   73.47    6.81
  -4  -2   5   90.02    7.22
  -2  -4  -5   66.99    6.67
  -4   6  -4   42.70    5.02
  -2   6   4   41.29    5.13
   4   2   4   40.62    4.65
  -2  -4  -4   37.28    4.36
   2   4  -4   39.46    4.82
  -4  -2   4   42.20    5.13
  -2  -4  -4   41.00    4.84
  -2   6   4   38.43    5.30
  -6   4   4   35.38    4.82
   6  -2  -4   42.82    4.83
  -6   2  -4   36.37    4.44
  -4   6  -4   41.13    5.12
   2  -6   4   48.37    5.02
   2   4  -4   41.16    4.39
  -6   2  -4   40.89    5.30
   2   4  -4   40.50    4.42
  -2   6   3  118.38    7.44
  -4  -2   3  122.09    7.32
   2   4  -3  118.43    6.99
  -2  -4  -3  122.86    6.70
  -6   2  -3  113.60    7.20
  -6   4   3  120.89    7.37
   4   2   3  114.02    7.01
  -6   2  -3  117.98    6.79
  -4   6  -3  116.63    7.32
   2   4  -3  125.41    7.17
   6  -2  -3  124.33    6.86
  -2   6   3  103.74    7.00
  -4   6  -3  113.88    7.06
   2  -6   3  122.28    6.68
  -4  -2   3  122.15    7.21
  -2  -4  -3  130.31    7.59
  -2  -4  -2  117.26    6.94
  -2   6   2  112.29    6.74
   2   4  -2  124.98    7.01
  -4  -2   2  116.67    6.83
  -2  -4  -2  123.94    6.32
  -6   2  -2  106.08    6.45
  -2   6   2  109.38    6.65
  -6   4   2  120.40    7.01
   4   2   2  108.79    6.82
  -4  -2   2  123.12    6.31
  -6   2  -2  127.68    6.98
  -4   6  -2  114.24    7.17
   2   4  -2  116.77    6.54
  -6   4   2  117.98    7.01
  -6   2  -2  108.52    5.61
  -4  -2   2  121.80    6.79
  -4   6  -2  118.01    6.74
   2  -6   2  111.55    6.05
  -2   6   2  126.29    6.60
  -2   6   1  137.76    7.08
   2   4  -1  140.61    7.26
  -4  -2   1  140.68    7.09
  -2  -4  -1  149.74    6.68
  -6   2  -1  142.72    6.96
  -2   6   1  140.25    6.84
  -4   6  -1  154.92    6.54
   4   2   1  153.42    7.82
  -6   4   1  148.48    7.38
  -6   2  -1  149.30    7.38
  -4  -2   1  156.24    7.07
  -4   6  -1  154.04    7.62
  -6   4   1  134.31    6.99
  -6   2  -1  158.52    6.58
  -4   6  -1  145.98    7.21
   2  -6   1  153.40    6.58
  -2   6   1  143.04    7.05
  -4  -2   1  159.21    7.39
  -2  -4  -1  151.01    7.59
  -4   6   0    5.61    2.56
  -2   6   0    4.36    2.04
  -4  -2   0    7.11    2.97
  -4  -2   0   11.18    2.70
  -2  -4   0    4.48    2.77
   2   4   0    2.74    2.39
  -2   6   0    2.75    2.55
  -2   6   0    7.34    2.75
  -4   6   0    6.49    2.39
   2   4   0    6.17    3.10
   4   2   0    8.45    3.03
  -2   6   0    5.21    2.18
  -6   2   0    4.47    2.59
  -4   6   0    6.12    2.52
  -6   4   0    3.22    2.59
  -6   2   0    5.89    3.10
   2  -6   0    5.41    2.40
  -2  -4   0    4.47    2.03
  -4   6   0    5.08    3.01
  -6   2   0    4.05    2.08
  -6   4   0    7.01    2.83
  -2   6  -1  146.60    7.10
   2   4   1  145.12    6.92
  -4   6   1  156.29    6.93
   2   4   1  153.92    7.61
  -2  -4   1  159.12    7.09
  -6   2   1  145.13    6.75
  -4  -2  -1  155.57    7.48
   4   2  -1  148.98    6.85
  -6   4  -1  159.48    6.28
  -4   6   1  146.15    7.03
  -6   4  -1  155.09    7.00
  -6   2   1  157.04    7.66
  -4  -2  -1  156.89    7.36
  -4   6   1  150.88    7.01
  -6   2   1  155.13    7.10
  -4   6   1  156.73    7.14
  -6   4  -1  147.42    7.14
  -2   6  -1  154.87    6.68
  -2   6  -1  143.72    7.53
  -2  -4   1  152.06    7.52
   2  -6  -1  158.82    6.67
   2   4   2  125.61    6.75
  -4   6   2  120.87    6.57
  -2  -4   2  137.00    7.00
  -6   2   2  137.07    6.77
   2   4   2  130.53    7.12
   4   2  -2  136.48    6.94
  -4  -2  -2  131.28    7.14
  -6   4  -2  135.54    6.37
  -4   6   2  129.46    7.22
  -6   2   2  133.64    7.28
  -6   4  -2  132.64    6.52
  -4   6   2  129.77    6.29
  -4   6   2  128.74    6.68
  -6   4  -2  122.60    6.87
  -2   6  -2  121.76    7.25
  -2   6  -2  135.54    6.74
  -2  -4   2  127.27    7.14
  -4  -2  -2  127.84    6.99
   2  -6  -2  126.27    6.32
   2   4   3  114.24    6.71
  -4   6   3  125.26    7.01
   4   2  -3  116.59    6.36
  -6   2   3  116.23    6.45
   2   4   3  115.70    6.67
  -4  -2  -3  120.91    7.32
  -6   4  -3  116.49    6.56
  -4   6   3  112.05    7.22
  -6   2   3  117.39    7.13
  -4   6   3  119.22    6.60
   4   2  -3  117.40    7.33
  -2   6  -3  114.40    7.32
  -6   4  -3  112.39    6.77
  -2   6  -3  110.75    6.81
  -2  -4   3  117.40    7.35
  -4  -2  -3  132.64    7.41
   2  -6  -3  128.79    6.81
  -4  -2  -4   34.31    4.53
  -2   6  -4   31.68    4.54
   2   4   4   38.04    4.01
   2   4   4   33.01    4.53
  -4   6   4   34.48    4.70
  -2  -4   4   30.12    4.54
  -6   2   4   39.40    4.92
  -4   6   4   33.04    4.81
  -6   4  -4   32.61    4.31
   4   2  -4   43.46    5.40
   2  -6  -4   35.10    4.17
  -6   4  -4   39.74    4.59
  -2   6  -4   35.20    4.74
  -4  -2  -4   26.90    4.47
   2   4   5   67.93    6.27
  -4   6   5   80.62    6.97
  -4  -2  -5   69.69    6.46
  -4   6   5   79.81    7.16
  -6   4  -5   87.08    6.71
  -6   2   5   67.66    6.02
   4   2  -5   73.47    6.85
  -2   6  -5   72.21    6.42
  -6   4  -5   75.82    6.31
  -2  -4   5   73.63    6.78
  -2   6  -5   70.57    6.62
  -4  -2  -5   72.19    6.46
   2  -6  -5   84.01    6.51
  -4  -2  -6   10.65    3.78
   2   4   6   14.30    4.42
  -6   4  -6   11.61    3.80
  -4  -2  -6   17.38    3.72
   2  -6  -6   15.10    3.73
  -2   6  -6    9.31    4.58
  -4   6   6   16.25    4.85
   4   2  -6   21.80    5.11
  -4   6   6   17.40    4.97
  -2  -4   6    6.41    3.57
  -6   4  -6    6.92    3.40
   2  -6  -7   31.24    5.35
  -6   4  -7   14.71    4.15
  -2   6  -7   16.98    4.98
  -2   6  -7   20.61    4.49
   2   4   7   15.60    5.57
  -4   6   7   21.74    5.61
   4   2  -7   22.52    5.57
  -4   6   7   21.98    5.36
  -6   4  -7   25.21    4.51
  -4  -2  -7   28.77    5.61
  -6   1  -7   33.53    6.70
  -5   6  -7   32.45    6.15
   1   5  -7   42.19    6.21
  -1   6   7   26.13    5.63
   1   5  -7   38.06    5.99
  -5  -1   7   21.59    4.88
   6  -1  -7   32.69    5.98
  -6   5   7   19.91    4.85
  -6   1  -6   19.96    5.45
  -1  -5  -6    2.58    2.95
  -5   6  -6   13.19    4.38
   1   5  -6   14.08    4.09
  -1   6   6   17.96    4.90
   1   5  -6    6.48    3.80
  -5  -1   6   14.39    3.74
   6  -1  -6   22.44    5.07
  -6   5   6   15.18    4.71
  -5  -1   6    6.18    3.02
   1  -6   6   17.84    4.50
  -1   6   5   68.32    6.66
  -6   1  -5   74.10    7.19
  -6   5   5   73.89    7.27
   5   1   5   84.94    6.67
   1   5  -5   78.89    6.61
   6  -1  -5   75.26    6.78
  -5   6  -5   88.23    7.46
  -5  -1   5   75.86    6.28
   1  -6   5   84.19    6.70
   1   5  -5   72.42    6.36
  -1  -5  -5   81.34    7.13
  -5  -1   4   37.64    4.76
  -1   6   4   35.96    5.16
   1   5  -4   30.23    4.40
  -5   6  -4   31.47    4.80
   5   1   4   42.60    5.05
  -6   5   4   32.46    5.00
  -5   6  -4   34.70    5.08
   1   5  -4   42.54    5.12
   6  -1  -4   42.54    5.17
   1   5  -4   38.83    4.41
  -1  -5  -4   64.10    5.17
  -6   1  -4   35.42    5.17
   1  -6   4   35.01    4.79
  -1   6   3   59.24    5.62
  -5  -1   3   62.18    5.56
  -6   1  -3   65.85    5.90
  -6   5   3   63.54    5.84
  -5  -1   3   64.64    5.17
  -6   1  -3   57.77    5.34
   5   1   3   59.44    5.63
  -5   6  -3   69.84    6.31
   1   5  -3   60.93    5.11
  -6   5   3   62.00    5.79
  -5   6  -3   57.77    5.59
  -5  -1   3   59.38    5.35
   1  -6   3   66.87    5.66
  -1  -5  -3   65.67    5.80
   1   5  -3   60.96    5.63
  -1   6   3   61.30    4.93
  -5   6  -2   11.76    3.34
  -1  -5  -2    7.12    2.98
   6  -1  -2   11.52    2.91
   5   1   2   11.38    3.49
  -1   6   2   12.91    3.41
   1   5  -2   13.89    3.02
  -1   6   2   11.67    3.31
  -6   5   2   11.19    3.46
   1   5  -2   12.34    3.48
  -5   6  -2   14.61    3.88
  -5  -1   2   13.73    3.42
  -6   1  -2   11.57    3.50
  -5  -1   2   12.98    3.61
  -5  -1   2   11.30    3.14
   1  -6   2    8.29    3.10
  -6   1  -2    9.63    3.28
  -6   5   2   14.82    3.75
   1   5  -1  174.40    8.39
   1   5  -1  180.68    8.18
  -1   6   1  180.49    8.41
  -5  -1   1  161.48    7.92
  -6   1  -1  191.58    8.45
  -5   6  -1  167.95    6.71
  -6   5   1  175.71    8.04
  -5  -1   1  166.89    7.72
  -6   1  -1  166.37    8.06
   5   1   1  182.68    8.54
  -5   6  -1  168.57    8.13
  -6   5   1  176.35    8.30
  -5   6  -1  170.72    8.11
  -5  -1   1  181.05    7.60
   1  -6   1  173.38    7.67
  -1  -5  -1  178.40    8.26
  -1   6   1  174.06    8.01
   1   5   0  145.66    7.59
   1   5   0  132.97    7.08
  -1   6   0  122.59    6.93
  -1  -5   0  131.11    5.96
  -5  -1   0  141.06    7.32
  -6   1   0  131.13    6.98
  -5   6   0  133.45    6.57
  -6   5   0  132.91    6.84
   5   1   0  142.57    7.57
  -6   1   0  140.62    7.59
  -5  -1   0  142.40    7.43
  -5   6   0  136.34    7.17
  -6   1   0  138.06    6.09
  -6   5   0  133.14    7.19
  -5   6   0  138.89    7.26
  -5  -1   0  141.11    6.77
   1  -6   0  141.92    6.93
  -1  -5   0  137.67    7.19
  -1   6   0  132.57    7.31
  -1   6  -1  183.92    8.26
   1   5   1  185.66    8.50
   1   5   1  175.29    7.99
  -5   6   1  192.53    7.17
  -1  -5   1  181.16    7.21
  -6   1   1  174.36    7.93
  -5  -1  -1  174.72    8.32
  -5   6   1  192.31    8.17
   5   1  -1  180.33    8.21
  -6   5  -1  186.66    7.63
  -6   1   1  178.25    8.27
  -5   6   1  187.67    8.01
  -5   6   1  182.51    8.15
  -6   5  -1  182.83    8.32
  -1  -5   1  187.99    8.41
   1  -6  -1  195.94    8.10
  -5  -1  -1  199.03    8.00
  -1   6  -1  168.21    8.26
  -1   6  -2   14.31    2.97
  -6   5  -2   13.79    3.39
   1   5   2   11.96    3.17
  -1  -5   2   15.86    2.79
   5   1  -2   15.12    3.42
   1  -6  -2   12.35    2.91
   1   5   2   11.60    3.24
  -5   6   2   19.85    3.26
  -1   6  -2   16.53    3.74
  -1  -5   2   15.94    3.88
  -5   6   2    8.77    3.22
  -6   5  -2   13.77    2.84
  -6   1   2   16.89    3.66
  -5   6   2   16.36    2.92
  -6   1   2   15.72    3.41
  -5  -1  -2   13.73    3.01
  -5  -1  -2   10.92    3.60
  -5   6   2   11.00    3.29
   1   5   3   46.50    5.21
  -5   6   3   53.75    4.75
   1   5   3   46.04    4.43
  -6   1   3   49.25    4.86
  -5  -1  -3   59.43    5.96
  -5   6   3   56.67    5.57
  -6   1   3   50.73    5.04
   1  -6  -3   54.80    5.05
  -5   6   3   47.87    4.90
  -6   5  -3   58.28    5.45
  -1   6  -3   50.71    5.21
  -1   6  -3   54.29    5.03
  -1  -5   3   54.20    5.52
  -5  -1  -3   62.11    5.30
  -1  -5   4   35.52    5.14
  -6   5  -4   31.80    4.64
   1  -6  -4   34.18    4.21
  -1   6  -4   30.49    4.60
  -1   6  -4   36.01    4.58
   1   5   4   45.03    5.42
  -5   6   4   38.93    4.76
   5   1  -4   35.38    4.99
  -5   6   4   33.71    5.13
  -5  -1  -4   40.90    4.77
  -6   1   4   35.95    4.39
  -5  -1  -4   34.59    5.21
   1   5   5   90.52    7.32
  -5   6   5   92.58    7.20
  -5  -1  -5   85.68    7.31
  -5   6   5   79.40    7.14
  -6   5  -5   84.62    6.62
   5   1  -5   93.41    7.70
  -1   6  -5   78.09    6.71
  -6   5  -5   76.32    6.80
  -1  -5   5   82.00    7.33
  -1   6  -5   77.94    6.71
   1  -6  -5   71.30    6.67
  -5  -1  -5   79.93    6.47
  -5  -1  -6    9.27    4.56
  -6   5  -6   10.82    4.22
   1  -6  -6   17.67    4.25
  -5  -1  -6   15.39    3.81
  -1   6  -6   10.73    4.86
   1   5   6   12.68    5.14
  -1   6  -6   13.83    3.51
  -5   6   6   17.69    4.76
   5   1  -6   20.46    5.10
  -5   6   6   13.47    5.01
  -6   5  -6   17.09    4.13
  -1  -5   6    9.42    3.05
  -5  -1  -7   22.38    5.54
  -6   5  -7   24.82    6.01
  -6   5  -7   42.34    6.10
  -1   6  -7   22.68    5.28
  -1   6  -7   27.05    5.19
   1   5   7   22.64    5.55
  -5   6   7   33.77    5.71
   5   1  -7   29.82    6.16
  -5   6   7   31.09    5.93
   0   6   0  262.41   10.40
   0   6   0  270.47   10.35
   0  -6   0  271.74   10.16
  -6   0   0  268.03   10.27
  -6   6   0  252.38    9.32
  -6   0   0  253.82   10.06
  -6   6   0  264.14    9.98
   6   0   0  276.07   10.54
  -6   6   0  264.08   10.25
  -6   0   0  264.29    8.76
  -6   6  -1    4.67    3.18
  -6   0   1    3.82    2.45
   0  -6   1   -0.84    2.89
  -6   0  -1    2.70    2.11
   0  -6  -1    2.37    2.56
   0   6  -1    0.71    2.47
   0   6   1    2.48    2.75
   0   6  -1    3.20    2.97
  -6   6  -1    3.17    3.01
  -6   6   1    4.78    2.94
  -6   6  -1    2.37    2.41
  -6   0   1    5.79    3.38
   0   6   1   -1.72    3.06
  -6   0  -1    1.69    3.05
  -6   0   1    4.01    3.15
   6   0  -1    3.24    2.70
  -6   0  -1    2.03    3.04
  -6   6   1    1.31    2.70
   0   6   2   71.57    5.74
   0   6   2   67.78    5.97
  -6   0   2   78.74    6.10
  -6   0  -2   73.67    6.21
   0  -6  -2   75.72    6.00
  -6   6   2   64.35    5.75
   6   0  -2   64.39    5.35
  -6   0   2   76.16    6.00
  -6   0  -2   69.10    6.01
  -6   6   2   68.13    5.79
  -6   6  -2   69.76    5.88
  -6   0   2   72.40    5.29
   0  -6   2   66.91    5.67
  -6   0  -2   69.17    5.14
   0   6  -2   70.38    6.11
  -6   0   3    1.60    2.48
   0  -6   3    3.98    3.33
   0  -6  -3    1.97    2.35
  -6   6  -3    4.32    3.32
  -6   0  -3   -0.57    2.07
   0   6   3    3.21    2.97
   0   6  -3    0.40    2.91
  -6   6   3    0.76    3.19
  -6   0   3    4.28    3.03
   0   6   3    0.66    2.85
  -6   0   3   -0.71    2.94
  -6   6   3    5.32    2.31
  -6   0  -3   -0.54    3.60
   0   6   4   94.54    7.64
  -6   0   4  105.82    7.63
  -6   0  -4   88.67    7.14
  -6   6   4   88.25    7.56
  -6   0   4   94.20    6.53
   6   0  -4   90.68    7.35
  -6   6  -4  105.11    7.61
   0   6  -4   99.52    7.20
   0  -6   4   87.71    7.32
   0   6  -4   92.99    6.53
   0  -6  -4   93.71    7.24
  -6   0  -4   88.57    6.31
   0  -6   5    0.30    3.67
   0  -6  -5   -1.79    2.84
  -6   0  -5   -2.45    2.64
   0   6  -5    0.78    3.05
  -6   6  -5    1.54    3.67
   0   6   5    3.57    3.99
   6   0  -5    1.07    3.61
  -6   6   5    0.60    3.66
  -6   0  -5   -0.58    3.85
  -6   0  -6   49.15    6.38
  -6   6  -6   48.78    6.26
   0  -6  -6   42.08    5.37
   0   6   6   47.16    6.40
   0   6  -6   51.93    6.40
   6   0  -6   57.64    7.11
  -6   6   6   55.72    7.04
   0   6  -6   55.87    6.42
   0  -6   6   49.68    6.13
   0   6  -7    2.93    3.32
   3   4  -7   17.62    4.29
  -7   3  -6    9.53    4.32
  -4   7  -6   12.12    4.32
  -3   7   6    6.85    4.37
   3   4  -6   10.14    4.65
  -3   7   6    5.31    3.74
  -7   4   6   11.09    4.67
  -4   7  -6   13.22    4.97
  -4  -3   6    4.92    2.41
  -7   3  -5   31.31    5.38
  -4   7  -5   38.31    5.78
  -4  -3   5   39.07    5.64
  -3   7   5   36.13    5.49
   3   4  -5   37.41    5.60
  -3   7   5   36.30    6.06
  -7   4   5   36.60    5.37
  -4   7  -5   33.62    5.23
  -3  -4  -5   35.81    5.20
  -3  -4  -5   30.86    4.86
  -4  -3   4   28.18    4.77
  -3  -4  -4   39.00    5.17
  -4   7  -4   29.64    4.80
  -3   7   4   38.10    5.42
   4   3   4   33.03    4.84
   3   4  -4   30.29    4.98
  -3   7   4   24.53    5.18
  -7   4   4   23.52    4.94
  -4   7  -4   24.99    4.99
  -3  -4  -4   24.56    4.28
  -7   3  -4   19.06    4.35
  -3   7   3  147.13    8.52
  -4  -3   3  144.85    8.31
  -3  -4  -3  141.84    7.87
  -7   3  -3  148.36    8.29
   4   3   3  159.63    8.70
  -3   7   3  146.00    8.84
  -7   4   3  147.94    8.58
  -7   3  -3  156.29    8.18
  -4   7  -3  149.84    8.94
   3   4  -3  156.21    8.66
   7  -3  -3  152.24    7.76
   3   4  -3  152.34    8.23
  -4   7  -3  149.01    8.37
  -4  -3   3  152.44    8.51
  -3  -4  -3  150.06    8.56
  -4  -3   2   60.26    6.87
   3   4  -2   49.78    5.10
  -3   7   2   55.81    5.50
  -4  -3   2   57.17    5.33
  -3  -4  -2   58.90    5.45
  -3  -4  -2   52.35    5.01
  -7   3  -2   54.51    5.09
   4   3   2   56.52    5.40
  -3   7   2   50.49    5.34
  -7   4   2   57.07    5.65
  -7   3  -2   61.46    5.68
  -4   7  -2   63.28    6.12
  -7   4   2   63.27    5.79
  -7   3  -2   53.20    4.53
  -4   7  -2   60.85    5.49
  -3   7   2   68.44    5.48
  -3   7   1   72.55    5.76
  -4   7  -1   64.43    4.99
   3   4  -1   62.14    5.53
  -4  -3   1   55.29    5.00
  -3  -4  -1   66.32    5.35
  -7   3  -1   72.50    5.48
   4   3   1   61.66    5.66
  -3   7   1   65.05    5.49
  -7   4   1   71.59    5.93
  -7   3  -1   71.69    5.87
  -4  -3   1   63.01    5.15
  -4   7  -1   61.28    5.75
  -7   4   1   75.47    5.91
  -7   3  -1   61.67    4.86
  -4   7  -1   68.51    5.45
  -3   7   1   70.67    5.65
  -3  -4  -1   64.56    5.53
  -4  -3   1   66.83    5.74
  -4   7   0   26.65    3.73
  -3   7   0   26.05    3.31
  -4  -3   0   25.95    4.13
  -3  -4   0   29.94    4.13
  -3   7   0   26.42    4.28
   3   4   0   28.07    3.61
  -3   7   0   25.38    3.79
  -4   7   0   23.49    3.72
   3   4   0   27.07    4.32
   4   3   0   28.55    4.26
  -4   7   0   28.40    3.68
  -7   4   0   23.04    4.22
  -7   3   0   22.34    3.89
  -3  -4   0   27.39    3.66
  -4  -3   0   24.02    3.74
  -7   3   0   26.44    3.58
  -4   7   0   25.88    4.28
  -7   3   0   22.49    3.51
  -7   4   0   20.20    3.46
  -3   7  -1   66.49    5.36
   3   4   1   65.20    5.06
  -4   7   1   76.06    5.62
   3   4   1   77.33    6.18
  -3  -4   1   83.07    5.61
   4   3  -1   64.52    5.61
  -7   3   1   69.34    5.07
  -4  -3  -1   68.67    5.65
  -7   4  -1   72.74    5.09
  -4   7   1   73.74    5.83
  -7   3   1   66.13    5.76
  -7   4  -1   73.08    5.82
  -7   3   1   69.03    5.57
  -4   7   1   70.27    5.63
  -4   7   1   76.61    5.44
  -7   4  -1   66.54    5.43
  -3   7  -1   66.63    5.79
  -3   7  -1   67.34    5.14
  -3  -4   1   71.74    5.76
  -4  -3  -1   71.96    5.70
   3   4   2   57.24    4.96
  -4   7   2   56.39    5.15
   4   3  -2   52.45    5.00
  -3  -4   2   43.42    4.60
  -7   3   2   46.35    4.54
  -4  -3  -2   47.99    5.08
  -7   4  -2   46.09    4.44
  -4   7   2   50.07    5.26
  -7   4  -2   45.41    4.71
  -7   3   2   41.08    4.93
   3   4   2   45.81    4.35
  -4   7   2   49.85    4.64
  -4   7   2   51.49    4.64
  -7   4  -2   50.33    4.74
  -3   7  -2   51.29    5.06
  -3  -4   2   54.66    5.65
  -3   7  -2   41.69    4.98
  -4  -3  -2   49.62    5.17
   3   4   3  149.88    7.81
  -4   7   3  152.08    8.41
   4   3  -3  152.47    7.92
  -3  -4   3  145.87    8.16
  -7   3   3  154.13    7.65
   3   4   3  154.11    8.39
  -4  -3  -3  155.89    8.45
  -7   4  -3  150.47    7.92
  -4   7   3  150.38    8.76
  -7   3   3  145.19    8.38
  -7   4  -3  139.68    7.34
   4   3  -3  155.17    8.87
  -4   7   3  151.81    7.65
  -3   7  -3  164.36    9.14
  -7   4  -3  151.47    8.08
  -3   7  -3  146.68    8.11
  -3  -4   3  157.38    8.88
  -4  -3  -3  156.01    8.60
  -3  -4   4   33.08    5.12
  -7   4  -4   27.16    4.47
  -4  -3  -4   33.14    4.72
  -3   7  -4   32.25    4.91
   3   4   4   28.67    4.38
  -4   7   4   33.47    4.97
   4   3  -4   34.33    5.32
  -4   7   4   33.39    5.66
  -7   3   4   29.50    4.68
  -7   4  -4   32.67    4.64
   3   4   4   35.68    4.30
  -3   7  -4   31.91    4.91
  -4  -3  -4   33.03    4.86
  -7   4  -5   43.18    5.84
  -7   4  -5   34.51    4.94
  -4  -3  -5   21.23    4.10
  -3   7  -5   39.80    5.93
  -4   7   5   35.88    5.12
   4   3  -5   33.08    5.63
  -4   7   5   25.65    5.03
  -7   3   5   36.86    5.22
  -3   7  -5   33.82    5.48
  -4  -3  -5   41.02    5.92
  -3  -4   5   30.02    5.67
  -7   4  -6    6.77    4.38
  -4  -3  -6    5.91    3.35
  -3   7  -6   18.19    5.11
   4   3  -6    6.58    3.99
  -4   7   6    5.01    3.89
   4   3  -6   14.02    4.54
  -4   7   6    3.45    4.48
  -7   3   6    3.75    3.23
  -4  -3  -6    4.99    3.95
   4   3  -7   11.71    3.59
  -4  -3  -7   11.14    4.42
  -7   2  -6   15.02    5.61
  -5   7  -6   14.68    5.11
  -2   7   6   16.03    4.75
   2   5  -6   14.96    5.12
   7  -2  -6   29.28    5.84
  -5   7  -6   12.70    4.94
  -7   5   6   18.20    4.94
  -5  -2   6   16.19    3.85
  -5   7  -5    4.23    3.52
  -2  -5  -5    6.09    4.18
  -2   7   5    3.55    2.40
  -2   7   5    4.24    3.94
   2   5  -5    6.86    4.00
   7  -2  -5    1.56    3.64
  -7   5   5   -0.32    3.74
  -5   7  -5    8.49    3.85
   5   2   5    5.30    2.50
   2  -7   5   -7.17    3.04
  -5  -2   5    3.86    3.52
  -7   2  -5    2.57    4.52
  -2   7   4  122.85    8.51
  -2   7   4  130.29    9.02
  -7   2  -4  112.46    8.28
  -7   5   4  125.21    8.53
   5   2   4  123.76    8.05
  -7   2  -4  129.08    7.96
  -5   7  -4  134.55    9.11
   2   5  -4  122.40    7.98
   7  -2  -4  123.74    7.97
  -5   7  -4  110.65    8.03
   2  -7   4  127.78    7.99
  -5  -2   4  117.04    7.95
  -2  -5  -4  146.02    9.08
   2   5  -4  135.30    8.54
   2  -7   3    4.09    2.98
  -5  -2   3    2.64    3.25
   5   2   3    3.31    3.11
  -2   7   3    1.42    3.53
   2   5  -3    1.45    3.04
  -2   7   3    4.99    3.65
   2   5  -3    2.07    2.95
  -7   5   3    3.19    3.26
  -2  -5  -3    2.02    2.85
  -7   2  -3    4.28    3.28
  -5   7  -3    0.77    3.34
  -5  -2   3    6.17    3.16
  -5   7  -3    9.46    3.89
  -7   2  -3    5.80    3.74
   2   5  -2   97.75    7.09
  -2   7   2  111.81    7.35
  -5  -2   2  112.08    7.21
  -7   2  -2  110.79    7.20
  -2   7   2  121.89    7.61
  -7   5   2  105.11    7.33
   5   2   2  111.84    7.45
  -5  -2   2  108.19    6.63
  -7   2  -2  102.50    7.04
  -5   7  -2  100.24    7.38
   2   5  -2  101.50    6.43
  -7   5   2  108.20    7.37
  -5   7  -2  106.98    7.10
   2  -7   2  108.08    6.53
  -5  -2   2  106.15    6.90
  -2   7   2  102.02    6.56
  -2  -5  -2   99.59    7.09
   2  -7   1    1.39    2.69
  -5   7  -1   -0.22    2.86
  -5  -2   1   -0.03    2.81
  -2  -5  -1   -1.87    2.86
  -2   7   1    0.43    2.57
  -2   7   1   -0.52    2.73
  -2   7   1    2.84    2.57
  -7   5   1    1.89    2.88
  -7   2  -1    1.47    3.15
  -5  -2   1   -0.62    2.64
   5   2   1    2.84    3.03
  -5   7  -1   -1.86    3.16
  -5  -2   1   -1.86    2.55
  -2  -5  -1    2.17    2.14
  -7   2  -1    0.92    2.97
   2   5  -1   -0.59    2.54
  -7   5   1    0.15    3.01
   2   5   0  109.46    6.70
  -2   7   0  112.43    6.98
  -5   7   0  111.44    6.05
   2   5   0  101.57    7.16
  -2  -5   0   99.40    5.99
  -5  -2   0  119.18    7.24
  -7   2   0  104.29    6.54
   5   2   0  110.81    7.10
  -5   7   0  111.88    6.38
  -7   5   0  101.90    6.72
  -7   2   0  114.98    7.32
  -5  -2   0  100.60    6.73
  -5   7   0  104.42    6.88
  -7   2   0  100.24    5.80
  -7   5   0  118.26    7.22
  -5   7   0  108.99    6.83
  -2   7   0  105.25    6.96
   2  -7   0  105.51    6.18
  -5  -2   0  112.13    6.77
  -2  -5   0  104.23    6.92
  -7   5  -1   -0.46    2.51
   2  -7  -1   -1.33    2.11
  -5  -2  -1    2.12    2.16
   5   2  -1   -1.76    2.91
  -2   7  -1   -0.36    3.29
   2   5   1    1.25    2.67
  -2   7  -1   -1.38    2.64
   2   5   1    1.58    2.56
  -5   7   1    5.15    2.86
  -2  -5   1    0.20    3.06
  -5   7   1    1.86    2.76
  -7   5  -1    0.37    2.59
  -7   2   1   -0.03    3.02
  -7   2   1    0.35    1.87
  -2  -5   1    0.30    2.10
  -5   7   1    3.38    3.24
  -7   2   1   -0.70    2.33
  -5  -2  -1   -2.23    3.00
  -5   7   1    1.53    2.69
   2   5   2  108.42    6.96
  -5   7   2  108.21    6.59
   2   5   2  100.93    6.90
  -2  -5   2  110.82    6.68
  -7   2   2  118.92    7.01
   5   2  -2   98.33    6.54
  -5  -2  -2  118.21    7.58
  -5   7   2  103.11    7.01
  -7   5  -2  107.90    6.39
  -7   2   2  103.39    7.26
  -5   7   2  100.84    6.57
  -7   5  -2  101.65    6.71
  -2   7  -2  109.86    6.50
  -2   7  -2  105.56    7.41
  -2  -5   2  103.41    7.22
   2  -7  -2  105.81    6.56
  -5  -2  -2  103.72    6.78
  -2  -5   3    5.05    3.56
  -7   5  -3    3.84    3.24
  -5  -2  -3    2.59    2.91
  -2   7  -3    6.47    3.45
  -2   7  -3    7.16    3.28
   2   5   3    5.45    2.97
  -5   7   3   10.41    3.81
   2   5   3    5.36    2.73
   5   2  -3    5.09    2.52
   5   2  -3    4.37    3.42
  -5   7   3    4.42    3.20
   2  -7  -3    0.86    2.19
  -7   2   3    8.29    3.71
  -7   2   3    4.58    2.68
  -5  -2  -3    2.37    3.42
  -5   7   3    4.23    2.70
   2   5   4  119.20    7.98
  -5   7   4  120.25    7.91
   2   5   4  116.33    7.05
  -5  -2  -4  127.66    8.41
  -5   7   4  116.23    8.36
  -7   2   4  128.99    8.33
   5   2  -4  123.44    8.51
  -2   7  -4  120.62    8.25
  -7   5  -4  120.22    8.01
  -2   7  -4  118.24    7.89
  -2  -5   4  127.87    8.77
  -5  -2  -4  127.75    8.08
   2  -7  -4  124.27    7.82
  -7   5  -5    5.92    3.72
  -5  -2  -5    4.91    3.19
   2  -7  -5   -2.42    2.40
  -2   7  -5    5.77    3.98
   2   5   5    8.34    4.30
  -5   7   5    5.01    4.00
   5   2  -5   -3.80    4.11
  -5   7   5    7.15    4.55
  -7   2   5   -1.79    3.31
  -2   7  -5    1.89    3.46
  -5  -2  -5    1.57    3.43
  -2  -5   5    0.24    3.93
  -7   5  -6   19.09    5.47
  -7   5  -6   21.76    4.65
  -5  -2  -6   24.87    4.00
  -2   7  -6   23.07    5.32
   2   5   6   16.44    4.35
  -5   7   6   23.95    5.56
   5   2  -6   30.14    5.85
  -5   7   6   23.38    6.30
  -5  -2  -6   17.91    5.20
  -7   5  -7    0.19    2.61
  -6   7  -6    7.23    3.89
  -1   7   6   14.23    5.29
   1   6  -6    6.24    4.01
   7  -1  -6   12.26    4.82
  -7   6   6    5.86    3.65
  -6  -1   6    7.56    2.98
  -7   1  -6    6.50    5.18
  -6   7  -5   38.76    6.35
   6   1   5   37.01    5.34
  -1  -6  -5   35.21    5.45
  -1   7   5   40.38    6.16
   1   6  -5   37.67    5.60
   7  -1  -5   32.89    5.28
  -7   6   5   37.00    5.95
  -7   1  -5   25.83    4.71
  -7   1  -5   36.78    6.24
  -6  -1   5   39.16    5.09
   1  -7   5   34.84    5.32
   1  -7   4   30.54    5.04
  -6   7  -4   31.44    5.33
  -1  -6  -4   25.44    4.70
  -1   7   4   24.30    4.95
   1   6  -4   27.17    4.82
   6   1   4   23.87    4.88
   7  -1  -4   26.37    4.72
  -6   7  -4   20.04    4.58
  -7   6   4   25.20    4.93
  -7   1  -4   23.90    4.83
  -6  -1   4   31.92    5.18
  -7   1  -4   35.07    5.95
  -6  -1   4   28.88    4.67
  -1   7   3  102.84    7.76
  -6  -1   3   97.85    7.29
  -7   1  -3  108.72    8.02
  -7   6   3   92.00    7.41
  -6  -1   3  103.22    6.93
  -7   1  -3   95.68    7.28
   6   1   3  112.12    8.02
  -6   7  -3  100.36    7.89
  -7   6   3  115.64    8.06
  -6   7  -3  101.48    7.54
  -6  -1   3  120.98    7.75
   1  -7   3  120.26    7.87
  -1  -6  -3  102.60    7.43
   1   6  -3  104.47    7.71
  -6  -1   2   29.59    4.20
   1  -7   2   33.03    4.57
  -6   7  -2   27.68    4.70
   7  -1  -2   30.17    4.05
  -1  -6  -2   33.59    4.53
  -1   7   2   36.93    5.17
  -1   7   2   28.92    4.53
   1   6  -2   38.72    5.28
  -7   6   2   36.07    5.11
  -6   7  -2   38.58    5.52
  -6  -1   2   39.86    4.97
  -7   1  -2   29.83    4.72
  -6  -1   2   37.39    5.13
  -7   1  -2   34.85    5.02
   6   1   2   32.29    5.04
  -7   6   2   39.85    5.41
   1   6  -1   74.98    6.55
  -1   7   1   80.04    6.56
  -6  -1   1   80.14    6.52
  -7   1  -1   78.18    6.51
  -7   6   1   75.17    6.13
  -6  -1   1   83.78    6.43
   6   1   1   75.75    6.49
  -7   1  -1   74.75    6.40
  -6   7  -1   82.45    6.66
  -7   6   1   73.40    6.27
  -6   7  -1   74.19    6.21
  -6  -1   1   74.48    5.74
   1  -7   1   77.06    6.05
  -1  -6  -1   71.59    6.08
  -1   7   1   77.21    6.43
  -6  -1   0   39.42    4.46
   1  -7   0   38.88    4.72
  -1  -6   0   41.09    5.19
  -1   7   0   39.57    4.88
   6   1   0   41.85    5.02
   1   6   0   35.49    4.52
  -6  -1   0   50.86    5.27
  -7   1   0   47.34    5.20
  -1   7   0   41.86    5.21
  -6   7   0   36.58    4.36
  -6   7   0   43.36    5.06
  -7   6   0   37.07    4.49
  -7   1   0   43.42    5.39
  -6  -1   0   36.28    4.82
   1   6   0   40.34    5.07
  -7   6   0   41.59    4.96
  -6   7   0   40.61    4.82
   1   6   1   90.98    6.78
  -1   7  -1   92.48    6.67
   1   6   1   87.85    6.66
  -7   1   1   87.93    6.57
  -6  -1  -1   87.38    6.78
   6   1  -1   96.86    6.89
  -6   7   1   90.55    6.43
  -7   6  -1   87.00    5.99
  -7   1   1   93.79    6.86
  -1   7  -1   94.92    7.07
  -6  -1  -1   86.87    6.70
  -6   7   1   88.39    6.39
  -6   7   1   92.07    6.68
  -7   6  -1   90.63    6.68
  -1  -6   1   91.16    6.83
  -6  -1  -1   92.65    6.22
   1  -7  -1   89.04    6.18
  -1  -6   2   31.06    4.90
  -7   6  -2   25.51    4.25
   1  -7  -2   24.56    4.08
  -6  -1  -2   37.91    3.93
   6   1  -2   33.18    4.15
   1   6   2   29.42    4.62
  -1   7  -2   29.92    4.69
  -6   7   2   29.19    4.72
  -7   1   2   25.13    4.47
  -7   1   2   28.89    4.36
  -6  -1  -2   30.20    4.81
   1   6   2   23.84    4.14
  -6   7   2   24.52    4.03
   1   6   3  103.49    7.02
   1   6   3   98.59    7.40
  -7   1   3   94.68    6.95
  -6  -1  -3  101.18    7.70
  -6   7   3  104.86    7.69
  -7   1   3   97.66    7.12
  -6   7   3  105.62    7.34
  -7   6  -3  104.64    7.48
  -1   7  -3   90.98    7.45
  -1  -6   3  103.33    7.78
   1  -7  -3   89.02    6.86
  -6  -1  -3  104.19    6.84
  -1  -6   4   33.28    5.27
  -7   6  -4   31.78    5.13
   1  -7  -4   32.91    4.80
  -6  -1  -4   35.07    4.70
  -1   7  -4   35.14    4.68
  -1   7  -4   30.14    5.06
   1   6   4   28.31    5.21
   6   1  -4   40.49    5.87
  -6   7   4   25.70    5.00
  -7   1   4   28.50    4.68
  -7   1   4   29.00    4.79
  -6  -1  -4   34.54    5.30
  -1   7  -5   38.05    6.00
  -7   6  -5   38.30    5.61
   1  -7  -5   41.81    5.65
  -6  -1  -5   38.51    5.06
  -1   7  -5   25.86    4.89
   1   6   5   35.81    5.61
   6   1  -5   28.11    5.23
  -6   7   5   31.76    5.82
  -6  -1  -5   39.60    5.74
  -1  -6   5   34.60    5.77
  -7   6  -6   12.67    4.50
   1  -7  -6    9.02    2.90
  -6  -1  -6    3.25    2.19
  -1   7  -6    6.68    3.86
   1   6   6   12.20    4.38
   6   1  -6    7.42    4.58
  -6   7   6   10.19    4.80
  -6  -1  -6    3.97    3.92
   0  -7   0   -1.41    3.25
   0   7   0    0.23    3.11
   7   0   0    1.98    3.35
   0   7   0    0.10    3.28
  -7   7   0    0.65    2.74
  -7   0   0    3.88    3.48
  -7   0   0    5.29    3.13
  -7   7   0    4.12    3.27
   0  -7   1   45.33    5.43
   0   7  -1   45.81    5.34
   0   7   1   48.10    5.43
  -7   0   1   48.50    5.48
  -7   7   1   63.20    6.02
   7   0  -1   50.92    5.51
  -7   0   1   54.72    5.98
  -7   0  -1   55.24    6.00
   7   0   1   52.85    5.86
  -7   7   1   58.11    6.04
  -7   7  -1   55.08    5.86
  -7   0  -1   48.76    5.69
   0  -7  -1   56.43    5.58
   0   7  -1   58.65    6.36
   0   7   1   54.96    5.93
   0   7   2   68.77    6.56
  -7   0   2   75.07    6.73
   0   7   2   62.27    6.05
  -7   0  -2   80.08    7.35
  -7   7   2   72.29    6.60
   7   0  -2   70.52    6.11
  -7   0   2   70.39    6.56
  -7   0  -2   76.05    7.01
  -7   7   2   72.45    6.50
  -7   7  -2   73.52    6.57
   0  -7   2   74.82    6.66
   0  -7  -2   70.65    6.30
   0   7  -2   78.57    6.97
   0   7   3   60.43    6.13
   0   7   3   70.73    6.92
  -7   0   3   66.98    6.47
  -7   0  -3   60.58    6.74
  -7   7   3   54.99    6.34
  -7   0   3   68.05    6.37
  -7   0  -3   58.03    6.44
  -7   7   3   66.03    6.52
  -7   7  -3   65.12    6.36
   0  -7   3   59.54    6.35
   0   7  -3   58.94    6.76
   0  -7  -3   54.26    5.78
   0  -7   4   12.76    4.20
  -7   7  -4    9.97    4.35
   0  -7  -4   13.13    3.74
   0   7  -4   10.63    4.10
   0   7   4    9.26    4.26
   7   0  -4   21.77    5.03
  -7   7   4   16.15    4.71
  -7   0   4   20.28    4.82
  -7   0  -4    6.95    4.45
  -7   7  -5   36.51    5.97
   0  -7  -5   33.59    5.10
   0   7   5   31.93    5.55
   7   0  -5   28.69    5.35
  -7   7   5   34.62    6.13
  -7   0  -5   43.49    6.79
   0  -7   5   39.66    5.82
  -4   8   0  126.63    7.57
   4   4   0  126.17    8.13
  -4  -4   0  133.61    7.75
  -8   4   0  116.19    7.85
  -8   4   0  130.29    7.74
  -4   8   0  124.68    8.07
  -4   8   0  124.21    7.11
  -4  -4   0  135.85    8.37
  -4   8  -1    9.21    3.40
  -4  -4   1    5.04    3.51
  -4  -4  -1    4.25    2.96
  -4   8  -1    5.29    2.48
  -4   8   1    6.82    3.42
   4   4  -1    9.20    3.40
  -4   8   1   12.06    3.53
   4   4   1    7.99    3.36
  -8   4   1    8.40    3.49
  -8   4  -1   13.31    3.94
  -4  -4   1   12.83    3.49
  -4  -4  -1   10.42    3.20
  -4   8  -1    5.26    3.37
  -8   4   1   11.08    3.63
  -4   8   1    9.29    4.05
  -8   4  -1   10.81    3.22
  -4   8   2   87.50    6.96
   4   4  -2  100.84    7.25
  -4  -4   2   88.42    6.75
   4   4   2   80.36    6.90
  -4  -4  -2   81.61    6.71
  -8   4  -2   88.49    6.53
  -4   8   2   98.55    7.50
  -8   4   2   86.13    7.12
  -8   4  -2   84.75    6.66
  -8   4   2   82.50    6.72
  -4   8  -2   90.30    7.57
  -4   8   2   76.30    6.42
  -8   4  -2   75.51    5.98
  -4   8  -2   80.87    6.44
  -4  -4   2   89.98    7.46
  -4  -4  -2   76.52    6.57
  -4  -4   3   -1.14    3.44
  -4  -4  -3    0.04    2.57
  -4   8  -3    6.58    4.03
  -4   8   3   -0.87    3.41
   4   4  -3    1.61    2.95
  -4   8   3   -2.92    4.07
  -8   4   3    0.74    3.38
  -8   4  -3   -0.19    3.48
  -4  -4   3    0.97    2.73
   4   4   3   -6.98    3.56
  -4   8  -3    1.21    3.75
  -4  -4  -3   11.84    4.04
  -8   4  -3    0.89    3.31
   4   4  -3    2.64    2.68
  -4  -4  -4   37.76    4.95
  -4   8  -4   40.78    5.74
  -4  -4   4   41.46    6.04
  -4   8   4   43.30    5.75
   4   4  -4   42.15    5.77
  -4   8   4   37.54    6.26
  -8   4   4   42.15    5.99
  -4   8  -4   33.76    5.74
   4   4   4   38.31    4.65
  -4  -4  -4   36.84    5.31
  -8   4  -4   42.47    5.66
  -4  -4  -5    2.63    2.11
  -4   8  -5    0.13    3.50
  -4   8   5    4.40    3.69
   4   4  -5   -0.74    4.20
  -4   8   5   -1.01    4.50
  -8   4   5    6.26    4.14
  -4   8  -5   -2.43    3.60
  -4  -4  -5   -1.67    3.94
  -8   4  -5   -6.59    4.01
  -4  -4   5   -3.52    3.99
  -8   4  -6   15.77    5.34
  -8   4   6   24.33    5.31
  -4   8  -6   20.70    5.21
  -5   8  -6    2.80    4.27
  -5   8  -5   26.09    5.48
  -3   8   5   36.95    5.66
   3   5  -5   30.92    5.66
  -3   8   5   34.96    6.31
  -8   5   5   31.89    5.91
  -5   8  -5   40.84    6.61
  -8   3  -5   29.06    5.55
  -5  -3   5   30.14    5.42
  -5  -3   4   30.17    5.50
  -3  -5  -4   25.31    4.59
  -5   8  -4   26.96    5.21
  -3   8   4   22.26    4.43
   5   3   4   29.36    4.83
   3   5  -4   25.78    4.90
  -3   8   4   31.87    5.57
  -8   5   4   20.17    4.68
  -8   3  -4   35.24    5.27
  -5   8  -4   22.85    4.86
  -8   3  -4   23.27    4.94
  -5   8  -3   48.77    5.82
  -3  -5  -3   46.36    5.90
  -3   8   3   47.01    5.76
   5   3   3   46.91    5.56
  -8   3  -3   52.85    5.89
  -3   8   3   53.95    6.49
   8  -3  -3   43.38    5.25
  -8   5   3   43.24    5.87
   3   5  -3   57.78    6.15
   3   5  -3   44.57    5.70
  -5   8  -3   36.74    5.69
  -5  -3   3   42.41    5.33
  -5  -3   3   54.99    6.35
  -8   3  -3   43.82    5.46
  -5  -3   2   20.34    4.32
  -5   8  -2   26.58    4.46
  -3  -5  -2   25.88    4.45
   5   3   2   17.40    4.36
  -3   8   2   20.51    4.58
  -3   8   2   20.99    4.61
  -3   8   2   20.21    4.53
   3   5  -2   31.39    4.60
  -8   5   2   24.14    4.87
  -8   3  -2   18.43    4.15
  -5  -3   2   21.39    4.19
  -5   8  -2   16.22    4.44
   3   5  -2   25.02    4.44
  -8   3  -2   19.68    4.09
  -8   5   2   22.73    4.14
  -5   8  -1   79.89    5.88
  -3   8   1   89.40    6.91
   3   5  -1   88.03    7.11
  -5  -3   1   90.89    7.07
  -3  -5  -1   90.42    6.48
  -8   3  -1   96.86    6.81
   5   3   1   83.38    6.96
  -3   8   1   85.73    6.44
  -8   5   1   92.42    7.24
  -8   3  -1   84.75    6.85
  -5  -3   1   82.81    6.36
  -5   8  -1   93.38    7.55
  -8   5   1   86.50    6.88
  -5   8  -1   93.11    6.84
  -3   8   1   82.61    6.76
  -5  -3   1   87.40    6.90
  -3  -5  -1   89.44    7.06
  -5   8   0   22.88    3.71
  -5  -3   0   20.98    4.08
  -3  -5   0   26.03    4.65
  -3   8   0   29.97    4.73
   3   5   0   18.32    3.88
   3   5   0   22.67    3.91
  -5   8   0   29.12    4.06
  -3   8   0   24.68    4.07
  -8   5   0   24.85    4.47
  -8   3   0   25.03    4.47
  -3  -5   0   22.63    3.91
  -5   8   0   24.35    4.41
  -5  -3   0   20.32    3.64
  -8   3   0   35.47    4.45
   5   3   0   18.55    3.80
  -8   3   0   27.15    4.03
  -8   5   0   22.37    4.17
  -3   8  -1   75.02    6.20
   3   5   1   81.41    6.18
  -5   8   1   78.84    6.25
   3   5   1   77.19    6.78
  -3  -5   1   78.65    6.09
  -8   3   1   82.86    6.09
   5   3  -1   79.57    6.58
  -5  -3  -1   87.67    6.85
  -5   8   1   74.84    6.18
  -8   5  -1   70.66    6.20
  -8   3   1   79.05    6.88
  -5   8   1   89.21    6.78
  -8   3   1   72.91    5.89
  -5   8   1   76.14    6.06
  -8   5  -1   75.50    6.31
  -3   8  -1   75.27    6.82
  -3  -5   1   78.27    6.85
  -5  -3  -1   78.68    6.19
  -8   5  -2   16.88    3.85
  -3  -5   2   25.26    4.88
  -3   8  -2   13.09    4.36
  -5  -3  -2   24.19    4.38
  -3   8  -2   23.71    4.09
   3   5   2   21.63    3.88
  -5   8   2   19.80    3.86
   3   5   2   24.48    4.30
   5   3  -2   27.59    4.55
  -5   8   2   20.11    4.32
  -8   3   2   15.96    4.14
  -8   5  -2   24.66    4.41
  -3  -5   2   20.33    3.71
  -8   3   2   21.62    3.50
  -5  -3  -2   20.01    4.35
  -5   8   2   17.68    3.78
  -3  -5   3   49.68    6.11
   3   5   3   62.53    6.00
  -5   8   3   60.93    5.91
   5   3  -3   52.09    5.47
  -8   3   3   54.60    5.12
   3   5   3   61.74    6.15
  -5  -3  -3   55.00    6.00
  -8   3   3   58.54    6.44
  -5   8   3   45.82    5.84
   5   3  -3   56.29    6.24
  -5   8   3   56.25    5.42
  -8   5  -3   60.79    6.04
  -3   8  -3   58.87    6.20
  -5  -3  -3   46.95    5.50
  -3   8  -3   51.16    6.56
  -3  -5   4   36.04    5.89
  -8   5  -4   22.40    4.90
  -5  -3  -4   21.15    4.15
  -3   8  -4   22.59    4.90
  -5   8   4   32.93    5.61
   3   5   4   31.19    4.62
   5   3  -4   33.42    5.75
  -5   8   4   23.94    5.43
  -8   3   4   24.11    5.31
  -3   8  -4   20.13    4.57
  -5  -3  -4   21.94    4.47
  -8   5  -5   25.62    4.87
  -5  -3  -5   34.08    5.17
  -3   8  -5   22.24    4.81
  -5   8   5   44.38    6.24
   5   3  -5   25.93    5.23
  -5   8   5   25.97    5.04
  -8   3   5   22.60    5.22
  -3   8  -5   24.67    5.98
  -5  -3  -5   28.89    5.53
  -5  -3  -6    7.99    5.40
  -6   8  -5   17.01    5.09
  -2   8   5   20.60    6.46
   2   6  -5   16.88    4.80
   8  -2  -5   12.43    4.19
  -6   8  -5   22.25    5.48
  -8   6   5   21.82    5.46
   6   2   5   21.01    4.03
  -8   2  -5   28.73    6.31
  -6  -2   5   20.57    5.30
  -6  -2   4   17.09    4.33
  -6   8  -4   28.20    5.19
  -2  -6  -4   17.40    4.01
  -6  -2   4   22.86    5.04
  -2   8   4   15.42    5.10
   2   6  -4   23.04    4.47
   2   6  -4   20.75    5.00
   8  -2  -4   20.61    4.99
  -8   6   4   26.18    5.60
  -6   8  -4   16.97    4.98
  -8   2  -4   17.09    4.52
   6   2   4   31.23    5.24
  -8   2  -4   18.35    5.23
  -2   8   3   80.47    7.54
  -6  -2   3   97.10    7.63
  -8   2  -3   82.96    7.38
  -8   6   3   94.90    7.87
   6   2   3   91.52    7.68
  -8   2  -3   87.32    7.40
  -6   8  -3   80.47    7.83
  -8   6   3   89.95    7.74
  -6   8  -3   82.84    7.35
  -6  -2   3   91.27    7.41
  -2  -6  -3   78.10    7.09
   2   6  -3   85.50    7.57
  -6  -2   2   33.69    4.80
  -2  -6  -2   33.04    4.93
  -2   8   2   30.93    5.29
  -2   8   2   37.64    5.29
  -8   6   2   28.43    4.98
   2   6  -2   24.19    5.02
  -6   8  -2   28.88    5.29
  -6  -2   2   37.69    5.27
  -8   2  -2   38.96    5.56
   6   2   2   38.79    5.61
  -6  -2   2   28.98    4.43
  -6   8  -2   47.17    5.75
  -8   2  -2   41.88    5.82
  -8   6   2   31.96    5.27
  -2   8   1   63.20    6.32
  -6  -2   1   53.56    5.69
  -8   2  -1   55.41    5.76
  -8   6   1   53.30    5.74
  -8   2  -1   57.69    6.35
  -6  -2   1   57.62    5.77
   6   2   1   49.39    5.98
  -6   8  -1   56.48    6.04
  -8   6   1   51.80    5.87
   2   6  -1   46.83    6.12
  -6   8  -1   52.83    5.62
  -2   8   1   51.23    5.64
  -6  -2   1   62.93    5.93
  -2  -6  -1   58.91    6.03
  -6  -2   0   16.50    3.91
  -2  -6   0   24.45    4.72
  -2   8   0   13.82    4.13
   2   6   0   14.74    3.49
  -2   8   0   19.87    4.10
   6   2   0   21.44    4.84
  -8   6   0   25.33    4.53
  -8   2   0   14.13    4.44
  -6   8   0   18.06    4.43
  -6  -2   0   20.78    4.54
  -6  -2   0   16.87    4.11
  -8   2   0   24.03    4.35
   2   6   0   21.46    4.29
  -8   6   0   18.71    4.32
  -6   8   0   15.78    3.81
  -2  -6   1   51.38    5.88
   6   2  -1   43.39    5.24
   2   6   1   53.01    5.45
  -2   8  -1   38.76    5.55
  -2   8  -1   35.81    5.03
  -8   2   1   47.86    5.19
  -6   8   1   44.25    4.97
  -8   6  -1   47.58    5.15
  -6   8   1   50.90    5.73
  -8   2   1   42.23    5.62
  -6  -2  -1   41.11    5.40
  -6  -2  -1   39.84    5.09
  -6  -2  -1   58.56    5.43
   2   6   1   41.69    5.55
  -6   8   1   42.00    5.01
  -8   6  -1   44.06    5.31
  -8   6  -2   31.28    4.59
  -2  -6   2   36.20    5.57
  -6  -2  -2   34.18    4.79
   2   6   2   31.59    4.67
  -2   8  -2   25.98    5.09
   2   6   2   40.07    5.49
  -6   8   2   35.81    5.41
  -8   2   2   38.47    5.68
   6   2  -2   30.05    4.31
  -8   2   2   40.52    4.95
  -6  -2  -2   37.65    5.45
  -6   8   2   37.74    5.21
   2   6   3   87.27    7.30
   2   6   3   71.25    6.27
  -8   2   3   83.93    6.69
  -6  -2  -3   83.71    7.47
  -6   8   3   85.89    7.43
  -8   2   3   85.80    7.60
  -6   8   3   82.96    6.88
  -8   6  -3   85.54    7.10
  -2   8  -3   89.08    7.96
  -2  -6   3   95.12    8.00
  -6  -2  -3   77.15    6.52
  -2  -6   4   25.53    5.70
  -2   8  -4   12.68    4.32
  -8   6  -4   18.38    4.12
  -6  -2  -4   12.79    3.51
  -8   2   4   22.79    4.57
   2   6   4   16.39    4.62
   6   2  -4   27.73    5.90
  -6   8   4   17.47    4.82
  -8   2   4   18.95    4.61
  -6  -2  -4   18.32    4.63
  -8   6  -5   19.23    4.98
  -6  -2  -5   26.61    4.00
  -2   8  -5   24.58    4.93
   2   6   5   19.60    5.10
   6   2  -5   15.74    4.66
  -6   8   5   28.53    5.50
  -8   2   5   16.73    4.65
  -2   8  -5   25.18    5.43
  -6  -2  -5   16.94    4.63
   7   1   5   -2.13    2.69
  -8   1  -5    2.48    3.56
   1  -8   4   40.00    5.82
  -7   8  -4   38.91    6.13
  -1  -7  -4   36.93    5.22
  -1   8   4   32.84    6.04
   1   7  -4   40.38    5.96
   8  -1  -4   47.28    6.49
  -8   7   4   36.79    6.23
  -8   1  -4   44.70    6.18
  -7  -1   4   53.44    6.58
   7   1   4   43.34    5.86
  -8   1  -4   42.42    6.53
   1  -8   3    0.95    3.82
  -7   8  -3    3.65    3.43
  -1  -7  -3    0.92    2.47
  -1   8   3    4.09    4.29
   1   7  -3    6.13    3.84
  -7   8  -3   -0.42    3.86
  -8   7   3    0.16    4.21
   7   1   3   -1.84    3.50
  -8   1  -3    4.35    4.03
  -7  -1   3    1.77    2.98
  -8   1  -3   -1.91    4.62
  -8   7   3   -1.18    3.56
  -1   8   2   78.57    7.33
  -7  -1   2   95.14    7.80
  -8   1  -2   94.33    8.18
  -8   7   2  103.83    8.11
  -7  -1   2   95.87    7.41
   7   1   2   94.21    7.79
  -8   1  -2  100.28    8.02
  -7   8  -2   94.63    7.86
  -8   7   2   93.76    7.76
  -7   8  -2   88.67    7.58
   1  -8   2   81.98    6.94
  -1  -7  -2  104.54    7.80
  -1   8   2   85.49    7.15
   1   7  -2   98.66    8.51
  -7   8  -1   27.76    4.75
   1  -8   1   26.63    5.00
  -1  -7  -1   28.84    4.83
  -1   8   1   14.06    4.03
   7   1   1   17.79    3.75
  -1   8   1   27.08    5.10
   1   7  -1   21.21    4.79
  -7   8  -1   21.68    4.69
  -8   7   1   18.59    4.62
  -7  -1   1   28.13    4.83
  -8   1  -1   24.96    4.94
   8  -1  -1   28.20    4.69
  -7  -1   1   20.61    4.34
  -8   1  -1   24.35    5.16
  -8   7   1   21.16    4.64
   1  -8   0   19.57    4.30
  -1  -7   0   18.09    4.58
   1   7   0   16.87    4.15
  -1   8   0   14.38    3.97
  -1   8   0   23.54    4.88
  -7   8   0   21.83    4.81
  -8   7   0   21.17    4.44
   1   7   0   24.23    4.65
  -8   1   0   25.24    4.86
  -7  -1   0   17.21    3.94
  -7  -1   0   23.14    4.53
  -8   1   0   34.59    5.18
   7   1   0   24.33    4.75
  -8   7   0   23.29    4.52
  -7   8   0   27.49    4.68
  -8   7  -1   25.46    4.63
  -1  -7   1   22.04    4.79
   1  -8  -1   39.16    5.04
   1   7   1   25.21    4.70
  -1   8  -1   21.04    4.72
   7   1  -1   27.12    4.65
  -7   8   1   18.02    4.11
  -7   8   1   28.11    4.67
  -8   1   1   24.30    5.14
   1   7   1   22.68    4.89
  -7  -1  -1   20.61    4.42
  -8   1   1   20.14    3.89
  -7  -1  -1   19.88    4.57
  -7   8   1   22.91    4.19
   1   7   2   94.21    7.77
   1   7   2   83.88    7.35
  -8   1   2   88.55    7.22
  -7  -1  -2   99.27    8.23
   7   1  -2   90.31    6.91
  -7   8   2   95.85    7.58
  -8   1   2   91.86    7.81
  -7  -1  -2  104.47    8.17
  -7   8   2   99.40    7.63
  -8   7  -2   94.70    7.64
  -1   8  -2   87.35    7.76
  -1  -7   2   94.01    7.81
   1  -8  -2   91.73    7.24
  -1  -7   3    3.69    4.47
  -8   7  -3    5.37    3.51
   1  -8  -3   12.36    3.75
  -1   8  -3    0.54    3.57
   1   7   3    6.11    4.21
  -7   8   3    5.79    3.92
  -8   1   3    0.92    3.32
   1   7   3    0.41    3.69
  -8   1   3   -1.78    3.65
  -7  -1  -3    3.19    3.97
  -7   8   3    1.64    2.55
  -1  -7   4   44.93    6.61
  -8   7  -4   40.27    6.30
   1  -8  -4   34.42    5.37
  -1   8  -4   52.70    7.09
   1   7   4   34.28    6.06
   7   1  -4   35.49    6.29
  -7   8   4   38.62    6.49
  -8   1   4   35.35    5.40
  -8   1   4   46.41    5.99
  -7  -1  -4   37.10    5.94
  -1   8  -5   -6.86    4.60
  -8   7  -5    1.31    3.53
   1   7   5   -1.60    4.41
   0  -8   0   28.83    5.12
   0   8   0   24.51    4.51
   0   8   0   38.86    6.06
   8   0   0   29.98    5.21
  -8   0   0   40.22    6.07
  -8   0   0   24.51    4.58
  -8   8   0   38.76    5.57
  -8   8  -1   46.42    5.97
   0  -8   1   38.52    5.60
   8   0  -1   35.84    5.12
   0  -8  -1   42.72    5.69
   8   0   1   37.30    5.52
   0   8   1   38.97    5.72
   0   8  -1   47.75    6.52
   0   8   1   41.67    6.07
  -8   8   1   30.25    5.22
  -8   0   1   40.95    5.81
  -8   0  -1   44.67    6.10
  -8   0   1   42.28    5.81
  -8   0  -1   50.10    6.22
  -8   8   1   34.93    5.30
  -8   8  -2    7.37    3.93
   0  -8   2    4.14    3.85
   0  -8  -2    7.82    2.95
   0   8   2    9.08    4.04
   0   8  -2    6.28    4.76
   0   8   2   12.50    4.72
  -8   8   2   14.05    4.57
  -8   0   2    4.82    3.70
  -8   0  -2   12.69    4.18
  -8   0   2    7.52    4.11
  -8   0  -2   16.02    4.95
  -8   8   2   12.35    4.39
   8   0   2   15.62    4.47
   0  -8   3   30.15    5.90
  -8   8  -3   45.27    6.39
   0  -8  -3   31.60    5.14
   0   8  -3   27.91    5.86
   0   8   3   37.34    5.73
   8   0   3   46.76    6.44
  -8   8   3   37.62    5.83
  -8   0   3   39.83    6.22
  -8   0  -3   34.13    5.69
  -8   0   3   30.73    5.55
  -8   0  -3   51.38    5.75
  -8   8   3   36.19    5.67
  -8   8  -4    1.45    3.78
   0   8  -4    2.45    3.89
   0   8   4    9.15    4.36
   8   0  -4    5.39    4.01
  -8   8   4    7.89    4.89
  -8   0  -4    8.88    4.60
  -8   0   4   14.32    4.02
  -8   0  -4   -3.03    4.50
   8   0   4   14.62    4.39
  -9   4  -5   22.04    5.97
  -5   9  -4    9.37    5.25
  -4   9   4   -2.15    3.88
   4   5  -4   -2.35    3.93
  -4   9   4   -2.33    4.39
  -9   5   4   -3.92    4.61
  -5   9  -4   -2.18    4.95
   5   4   4    2.63    2.44
  -9   4  -4    0.94    3.81
  -5  -4   3    8.67    4.25
  -5   9  -3   14.51    4.17
  -4  -5  -3   17.91    4.07
  -4   9   3   11.67    4.42
   4   5  -3   16.75    4.91
  -4   9   3   10.18    4.19
  -9   5   3   14.02    4.83
  -9   4  -3   10.20    4.20
  -5  -4   3   10.41    3.93
   4   5  -3   14.10    4.16
  -5   9  -3   14.40    5.80
   5   4   3   14.40    4.23
  -9   4  -3    5.00    4.01
  -5  -4   2   13.36    4.44
  -5   9  -2   12.36    4.03
  -4  -5  -2    7.97    3.22
  -4   9   2   14.80    4.12
  -4   9   2   10.33    4.33
  -9   5   2   21.84    5.05
  -9   4  -2   16.52    4.96
   5   4   2    6.24    3.25
  -5  -4   2   12.17    3.57
  -5   9  -2   16.27    4.74
  -9   5   2   12.30    4.07
   4   5  -2    8.17    3.25
  -4   9   1   68.96    6.45
   4   5  -1   74.12    6.96
  -5  -4   1   77.14    6.85
   5   4   1   62.32    6.40
  -4  -5  -1   66.79    6.19
  -9   5   1   75.17    7.14
  -9   4  -1   80.84    7.15
  -5   9  -1   74.48    7.37
  -9   5   1   78.12    7.13
  -5   9  -1   72.17    6.28
  -5  -4   1   75.86    7.17
  -4  -5  -1   87.34    7.37
  -4   9   1   58.01    6.68
  -5   9   0   33.47    4.52
  -5  -4   0   27.50    4.88
  -4  -5   0   33.54    5.74
  -5   9   0   21.57    3.76
  -4   9   0   27.86    4.72
   4   5   0   24.63    4.53
   5   4   0   40.77    5.41
  -9   5   0   25.79    4.99
  -9   4   0   30.99    5.38
  -4  -5   0   28.43    4.18
  -5  -4   0   33.69    4.43
  -5   9   0   34.83    5.52
  -9   4   0   34.89    4.76
  -9   5   0   27.80    4.66
  -4   9   0   31.07    5.47
  -4   9  -1   63.72    6.26
  -5   9   1   70.73    6.27
   4   5   1   67.70    6.86
   5   4  -1   69.69    6.66
  -4  -5   1   68.50    6.15
  -5  -4  -1   84.21    6.89
  -9   4   1   64.50    6.79
  -9   5  -1   74.29    7.09
  -5   9   1   74.51    7.09
  -9   4   1   74.64    6.49
  -4   9  -1   67.57    7.05
  -9   5  -1   54.95    5.73
  -4  -5   1   77.19    7.39
  -5  -4  -1   76.69    6.90
  -4  -5   2   16.41    4.80
  -5  -4  -2    6.18    2.92
   5   4  -2    5.89    3.19
  -5   9   2   15.86    4.42
   4   5   2   14.32    4.41
  -5   9   2    9.72    4.12
  -9   4   2   12.29    4.78
  -9   5  -2   10.88    3.78
  -4  -5   2    9.98    3.52
  -5  -4  -2   15.46    4.52
  -4   9  -2    5.29    3.45
  -9   5  -2   16.22    4.65
  -4  -5   3    4.54    3.94
   5   4  -3    3.63    2.97
  -5  -4  -3   19.99    4.50
  -4   9  -3   13.33    4.34
  -5   9   3   15.67    4.23
   4   5   3   14.94    4.10
   5   4  -3   13.47    4.16
  -5   9   3    6.04    4.08
  -9   4   3   14.96    4.60
  -4  -5   3   13.51    3.78
  -4   9  -3    5.69    4.15
  -5  -4  -3   17.45    4.28
  -4   9  -4    7.94    4.26
  -5   9   4    0.25    3.82
   5   4  -4    3.12    3.02
   4   5   4    3.52    2.75
  -5   9   4    1.07    4.19
  -9   4   4    0.05    3.78
  -4   9  -4    8.16    5.01
  -5  -4  -4    0.04    3.22
  -5  -4  -5   20.05    4.71
  -6   9  -4   30.03    5.73
   6   3   4   30.81    5.33
  -6  -3   4   29.89    5.44
  -3   9   4   28.53    5.39
   3   6  -4   31.86    5.72
  -9   6   4   29.84    5.94
  -6   9  -4   33.39    6.06
  -9   3  -4   39.52    6.04
  -9   3  -4   25.43    5.33
  -6  -3   3    3.12    4.48
  -6   9  -3   -2.42    4.33
  -3  -6  -3    3.22    2.43
   6   3   3   -2.00    3.40
  -3   9   3    3.80    4.15
  -9   6   3   -5.24    4.14
   3   6  -3    0.65    3.55
  -9   3  -3   -0.68    3.75
  -6   9  -3    1.30    4.53
  -6  -3   3   -0.22    3.16
  -9   3  -3    1.17    4.28
  -6  -3   2   45.60    6.17
  -3  -6  -2   37.39    5.58
  -3   9   2   51.24    6.64
   6   3   2   56.87    6.30
  -9   6   2   48.84    6.71
  -6   9  -2   59.85    7.18
  -9   3  -2   47.73    5.94
   3   6  -2   50.05    6.53
  -6  -3   2   46.12    5.69
  -6   9  -2   57.21    6.42
  -3   9   2   67.23    6.61
  -9   3  -2   46.54    5.84
  -9   6   2   49.71    6.12
   6   3   1    0.38    3.45
  -6   9  -1   -1.34    2.54
  -6  -3   1   -0.67    3.45
  -3  -6  -1    9.36    3.82
  -3   9   1    0.15    3.41
  -3   9   1   -1.16    2.89
  -9   6   1    1.27    3.45
  -9   3  -1    0.79    3.82
  -6  -3   1   -2.72    3.45
  -6   9  -1    0.52    3.61
  -6  -3   1    0.84    3.09
   3   6  -1    1.57    3.17
  -9   3  -1   -0.58    3.54
  -9   6   1    1.92    3.10
   3   6   0   47.98    6.24
  -3   9   0   43.65    5.54
  -6  -3   0   54.12    6.16
  -9   3   0   66.35    6.23
   6   3   0   57.56    6.32
  -9   6   0   63.22    6.69
  -9   3   0   61.91    6.86
  -6  -3   0   51.39    5.91
  -6   9   0   70.54    6.96
  -9   6   0   51.66    5.84
  -6   9   0   61.30    6.14
  -3   9   0   69.12    7.14
  -6  -3   0   57.93    6.29
  -3  -6   0   57.90    6.52
  -3  -6   1    1.98    4.30
  -6  -3  -1    2.16    3.14
  -3   9  -1    2.51    3.81
   3   6   1   -0.70    2.81
  -3   9  -1   -0.99    3.13
   3   6   1   -1.95    3.26
   6   3  -1    1.47    2.62
  -9   6  -1    0.88    3.17
  -9   3   1    7.93    4.37
  -6   9   1    2.65    3.54
  -9   3   1   -2.66    2.49
  -6  -3  -1   12.11    4.17
  -6   9   1   -3.09    2.74
  -9   6  -1    0.08    2.95
  -3  -6   2   49.65    6.58
  -3   9  -2   40.39    6.48
  -6  -3  -2   36.02    5.04
   3   6   2   54.31    5.82
   3   6   2   45.46    5.99
   6   3  -2   54.93    5.79
  -9   3   2   50.18    5.57
  -6  -3  -2   51.29    6.11
  -6   9   2   38.14    5.59
  -9   3   2   47.96    6.51
  -6   9   2   47.35    5.26
  -9   6  -2   46.98    6.02
  -9   6  -3   -1.91    2.67
  -3  -6   3   -1.61    4.15
  -6  -3  -3   10.51    3.11
   3   6   3   -2.06    2.96
   6   3  -3   -0.18    4.08
  -6   9   3    0.77    3.45
  -9   3   3   -1.26    2.58
  -6  -3  -3    4.30    4.00
  -3   9  -3   -1.16    4.74
  -9   6  -4   35.27    5.52
   3   6   4   19.98    3.93
   6   3  -4   43.56    6.73
  -6   9   4   34.79    6.24
  -9   3   4   49.63    7.09
  -3   9  -4   27.14    5.85
  -6  -3  -4   32.42    6.29
   2   7  -4    6.12    3.49
   9  -2  -4    7.83    3.94
   7   2   4   10.08    3.63
  -9   2  -4    4.71    4.39
  -7   9  -3   36.82    6.08
  -2   9   3   32.12    5.60
   2   7  -3   35.68    6.28
  -7   9  -3   34.77    6.68
  -9   7   3   37.43    5.91
   7   2   3   38.61    6.16
  -9   2  -3   41.02    6.61
  -9   7   3   34.59    5.71
  -7  -2   3   29.84    4.68
  -9   2  -3   31.87    5.98
  -7   9  -2   36.31    5.40
  -2  -7  -2   27.25    4.76
  -2   9   2   22.72    5.09
  -2   9   2   35.84    5.99
   7   2   2   31.02    5.56
   2   7  -2   25.54    5.42
  -9   7   2   34.38    5.62
  -7   9  -2   35.21    6.20
  -7  -2   2   33.67    5.44
  -9   2  -2   35.44    6.23
  -7  -2   2   25.88    4.86
  -9   2  -2   39.37    6.09
  -9   7   2   38.11    6.04
  -7   9  -1   31.50    5.01
  -2  -7  -1   51.23    6.37
  -2   9   1   31.48    5.51
  -2   9   1   35.45    5.50
   7   2   1   46.22    6.01
  -9   7   1   26.06    5.02
  -7   9  -1   32.56    5.88
   2   7  -1   19.53    5.31
  -9   2  -1   23.95    4.94
  -7  -2   1   34.56    5.51
  -7  -2   1   32.76    5.41
  -9   2  -1   32.80    5.65
  -9   7   1   26.80    4.98
  -2  -7   0   -0.12    3.75
  -2   9   0    3.24    3.75
   7   2   0    1.64    3.08
   2   7   0   -1.14    3.43
  -2   9   0   -0.77    3.70
  -9   7   0    2.91    3.23
  -7   9   0    7.26    4.46
  -9   2   0    3.09    3.79
  -7  -2   0   -0.79    3.43
   2   7   0   -0.31    4.66
  -7  -2   0   -7.27    3.30
  -9   2   0   -1.43    2.92
  -9   7   0   -2.97    3.61
  -7   9   0    2.26    3.21
  -2  -7   1   41.31    6.36
  -2   9  -1   30.62    5.99
   2   7   1   38.46    5.44
  -9   2   1   43.40    6.17
  -7  -2  -1   38.00    6.24
   2   7   1   39.44    6.05
  -9   2   1   32.01    4.74
  -7  -2  -1   38.86    5.48
  -7   9   1   36.97    5.41
   7   2  -1   28.32    4.63
  -9   7  -1   37.94    5.75
  -9   7  -2   25.42    4.93
  -2  -7   2   29.72    5.90
  -2   9  -2   25.88    5.09
   2   7   2   25.04    4.74
  -7   9   2   22.64    5.15
  -9   2   2   26.98    6.04
   7   2  -2   21.50    4.14
  -7  -2  -2   26.40    5.75
  -9   2   2   29.52    4.36
   2   7   2   38.85    5.40
  -7  -2  -2   29.08    5.50
  -7   9   2   29.46    4.61
  -9   7  -3   30.35    4.80
  -2   9  -3   42.39    6.77
   2   7   3   23.97    5.53
   7   2  -3   35.68    6.34
  -7   9   3   38.66    5.63
  -9   2   3   30.52    5.69
  -9   2   3   24.47    4.48
   2   7   3   30.04    5.45
  -7  -2  -3   35.81    6.22
  -7   9   3   33.59    4.94
  -9   7  -4    3.90    3.10
   2   7   4   11.33    4.99
  -9   2   4    6.16    4.56
  -9   2   4   11.58    3.81
  -2   9  -4    7.89    4.22
   1   8  -3   17.84    5.64
  -9   1  -3   16.22    5.03
  -8   9  -2    9.85    4.10
   8   1   2   10.97    3.36
  -1   9   2   12.71    4.18
  -1   9   2   11.42    4.57
   1   8  -2   11.12    5.20
  -9   8   2    5.12    4.07
  -8  -1   2    5.92    4.32
  -9   1  -2   13.01    5.12
  -8  -1   2    6.65    3.76
  -9   1  -2    2.77    4.66
  -9   8   2   12.57    4.13
  -8   9  -1   31.88    5.18
  -1  -8  -1   40.86    6.18
  -1   9   1   39.99    5.89
  -1   9   1   29.53    5.89
   1   8  -1   42.61    6.91
  -9   8   1   32.24    5.61
   9  -1  -1   31.82    5.13
  -8  -1   1   29.40    5.64
  -9   1  -1   43.15    6.67
  -8  -1   1   35.91    5.65
  -9   1  -1   52.37    6.72
   8   1   1   38.71    5.80
  -9   8   1   35.20    5.93
  -1  -8   0   10.17    4.14
   1   8   0   10.20    3.58
  -1   9   0    7.75    3.93
  -1   9   0   15.87    4.62
   1   8   0   18.34    5.05
   8   1   0   17.38    4.13
  -9   8   0   25.18    5.05
   9  -1   0   17.97    4.01
  -9   1   0   36.04    6.95
  -8  -1   0   13.70    4.48
  -8  -1   0   18.52    4.65
  -9   1   0   15.95    3.86
  -9   8   0   16.76    4.28
  -8   9   0   37.28    5.52
  -1  -8   1   34.10    5.79
   1   8   1   31.38    5.19
  -1   9  -1   34.21    6.21
  -8  -1  -1   51.17    6.30
   8   1  -1   43.04    5.98
  -8   9   1   37.75    5.51
   1   8   1   36.13    6.02
  -9   1   1   31.85    5.58
  -8  -1  -1   36.11    6.17
  -9   1   1   48.24    6.19
   9  -1   1   47.51    6.24
  -8   9   1   35.40    5.90
  -9   8  -1   38.55    5.95
  -9   8  -2   11.89    3.80
  -1   9  -2    7.92    3.83
   1   8   2   12.77    4.48
  -8   9   2   12.19    4.73
   1   8   2   11.25    4.81
  -9   1   2   10.91    4.73
  -8  -1  -2    3.63    4.04
  -9   1   2    7.38    3.90
  -8  -1  -2    7.80    4.31
  -8   9   2   17.76    4.00
  -1   9  -3   31.24    6.97
   1   8   3   14.83    4.36
  -8   9   3   19.58    5.00
   1   8   3   16.62    5.14
  -9   1   3   16.70    4.51
  -9   1   3   18.03    4.20
  -8   9   3   20.51    4.53
   0   9   0   85.99    7.86
  -9   0   0   94.67    8.21
   9   0   0   90.23    8.04
  -9   0   0   89.99    8.60
   0   9   0  105.74    9.13
   0   9   1    7.74    4.81
   9   0   1   -5.09    3.28
  -9   9   1    0.26    3.10
   9   0  -1    2.58    3.74
  -9   0   1   -0.37    4.98
   0   9   2   14.54    5.30
  -9   9   2   12.41    4.76
  -9   0   2    9.34    4.17
  -5  10   0   57.19    6.34
   5   5   0   66.55    7.21
  -5  -5   0   65.14    6.58
 -10   5   0   61.14    6.90
  -5  10   0   63.20    7.19
 -10   5   0   74.61    6.85
   5   5  -1    1.21    2.26
  -5  10   1    8.38    4.30
   5   5   1    1.27    3.38
 -10   5   1    0.14    3.18
 -10   5  -1    0.94    4.13
  -5  -5   1   -1.60    2.72
  -5  -5  -1   -1.17    2.79
  -5  10  -1    6.43    4.00
  -5  10   1    1.72    4.38
 -10   5   1    2.83    3.55
   5   5  -2   21.63    4.15
  -5  10   2   19.50    4.60
   5   5   2   38.95    5.59
 -10   5   2   25.21    5.79
 -10   5  -2   24.25    5.58
  -5  -5   2   16.60    3.91
  -5  10  -2   38.47    6.09
  -5  10  -3   -3.19    4.27
  -5  10   3    3.22    4.36
   5   5  -3    5.86    4.61
  -5  10   3   -0.56    3.29
  -5  -5   3    4.13    3.29
   5   5  -3    4.82    3.23
  -4  10   3   16.81    5.05
 -10   4  -3   13.58    4.90
   4   6  -3    5.36    3.42
  -6  10  -2    2.24    2.66
  -4  10   2    8.17    3.82
 -10   6   2    0.28    4.20
 -10   4  -2    4.85    3.90
   6   4   2    1.50    2.71
 -10   6   2    3.79    3.48
  -6  10  -2    1.79    4.20
  -6  -4   2   -1.63    2.34
   4   6  -2   11.26    4.07
  -6  10  -1   19.52    3.91
  -4  10   1   39.61    5.54
   6   4   1   41.64    6.03
 -10   6   1   38.46    6.40
 -10   4  -1   38.14    5.47
  -6  10  -1   36.90    6.14
  -6  -4   1   30.95    5.01
   4   6  -1   29.00    4.99
 -10   6   1   33.08    5.54
  -4  10   1   19.92    5.54
  -6  -4   0   25.77    5.65
   4   6   0   19.35    4.11
  -4  10   0   20.76    4.63
   6   4   0   24.13    5.04
 -10   6   0   24.21    4.91
 -10   4   0   27.74    5.95
  -6  -4   0   22.85    5.34
  -6  10   0   26.12    5.45
  -6  -4   0   22.68    4.29
 -10   6   0   18.47    4.32
  -4  10   0   12.71    5.39
   4   6   1   32.16    5.53
   6   4  -1   42.66    5.82
 -10   6  -1   28.45    5.86
 -10   4   1   31.95    5.82
  -6  10   1   25.52    5.08
  -6  -4  -1   17.43    3.72
  -4  10  -1   33.30    6.29
 -10   6  -1   27.74    4.78
   4   6   2   -1.81    3.35
   6   4  -2    0.55    1.96
 -10   4   2    2.67    3.98
  -6  -4  -2    5.78    3.06
  -4  10  -2   -0.77    4.28
 -10   6  -2    8.34    3.59
  -6  10   3    6.87    3.96
  -6  -4  -3    8.63    4.51
  -7  10  -2    4.10    3.05
 -10   3  -2    8.19    4.46
  -7  10  -1   17.88    4.10
  -3  10   1   20.19    5.70
  -3  10   1   25.56    4.97
 -10   7   1   14.56    5.00
  -7  10  -1   16.90    4.76
 -10   3  -1   17.39    4.97
  -7  -3   1   28.17    5.76
   3   7  -1    6.90    4.13
  -7  -3   1   34.14    5.14
 -10   3  -1   25.98    4.78
 -10   7   1   39.53    5.90
   7   3   1   15.02    3.90
  -7  -3   0    8.59    3.84
  -3  10   0   25.69    6.40
  -3  10   0    4.36    3.79
 -10   7   0   11.09    4.74
 -10   3   0   13.20    4.67
  -7  10   0   11.71    4.85
  -7  -3   0    3.85    3.45
   7   3   0   10.75    3.66
  -7  -3   0    4.52    2.58
   3   7   0   20.50    5.33
 -10   3   0    5.91    2.83
 -10   7   0   16.75    4.43
  -7  10   0   22.71    4.60
  -3  10  -1   22.22    5.24
   3   7   1   14.97    3.88
   7   3  -1   22.08    4.29
 -10   3   1   32.23    6.10
  -7  -3  -1   23.03    5.72
  -7  -3  -1   23.40    4.57
   3   7   1   20.51    4.99
  -7  10   1   17.05    4.10
 -10   7  -1   13.67    4.47
   7   3  -2   12.87    3.70
  -7  -3  -2   10.65    3.22
  -7  10   2    6.04    2.62
 -10   7  -2    9.18    3.66
 -10   8   1    6.05    4.75
  -8  -2   1   11.66    4.55
  -8  10   0   10.64    4.25
 -10   8   0   16.59    4.84
  -8  -2   0   27.01    5.83
 -10   2   0   17.22    4.13
   2   8   1   -9.82    3.91
   8   2  -1   -6.17    3.11
   0   0   0    0.00    0.00
;
_shelx_hkl_checksum              87050
loop_
_space_group_symop_operation_xyz
'x, y, z'
'-y, x-y, z'
'-x+y, -x, z'
'-x, -y, z+1/2'
'y, -x+y, z+1/2'
'x-y, x, z+1/2'
'y, x, -z'
'x-y, -y, -z'
'-x, -x+y, -z'
'-y, -x, -z+1/2'
'-x+y, y, -z+1/2'
'x, x-y, -z+1/2'
loop_
_atom_site_label
_atom_site_type_symbol
_atom_site_fract_x
_atom_site_fract_y
_atom_site_fract_z
_atom_site_U_iso_or_equiv
_atom_site_adp_type
_atom_site_occupancy
_atom_site_site_symmetry_order
_atom_site_calc_flag
_atom_site_refinement_flags_posn
_atom_site_refinement_flags_adp
_atom_site_refinement_flags_occupancy
_atom_site_disorder_assembly
_atom_site_disorder_group
Ni1 Ni 0.3333 0.6667 0.2500 0.0226(3) Uani 0.7501 6 d S T P . .
Fe1 Fe 0.3333 0.6667 0.2500 0.0226(3) Uani 0.2499 6 d S T P . .
O1 O 0.1293(3) 0.4502(3) 0.0882(3) 0.0406(6) Uani 1 1 d . . . . .
C1 C 0.0000 0.4549(6) 0.0000 0.0354(11) Uani 1 2 d S T P . .
H1 H 0.0000 0.5694 0.0000 0.042 Uiso 1 2 calc R U P . .
C2 C -0.011(15) -0.049(12) 0.102(2) 0.179(17) Uiso 0.3133 1 d D . P A 1
N1 N -0.047(2) 0.047(2) 0.2500 0.063(8) Uiso 0.1567 2 d DS . P A 1
H1A H 0.0419 0.1690 0.2553 0.075 Uiso 0.0783 1 calc R U P A 1
H1B H -0.1607 0.0357 0.2390 0.075 Uiso 0.0783 1 calc R U P A 1
N2 N 0.0000 0.0000 0.0000 0.18(4) Uiso 0.2793 6 d S . P A 1
loop_
_atom_site_aniso_label
_atom_site_aniso_U_11
_atom_site_aniso_U_22
_atom_site_aniso_U_33
_atom_site_aniso_U_23
_atom_site_aniso_U_13
_atom_site_aniso_U_12
Ni1 0.0231(3) 0.0231(3) 0.0216(4) 0.000 0.000 0.01155(16)
Fe1 0.0231(3) 0.0231(3) 0.0216(4) 0.000 0.000 0.01155(16)
O1 0.0368(14) 0.0403(15) 0.0449(12) -0.0088(13) -0.0176(12) 0.0194(11)
C1 0.035(2) 0.0335(19) 0.038(2) -0.0053(11) -0.011(2) 0.0175(12)
loop_
_atom_type_symbol
_atom_type_description
_atom_type_scat_dispersion_real
_atom_type_scat_dispersion_imag
_atom_type_scat_source
C C 0.0033 0.0016 'International Tables Vol C Tables 4.2.6.8 and 6.1.1.4'
N N 0.0061 0.0033 'International Tables Vol C Tables 4.2.6.8 and 6.1.1.4'
O O 0.0106 0.0060 'International Tables Vol C Tables 4.2.6.8 and 6.1.1.4'
Fe Fe 0.3463 0.8444 'International Tables Vol C Tables 4.2.6.8 and 6.1.1.4'
Ni Ni 0.3393 1.1124 'International Tables Vol C Tables 4.2.6.8 and 6.1.1.4'
H H 0.0000 0.0000 'International Tables Vol C Tables 4.2.6.8 and 6.1.1.4'
loop_
_geom_angle_atom_site_label_1
_geom_angle_atom_site_label_2
_geom_angle_atom_site_label_3
_geom_angle
_geom_angle_site_symmetry_1
_geom_angle_site_symmetry_3
O1 Ni1 O1 84.13(14) . 11
O1 Ni1 O1 91.16(15) . 12_565
O1 Ni1 O1 92.46(10) 11 12_565
O1 Ni1 O1 92.46(10) . 3_565
O1 Ni1 O1 175.13(14) 11 3_565
O1 Ni1 O1 84.13(14) 12_565 3_565
O1 Ni1 O1 175.13(14) . 10_665
O1 Ni1 O1 92.46(10) 11 10_665
O1 Ni1 O1 92.46(10) 12_565 10_665
O1 Ni1 O1 91.16(15) 3_565 10_665
O1 Ni1 O1 92.46(10) . 2_665
O1 Ni1 O1 91.16(14) 11 2_665
O1 Ni1 O1 175.13(14) 12_565 2_665
O1 Ni1 O1 92.46(10) 3_565 2_665
O1 Ni1 O1 84.13(14) 10_665 2_665
C1 O1 Ni1 125.8(3) . .
O1 C1 O1 125.7(4) . 9
O1 C1 H1 117.1 . .
O1 C1 H1 117.1 9 .
loop_
_geom_bond_atom_site_label_1
_geom_bond_atom_site_label_2
_geom_bond_distance
_geom_bond_site_symmetry_2
Ni1 O1 2.052(2) .
Ni1 O1 2.052(2) 11
Ni1 O1 2.052(2) 12_565
Ni1 O1 2.052(2) 3_565
Ni1 O1 2.052(2) 10_665
Ni1 O1 2.052(2) 2_665
O1 C1 1.235(3) .
C1 O1 1.235(3) 9
C1 H1 0.9300 .
C2 N1 1.41(2) .
C2 C2 1.52(2) 7
N1 H1A 0.8900 .
N1 H1B 0.8900 .
loop_
_geom_hbond_atom_site_label_D
_geom_hbond_atom_site_label_H
_geom_hbond_atom_site_label_A
_geom_hbond_distance_DH
_geom_hbond_distance_HA
_geom_hbond_distance_DA
_geom_hbond_angle_DHA
_geom_hbond_site_symmetry_A
N1 H1A O1 0.89 2.34 3.065(16) 138.7 .
N1 H1A O1 0.89 2.53 3.341(4) 152.5 11
N1 H1B O1 0.89 2.37 3.065(16) 134.5 10
