#------------------------------------------------------------------------------
#$Date: 2021-02-12 16:08:59 +0200 (Fri, 12 Feb 2021) $
#$Revision: 261916 $
#$URL: file:///home/coder/svn-repositories/cod/cif/1/56/03/1560352.cif $
#------------------------------------------------------------------------------
#
# This file is available in the Crystallography Open Database (COD),
# http://www.crystallography.net/
#
# All data on this site have been placed in the public domain by the
# contributors.
#
data_1560352
loop_
_publ_author_name
'Smith Pellizzeri, Tiffany M.'
'McMillen, Colin D.'
'Pellizzeri, Steven'
'Wen, Yimei'
'Getman, Rachel B.'
'Chumanov, George'
'Kolis, Joseph W.'
_publ_section_title
;
 Strontium manganese vanadates from hydrothermal brines: Synthesis and
 structure of Sr2Mn2(V3O10)(VO4), Sr3Mn(V2O7)2, and Sr2Mn(VO4)2(OH)
;
_journal_name_full               'Journal of Solid State Chemistry'
_journal_page_first              225
_journal_page_last               233
_journal_paper_doi               10.1016/j.jssc.2017.07.008
_journal_volume                  255
_journal_year                    2017
_chemical_formula_moiety         'H Mn O9 V2, 2(Sr)'
_chemical_formula_sum            'H Mn O9 Sr2 V2'
_chemical_formula_weight         477.07
_space_group_crystal_system      monoclinic
_space_group_IT_number           4
_space_group_name_Hall           'P 2yb'
_space_group_name_H-M_alt        'P 1 21 1'
_atom_sites_solution_hydrogens   difmap
_atom_sites_solution_primary     dual
_atom_sites_solution_secondary   difmap
_cell_angle_alpha                90
_cell_angle_beta                 111.3940(10)
_cell_angle_gamma                90
_cell_formula_units_Z            2
_cell_length_a                   7.6316(3)
_cell_length_b                   6.1204(3)
_cell_length_c                   8.6893(3)
_cell_measurement_reflns_used    1564
_cell_measurement_temperature    298(2)
_cell_measurement_theta_max      26.49
_cell_measurement_theta_min      2.52
_cell_volume                     377.90(3)
_computing_cell_refinement       'Bruker SAINT'
_computing_data_collection       'Bruker APEX3'
_computing_data_reduction        'Bruker SAINT'
_computing_molecular_graphics    'DIAMOND (Bradenburg, 1999)'
_computing_publication_material  'Bruker SHELXTL'
_computing_structure_refinement  'SHELXL-2014 (Sheldrick 2014)'
_computing_structure_solution    'SHELXT-2014 (Sheldrick 2014)'
_diffrn_ambient_temperature      298(2)
_diffrn_measured_fraction_theta_full 0.999
_diffrn_measured_fraction_theta_max 0.999
_diffrn_measurement_device_type  'Bruker D8 Venture Photon 100'
_diffrn_measurement_method       '\f and \w scans'
_diffrn_radiation_type           MoK\a
_diffrn_radiation_wavelength     0.71073
_diffrn_reflns_av_R_equivalents  0.0368
_diffrn_reflns_av_unetI/netI     0.0237
_diffrn_reflns_Laue_measured_fraction_full 0.999
_diffrn_reflns_Laue_measured_fraction_max 0.999
_diffrn_reflns_limit_h_max       9
_diffrn_reflns_limit_h_min       -9
_diffrn_reflns_limit_k_max       7
_diffrn_reflns_limit_k_min       -7
_diffrn_reflns_limit_l_max       10
_diffrn_reflns_limit_l_min       -10
_diffrn_reflns_number            8752
_diffrn_reflns_point_group_measured_fraction_full 0.999
_diffrn_reflns_point_group_measured_fraction_max 0.999
_diffrn_reflns_theta_full        25.242
_diffrn_reflns_theta_max         26.492
_diffrn_reflns_theta_min         2.517
_diffrn_source                   'Incoatec I\mS'
_exptl_absorpt_coefficient_mu    18.054
_exptl_absorpt_correction_type   multi-scan
_exptl_absorpt_process_details   'SADABS, Bruker'
_exptl_crystal_colour            'dark red'
_exptl_crystal_density_diffrn    4.193
_exptl_crystal_description       block
_exptl_crystal_F_000             440
_exptl_crystal_size_max          0.080
_exptl_crystal_size_mid          0.060
_exptl_crystal_size_min          0.040
_exptl_transmission_factor_max   1.000
_exptl_transmission_factor_min   0.613
_refine_diff_density_max         0.431
_refine_diff_density_min         -0.382
_refine_diff_density_rms         0.105
_refine_ls_abs_structure_details
;
 Refined as an inversion twin.
;
_refine_ls_abs_structure_Flack   0.498(11)
_refine_ls_extinction_coef       0.0254(12)
_refine_ls_extinction_expression Fc^*^=kFc[1+0.001xFc^2^\l^3^/sin(2\q)]^-1/4^
_refine_ls_extinction_method     'SHELXL-2014/7 (Sheldrick 2014'
_refine_ls_goodness_of_fit_ref   1.120
_refine_ls_hydrogen_treatment    refxyz
_refine_ls_matrix_type           full
_refine_ls_number_parameters     132
_refine_ls_number_reflns         1564
_refine_ls_number_restraints     2
_refine_ls_restrained_S_all      1.122
_refine_ls_R_factor_all          0.0151
_refine_ls_R_factor_gt           0.0146
_refine_ls_shift/su_max          0.000
_refine_ls_shift/su_mean         0.000
_refine_ls_structure_factor_coef Fsqd
_refine_ls_weighting_details
'w=1/[\s^2^(Fo^2^)+(0.0163P)^2^+0.1157P] where P=(Fo^2^+2Fc^2^)/3'
_refine_ls_weighting_scheme      calc
_refine_ls_wR_factor_gt          0.0380
_refine_ls_wR_factor_ref         0.0382
_reflns_Friedel_coverage         0.824
_reflns_Friedel_fraction_full    1.000
_reflns_Friedel_fraction_max     1.000
_reflns_number_gt                1536
_reflns_number_total             1564
_reflns_threshold_expression     'I > 2\s(I)'
_cod_data_source_file            3-CIF.cif
_cod_data_source_block           d8-1419_c
_cod_original_sg_symbol_H-M      'P 21'
_cod_database_code               1560352
_shelx_space_group_comment
;
The symmetry employed for this shelxl refinement is uniquely defined
by the following loop, which should always be used as a source of
symmetry information in preference to the above space-group names.
They are only intended as comments.
;
_shelx_estimated_absorpt_t_min   0.326
_shelx_estimated_absorpt_t_max   0.532
_shelx_res_file
;

    d8-1419_c.res created by SHELXL-2014/7


TITL d8-1419_c.res in P2(1)
REM Old TITL P21m in P2(1)/m

REM SHELXT solution in P2(1)
REM R1 0.062,  Rweak 0.011,  Alpha 0.058,  Orientation as input
REM Flack x =  0.500 ( 0.005 ) from Parsons' quotients
REM Formula found by SHELXT:  O9 V2 Mn Sr2

CELL  0.71073   7.6316   6.1204   8.6893   90.000  111.394   90.000
ZERR    2.000   0.0003   0.0003   0.0003    0.000    0.001    0.000
LATT -1
SYMM -X, 1/2+Y, -Z
SFAC O H V MN SR
UNIT 18 2 4 2 4
TEMP 25.650
L.S. 10
BOND $H
LIST 4
ACTA
FMAP 2
SIZE 0.08 0.06 0.04
TWIN
PLAN 5
OMIT -3 53
DFIX 0.93 O5 H5
WGHT    0.016300    0.115700
EXTI    0.025394
BASF   0.49849
FVAR       0.52630
SR1   5    0.175615    0.251453    1.095778    11.00000    0.00948    0.01283 =
         0.00787   -0.00019    0.00491   -0.00026
SR2   5   -0.233071    0.269266    0.260935    11.00000    0.00913    0.01336 =
         0.00996    0.00099    0.00613    0.00102
MN1   4    0.495321    0.510362    0.498808    11.00000    0.00735    0.00447 =
         0.00398   -0.00001    0.00271   -0.00016
V1    3    0.540773    0.262166    0.838917    11.00000    0.00664    0.00475 =
         0.00436   -0.00007    0.00278   -0.00007
V2    3    0.046027    0.759102    0.320165    11.00000    0.00417    0.00580 =
         0.00549    0.00028    0.00166    0.00010
O1    1    0.498391    0.020019    0.721157    11.00000    0.01358    0.00732 =
         0.00677    0.00256    0.00412    0.00118
O2    1   -0.023559    0.983426    0.196151    11.00000    0.01016    0.00769 =
         0.01306    0.00236    0.00093    0.00401
O3    1    0.286462    0.766728    0.444095    11.00000    0.00701    0.00806 =
         0.00943   -0.00094    0.00195    0.00109
O6    1    0.424974    0.253031    0.967461    11.00000    0.02058    0.01810 =
         0.01632    0.00073    0.01411    0.00041
O5    1    0.331227    0.257292    0.427114    11.00000    0.00545    0.00631 =
         0.00920    0.00037    0.00414    0.00169
H5    2    0.255610    0.293542    0.479200    11.00000   10.03000
O4    1    0.767355    0.276557    0.954491    11.00000    0.00852    0.02322 =
         0.01285   -0.00173    0.00117   -0.00437
O7    1   -0.067192    0.742468    0.453455    11.00000    0.01341    0.03454 =
         0.01617    0.00180    0.01080    0.00420
O8    1    0.481355    0.501101    0.714323    11.00000    0.01829    0.00629 =
         0.00727    0.00415    0.00760    0.00320
O9    1   -0.005583    0.535090    0.196881    11.00000    0.01436    0.00961 =
         0.01166   -0.00304    0.00613   -0.00063
HKLF 4

REM  d8-1419_c.res in P2(1)
REM R1 =  0.0146 for    1536 Fo > 4sig(Fo)  and  0.0151 for all    1564 data
REM    132 parameters refined using      2 restraints

END

WGHT      0.0163      0.1253

REM Highest difference peak  0.431,  deepest hole -0.382,  1-sigma level  0.105
Q1    1   0.2446  0.7627  0.3652  11.00000  0.05    0.43
Q2    1   0.7936  0.2608  0.8865  11.00000  0.05    0.37
Q3    1   0.4627 -0.2060  0.7959  11.00000  0.05    0.30
Q4    1   0.9636  0.2405  1.0745  11.00000  0.05    0.30
Q5    1  -0.0113  0.7724  0.5337  11.00000  0.05    0.30
;
_shelx_res_checksum              49900
_shelx_hkl_file
;
   1   0   0   87.59    4.10
   1   0   0   94.49    4.10
   1   0   0   82.79    4.20
   1   0   0   89.79    4.10
  -1   0   0   82.39    4.20
  -1   0   0   90.19    3.90
  -1   0   0   86.09    4.10
  -1   0   0   92.49    4.10
  -2   0   0  597.34   25.40
   2   0   0  605.14   25.20
  -2   0   0  606.74   25.10
  -2   0   0  598.94   25.20
   2   0   0  589.04   25.30
   2   0   0  567.44   24.70
   2   0   0  610.84   25.30
   2   0   0  554.14   25.00
  -2   0   0  580.24   24.70
   3   0   0 2089.39   87.39
   3   0   0 2115.69   87.49
  -3   0   0 2178.48   86.79
  -3   0   0 2031.20   87.49
  -3   0   0 2219.38   87.49
  -3   0   0 2076.69   87.29
  -3   0   0 2040.10   87.69
   3   0   0 2108.99   87.29
   3   0   0 1980.80   87.59
   4   0   0 3582.54  157.18
  -4   0   0 3652.13  156.38
  -4   0   0 3810.32  157.48
  -4   0   0 3675.93  157.58
   4   0   0 4003.50  157.68
   4   0   0 4255.97  157.68
  -4   0   0 3801.92  157.28
  -4   0   0 3523.15  157.08
   4   0   0 3731.33  157.08
  -5   0   0   58.69    5.70
  -5   0   0   64.79    5.50
   5   0   0   66.19    6.00
   5   0   0   56.79    5.50
   5   0   0   64.29    6.00
  -5   0   0   56.79    5.70
  -5   0   0   56.99    5.70
   5   0   0   55.89    5.40
  -5   0   0   62.59    4.10
   6   0   0  273.07   15.10
  -6   0   0  257.37   13.50
  -6   0   0  292.57   15.40
   6   0   0  288.27   15.20
   6   0   0  306.97   16.00
  -6   0   0  292.77   15.50
  -6   0   0  293.17   15.80
   6   0   0  311.27   16.10
  -7   0   0  479.15   21.70
   7   0   0  470.25   24.70
  -7   0   0  547.15   25.10
   7   0   0  493.35   23.80
  -7   0   0  434.56   23.60
  -7   0   0  444.06   23.60
  -8   0   0    0.90    3.50
  -8   0   0    0.50    5.10
  -8   0   0    3.60    4.90
   8   0   0    3.00    4.70
   9   0   0   83.79   11.70
  -9   0   0   78.39   13.10
  -9   0   0   71.19   11.70
 -10   0   0   77.99   16.60
 -10   0   0   64.89   14.70
   0  -1   0    1.60    0.50
   0  -1   0    0.30    0.50
   0  -1   0    0.40    0.50
   0  -1   0    0.90    0.30
   0   1   0    2.70    0.60
   0   1   0    0.20    0.40
   0   1   0    0.30    0.50
   0   1   0    0.70    0.40
   1  -1   0  252.77   10.80
   1  -1   0  263.37   10.90
   1  -1   0  243.48   10.80
   1  -1   0  236.68   10.90
  -1  -1   0  235.78   10.90
  -1  -1   0  242.78   11.00
   1   1   0  225.28   10.90
  -1   1   0  248.28   10.70
   1   1   0  277.87   11.10
  -1   1   0  240.58   10.80
  -2  -1   0  186.48    8.50
   2  -1   0  181.78    8.30
   2  -1   0  180.68    7.90
   2  -1   0  171.58    8.40
  -2  -1   0  165.88    8.40
   2  -1   0  185.08    8.40
   2  -1   0  163.68    8.40
  -2  -1   0  174.88    8.60
   2   1   0  172.48    8.00
  -2   1   0  181.48    8.30
  -2   1   0  173.78    8.60
   2   1   0  180.78    8.50
   2   1   0  163.08    8.50
  -2   1   0  191.18    8.50
  -2   1   0  174.08    8.30
   3  -1   0  319.37   14.90
   3  -1   0  322.07   14.60
  -3  -1   0  297.47   14.90
  -3  -1   0  349.17   15.00
   3  -1   0  326.27   14.00
   3  -1   0  309.67   14.80
  -3  -1   0  331.57   14.80
   3  -1   0  323.47   14.60
   3   1   0  320.27   14.30
  -3   1   0  310.77   14.80
  -3   1   0  320.27   14.00
   3   1   0  317.87   14.80
  -3   1   0  309.97   14.70
  -3   1   0  308.97   14.90
  -3   1   0  341.57   14.70
   3   1   0  310.17   14.80
   3   1   0  308.87   14.90
   4  -1   0  131.89    6.50
   4  -1   0  134.89    7.50
   4  -1   0  133.99    8.00
   4  -1   0  127.59    7.70
  -4  -1   0  130.69    6.80
   4  -1   0  123.69    7.30
  -4  -1   0  126.59    7.70
  -4  -1   0  129.59    7.90
  -4  -1   0  128.59    7.60
   4   1   0  139.99    8.00
   4   1   0  119.09    7.60
  -4   1   0  128.29    7.50
   4   1   0  129.19    7.20
  -4   1   0  130.59    6.50
  -4   1   0  132.19    7.50
  -4   1   0  149.49    8.00
  -4   1   0  120.49    7.80
   5  -1   0 3164.98  136.79
  -5  -1   0 3335.37  137.59
  -5  -1   0 3354.06  136.09
   5  -1   0 3186.78  136.89
   5  -1   0 3211.68  135.69
   5  -1   0 3249.67  137.39
  -5  -1   0 3424.66  137.39
   5  -1   0 3242.48  137.09
  -5  -1   0 3316.97  137.09
  -5   1   0 3488.75  137.39
   5   1   0 3550.04  137.39
  -5   1   0 3101.59  137.39
   5   1   0 3184.48  137.09
  -5   1   0 3232.98  135.69
   5   1   0 3319.97  136.59
   5   1   0 3202.78  137.39
  -5   1   0 3019.50  136.79
  -5   1   0 3320.07  136.79
  -6  -1   0   17.80    3.90
  -6  -1   0   27.30    5.60
  -6  -1   0   28.90    5.20
   6  -1   0   27.40    5.10
   6  -1   0   30.20    6.70
   6  -1   0   24.30    5.60
   6  -1   0   18.50    4.60
  -6  -1   0   21.30    4.30
   6   1   0   21.80    5.00
   6   1   0   16.50    4.50
  -6   1   0   25.70    5.80
   6   1   0   16.50    3.80
  -6   1   0   27.10    5.30
  -6   1   0   20.30    3.70
  -6   1   0   24.10    5.60
   6   1   0   28.60    5.60
  -6   1   0   24.80    5.40
   7  -1   0  197.88   14.90
  -7  -1   0  240.78   14.20
  -7  -1   0  236.38   11.80
  -7  -1   0  253.07   14.60
   7  -1   0  221.88   13.30
   7   1   0  202.58   14.80
  -7   1   0  214.08   13.80
   7   1   0  222.48   13.70
   7   1   0  177.68   13.00
  -7   1   0  197.58   13.80
  -7   1   0  223.68   14.20
  -8  -1   0  330.47   19.20
  -8  -1   0  261.97   19.10
   8  -1   0  344.37   18.70
  -8  -1   0  323.67   16.30
  -8   1   0  302.67   18.80
  -8   1   0  357.66   20.00
  -9  -1   0  558.94   30.90
  -9  -1   0  571.84   30.10
   9  -1   0  559.24   29.30
  -9   1   0  553.74   30.70
  -9   1   0  557.64   30.00
 -10  -1   0  297.37   22.60
  10  -1   0  259.17   20.20
 -10  -1   0  259.37   21.30
 -10   1   0  287.57   23.40
 -10   1   0  239.08   20.80
   0  -2   0 4693.73  214.38
   0   2   0 5690.03  214.48
   1  -2   0 1029.40   44.20
   1  -2   0 1116.19   44.50
  -1  -2   0 1063.09   44.70
   1  -2   0 1002.00   44.50
  -1  -2   0 1141.29   44.70
   1  -2   0 1072.29   44.10
  -1  -2   0  986.70   44.40
   1   2   0 1016.50   44.60
  -1   2   0 1042.90   44.10
  -1   2   0 1004.20   44.40
   1   2   0 1039.20   44.40
   1   2   0 1137.19   44.60
  -1   2   0 1014.60   44.60
   2  -2   0 3247.38  135.29
   2  -2   0 3033.30  135.59
   2  -2   0 3313.77  135.29
   2  -2   0 3694.43  135.79
  -2  -2   0 3549.04  135.89
  -2  -2   0 3137.79  135.59
   2   2   0 3114.89  135.69
  -2   2   0 3040.50  135.29
   2   2   0 3646.34  135.89
   2   2   0 3413.86  135.69
  -2   2   0 2903.61  135.59
  -2   2   0 3302.07  135.29
  -2   2   0 3018.40  135.49
   3  -2   0   93.79    6.00
  -3  -2   0   96.29    6.00
   3  -2   0   98.09    5.30
  -3  -2   0   77.29    6.10
   3  -2   0  103.99    6.40
   3  -2   0  101.29    6.30
   3  -2   0   91.59    5.80
  -3  -2   0  104.89    6.30
   3   2   0   98.59    5.30
  -3   2   0  101.69    5.80
   3   2   0   97.59    6.30
  -3   2   0   99.19    6.30
  -3   2   0   93.59    5.90
  -3   2   0   84.19    5.90
   3   2   0  111.79    6.60
   4  -2   0   17.90    3.70
  -4  -2   0   15.50    3.20
  -4  -2   0   24.50    4.30
  -4  -2   0   27.50    4.30
   4  -2   0   18.00    3.80
   4  -2   0   15.70    4.30
   4  -2   0   22.00    3.60
   4   2   0   16.90    3.40
  -4   2   0   20.20    3.70
   4   2   0   18.30    3.00
  -4   2   0   19.50    3.80
   4   2   0   21.40    4.00
  -4   2   0   20.10    4.00
  -4   2   0   19.90    3.60
  -5  -2   0 1175.88   49.40
   5  -2   0 1093.09   48.60
  -5  -2   0 1020.80   48.70
   5  -2   0 1053.49   49.00
   5  -2   0 1115.99   47.40
   5  -2   0 1211.88   49.20
  -5  -2   0 1135.29   47.90
   5  -2   0 1086.99   48.40
  -5  -2   0 1093.39   48.90
  -5   2   0 1214.38   49.50
  -5   2   0 1167.78   48.50
  -5   2   0 1103.69   48.90
   5   2   0 1099.09   47.80
   5   2   0 1202.08   49.20
   5   2   0 1026.00   48.90
  -5   2   0 1063.79   48.60
   6  -2   0  415.16   21.90
  -6  -2   0  442.26   20.40
   6  -2   0  454.25   19.80
  -6  -2   0  434.36   22.10
  -6  -2   0  410.06   21.50
   6  -2   0  429.06   21.20
   6  -2   0  479.65   22.60
  -6  -2   0  449.16   22.30
  -6   2   0  433.76   21.60
  -6   2   0  444.36   21.40
   6   2   0  447.86   20.80
   6   2   0  450.65   22.40
   6   2   0  409.76   22.00
  -6   2   0  433.16   21.90
  -6   2   0  404.26   22.00
   7  -2   0    8.50    6.20
   7  -2   0    4.00    2.50
  -7  -2   0    7.50    3.60
  -7  -2   0    0.90    4.20
  -7  -2   0   -1.40    4.20
   7  -2   0    2.90    3.90
   7   2   0    1.90    4.20
  -7   2   0    3.80    4.30
  -7   2   0    2.80    4.20
  -7   2   0    0.80    4.30
  -7   2   0    4.80    4.60
   7   2   0    0.60    4.90
  -8  -2   0  769.62   36.20
   8  -2   0  729.43   34.50
  -8  -2   0  722.23   35.30
  -8  -2   0  679.63   33.00
  -8   2   0  721.13   35.30
  -8   2   0  705.83   35.80
  -9  -2   0   50.39    9.70
   9  -2   0   60.99   11.00
  -9  -2   0   64.99   13.40
  -9   2   0   50.69   10.00
  -9   2   0   37.00    8.90
   0  -3   0    0.40    1.30
   0  -3   0    0.30    1.00
   0  -3   0    0.90    1.70
   0   3   0   -0.30    1.50
   0   3   0    1.00    1.10
   0   3   0    1.60    1.50
   0   3   0   -0.20    1.50
   0   3   0    3.70    1.50
  -1  -3   0  343.77   14.80
  -1  -3   0  310.27   14.90
   1  -3   0  298.57   14.80
   1  -3   0  349.87   14.80
   1  -3   0  312.67   13.90
  -1  -3   0  276.97   14.60
   1  -3   0  296.77   14.20
   1   3   0  296.87   14.50
   1   3   0  283.57   14.60
  -1   3   0  320.77   14.90
  -1   3   0  308.67   14.80
   1   3   0  296.77   14.60
  -1   3   0  302.37   14.00
   1   3   0  322.07   13.50
  -1   3   0  309.97   14.60
   1   3   0  313.57   14.80
  -2  -3   0   86.79    6.10
   2  -3   0  102.99    6.00
  -2  -3   0  102.99    6.60
   2  -3   0   97.69    5.90
  -2   3   0   97.89    6.50
   2   3   0  115.19    6.60
  -2   3   0   96.99    6.50
  -2   3   0   99.99    6.40
  -2   3   0   97.19    5.90
   2   3   0   94.39    6.50
  -3  -3   0   84.29    6.20
   3  -3   0   63.89    5.80
   3  -3   0   72.29    5.80
   3  -3   0   67.49    5.10
  -3  -3   0   64.39    5.50
   3  -3   0   61.59    5.30
  -3  -3   0   69.29    5.90
  -3   3   0   66.39    5.30
  -3   3   0   68.89    5.10
   3   3   0   68.79    6.00
  -3   3   0   63.49    5.10
   3   3   0   62.89    5.70
  -3   3   0   57.99    5.50
   3   3   0   62.09    5.60
   4  -3   0  167.48    9.70
   4  -3   0  157.78    9.40
  -4  -3   0  159.78   10.20
   4  -3   0  167.48   10.50
  -4  -3   0  174.78   10.40
   4  -3   0  167.48   10.20
   4  -3   0  169.18    8.80
  -4  -3   0  158.08    9.70
  -4   3   0  162.48    9.30
   4   3   0  194.08   10.70
  -4   3   0  162.48   10.10
  -4   3   0  158.48    9.70
   4   3   0  160.28    9.90
  -4   3   0  160.68   10.20
   4   3   0  172.18    8.60
   5  -3   0 2714.53  112.19
   5  -3   0 2688.93  113.09
   5  -3   0 2707.13  113.79
   5  -3   0 2657.53  113.29
  -5  -3   0 2499.75  113.59
   5  -3   0 2805.52  114.19
  -5  -3   0 2789.22  114.39
  -5   3   0 2552.34  113.59
   5   3   0 2931.21  114.09
  -5   3   0 2523.95  113.89
  -5   3   0 2650.23  113.49
   5   3   0 2522.55  113.79
  -5   3   0 2779.32  113.09
   5   3   0 2774.62  112.29
   6  -3   0   19.30    5.70
   6  -3   0   22.80    5.40
  -6  -3   0   21.80    5.40
   6  -3   0   17.20    5.50
   6  -3   0   15.60    3.10
  -6  -3   0   16.90    4.80
  -6  -3   0   11.80    4.00
  -6   3   0   20.20    5.00
  -6   3   0   25.50    5.70
   6   3   0   19.30    4.10
  -6   3   0   19.80    4.70
  -6   3   0   13.30    4.70
   6   3   0    9.70    5.00
  -7  -3   0  118.79   10.10
  -7  -3   0  134.99   11.30
   7  -3   0  126.69   10.40
   7  -3   0  131.09   14.10
   7  -3   0  115.19    8.10
  -7  -3   0  121.69   11.80
  -7   3   0  138.39   10.90
  -7   3   0  142.19   12.30
  -7   3   0  125.59   11.30
   7   3   0  107.19    9.70
  -8  -3   0  220.78   17.30
   8  -3   0  234.38   15.50
  -8  -3   0  239.48   16.90
   8  -3   0  253.57   12.60
  -8   3   0  225.28   16.10
  -8   3   0  173.48   16.80
  -8   3   0  235.98   16.60
  -9  -3   0  480.15   28.70
  -9  -3   0  541.65   30.50
   9  -3   0  470.75   27.50
  -9   3   0  523.45   29.30
  -9   3   0  536.55   30.50
   0  -4   0 9648.04  382.16
   0  -4   0 9209.78  381.96
   0   4   0 8813.92  381.86
   0   4   0 8147.78  380.36
   0   4   0 9999.00  381.96
   0   4   0 9582.64  381.96
   1  -4   0   68.19    5.90
   1  -4   0   71.69    4.90
   1  -4   0   69.69    6.30
   1  -4   0   70.39    5.30
  -1  -4   0   66.09    6.30
  -1  -4   0   76.19    6.30
   1   4   0   78.29    6.20
   1   4   0   70.09    4.30
   1   4   0   74.39    6.00
   1   4   0   70.89    6.00
  -1   4   0   81.09    5.00
  -1   4   0   68.29    5.80
   1   4   0   75.99    6.00
  -1   4   0   80.09    6.20
  -1   4   0   64.59    5.90
   2  -4   0  165.68    8.90
  -2  -4   0  152.38    9.60
   2  -4   0  152.98    8.80
   2  -4   0  171.18   10.00
  -2  -4   0  151.98    9.70
   2  -4   0  154.18    9.60
  -2   4   0  163.68    8.90
   2   4   0  180.28    9.80
  -2   4   0  160.08    9.50
   2   4   0  157.58    9.70
  -2   4   0  172.38    9.90
  -2   4   0  143.79    9.60
   2   4   0  158.38    9.80
   2   4   0  161.88    7.80
   3  -4   0 1317.77   55.69
   3  -4   0 1222.28   55.19
   3  -4   0 1253.17   54.49
  -3  -4   0 1306.67   55.29
  -3  -4   0 1185.58   55.49
   3  -4   0 1316.17   54.59
   3   4   0 1326.97   55.59
  -3   4   0 1188.28   54.49
  -3   4   0 1430.46   55.89
   3   4   0 1168.88   55.19
   3   4   0 1254.47   55.19
  -3   4   0 1182.08   55.39
  -3   4   0 1374.56   55.49
  -4  -4   0 1741.43   77.19
   4  -4   0 1817.62   76.09
  -4  -4   0 1813.82   77.29
   4  -4   0 1801.52   77.39
   4  -4   0 1736.63   77.49
   4  -4   0 1802.52   76.49
   4  -4   0 1734.93   76.49
  -4  -4   0 1962.90   78.09
   4   4   0 1847.02   77.59
  -4   4   0 1737.03   76.69
  -4   4   0 1758.72   77.59
   4   4   0 1667.93   77.29
   4   4   0 1856.61   75.39
  -4   4   0 1856.91   77.79
  -4   4   0 1928.31   77.59
   4   4   0 1685.13   77.09
  -5  -4   0   27.10    5.70
   5  -4   0   26.80    6.30
   5  -4   0   32.10    7.40
  -5  -4   0   22.80    5.20
   5  -4   0   24.40    4.50
   5  -4   0   32.30    6.60
   5  -4   0   29.00    4.50
  -5   4   0   28.70    6.80
   5   4   0   25.80    4.50
  -5   4   0   31.40    6.30
   5   4   0   21.30    4.70
   5   4   0   29.30    6.50
  -5   4   0   19.90    4.20
  -5   4   0   30.40    5.60
   6  -4   0  225.48   11.80
   6  -4   0  222.68   13.10
  -6  -4   0  207.18   14.60
  -6  -4   0  207.48   14.10
   6  -4   0  253.97   16.70
   6   4   0  214.28   12.00
  -6   4   0  208.28   13.70
  -6   4   0  198.18   13.90
  -6   4   0  192.88   14.70
   6   4   0  205.08   14.40
  -6   4   0  212.48   13.70
  -7  -4   0  314.37   18.90
  -7  -4   0  283.07   19.20
   7  -4   0  306.97   15.60
   7  -4   0  300.77   17.40
  -7   4   0  310.17   19.60
  -7   4   0  280.87   18.10
  -7   4   0  303.27   18.70
   7   4   0  304.87   16.50
   7   4   0  316.67   19.30
   8  -4   0   28.50    7.00
  -8  -4   0   48.20   13.00
   8  -4   0   36.00    7.20
  -8  -4   0   25.00    8.50
   8   4   0   35.70    8.80
  -8   4   0   29.10    7.70
  -8   4   0   24.60    8.10
  -8   4   0   27.60    8.50
  -9  -4   0   69.49   17.10
   9  -4   0   71.59   14.20
  -9  -4   0   38.20   14.00
  -9   4   0   72.99   16.30
  -9   4   0   99.89   18.30
   0  -5   0   -3.10    3.00
   0  -5   0    1.80    2.70
   0   5   0    1.50    3.00
   0   5   0    2.30    3.10
   0   5   0    7.60    3.40
   0   5   0   -1.70    1.60
   0   5   0    1.60    3.60
   1  -5   0  182.28   10.60
  -1  -5   0  174.68   12.00
  -1  -5   0  194.88   11.60
   1  -5   0  192.48    9.80
  -1   5   0  185.38    9.80
   1   5   0  206.88   11.50
   1   5   0  172.28   11.50
   1   5   0  168.78   11.30
  -1   5   0  193.18   11.60
   1   5   0  195.68   11.60
  -1   5   0  179.18   11.10
  -1   5   0  187.98   11.50
  -1   5   0  172.68   11.50
   1   5   0  174.78    9.10
  -2  -5   0  100.39    8.40
   2  -5   0   98.19    8.90
   2  -5   0  109.39    8.80
   2  -5   0   96.29    7.10
   2  -5   0   90.79    7.20
   2   5   0  101.49    8.40
   2   5   0   86.79    7.80
  -2   5   0   97.99    8.80
  -2   5   0   93.59    6.80
   2   5   0   99.99    8.30
  -2   5   0   92.89    8.10
   2   5   0   89.29    5.50
  -2   5   0  103.79    8.40
   2   5   0   85.69    8.40
  -3  -5   0   78.79    7.40
   3  -5   0   73.49    8.30
  -3  -5   0   82.99    8.20
   3  -5   0   66.29    8.40
   3  -5   0   62.49    6.80
   3  -5   0   68.09    7.10
  -3   5   0   75.69    6.90
   3   5   0   73.79    4.80
   3   5   0   74.99    7.80
  -3   5   0   75.89    8.20
   3   5   0   78.59    8.80
  -3   5   0   87.79    7.60
  -3   5   0   65.99    8.20
  -4  -5   0   88.29    8.90
   4  -5   0   87.19    7.50
   4  -5   0   69.69    8.60
   4  -5   0   77.99   10.20
  -4  -5   0   71.79    8.30
   4  -5   0   71.39    9.60
   4   5   0   84.29    8.70
  -4   5   0   73.49    7.90
   4   5   0   78.19    5.30
  -4   5   0   65.19    9.50
   4   5   0   77.29    5.70
   4   5   0   66.59   10.00
  -4   5   0  106.09    9.50
  -4   5   0   74.99    7.60
   5  -5   0 1414.76   61.79
  -5  -5   0 1526.55   63.79
  -5  -5   0 1391.66   62.79
   5  -5   0 1389.36   63.79
   5  -5   0 1443.06   61.09
  -5   5   0 1322.77   63.19
  -5   5   0 1520.55   63.29
  -5   5   0 1267.47   63.19
   5   5   0 1481.45   60.19
   5   5   0 1405.66   63.09
   6  -5   0   14.80    5.50
   6  -5   0   23.00    4.70
  -6  -5   0   23.80    6.40
  -6  -5   0   25.50    7.10
   6  -5   0   22.80    8.70
   6   5   0   33.30    7.40
  -6   5   0   17.00    6.70
  -6   5   0   24.00    6.80
  -6   5   0   17.40    5.50
   6   5   0   38.30    6.90
  -7  -5   0   87.19   13.80
   7  -5   0   98.79    9.30
   7  -5   0   85.99   10.60
  -7  -5   0  112.19   12.70
   7   5   0   91.49   13.80
  -7   5   0   89.99   14.00
  -7   5   0   95.39   12.10
  -7   5   0  109.49   13.20
   8  -5   0  154.18   15.00
  -8  -5   0  181.08   19.40
  -8  -5   0  171.28   17.00
  -8   5   0  170.78   16.90
  -8   5   0  162.58   17.30
  -8   5   0  194.78   20.10
   0  -6   0 1437.26   63.79
   0   6   0 1435.96   63.39
   0   6   0 1451.25   61.09
   0   6   0 1497.95   63.89
   0   6   0 1379.16   63.49
   1  -6   0  344.77   17.50
  -1  -6   0  363.46   19.90
   1  -6   0  348.27   16.60
  -1  -6   0  330.67   18.80
   1  -6   0  352.66   19.30
  -1   6   0  312.47   18.10
  -1   6   0  337.57   16.30
   1   6   0  300.57   18.90
   1   6   0  333.17   15.50
  -1   6   0  334.47   18.90
   1   6   0  322.27   18.30
  -1   6   0  316.87   18.90
   1   6   0  363.76   18.90
   2  -6   0  635.54   31.20
   2  -6   0  685.13   29.20
   2  -6   0  601.24   31.10
   2  -6   0  633.94   29.60
  -2  -6   0  675.53   31.40
  -2   6   0  625.04   31.00
  -2   6   0  634.44   30.60
  -2   6   0  645.04   29.00
   2   6   0  612.14   30.90
   2   6   0  614.74   27.50
   2   6   0  671.43   30.80
  -2   6   0  592.84   31.10
  -3  -6   0   19.10    5.60
   3  -6   0   27.30    5.60
   3  -6   0   27.40    7.80
   3  -6   0   27.40    5.30
   3  -6   0   18.70    6.60
   3   6   0   15.30    4.90
  -3   6   0   25.30    4.80
   3   6   0   23.20    3.50
  -3   6   0   19.40    5.40
  -3   6   0   23.60    5.70
   3   6   0   19.80    5.70
   4  -6   0   44.40    7.80
   4  -6   0   50.19    9.80
  -4  -6   0   38.90    8.90
  -4  -6   0   63.49    9.80
  -4   6   0   31.20    6.70
   4   6   0   45.30    4.50
  -4   6   0   61.49    9.20
   4   6   0   53.49    5.30
   4   6   0   53.89    9.00
  -4   6   0   40.60    7.80
   4   6   0   50.69    8.90
  -5  -6   0  422.76   24.20
  -5  -6   0  470.45   25.20
   5  -6   0  426.36   22.90
   5  -6   0  434.46   26.30
   5  -6   0  446.76   22.40
  -5   6   0  445.86   24.40
  -5   6   0  441.06   23.30
  -5   6   0  473.45   25.30
   5   6   0  469.75   24.90
   5   6   0  417.46   19.90
   6  -6   0  184.58   12.80
  -6  -6   0  200.88   15.80
   6  -6   0  171.88   13.90
  -6  -6   0  187.58   16.40
  -6   6   0  183.98   16.30
   6   6   0  146.99   15.30
  -6   6   0  181.88   16.60
  -6   6   0  190.48   15.10
   7  -6   0   16.60    6.00
  -7  -6   0   15.20    9.10
  -7  -6   0    4.40    7.90
   7  -6   0   12.50    6.90
  -7   6   0   23.10    8.70
  -7   6   0    8.80    9.70
  -7   6   0   14.10    7.60
   0  -7   0   -1.30    8.30
   0   7   0   -0.40    2.80
   0   7   0   10.10    5.40
   0   7   0   -1.80    5.30
  -1  -7   0  150.08   13.90
   1  -7   0  150.58   15.60
  -1  -7   0  179.48   17.30
   1  -7   0  170.68   12.30
  -1   7   0  172.58   10.40
  -1   7   0  156.88   13.00
   1   7   0  178.18   14.40
   1   7   0  148.59   13.10
   1   7   0  162.48    9.10
  -1   7   0  192.68   14.40
   2  -7   0   39.60    6.50
   2  -7   0   35.40    8.30
  -2  -7   0   33.40    7.50
   2  -7   0   29.60    8.00
   2   7   0   32.70    4.40
  -2   7   0   40.60    6.90
  -2   7   0   44.70    9.80
   2   7   0   47.30    9.80
  -2   7   0   36.20    7.60
   2   7   0   26.10    7.20
  -3  -7   0   18.40    6.90
   3  -7   0   26.00    6.20
   3  -7   0   19.20    9.20
  -3   7   0   15.40    6.70
  -3   7   0   14.60    5.20
   3   7   0   21.30    7.30
  -3   7   0   23.60    7.10
   3   7   0   19.00    6.50
   4  -7   0   88.69   11.00
  -4  -7   0   99.59   13.60
  -4   7   0  103.69   13.50
  -4   7   0  123.39   13.10
  -4   7   0   87.49   10.90
   4   7   0   83.49   12.10
   4   7   0   80.59   12.60
  -5  -7   0  942.81   45.70
   5  -7   0  895.41   43.20
   5  -7   0  938.81   42.90
  -5   7   0  893.51   45.00
  -5   7   0  923.11   43.70
   5   7   0 1043.80   45.40
  -5   7   0  860.51   45.70
  -6  -7   0   13.30    9.30
  -6  -7   0    5.10   11.00
   6  -7   0   -5.90    6.30
   6  -7   0   23.40    8.30
  -6   7   0   18.80    9.90
  -6   7   0    8.30    7.90
   6   7   0   12.50    9.10
   0  -8   0 2351.46  102.69
   0   8   0 2363.06  103.69
   0   8   0 2405.96  104.49
  -1  -8   0   42.10    9.60
   1  -8   0   47.80   10.80
   1   8   0   61.99   12.60
  -1   8   0   52.49   12.00
  -1   8   0   59.29   13.80
  -1   8   0   55.59    7.90
   1   8   0   17.10   10.80
   2  -8   0   60.79   11.80
  -2  -8   0   70.29   14.80
  -2   8   0   67.49   13.50
  -2   8   0   83.49    9.80
  -2   8   0   62.19   14.60
   2   8   0   60.29   13.40
   3  -8   0  382.96   22.10
  -3  -8   0  320.67   24.10
  -3   8   0  389.16   24.10
  -3   8   0  355.66   20.40
   3   8   0  342.47   23.50
   4  -8   0  478.05   26.80
  -4  -8   0  443.26   29.30
  -4   8   0  487.55   29.20
   4   8   0  524.95   28.70
  -4   8   0  449.95   25.80
 -10   0   1  523.05   29.40
 -10   0   1  530.65   30.80
  -9   0   1   12.00    6.40
  -9   0   1    7.30    6.50
  -8   0   1    4.00    3.70
   8   0  -1   -1.30    4.20
  -8   0   1    2.60    5.20
  -8   0   1    2.90    4.60
  -7   0   1 2801.22  118.59
  -7   0   1 2863.81  117.39
  -7   0   1 2772.92  118.49
   7   0  -1 2846.12  118.79
   7   0  -1 2784.62  118.29
   7   0  -1 2722.13  119.19
  -7   0   1 2798.02  119.09
  -7   0   1 2841.72  119.49
  -6   0   1   68.69    6.40
   6   0  -1   61.49    6.60
   6   0  -1   65.69    6.10
   6   0  -1   63.69    6.60
  -6   0   1   63.09    6.00
  -6   0   1   52.99    6.00
   6   0  -1   58.59    6.00
  -6   0   1   58.59    4.90
  -6   0   1   57.49    6.30
   5   0  -1  720.93   31.20
   5   0  -1  679.23   30.90
   5   0  -1  721.63   30.80
  -5   0   1  702.43   30.90
  -5   0   1  707.13   30.20
  -5   0   1  674.93   30.80
  -5   0   1  731.23   31.40
   5   0  -1  686.33   31.30
  -5   0   1  660.13   31.30
   4   0  -1  452.15   19.60
   4   0  -1  438.46   19.40
  -4   0   1  412.86   19.10
   4   0  -1  410.46   19.20
  -4   0   1  404.26   18.70
   4   0  -1  430.36   19.10
  -4   0   1  415.96   19.10
  -4   0   1  449.36   19.70
   4   0  -1  397.96   18.70
  -4   0   1  443.96   19.50
   3   0  -1  189.88    8.90
  -3   0   1  179.38    8.90
  -3   0   1  187.28    9.10
  -3   0   1  184.48    8.60
   3   0  -1  185.28    8.80
  -3   0   1  176.88    8.70
  -3   0   1  189.48    8.80
   3   0  -1  184.68    8.60
   3   0  -1  182.28    8.80
   3   0  -1  182.88    9.00
   2   0  -1  521.05   23.50
  -2   0   1  550.34   23.40
   2   0  -1  569.64   23.40
  -2   0   1  559.04   23.40
   2   0  -1  573.74   23.40
   2   0  -1  547.55   23.40
  -2   0   1  544.55   23.40
   2   0  -1  546.75   23.40
  -1   0   1  204.18    8.70
   1   0  -1  200.08    8.50
  -1   0   1  173.28    8.50
   1   0  -1  214.58    8.70
   1   0  -1  198.48    8.50
   1   0  -1  214.38    8.70
   0   0   1    4.50    0.50
   0   0   1    2.80    0.40
  -1   0  -1  338.67   15.60
   1   0   1  344.27   15.60
   1   0   1  355.36   15.60
   1   0   1  401.06   15.80
  -1   0  -1  371.16   15.60
  -2   0  -1  919.31   41.50
  -2   0  -1  983.50   40.70
   2   0   1 1004.10   41.50
   2   0   1  947.31   41.50
  -2   0  -1 1005.10   41.60
   2   0   1 1052.69   41.80
   2   0   1  959.50   41.60
   3   0   1 2535.05  108.39
  -3   0  -1 2596.84  108.69
  -3   0  -1 2491.15  108.49
   3   0   1 2663.23  108.29
  -3   0  -1 2639.14  107.29
  -3   0  -1 2711.93  108.49
   3   0   1 2512.45  108.39
   3   0   1 2631.64  108.69
  -4   0  -1  309.47   15.50
   4   0   1  309.87   15.30
   4   0   1  335.47   15.30
  -4   0  -1  331.67   14.00
  -4   0  -1  283.97   15.50
   4   0   1  319.27   15.80
   4   0   1  313.17   15.50
  -4   0  -1  344.67   15.60
  -5   0  -1 1816.12   79.49
   5   0   1 1821.82   79.29
   5   0   1 1924.51   79.19
  -5   0  -1 1945.81   79.39
   5   0   1 1786.22   79.29
   5   0   1 1841.02   79.79
  -5   0  -1 1912.11   79.89
  -5   0  -1 1854.31   77.59
   6   0   1   95.89    9.10
  -6   0  -1   83.29    8.50
   6   0   1   99.39    8.00
  -6   0  -1   76.39    8.60
  -6   0  -1   89.19    5.40
  -6   0  -1   83.59    8.00
   6   0   1   81.09    8.30
   6   0   1   89.79    9.00
  -7   0  -1  280.27   15.60
   7   0   1  239.98   14.90
  -7   0  -1  241.68   11.90
  -7   0  -1  222.08   15.60
   7   0   1  233.18   16.40
  -8   0  -1  802.92   38.30
  -8   0  -1  723.93   37.10
   8   0   1  781.42   37.00
  -9   0  -1   97.79   14.90
  -9   0  -1  131.79   14.40
   9   0   1  117.99   14.30
 -10  -1   1  154.18   17.60
  10  -1  -1  140.29   15.30
 -10  -1   1  135.39   15.70
 -10   1   1  125.79   15.90
 -10   1   1  157.58   18.00
  -9  -1   1  237.08   17.10
  -9  -1   1  192.38   16.10
   9  -1  -1  199.38   15.00
  -9   1   1  205.58   15.90
  -9   1   1  221.38   16.30
   8  -1  -1   40.20    7.90
  -8  -1   1   48.20    8.80
  -8  -1   1   53.39    8.70
  -8  -1   1   40.70    6.60
  -8   1   1   48.00    6.80
  -8   1   1   49.70    8.70
  -8   1   1   57.79    8.30
  -8   1   1   55.79    8.80
  -7  -1   1  370.66   20.20
  -7  -1   1  391.56   20.60
  -7  -1   1  391.96   18.70
   7  -1  -1  383.96   19.60
   7  -1  -1  396.46   20.90
  -7  -1   1  376.56   20.00
  -7   1   1  361.36   19.60
  -7   1   1  378.76   20.20
  -7   1   1  399.66   19.80
   7   1  -1  395.86   19.40
   7   1  -1  402.76   20.80
  -7   1   1  381.96   20.50
  -7   1   1  402.36   18.40
   6  -1  -1  160.08   10.00
  -6  -1   1  175.18   10.90
  -6  -1   1  176.58   11.00
   6  -1  -1  179.98    9.20
   6  -1  -1  169.18   10.80
  -6  -1   1  162.28   10.40
   6  -1  -1  170.78   10.50
  -6  -1   1  176.48    9.50
   6  -1  -1  185.58   11.10
  -6   1   1  169.08   10.90
  -6   1   1  160.78   10.60
  -6   1   1  175.18    9.20
  -6   1   1  176.28   10.30
   6   1  -1  171.08    9.80
   6   1  -1  161.18   10.80
   6   1  -1  158.08   10.60
  -6   1   1  160.68   10.20
   5  -1  -1 1030.70   45.40
  -5  -1   1 1067.69   45.40
   5  -1  -1 1166.28   45.90
   5  -1  -1 1019.40   45.00
  -5  -1   1 1044.00   44.90
  -5  -1   1 1088.89   44.80
  -5  -1   1 1014.60   45.50
   5  -1  -1 1089.29   45.30
  -5  -1   1 1056.49   45.80
   5  -1  -1 1040.60   44.50
  -5   1   1 1004.20   45.30
  -5   1   1 1042.00   45.00
   5   1  -1 1063.39   44.80
  -5   1   1 1077.29   45.90
   5   1  -1 1041.80   45.40
   5   1  -1  988.30   45.40
  -5   1   1  922.91   45.20
  -5   1   1 1043.80   44.50
  -4  -1   1  297.17   13.70
   4  -1  -1  304.77   14.40
   4  -1  -1  298.67   13.60
   4  -1  -1  307.27   14.20
  -4  -1   1  302.87   14.20
  -4  -1   1  298.77   14.30
  -4  -1   1  295.37   14.40
  -4  -1   1  292.37   13.70
   4  -1  -1  283.07   13.80
   4  -1  -1  296.67   14.20
  -4   1   1  265.37   14.10
   4   1  -1  283.87   14.20
  -4   1   1  311.77   13.60
   4   1  -1  294.57   14.20
  -4   1   1  291.77   14.10
   4   1  -1  310.37   13.70
  -4   1   1  313.67   13.90
  -4   1   1  290.37   14.40
  -3  -1   1  338.07   16.50
   3  -1  -1  374.96   16.60
   3  -1  -1  367.36   16.20
  -3  -1   1  369.06   16.10
  -3  -1   1  381.36   16.40
   3  -1  -1  383.46   16.80
   3  -1  -1  375.06   16.70
  -3  -1   1  387.46   16.70
   3  -1  -1  376.16   16.30
  -3  -1   1  351.16   16.70
  -3   1   1  371.66   16.30
   3   1  -1  354.36   16.50
   3   1  -1  378.96   16.10
  -3   1   1  349.17   16.60
  -3   1   1  376.86   16.30
   3   1  -1  337.47   16.50
  -3   1   1  401.16   17.00
  -2   1   1 5199.38  214.58
  -1  -1   1  169.98    7.20
   1  -1  -1  156.08    7.30
  -1  -1   1  169.58    7.30
   1  -1  -1  155.88    7.30
  -1  -1   1  170.48    7.30
   1  -1  -1  156.68    7.40
   1  -1  -1  163.68    6.90
  -1   1   1  146.39    7.30
  -1   1   1  164.18    7.30
  -1   1   1  149.69    7.40
   1   1  -1  171.98    7.30
   1   1  -1  158.08    7.20
  -1   1   1  152.78    7.40
   0  -1  -1   79.89    3.90
   0  -1   1   78.19    3.90
   0  -1  -1   72.99    3.90
   0  -1   1   75.19    3.70
   0  -1   1   87.09    3.80
   0  -1   1   75.69    3.50
   0  -1  -1   85.39    4.00
   0   1   1   65.19    3.90
   0   1   1   78.39    4.00
   0   1   1   69.99    3.80
   0   1  -1   70.39    3.70
   0   1  -1   78.39    3.70
   1  -1   1  719.43   30.30
   1  -1   1  724.83   30.50
  -1  -1  -1  671.93   30.50
   1  -1   1  780.32   30.50
  -1  -1  -1  721.53   30.70
  -1  -1  -1  701.13   30.40
   1  -1   1  773.52   30.60
  -1   1  -1  698.13   30.30
   1   1   1  755.62   30.60
  -1   1  -1  687.33   30.40
  -1   1  -1  706.53   30.50
   1   1   1  662.83   30.60
  -1   1  -1  694.83   30.50
   1   1   1  775.02   30.50
  -2  -1  -1 1970.50   80.79
   2  -1   1 2063.29   80.59
   2  -1   1 1974.50   80.49
   2  -1   1 1951.20   79.69
   2  -1   1 1844.02   80.49
  -2  -1  -1 2013.50   80.69
   2  -1   1 2000.90   80.69
  -2  -1  -1 1914.41   80.49
  -2   1  -1 1868.11   80.49
  -2   1  -1 1787.52   80.49
   2   1   1 1821.32   80.59
  -2   1  -1 1973.10   80.59
   2   1   1 1838.92   80.49
   2   1   1 1834.42   80.79
  -2   1  -1 2071.49   80.79
   3  -1   1  656.53   29.40
  -3  -1  -1  609.64   29.40
  -3  -1  -1  642.74   29.70
   3  -1   1  717.53   29.80
   3  -1   1  714.03   29.40
  -3  -1  -1  749.92   29.60
   3  -1   1  699.53   28.20
   3  -1   1  678.43   29.50
   3   1   1  637.04   29.40
   3   1   1  680.73   29.60
   3   1   1  694.03   29.20
  -3   1  -1  675.33   29.70
  -3   1  -1  632.64   29.40
   3   1   1  638.34   29.60
  -3   1  -1  679.73   29.30
  -3   1  -1  644.84   29.30
  -4  -1  -1  119.89    8.40
   4  -1   1  140.89    8.30
  -4  -1  -1  136.79    8.30
   4  -1   1  166.08    8.80
   4  -1   1  135.19    8.60
   4  -1   1  137.19    8.20
  -4  -1  -1  138.39    7.10
  -4  -1  -1  144.79    8.40
  -4   1  -1  132.89    8.50
  -4   1  -1  153.88    8.40
   4   1   1  151.98    8.90
   4   1   1  143.59    8.40
  -4   1  -1  136.79    8.20
   4   1   1  131.39    8.50
  -4   1  -1  136.59    8.40
   4   1   1  138.99    7.90
  -5  -1  -1   76.49    7.20
  -5  -1  -1   69.89    6.80
  -5  -1  -1   75.69    4.90
   5  -1   1   80.09    7.40
   5  -1   1   81.39    7.10
   5  -1   1   77.49    6.50
   5  -1   1   74.19    6.90
  -5  -1  -1   67.69    6.70
  -5   1  -1   74.69    6.80
   5   1   1   77.79    7.40
   5   1   1   80.89    6.60
  -5   1  -1   78.09    6.60
  -5   1  -1   76.99    7.00
   5   1   1   77.09    7.20
   5   1   1   76.69    6.40
   6  -1   1   85.29    9.10
  -6  -1  -1   73.99    8.80
   6  -1   1   76.59    7.50
  -6  -1  -1   79.49    8.20
   6  -1   1   70.69    8.50
  -6  -1  -1   96.59    8.70
   6  -1   1   89.39    8.90
   6   1   1   83.39    8.10
  -6   1  -1   83.99    8.00
   6   1   1   84.99    7.80
   6   1   1   82.39    9.20
   6   1   1   80.89    9.10
  -6   1  -1   71.59    8.10
  -6   1  -1   74.19    8.20
  -7  -1  -1   21.50    4.60
   7  -1   1   20.80    5.20
   7  -1   1   20.30    7.50
  -7  -1  -1   16.40    5.20
  -7  -1  -1   24.00    6.00
  -7   1  -1   21.80    6.00
   7   1   1   14.80    5.30
   7   1   1   14.00    6.70
  -7   1  -1   21.70    5.70
  -8  -1  -1  671.33   35.30
  -8  -1  -1  664.13   36.30
   8  -1   1  734.63   35.20
   8   1   1  733.03   35.70
  -8   1  -1  801.02   36.90
  -8   1  -1  760.42   35.90
  -9  -1  -1   11.90    8.30
   9  -1   1   -4.40    6.90
  -9  -1  -1   20.30    8.50
  -9   1  -1    0.70    7.30
  -9   1  -1   -9.50    7.50
  10  -2  -1   83.09   14.30
 -10  -2   1   71.59   15.80
 -10  -2   1   70.49   14.80
 -10   2   1   94.49   15.00
 -10   2   1   72.09   15.60
  -9  -2   1  141.59   13.90
  -9  -2   1  122.39   12.90
   9  -2  -1  110.69   11.90
  -9   2   1   82.39   13.20
  -9   2   1  102.29   12.60
  -9   2   1  105.89   12.50
   8  -2  -1  250.57   13.30
  -8  -2   1  269.27   16.60
   8  -2  -1  197.88   14.70
  -8  -2   1  259.37   16.10
  -8   2   1  264.07   16.20
  -8   2   1  259.47   17.00
  -8   2   1  246.78   15.90
  -7  -2   1 1164.88   50.79
   7  -2  -1 1180.18   50.19
  -7  -2   1 1226.68   52.59
   7  -2  -1 1194.78   51.39
   7  -2  -1 1074.89   52.29
  -7  -2   1 1156.18   51.99
  -7   2   1 1126.09   52.49
   7   2  -1 1175.18   50.79
  -7   2   1 1172.98   51.39
  -7   2   1 1127.29   52.09
  -7   2   1 1214.48   51.99
  -6  -2   1  298.07   16.10
   6  -2  -1  277.17   15.00
   6  -2  -1  318.57   16.30
  -6  -2   1  292.57   15.70
  -6  -2   1  290.27   14.80
   6  -2  -1  319.87   16.60
  -6  -2   1  301.17   16.30
   6  -2  -1  289.97   14.30
   6   2  -1  300.67   14.70
  -6   2   1  279.47   15.60
  -6   2   1  291.47   15.10
   6   2  -1  282.67   15.90
  -6   2   1  291.87   16.20
  -6   2   1  291.17   15.90
   5  -2  -1   10.70    3.10
  -5  -2   1   12.40    3.10
   5  -2  -1   23.50    4.70
   5  -2  -1   14.90    3.10
  -5  -2   1   22.20    4.50
  -5  -2   1   14.00    3.80
   5  -2  -1   15.00    3.50
  -5  -2   1   13.20    2.90
   5  -2  -1   14.40    3.30
   5   2  -1    9.60    3.30
   5   2  -1    9.40    2.90
  -5   2   1   16.50    3.80
   5   2  -1   17.40    3.40
  -5   2   1   12.10    3.10
  -5   2   1   25.50    4.00
  -5   2   1   18.10    4.40
  -4  -2   1  142.79    8.70
   4  -2  -1  142.19    8.70
   4  -2  -1  144.69    8.00
   4  -2  -1  150.28    7.80
  -4  -2   1  153.98    8.60
   4  -2  -1  135.29    8.40
   4  -2  -1  156.28    8.60
  -4  -2   1  150.88    8.90
   4   2  -1  150.38    8.70
  -4   2   1  152.58    8.90
  -4   2   1  155.58    8.10
   4   2  -1  159.08    8.60
   4   2  -1  146.09    7.50
  -4   2   1  153.48    8.60
  -4   2   1  147.39    8.50
   3  -2  -1  542.15   23.60
   3  -2  -1  542.85   23.40
   3  -2  -1  514.55   22.70
  -3  -2   1  573.24   23.40
  -3  -2   1  495.25   23.30
   3  -2  -1  527.75   23.10
   3  -2  -1  503.75   22.80
  -3   2   1  473.45   23.40
   3   2  -1  549.25   23.30
  -3   2   1  535.05   23.40
   3   2  -1  513.95   22.20
  -3   2   1  538.15   22.80
   3   2  -1  485.75   23.20
  -3   2   1  521.65   23.20
  -2  -2   1  264.47   12.60
   2  -2  -1  283.47   12.00
   2  -2  -1  278.37   12.70
  -2  -2   1  272.67   12.50
   2  -2  -1  277.27   12.40
   2  -2  -1  254.17   12.70
   2   2  -1  283.87   12.60
  -2   2   1  274.57   12.00
   2   2  -1  264.37   12.50
   2   2  -1  252.47   12.40
  -2   2   1  258.37   12.70
  -2   2   1  254.67   12.40
   2   2  -1  275.97   11.50
   1  -2  -1 1253.27   54.99
  -1  -2   1 1317.47   54.89
   1  -2  -1 1305.47   54.59
   1  -2  -1 1343.87   55.09
   1  -2  -1 1252.07   54.89
  -1  -2   1 1322.77   54.79
  -1  -2   1 1445.16   54.99
   1   2  -1 1218.78   54.79
  -1   2   1 1358.36   54.99
   1   2  -1 1371.56   54.79
   1   2  -1 1263.07   53.79
  -1   2   1 1271.37   55.09
  -1   2   1 1270.07   54.99
  -1   2   1 1271.07   54.69
   1   2  -1 1342.47   54.79
   1   2  -1 1287.47   54.79
   0  -2   1 1328.47   54.79
   0  -2   1 1226.58   54.59
   0  -2  -1 1299.97   54.99
   0  -2   1 1250.27   54.79
   0  -2   1 1282.07   54.09
   0  -2  -1 1221.38   54.89
   0   2  -1 1364.46   54.79
   0   2   1 1331.77   54.89
   0   2  -1 1300.87   54.19
   0   2   1 1472.35   55.19
   0   2   1 1385.76   55.09
   0   2   1 1268.87   54.39
   0   2  -1 1260.97   54.69
   0   2  -1 1306.67   54.69
   0   2   1 1281.47   54.89
  -1  -2  -1 1285.27   57.09
  -1  -2  -1 1305.37   56.99
   1  -2   1 1379.16   56.99
   1  -2   1 1407.66   56.89
   1  -2   1 1426.96   56.49
   1  -2   1 1395.86   56.79
  -1   2  -1 1293.27   56.89
   1   2   1 1378.06   57.19
   1   2   1 1372.66   56.99
   1   2   1 1249.68   57.09
  -1   2  -1 1358.76   56.49
  -1   2  -1 1363.36   56.79
  -2  -2  -1   38.50    3.80
  -2  -2  -1   37.40    3.60
   2  -2   1   41.10    3.30
  -2  -2  -1   34.40    3.60
   2  -2   1   33.20    3.30
   2  -2   1   42.00    3.60
   2  -2   1   31.50    3.40
  -2   2  -1   37.70    3.50
   2   2   1   41.10    4.00
  -2   2  -1   33.80    3.40
  -2   2  -1   39.50    3.30
  -2   2  -1   37.00    3.40
   2   2   1   39.80    3.80
  -3  -2  -1 7453.45  305.17
  -3  -2  -1 6813.42  305.17
   3  -2   1 8148.79  305.47
   3  -2   1 7460.75  305.07
  -3  -2  -1 7914.81  305.77
   3  -2   1 7124.29  305.37
   3  -2   1 7116.49  304.87
   3   2   1 7350.26  305.57
  -3   2  -1 6880.21  305.27
  -3   2  -1 6855.91  304.87
  -3   2  -1 6970.00  305.17
   3   2   1 8070.39  305.57
  -3   2  -1 7764.52  305.07
   4  -2   1   82.99    4.70
  -4  -2  -1   92.39    6.90
   4  -2   1   83.89    7.00
  -4  -2  -1   79.19    6.90
   4  -2   1   75.39    6.20
   4  -2   1   79.29    6.30
   4  -2   1   79.49    6.30
  -4  -2  -1   78.89    6.40
  -4   2  -1   90.79    6.40
   4   2   1   83.79    7.00
  -4   2  -1  100.49    6.50
   4   2   1   84.09    5.80
  -4   2  -1   82.29    6.50
  -4   2  -1   72.59    6.40
   4   2   1   86.59    6.60
   5  -2   1   19.50    4.00
  -5  -2  -1   32.90    6.30
   5  -2   1   20.10    2.80
   5  -2   1   29.60    6.20
  -5  -2  -1   24.00    5.40
   5  -2   1   26.80    5.30
  -5  -2  -1   22.60    5.70
   5  -2   1   17.60    3.80
  -5   2  -1   26.60    4.70
   5   2   1   21.20    4.80
  -5   2  -1   26.80    5.00
  -5   2  -1   22.50    5.50
  -5   2  -1   23.70    5.20
   5   2   1   27.00    4.70
   5   2   1   19.50    4.70
   6  -2   1  752.12   32.40
  -6  -2  -1  749.53   35.40
   6  -2   1  751.32   34.70
  -6  -2  -1  804.72   33.50
   6  -2   1  810.72   35.70
   6  -2   1  762.62   35.80
  -6  -2  -1  749.82   35.70
   6   2   1  739.63   34.10
   6   2   1  719.63   35.70
  -6   2  -1  701.43   34.70
  -6   2  -1  756.92   35.70
   6   2   1  734.03   35.50
  -6   2  -1  790.12   35.40
  -6   2  -1  772.32   35.10
  -7  -2  -1 1768.42   74.19
  -7  -2  -1 1758.72   71.09
   7  -2   1 1672.33   72.79
  -7  -2  -1 1677.13   73.49
   7  -2   1 1484.85   73.59
  -7   2  -1 1677.53   73.89
  -7   2  -1 1626.84   73.29
   8  -2   1  126.09   12.40
  -8  -2  -1  145.39   13.60
  -8  -2  -1  129.09   14.00
  -8   2  -1  130.29   13.60
  -8   2  -1  136.39   13.20
  -9  -2  -1   71.59   14.40
   9  -2   1   56.59   12.80
  -9  -2  -1   97.29   16.30
  -9   2  -1   75.29   13.50
  -9   2  -1  125.49   15.80
  -9  -3   1  209.78   17.70
   9  -3  -1  189.28   12.20
  -9  -3   1  169.58   16.70
   9  -3  -1  192.98   14.90
  -9   3   1  190.08   16.50
  -9   3   1  177.28   17.50
  -9   3   1  180.08   16.40
  -8  -3   1   29.10    6.90
  -8  -3   1   25.50    6.70
   8  -3  -1   40.60    6.90
   8  -3  -1   37.10    6.40
  -8   3   1   38.90   10.40
  -8   3   1   40.30    9.60
  -8   3   1   38.90    7.40
  -7  -3   1  230.98   16.00
   7  -3  -1  272.77   13.80
   7  -3  -1  228.48   17.20
   7  -3  -1  267.67   14.80
  -7  -3   1  276.97   16.00
  -7   3   1  242.38   15.30
  -7   3   1  285.37   16.40
  -7   3   1  269.67   16.70
   7   3  -1  260.37   14.10
  -7   3   1  263.77   15.70
  -6  -3   1   93.09    8.70
  -6  -3   1   85.69    8.00
  -6  -3   1   75.29    7.50
   6  -3  -1   68.09    8.40
   6  -3  -1   80.59    6.90
   6  -3  -1   72.99    6.30
   6  -3  -1   70.89    9.20
  -6   3   1   70.29    7.70
   6   3  -1   57.79    8.40
  -6   3   1   78.99    7.60
  -6   3   1   83.79    8.00
  -6   3   1   86.49    8.90
   6   3  -1   89.79    6.50
  -5  -3   1  890.01   39.20
   5  -3  -1  863.31   38.60
   5  -3  -1  902.41   39.00
  -5  -3   1  812.42   38.70
   5  -3  -1  842.92   39.30
   5  -3  -1  888.91   38.10
   5  -3  -1  875.71   37.80
  -5  -3   1  855.61   39.20
  -5   3   1  892.11   39.50
   5   3  -1  823.72   38.70
   5   3  -1  922.71   39.30
  -5   3   1  819.92   38.60
   5   3  -1  895.51   37.30
  -5   3   1  880.41   38.10
  -5   3   1  845.82   39.00
  -4  -3   1  303.97   16.40
   4  -3  -1  324.87   15.60
   4  -3  -1  310.47   16.20
   4  -3  -1  342.17   15.70
   4  -3  -1  331.07   16.80
  -4  -3   1  318.17   16.30
  -4  -3   1  358.56   16.80
   4  -3  -1  338.57   16.20
  -4   3   1  327.17   16.50
   4   3  -1  322.77   16.50
   4   3  -1  315.17   16.20
  -4   3   1  310.87   16.60
  -4   3   1  347.07   15.70
  -4   3   1  330.77   16.20
   4   3  -1  342.07   14.80
   4   3  -1  356.86   16.70
  -3  -3   1  150.18    8.80
   3  -3  -1  173.18    9.30
   3  -3  -1  151.68    8.90
   3  -3  -1  155.98    7.90
  -3  -3   1  139.09    8.40
   3  -3  -1  152.88    8.50
  -3   3   1  152.88    9.00
  -3   3   1  135.19    8.50
   3   3  -1  146.19    8.70
  -3   3   1  134.79    8.30
   3   3  -1  159.18    8.90
   3   3  -1  155.28    8.60
  -3   3   1  146.39    9.00
   3   3  -1  152.98    7.00
   2  -3  -1 3641.34  158.38
   2  -3  -1 3626.94  157.78
   2  -3  -1 3875.21  157.58
  -2  -3   1 3511.35  158.18
  -2  -3   1 3722.33  158.08
  -2   3   1 3891.21  158.58
  -2   3   1 3480.25  157.78
   2   3  -1 4205.68  158.28
  -2   3   1 4035.50  158.68
   2   3  -1 4290.87  158.48
   2   3  -1 3727.83  158.28
  -2   3   1 3634.94  158.28
   1  -3  -1   60.49    4.70
  -1  -3   1   54.19    4.40
   1  -3  -1   59.59    4.70
  -1  -3   1   59.09    4.50
   1  -3  -1   59.99    4.00
   1  -3  -1   60.79    4.80
   1   3  -1   61.09    4.50
   1   3  -1   55.69    3.00
   1   3  -1   62.39    4.40
  -1   3   1   55.09    4.50
   1   3  -1   52.29    4.30
  -1   3   1   62.09    4.80
  -1   3   1   51.29    4.60
   1   3  -1   65.09    4.60
  -1   3   1   55.69    4.00
   0  -3   1  256.47   12.60
   0  -3   1  249.78   12.70
   0  -3   1  267.47   11.60
   0  -3  -1  257.17   12.90
   0  -3   1  245.18   12.40
   0  -3  -1  248.78   12.80
   0   3   1  275.57   13.00
   0   3   1  282.87   12.90
   0   3   1  255.47   12.00
   0   3  -1  238.88   12.50
   0   3  -1  296.57   12.80
   0   3   1  247.18   12.60
   0   3   1  249.68   12.80
   0   3  -1  285.67   11.70
   0   3  -1  266.67   12.50
   1  -3   1  689.63   29.50
   1  -3   1  685.63   28.90
   1  -3   1  664.73   29.70
  -1  -3  -1  638.84   29.70
   1  -3   1  639.04   29.50
  -1  -3  -1  689.93   30.00
   1   3   1  647.44   28.80
  -1   3  -1  654.83   28.90
  -1   3  -1  723.13   29.80
   1   3   1  734.13   30.00
   1   3   1  734.13   30.20
  -1   3  -1  686.03   29.70
  -1   3  -1  663.93   29.50
   1   3   1  578.94   29.50
   2  -3   1  856.71   36.10
  -2  -3  -1  864.21   37.10
   2  -3   1  810.42   36.40
  -2  -3  -1  830.32   36.60
   2  -3   1  875.71   36.90
  -2  -3  -1  816.32   36.80
   2  -3   1  849.22   36.60
  -2   3  -1  742.43   36.40
  -2   3  -1  919.81   37.00
  -2   3  -1  832.12   36.20
   2   3   1  931.81   37.40
   2   3   1  765.52   36.80
  -2   3  -1  850.61   36.80
   2   3   1  795.62   36.70
  -3  -3  -1  411.86   19.50
   3  -3   1  411.66   19.00
  -3  -3  -1  410.46   19.60
   3  -3   1  399.66   19.10
   3  -3   1  433.46   19.90
  -3  -3  -1  411.36   19.90
   3  -3   1  435.66   19.60
   3   3   1  358.96   19.50
   3   3   1  389.06   19.90
  -3   3  -1  392.26   19.00
  -3   3  -1  426.06   19.70
   3   3   1  404.16   19.70
  -3   3  -1  416.36   19.20
  -3   3  -1  419.06   19.50
   4  -3   1   29.70    5.50
  -4  -3  -1   23.80    5.30
   4  -3   1   20.00    4.30
  -4  -3  -1   45.30    6.10
   4  -3   1   27.80    5.30
   4  -3   1   25.70    4.80
  -4  -3  -1   30.80    5.50
   4  -3   1   32.40    3.50
   4   3   1   33.20    6.00
   4   3   1   27.90    4.00
  -4   3  -1   20.00    5.10
  -4   3  -1   35.90    5.00
  -4   3  -1   30.30    5.30
   4   3   1   29.50    5.90
  -4   3  -1   34.80    4.90
  -5  -3  -1   87.09    8.60
  -5  -3  -1   79.19    8.00
  -5  -3  -1   71.59    8.70
   5  -3   1   82.59    8.60
   5  -3   1   83.79    7.60
   5  -3   1   86.69    9.00
   5  -3   1   72.49    5.40
   5  -3   1   91.09    8.60
  -5   3  -1   84.29    8.20
   5   3   1   84.49    9.10
   5   3   1   84.19    9.10
  -5   3  -1   88.49    7.70
  -5   3  -1   90.39    8.10
  -5   3  -1  109.49    8.40
   5   3   1   88.99    6.90
   6  -3   1  142.39   13.00
  -6  -3  -1  154.58   12.20
   6  -3   1  141.59   12.60
   6  -3   1  147.79    8.10
  -6  -3  -1  167.98   10.00
   6  -3   1  129.49   10.40
  -6  -3  -1  145.39   11.40
   6   3   1  145.09   13.00
   6   3   1  138.89   10.20
  -6   3  -1  151.98   10.80
  -6   3  -1  155.78   12.10
  -6   3  -1  147.49   11.00
   7  -3   1   10.60    2.90
   7  -3   1    8.70    8.30
  -7  -3  -1    6.70    4.80
  -7  -3  -1    7.70    6.00
  -7  -3  -1    4.50    5.60
   7  -3   1   10.60    5.00
  -7   3  -1    5.80    5.90
  -7   3  -1   11.30    5.60
  -8  -3  -1  583.14   32.30
   8  -3   1  633.04   31.50
  -8  -3  -1  654.53   33.50
  -8   3  -1  599.34   32.30
  -8   3  -1  658.13   33.60
  -9  -3  -1   18.20   10.20
  -9  -3  -1   12.70    9.80
   9  -3   1    7.30    8.20
  -9   3  -1   19.30    9.00
  -9   3  -1   25.40   10.30
  -9  -4   1   15.70    8.80
  -9  -4   1   31.50    9.50
   9  -4  -1   28.10    7.90
  -9   4   1    6.30    8.10
  -9   4   1   15.70    9.40
  -9   4   1   17.30    8.40
  -8  -4   1   14.00    6.80
  -8  -4   1   15.90    7.00
   8  -4  -1   14.60    5.70
   8  -4  -1   11.10    4.70
   8   4  -1    0.30    6.60
  -8   4   1   32.70    8.60
  -8   4   1   20.50    7.00
  -8   4   1   22.70    7.40
   7  -4  -1 1835.92   78.69
   7  -4  -1 1802.72   79.39
  -7  -4   1 1917.21   80.99
  -7  -4   1 1851.11   81.39
  -7   4   1 1825.12   80.69
   7   4  -1 1834.72   78.19
  -7   4   1 1826.52   81.59
   7   4  -1 1947.41   81.29
  -7   4   1 1769.32   80.99
   6  -4  -1   72.09    6.90
  -6  -4   1   84.39    9.10
   6  -4  -1   76.59    7.50
   6  -4  -1   75.29   11.20
  -6  -4   1   67.89    8.30
  -6   4   1   59.89    8.60
   6   4  -1   78.99    8.90
   6   4  -1   67.29    6.20
  -6   4   1   75.09    8.40
  -6   4   1   78.79    9.30
  -6   4   1   88.79    8.60
   5  -4  -1  383.26   19.80
   5  -4  -1  366.66   20.60
  -5  -4   1  377.86   19.70
  -5  -4   1  423.96   20.60
   5  -4  -1  407.86   20.60
   5  -4  -1  382.26   18.60
   5  -4  -1  382.76   18.90
   5   4  -1  390.46   20.10
  -5   4   1  372.86   19.60
  -5   4   1  414.16   20.30
  -5   4   1  390.36   18.90
   5   4  -1  393.26   17.50
  -5   4   1  401.36   20.50
   5   4  -1  345.07   20.10
   4  -4  -1  273.27   15.30
   4  -4  -1  262.47   13.50
  -4  -4   1  274.97   14.50
  -4  -4   1  264.97   14.80
   4  -4  -1  291.47   15.00
   4  -4  -1  257.87   13.50
   4  -4  -1  284.57   14.40
   4   4  -1  264.27   14.50
   4   4  -1  260.67   14.70
   4   4  -1  250.77   14.40
  -4   4   1  269.57   14.20
  -4   4   1  265.17   15.10
  -4   4   1  259.87   14.50
  -4   4   1  250.47   14.80
   4   4  -1  273.27   12.10
   3  -4  -1  267.87   14.50
  -3  -4   1  278.37   14.20
   3  -4  -1  266.27   14.30
  -3  -4   1  247.48   14.20
   3  -4  -1  279.97   13.30
   3  -4  -1  279.17   13.80
   3   4  -1  271.27   11.80
  -3   4   1  266.07   14.60
   3   4  -1  275.07   11.90
  -3   4   1  270.67   14.40
  -3   4   1  288.47   14.80
   3   4  -1  284.87   14.30
   3   4  -1  240.48   14.10
  -3   4   1  274.37   13.80
   3   4  -1  267.97   14.20
   2  -4  -1  225.68   11.10
   2  -4  -1  231.08   11.30
   2  -4  -1  229.38   12.00
  -2  -4   1  204.08   11.70
   2  -4  -1  242.88   12.60
  -2  -4   1  237.38   12.20
  -2   4   1  219.48   11.30
   2   4  -1  231.28   12.00
  -2   4   1  214.88   12.30
   2   4  -1  206.38   11.90
  -2   4   1  205.18   11.80
   2   4  -1  207.18   11.60
   2   4  -1  216.88   11.80
   2   4  -1  218.78    9.70
  -2   4   1  233.68   12.50
  -1  -4   1  141.59    8.40
   1  -4  -1  146.59    8.90
  -1  -4   1  131.69    8.40
   1  -4  -1  142.39    7.50
   1  -4  -1  152.68    8.80
   1   4  -1  137.89    8.20
   1   4  -1  120.09    8.00
  -1   4   1  123.79    8.50
   1   4  -1  123.09    8.00
   1   4  -1  135.39    6.40
  -1   4   1  135.49    8.40
  -1   4   1  129.49    7.40
   1   4  -1  135.69    8.40
  -1   4   1  127.89    8.60
   0  -4   1   10.10    2.30
   0  -4  -1    8.60    2.70
   0  -4   1   11.80    2.90
   0  -4   1    8.40    2.60
   0  -4  -1    8.20    2.60
   0   4  -1    5.70    2.50
   0   4   1    8.20    2.60
   0   4   1    7.60    2.60
   0   4  -1   14.80    3.20
   0   4  -1   11.80    2.20
   0   4   1    5.00    2.50
   0   4  -1    8.70    2.50
   0   4   1    7.60    2.00
   0   4   1   13.30    3.40
   0   4  -1   10.30    2.60
  -1  -4  -1  184.38   11.30
   1  -4   1  218.18   11.00
   1  -4   1  202.38   11.40
  -1  -4  -1  219.18   12.00
   1  -4   1  218.48   10.20
   1   4   1  240.28   11.80
  -1   4  -1  193.18   10.90
   1   4   1  220.78   11.70
  -1   4  -1  194.08   11.20
   1   4   1  184.18   11.10
  -1   4  -1  199.78   10.10
  -1   4  -1  216.18   11.50
   1   4   1  205.68   10.00
   1   4   1  202.28   11.70
  -2  -4  -1  491.65   25.70
   2  -4   1  570.94   24.70
   2  -4   1  507.95   25.60
  -2  -4  -1  529.95   25.70
   2  -4   1  549.35   25.60
   2  -4   1  560.84   25.20
  -2   4  -1  617.24   25.90
   2   4   1  563.24   24.20
  -2   4  -1  570.84   25.90
  -2   4  -1  513.55   25.30
   2   4   1  586.24   25.80
   2   4   1  577.64   26.10
  -2   4  -1  553.74   24.70
   2   4   1  537.05   26.00
   3  -4   1 1461.05   62.89
   3  -4   1 1468.35   62.09
  -3  -4  -1 1436.26   63.29
   3  -4   1 1421.06   62.39
   3  -4   1 1356.46   62.89
  -3  -4  -1 1543.95   63.19
  -3  -4  -1 1457.95   62.79
   3   4   1 1602.94   63.49
  -3   4  -1 1367.66   62.69
   3   4   1 1561.94   63.19
  -3   4  -1 1331.17   62.79
  -3   4  -1 1434.76   62.19
   3   4   1 1486.85   63.29
  -3   4  -1 1411.66   62.99
   4  -4   1  224.48   11.50
   4  -4   1  242.28   14.20
   4  -4   1  220.38   13.00
   4  -4   1  229.88   13.50
   4  -4   1  229.38   12.80
  -4  -4  -1  201.88   13.60
  -4  -4  -1  207.48   13.20
  -4  -4  -1  221.08   13.90
  -4   4  -1  209.38   12.50
  -4   4  -1  215.88   13.20
   4   4   1  215.88   13.50
  -4   4  -1  229.18   13.60
   4   4   1  248.18   13.90
   4   4   1  240.78   14.40
  -4   4  -1  220.68   12.80
   5  -4   1  904.91   41.00
  -5  -4  -1  932.51   42.40
  -5  -4  -1  945.21   41.90
   5  -4   1  835.82   42.00
   5  -4   1  902.01   39.40
   5  -4   1  960.50   42.10
  -5   4  -1  932.21   41.70
   5   4   1  890.51   42.00
   5   4   1  842.42   42.20
   5   4   1  945.81   39.90
  -5   4  -1  918.81   41.20
  -5   4  -1  939.31   42.20
  -5   4  -1  855.41   40.90
   6  -4   1   39.00    5.30
   6  -4   1   57.09   12.80
  -6  -4  -1   57.39    9.80
   6  -4   1   42.40    7.70
  -6  -4  -1   50.79    8.10
  -6   4  -1   47.00    8.10
  -6   4  -1   53.49    9.50
   6   4   1   36.80    5.80
   6   4   1   34.70    9.30
  -6   4  -1   34.90    6.80
  -7  -4  -1  160.28   14.80
   7  -4   1  202.58   13.70
  -7  -4  -1  183.78   15.80
   7  -4   1  175.58   10.40
  -7   4  -1  182.78   14.70
   7   4   1  221.18   16.10
  -7   4  -1  180.58   15.80
  -7   4  -1  163.48   14.50
   8  -4   1  508.95   28.00
  -8  -4  -1  553.24   29.90
  -8  -4  -1  506.35   30.40
  -8   4  -1  527.55   29.30
   8   4   1  514.95   30.00
  -8   4  -1  520.35   30.60
  -8  -5   1   68.99   14.50
   8  -5  -1   64.89    9.40
   8  -5  -1   61.09   11.30
  -8  -5   1   64.69   12.30
  -8   5   1   37.90    8.70
  -8   5   1   42.20    9.90
  -8   5   1   64.79   15.40
   7  -5  -1  208.88   13.90
  -7  -5   1  210.68   15.50
  -7  -5   1  231.28   16.70
   7  -5  -1  193.48   12.80
  -7   5   1  189.08   15.10
  -7   5   1  180.28   15.60
   7   5  -1  204.58   15.80
  -7   5   1  192.68   17.20
  -6  -5   1  192.78   13.50
   6  -5  -1  178.98   11.80
  -6  -5   1  219.78   14.70
   6  -5  -1  195.28   12.30
  -6   5   1  186.78   13.30
   6   5  -1  178.88   13.90
  -6   5   1  159.08   15.30
   6   5  -1  184.28   10.00
  -6   5   1  180.68   14.00
  -6   5   1  161.68   14.20
   5  -5  -1  370.36   17.70
  -5  -5   1  352.66   18.80
   5  -5  -1  354.86   17.60
   5  -5  -1  344.67   20.60
  -5  -5   1  295.07   18.80
  -5   5   1  347.07   18.50
   5   5  -1  357.26   15.30
  -5   5   1  312.37   18.50
   5   5  -1  330.67   19.00
  -5   5   1  325.67   20.20
   5   5  -1  357.36   15.40
  -5   5   1  339.27   19.80
   4  -5  -1   35.70    7.30
   4  -5  -1   38.40    5.70
   4  -5  -1   50.59    6.10
  -4  -5   1   34.70    6.80
   4  -5  -1   29.40    6.20
   4  -5  -1   38.40    8.50
  -4  -5   1   38.80    6.50
  -4   5   1   42.20    6.30
  -4   5   1   49.20    7.60
   4   5  -1   28.50    3.00
  -4   5   1   51.39    7.00
   4   5  -1   32.20    7.60
   4   5  -1   38.90    7.00
   4   5  -1   44.00    3.20
  -4   5   1   31.40    7.80
   3  -5  -1  148.89   11.30
  -3  -5   1  144.89   10.30
   3  -5  -1  140.99   10.90
   3  -5  -1  165.08   10.10
   3  -5  -1  143.39    9.20
  -3  -5   1  141.29   10.50
   3   5  -1  142.19   10.30
  -3   5   1  152.98   10.90
   3   5  -1  143.19   10.00
   3   5  -1  153.18    6.90
   3   5  -1  154.98    6.90
  -3   5   1  158.58   10.60
  -3   5   1  162.88   11.10
   3   5  -1  136.39   10.80
  -3   5   1  153.88    9.60
   2  -5  -1 3262.07  130.79
   2  -5  -1 3107.79  130.79
  -2  -5   1 3075.89  132.09
   2  -5  -1 3014.40  131.79
   2  -5  -1 3283.17  132.49
  -2   5   1 3282.27  132.49
   2   5  -1 2995.80  132.69
  -2   5   1 3276.07  132.09
   2   5  -1 3038.30  129.09
  -2   5   1 3044.10  130.79
  -2   5   1 3108.79  132.09
   2   5  -1 3078.49  131.69
   2   5  -1 3203.38  131.99
   2   5  -1 3021.20  131.89
  -1  -5   1   95.39    8.70
   1  -5  -1  120.19    9.10
  -1  -5   1  104.29    8.40
   1  -5  -1  101.49    8.70
   1  -5  -1  113.69    7.30
   1   5  -1  103.09    8.30
  -1   5   1  106.39    7.00
  -1   5   1  116.29    8.70
   1   5  -1  104.89    8.10
   1   5  -1  105.39    8.50
   1   5  -1  104.19    8.30
  -1   5   1  106.09    8.40
  -1   5   1  106.39    8.80
  -1   5   1  120.99    9.00
   1   5  -1  108.39    5.70
   0  -5  -1   22.10    5.50
   0  -5   1   14.60    3.20
   0  -5   1   17.40    4.30
   0  -5   1   19.60    4.40
   0  -5  -1   20.30    4.70
   0   5   1   15.90    4.30
   0   5  -1   31.00    5.20
   0   5  -1   14.40    3.00
   0   5  -1   30.20    5.30
   0   5   1   16.20    4.10
   0   5  -1   16.10    3.90
   0   5  -1   12.80    4.00
   0   5   1   16.00    4.00
   0   5   1   21.10    3.70
   0   5   1   16.40    4.20
  -1  -5  -1  291.07   15.80
   1  -5   1  257.77   15.10
  -1  -5  -1  273.47   15.40
   1  -5   1  278.77   13.20
   1  -5   1  260.27   14.20
   1  -5   1  302.27   15.10
   1   5   1  253.07   12.90
  -1   5  -1  281.17   13.20
  -1   5  -1  274.47   14.60
  -1   5  -1  258.77   14.80
   1   5   1  278.57   15.30
   1   5   1  243.48   14.70
  -1   5  -1  257.67   14.80
   1   5   1  279.37   15.10
  -1   5  -1  266.87   15.00
   2  -5   1  715.93   33.50
   2  -5   1  708.63   32.50
   2  -5   1  752.82   31.80
  -2  -5  -1  751.62   33.60
  -2  -5  -1  684.73   33.40
   2  -5   1  796.42   33.40
   2   5   1  723.83   31.10
  -2   5  -1  710.03   31.80
   2   5   1  686.63   33.40
  -2   5  -1  734.03   33.40
   2   5   1  698.93   33.20
   2   5   1  662.73   32.90
  -2   5  -1  728.93   33.10
   2   5   1  693.03   33.40
  -2   5  -1  699.53   33.20
  -3  -5  -1  286.97   16.30
   3  -5   1  304.97   16.80
  -3  -5  -1  283.57   16.50
   3  -5   1  286.27   16.40
   3  -5   1  286.27   15.40
   3  -5   1  284.17   15.10
  -3  -5  -1  276.37   16.40
  -3   5  -1  270.67   15.80
   3   5   1  294.97   13.80
   3   5   1  291.57   17.00
  -3   5  -1  262.77   16.40
  -3   5  -1  300.77   15.10
   3   5   1  284.67   16.50
   3   5   1  246.18   16.30
  -3   5  -1  327.97   16.70
  -4  -5  -1  182.48   12.50
  -4  -5  -1  136.99   11.50
   4  -5   1  160.58   11.80
   4  -5   1  166.48   11.20
   4  -5   1  159.68   13.10
   4  -5   1  188.68   13.70
  -4   5  -1  150.68   11.40
  -4   5  -1  176.18   11.10
   4   5   1  154.88   12.20
  -4   5  -1  172.18   12.20
  -4   5  -1  130.29   12.30
   4   5   1  142.29   13.30
   5  -5   1   33.00    8.40
   5  -5   1   30.60    4.80
   5  -5   1   31.40    7.30
  -5  -5  -1   26.30    6.20
  -5  -5  -1   21.80    6.30
   5   5   1   28.10    6.50
  -5   5  -1   36.80    8.70
   5   5   1   46.50    6.90
  -5   5  -1   26.70    5.60
  -5   5  -1   52.99    9.00
   6  -5   1   40.00    6.80
   6  -5   1   59.39   15.60
   6  -5   1   37.00    7.10
  -6  -5  -1   46.70   10.30
  -6  -5  -1   45.20    8.80
  -6   5  -1   52.59    9.70
  -6   5  -1   47.60   11.30
   6   5   1   32.40    6.30
   6   5   1   42.30   11.10
  -6   5  -1   42.60    9.80
   7  -5   1   31.10    7.40
  -7  -5  -1   49.30   11.90
   7  -5   1   35.90    5.80
  -7  -5  -1   44.60    9.50
   7   5   1   42.00    9.60
  -7   5  -1   54.39   12.40
  -7   5  -1   55.79   14.00
  -7   5  -1   47.50    8.90
  -7  -6   1  441.96   26.00
   7  -6  -1  454.95   23.70
  -7  -6   1  474.15   27.40
   7  -6  -1  445.86   24.00
  -7   6   1  433.16   26.00
  -7   6   1  443.56   26.90
  -7   6   1  466.95   27.80
   6  -6  -1  162.28   12.80
  -6  -6   1  158.48   14.80
   6  -6  -1  152.38   12.10
  -6  -6   1  170.38   14.10
  -6   6   1  153.08   15.00
  -6   6   1  158.08   15.90
  -6   6   1  193.98   14.60
   5  -6  -1   26.50    5.60
  -5  -6   1   24.80    6.50
   5  -6  -1   35.40    7.70
  -5  -6   1   35.50    7.40
   5   6  -1   16.10    5.90
  -5   6   1   40.30    8.10
  -5   6   1   27.10    6.80
  -5   6   1   24.10    6.10
   4  -6  -1   78.39   13.10
  -4  -6   1   73.99    9.70
   4  -6  -1   70.69    8.00
  -4   6   1   73.99   10.40
   4   6  -1   54.49    8.90
   4   6  -1   68.39    9.00
  -4   6   1   60.99    9.30
  -4   6   1   64.79    8.20
   3  -6  -1  129.39   13.60
   3  -6  -1  162.78   11.60
   3  -6  -1  147.89   10.30
   3   6  -1  147.99   11.40
  -3   6   1  155.48   13.30
  -3   6   1  148.19   10.40
   3   6  -1  152.38   11.40
  -3   6   1  140.59   12.30
  -3   6   1  167.78   11.90
   2  -6  -1  119.99   11.50
   2  -6  -1  137.69    9.40
   2  -6  -1  111.59    8.50
  -2  -6   1  112.99   10.20
   2   6  -1  113.79    9.90
   2   6  -1  111.59    5.80
  -2   6   1  112.89    8.50
   2   6  -1  114.49    9.90
  -2   6   1  118.29   11.50
  -2   6   1  132.09   10.10
  -2   6   1   99.49   10.60
   1  -6  -1  371.36   18.20
  -1  -6   1  395.06   20.40
   1  -6  -1  330.17   19.70
  -1  -6   1  337.37   19.30
  -1   6   1  334.17   19.60
  -1   6   1  380.86   20.60
  -1   6   1  371.06   19.30
   1   6  -1  351.06   19.10
  -1   6   1  360.36   17.50
   1   6  -1  347.67   16.00
   1   6  -1  365.56   19.60
   0  -6  -1  443.76   22.80
   0  -6  -1  476.45   23.70
   0  -6   1  355.06   22.00
   0   6  -1  390.76   22.40
   0   6  -1  444.86   19.50
   0   6   1  469.65   23.40
   0   6   1  448.76   22.90
   0   6   1  458.05   22.40
   0   6  -1  408.86   22.00
   0   6  -1  404.86   21.80
   0   6   1  441.56   20.10
  -1  -6  -1  320.67   17.90
   1  -6   1  279.77   17.40
   1  -6   1  295.87   16.30
   1  -6   1  299.37   14.80
  -1  -6  -1  300.17   18.60
   1   6   1  321.17   17.70
  -1   6  -1  289.97   17.10
   1   6   1  288.07   18.10
  -1   6  -1  295.57   14.70
   1   6   1  307.17   14.70
  -1   6  -1  287.37   16.80
   1   6   1  314.97   17.40
   2  -6   1   73.59    7.60
   2  -6   1   71.99   10.10
   2  -6   1   68.99   10.50
   2  -6   1   66.39    7.90
  -2  -6  -1   74.69    9.70
   2   6   1   58.59    5.60
  -2   6  -1   62.09    8.40
   2   6   1   68.39    8.70
   2   6   1   61.69    7.80
   2   6   1   72.49   10.60
  -2   6  -1   46.30    8.40
  -2   6  -1   63.89    6.60
   3  -6   1 2637.04  111.49
   3  -6   1 2600.54  112.39
   3  -6   1 2462.95  110.49
   3  -6   1 2533.65  112.69
  -3  -6  -1 2872.11  113.29
  -3   6  -1 2598.94  112.29
   3   6   1 2579.04  112.39
  -3   6  -1 2777.12  112.79
  -3   6  -1 2625.34  110.89
   3   6   1 2612.54  109.49
   3   6   1 2528.25  112.79
   4  -6   1   46.60    8.40
  -4  -6  -1   46.10   10.20
   4  -6   1   50.29    9.70
  -4  -6  -1   41.20    9.60
  -4   6  -1   44.40   10.10
  -4   6  -1   35.90    8.00
   4   6   1   54.09    5.70
   4   6   1   56.89    9.90
  -4   6  -1   42.80    9.10
  -5  -6  -1    8.00    6.20
   5  -6   1   15.30    5.90
   5  -6   1   12.30    4.70
  -5  -6  -1    7.30    5.90
  -5   6  -1    5.80    5.40
  -5   6  -1    2.90    6.70
  -5   6  -1   17.70    6.70
   5   6   1   14.90    3.70
   5   6   1   14.30    7.20
  -6  -6  -1  362.66   22.30
  -6  -6  -1  378.76   23.30
   6  -6   1  320.77   18.10
   6  -6   1  332.07   20.50
   6   6   1  304.17   18.50
  -6   6  -1  316.77   20.80
  -6   6  -1  332.37   22.90
   6   6   1  346.47   23.10
  -6   6  -1  323.67   21.70
  -7  -6  -1  662.93   44.10
  -7  -6  -1  768.22   41.10
   7  -6   1  770.02   38.00
  -7   6  -1  801.12   40.30
  -7   6  -1  785.92   39.00
   6  -7  -1   27.40    7.80
  -6  -7   1   35.80    9.20
  -6  -7   1    6.50    8.80
   6  -7  -1   64.29   11.10
  -6   7   1   24.00    9.70
   6   7  -1   59.09   13.50
  -6   7   1   25.30    8.90
  -6   7   1   14.50    9.10
  -5  -7   1  259.07   19.10
   5  -7  -1  217.58   16.20
   5  -7  -1  230.58   15.70
   5   7  -1  252.37   17.50
  -5   7   1  228.98   16.80
  -5   7   1  264.57   19.80
  -5   7   1  227.68   18.00
  -4  -7   1   80.19   12.70
   4  -7  -1   54.99    9.70
   4   7  -1   53.49   11.40
  -4   7   1   76.49   11.70
  -4   7   1   67.59    9.70
  -4   7   1   77.99   13.30
  -3  -7   1   26.80    7.30
   3  -7  -1   32.90   12.50
   3  -7  -1   30.30    6.10
   3   7  -1   27.70    6.90
  -3   7   1   28.20    6.70
  -3   7   1   30.60    7.90
  -3   7   1   20.70    5.70
   3   7  -1   15.30    6.70
  -2  -7   1 1050.29   50.19
   2  -7  -1 1111.89   48.40
  -2   7   1 1141.59   50.79
  -2   7   1 1063.39   47.70
  -2   7   1 1051.79   49.80
   2   7  -1 1018.40   49.70
   2   7  -1 1117.59   49.70
   1  -7  -1   30.70    5.90
   1  -7  -1   35.30    9.20
  -1  -7   1   31.60    7.00
  -1  -7   1   29.20    9.10
   1   7  -1   25.70    6.30
   1   7  -1   22.70    3.90
   1   7  -1   26.20    6.40
  -1   7   1   37.70   10.20
  -1   7   1   30.70    6.20
  -1   7   1   22.90    6.40
   0  -7   1   69.79    9.50
   0  -7  -1   57.19   15.20
   0  -7   1   70.99   12.40
   0  -7  -1   53.39   10.60
   0   7   1   60.79   10.30
   0   7   1   67.39   11.20
   0   7  -1   63.09   10.50
   0   7  -1   69.19    9.60
   0   7  -1   61.09    5.80
   0   7   1   64.69    6.90
   1  -7   1  180.98   16.30
  -1  -7  -1  193.68   15.50
   1  -7   1  207.58   12.50
   1  -7   1  186.98   13.30
  -1   7  -1  190.88   11.20
   1   7   1  200.48   11.10
   1   7   1  171.28   14.60
  -1   7  -1  183.58   14.10
   1   7   1  210.98   15.50
  -1   7  -1  222.98   15.20
  -2  -7  -1  178.98   15.00
   2  -7   1  169.48   13.10
   2  -7   1  182.28   12.70
   2   7   1  200.28   15.20
   2   7   1  172.88   14.30
  -2   7  -1  171.98   14.70
  -2   7  -1  172.68   11.30
   2   7   1  184.28   10.20
  -2   7  -1  165.58   14.10
  -3  -7  -1   98.49   13.70
   3  -7   1  114.89   11.40
  -3   7  -1  107.19   12.80
   3   7   1   92.79   11.80
  -3   7  -1  114.19   10.10
   3   7   1   96.09    7.40
   3   7   1   80.79   12.30
  -3   7  -1  114.89   12.40
  -4  -7  -1   77.19   13.40
   4  -7   1   42.90   10.50
  -4   7  -1   55.69   11.90
   4   7   1   53.59   11.40
   4   7   1   37.60    8.80
  -4   7  -1   48.80    9.80
  -5  -7  -1   57.59   13.70
   5  -7   1   60.19   10.40
   5  -7   1   49.30   12.10
  -5  -7  -1   55.29   11.20
   5   7   1   58.49   13.50
  -5   7  -1   75.49   14.70
  -5   7  -1   54.19   12.10
  -4  -8   1  122.99   16.40
   4  -8  -1   88.29   13.30
  -4   8   1  116.79   16.50
   4   8  -1   84.19   15.40
  -4   8   1   60.29   15.50
  -4   8   1  101.39   13.10
   3  -8  -1  138.09   14.60
  -3  -8   1  168.08   17.50
  -3   8   1  176.28   18.60
  -3   8   1  185.88   17.20
  -3   8   1  176.18   13.70
   3   8  -1  164.28   16.50
  -2  -8   1   54.99   13.60
   2  -8  -1   67.59   11.00
   2   8  -1   55.19   10.00
  -2   8   1   50.39    9.40
  -2   8   1   49.60   12.70
  -2   8   1   45.10   10.40
   1  -8  -1   81.29   11.50
  -1  -8   1   87.09   13.10
  -1   8   1  122.89   15.30
  -1   8   1   78.89   14.00
  -1   8   1   76.89    9.00
   1   8  -1   99.29   12.60
   0  -8  -1   25.50    7.40
   0  -8   1   11.80    7.30
   0   8   1   16.40    4.70
   0   8   1   21.70    8.00
   0   8  -1   21.00    7.70
   0   8   1    4.60    7.40
  -1  -8  -1   54.49   11.10
   1  -8   1   52.09   11.70
   1   8   1  100.49   14.10
   1   8   1  104.79   14.70
  -1   8  -1   74.49   13.10
   2  -8   1  189.38   15.80
  -2  -8  -1  195.78   19.10
  -2   8  -1  183.38   12.70
  -2   8  -1  179.18   16.50
   2   8   1  148.39   17.10
  -3  -8  -1  394.36   25.90
   3  -8   1  383.76   23.50
   3   8   1  370.36   24.80
  -3   8  -1  361.86   24.40
  -3   8  -1  366.86   20.70
 -10   0   2    3.50    7.40
 -10   0   2    1.30    7.20
  -9   0   2  502.95   27.20
  -9   0   2  497.55   26.40
  -8   0   2  234.78   13.50
  -8   0   2  258.77   14.40
  -8   0   2  223.98   15.00
  -8   0   2  236.58   14.80
  -7   0   2  313.37   15.60
  -7   0   2  335.87   17.20
  -7   0   2  327.27   16.50
   7   0  -2  310.97   16.30
  -7   0   2  302.47   16.10
   7   0  -2  269.97   16.70
  -7   0   2  314.87   16.60
   6   0  -2  230.18   12.10
  -6   0   2  219.58   12.00
  -6   0   2  227.08   11.60
   6   0  -2  209.68   12.50
   6   0  -2  220.68   12.40
  -6   0   2  246.58   12.60
  -6   0   2  219.78   12.10
  -6   0   2  234.68   12.70
   6   0  -2  225.48   12.10
   5   0  -2  823.42   35.40
  -5   0   2  780.52   35.50
   5   0  -2  841.72   35.10
  -5   0   2  799.32   35.40
   5   0  -2  789.12   34.90
  -5   0   2  812.72   34.90
   5   0  -2  778.22   35.30
  -5   0   2  834.62   35.10
   5   0  -2  789.52   35.10
  -5   0   2  808.82   35.10
   4   0  -2 5179.48  224.88
  -4   0   2 5599.24  224.88
  -4   0   2 5543.54  224.88
  -4   0   2 5848.92  225.28
  -4   0   2 5875.91  225.38
   4   0  -2 4899.01  224.98
   4   0  -2 5503.65  224.98
  -4   0   2 5068.39  224.88
   3   0  -2  505.45   22.40
   3   0  -2  542.05   22.40
  -3   0   2  494.55   22.30
  -3   0   2  526.05   22.50
   3   0  -2  516.15   22.40
  -3   0   2  484.65   22.30
  -3   0   2  516.85   22.20
   3   0  -2  543.85   22.40
  -3   0   2  523.65   22.40
   2   0  -2  330.37   14.50
  -2   0   2  327.17   14.20
   2   0  -2  322.37   14.10
   2   0  -2  330.37   14.40
  -2   0   2  348.57   14.40
   2   0  -2  321.67   14.20
  -1   0   2    9.90    0.70
  -1   0   2    8.80    1.10
  -1   0   2    8.10    0.70
  -1   0   2    7.00    0.70
   1   0  -2    6.10    1.10
  -1   0   2    8.20    1.10
   0   0  -2  236.18   10.70
   0   0   2  249.28   10.60
   0   0   2  242.08   10.70
   0   0  -2  253.37   10.60
   0   0   2  260.37   10.50
   0   0   2  230.38   10.50
   0   0  -2  242.08   10.50
   1   0   2 1949.20   78.79
  -1   0  -2 1867.81   78.69
   1   0   2 1920.91   78.69
   1   0   2 1816.62   78.69
  -1   0  -2 1827.92   78.69
  -1   0  -2 1965.90   78.79
   2   0   2  199.98    9.70
  -2   0  -2  204.98    9.70
   2   0   2  181.78    9.50
  -2   0  -2  189.78    9.60
   2   0   2  212.98    9.90
  -2   0  -2  191.08    9.80
  -3   0  -2   55.89    4.80
   3   0   2   54.29    4.40
   3   0   2   53.89    4.50
  -3   0  -2   54.99    2.60
   3   0   2   51.59    4.90
   3   0   2   44.90    4.30
  -3   0  -2   53.19    4.60
  -3   0  -2   58.89    4.60
   4   0   2  489.35   22.50
  -4   0  -2  497.35   20.50
  -4   0  -2  456.75   22.90
  -4   0  -2  496.65   22.70
   4   0   2  519.75   22.90
  -4   0  -2  477.75   22.60
   4   0   2  471.25   22.90
   4   0   2  482.15   22.70
  -5   0  -2   99.59    5.10
   5   0   2  119.89    8.80
   5   0   2  100.29    7.90
   5   0   2   91.99    8.70
   5   0   2   93.49    7.70
  -5   0  -2  127.19    8.50
  -5   0  -2   97.79    8.30
  -5   0  -2   87.79    8.30
   6   0   2  883.51   40.40
  -6   0  -2  878.71   37.30
   6   0   2  931.81   41.00
  -6   0  -2  846.42   40.50
  -6   0  -2  847.72   41.00
   6   0   2  938.51   41.40
   7   0   2   65.99    8.80
  -7   0  -2   43.70    8.70
   7   0   2   47.80   12.20
  -7   0  -2   33.40    9.20
  -8   0  -2   10.90    6.60
  -8   0  -2   29.10    7.70
   8   0   2   20.50    6.80
  -9   0  -2  165.88   17.90
  -9   0  -2  200.18   18.80
   9   0   2  173.58   17.10
 -10  -1   2   27.60    7.80
 -10  -1   2   26.10    8.50
 -10   1   2   16.90    8.10
 -10   1   2   27.60    9.40
   9  -1  -2 1133.59   51.09
  -9  -1   2 1119.59   51.89
  -9  -1   2 1116.29   52.39
  -9   1   2 1037.70   51.59
  -9   1   2 1222.88   52.89
  -9   1   2 1135.19   51.39
  -8  -1   2   56.99    7.30
  -8  -1   2   53.59    8.30
  -8  -1   2   57.99    8.00
   8  -1  -2   50.29    7.70
  -8   1   2   60.49    8.70
  -8   1   2   49.20    7.30
  -8   1   2   45.40    8.00
  -8   1   2   44.50    7.80
  -8   1   2   59.29    9.00
  -7  -1   2   45.40    7.70
   7  -1  -2   48.30    5.30
  -7  -1   2   46.50    6.50
   7  -1  -2   45.40    7.30
  -7  -1   2   57.29    7.00
  -7  -1   2   38.80    6.10
  -7  -1   2   48.60    6.00
   7  -1  -2   44.40    6.00
   7  -1  -2   40.70    7.90
  -7   1   2   36.90    6.70
  -7   1   2   53.09    7.10
   7   1  -2   40.40    6.40
  -7   1   2   31.90    6.20
  -7   1   2   54.99    6.60
  -7   1   2   46.80    5.70
   7   1  -2   34.10    6.90
  -6  -1   2   10.60    2.90
  -6  -1   2    2.50    2.80
   6  -1  -2   10.60    3.40
   6  -1  -2    5.20    2.30
   6  -1  -2    5.50    2.60
   6  -1  -2    9.00    3.30
  -6  -1   2    5.60    2.70
   6  -1  -2    4.50    3.20
  -6  -1   2    6.30    2.90
  -6  -1   2    6.40    3.10
   6   1  -2    9.30    2.80
   6   1  -2    8.20    3.40
   6   1  -2    5.40    3.00
  -6   1   2    2.70    2.40
  -6   1   2    4.40    3.00
  -6   1   2    4.20    2.80
  -6   1   2    4.60    2.90
  -6   1   2    8.90    3.10
   5  -1  -2  160.68    9.00
  -5  -1   2  158.08    9.20
  -5  -1   2  167.18    8.60
  -5  -1   2  143.49    8.30
   5  -1  -2  179.58    9.40
   5  -1  -2  147.09    8.30
   5  -1  -2  142.59    8.30
  -5  -1   2  154.48    8.80
  -5  -1   2  168.58    9.10
   5  -1  -2  155.18    9.00
  -5   1   2  145.59    9.00
  -5   1   2  137.89    8.80
  -5   1   2  151.78    9.00
   5   1  -2  164.78    9.00
  -5   1   2  162.98    8.50
  -5   1   2  146.89    8.30
   5   1  -2  167.78    9.00
  -4  -1   2   17.00    3.00
   4  -1  -2   13.60    2.80
   4  -1  -2   21.40    3.30
   4  -1  -2   27.90    2.70
  -4  -1   2   29.20    3.10
   4  -1  -2   20.70    2.80
  -4  -1   2   19.70    2.50
   4  -1  -2   22.40    3.30
  -4  -1   2   19.60    3.00
  -4  -1   2   17.90    3.30
  -4   1   2   16.80    2.90
  -4   1   2   18.70    2.60
  -4   1   2   17.70    2.90
  -4   1   2   25.40    2.90
   4   1  -2   19.90    2.90
   4   1  -2   19.20    2.50
   4   1  -2   27.30    3.20
   3  -1  -2   89.79    4.90
  -3  -1   2   78.59    4.70
   3  -1  -2   85.09    4.80
   3  -1  -2   80.79    4.70
  -3  -1   2   75.99    4.80
   3  -1  -2   84.29    4.30
   3  -1  -2   82.99    5.00
  -3  -1   2   74.49    4.60
   3   1  -2   79.29    4.60
   3   1  -2   79.79    4.60
  -3   1   2   73.59    4.70
  -3   1   2   83.59    4.90
  -3   1   2   83.09    4.90
  -3   1   2   82.09    4.90
   3   1  -2   85.39    4.30
  -3   1   2   83.59    4.30
  -2  -1   2  735.23   30.90
   2  -1  -2  755.82   31.30
   2  -1  -2  764.52   31.30
  -2  -1   2  733.63   31.20
   2  -1  -2  714.93   31.10
   2  -1  -2  736.43   30.50
  -2  -1   2  733.23   30.70
  -2  -1   2  657.53   30.90
   2  -1  -2  714.63   31.30
  -2   1   2  769.02   31.30
  -2   1   2  695.13   31.20
   2   1  -2  722.33   30.60
  -2   1   2  749.73   30.50
  -2   1   2  778.92   31.30
   2   1  -2  740.73   30.90
   2   1  -2  783.72   30.90
  -2   1   2  705.53   31.10
   1  -1  -2   28.90    2.10
   1  -1  -2   25.00    2.00
   1  -1  -2   25.60    2.00
  -1  -1   2   22.00    1.50
   1  -1  -2   25.00    2.10
  -1  -1   2   26.20    1.60
   1   1  -2   26.10    1.50
  -1   1   2   26.90    2.10
  -1   1   2   25.10    1.90
  -1   1   2   27.00    2.10
   1   1  -2   28.70    1.50
   1   1  -2   24.80    1.50
  -1   1   2   23.70    2.00
   0  -1   2  310.47   13.50
   0  -1   2  318.57   13.90
   0  -1  -2  317.47   13.50
   0  -1  -2  315.07   13.80
   0  -1  -2  303.27   13.80
   0  -1   2  313.07   13.50
   0   1  -2  311.47   13.50
   0   1   2  311.87   13.50
   0   1  -2  320.27   13.90
   0   1   2  330.57   13.90
   0   1   2  303.27   13.90
   0   1   2  305.97   13.80
   1  -1   2 5303.87  224.38
  -1  -1  -2 5121.69  224.48
   1   1   2 5635.44  224.48
  -1   1  -2 5669.13  224.48
   2  -1   2    4.70    1.80
   2  -1   2    2.20    1.30
   2  -1   2    0.40    1.50
  -2  -1  -2    2.70    1.80
  -2  -1  -2    1.90    1.60
  -2  -1  -2    3.00    1.60
   2  -1   2    2.40    1.50
   2   1   2    1.60    1.70
  -2   1  -2    3.10    1.50
  -2   1  -2    3.10    1.60
   2   1   2    2.80    1.50
  -2   1  -2    4.30    1.70
   2   1   2    2.50    1.40
  -3  -1  -2   71.79    5.30
   3  -1   2   63.49    5.10
  -3  -1  -2   65.69    5.30
   3  -1   2   77.39    5.50
   3  -1   2   62.79    5.30
   3  -1   2   66.29    5.10
  -3  -1  -2   66.59    5.40
  -3   1  -2   63.59    5.20
   3   1   2   66.39    5.20
  -3   1  -2   61.79    5.10
   3   1   2   65.49    5.60
  -3   1  -2   67.49    5.10
   3   1   2   60.19    5.00
  -4  -1  -2  511.95   21.90
  -4  -1  -2  489.15   24.00
  -4  -1  -2  527.55   23.90
   4  -1   2  480.25   23.40
  -4  -1  -2  493.85   23.50
   4  -1   2  497.65   23.90
   4  -1   2  503.15   23.40
   4  -1   2  480.55   23.60
   4   1   2  515.65   24.10
  -4   1  -2  515.85   23.90
   4   1   2  506.45   23.20
  -4   1  -2  511.35   23.60
   4   1   2  505.55   23.60
   4   1   2  553.54   24.00
  -4   1  -2  515.55   23.50
  -5  -1  -2 1235.78   51.59
   5  -1   2 1111.59   50.69
   5  -1   2 1188.08   51.39
   5  -1   2 1138.79   50.69
  -5  -1  -2 1157.28   48.70
  -5  -1  -2 1100.79   50.69
  -5  -1  -2 1216.98   51.19
   5  -1   2 1111.59   50.59
  -5   1  -2 1142.79   51.09
   5   1   2 1171.38   50.49
  -5   1  -2 1143.09   50.69
   5   1   2 1247.88   51.59
   5   1   2 1176.18   50.99
   5   1   2 1143.89   50.79
  -5   1  -2 1061.09   50.69
  -6  -1  -2  699.23   34.60
   6  -1   2  697.13   34.30
  -6  -1  -2  725.53   34.20
   6  -1   2  809.12   34.90
   6  -1   2  749.33   33.90
  -6  -1  -2  748.83   31.20
   6   1   2  724.13   33.90
  -6   1  -2  705.33   34.00
   6   1   2  698.53   34.70
  -6   1  -2  743.23   34.50
   6   1   2  673.33   34.00
  -7  -1  -2   21.50    4.30
   7  -1   2   14.60    5.70
   7  -1   2   16.30    8.00
  -7  -1  -2   17.00    6.00
  -7  -1  -2   13.30    5.60
   7   1   2   32.50    7.90
  -7   1  -2   21.90    6.70
  -7   1  -2   25.90    6.50
   7   1   2   26.50    8.70
  -8  -1  -2  367.66   22.60
  -8  -1  -2  344.87   21.90
   8  -1   2  330.97   21.00
  -8   1  -2  371.86   21.90
   8   1   2  366.46   21.80
  -8   1  -2  380.86   23.00
  -9  -1  -2  191.78   19.20
   9  -1   2  237.08   18.90
  -9  -1  -2  240.88   18.90
  -9   1  -2  215.08   20.40
  -9   1  -2  204.18   19.10
 -10  -2   2   13.70    8.30
 -10  -2   2   31.30    8.90
  10  -2  -2   57.49   12.30
 -10   2   2   26.10    8.20
 -10   2   2   23.10    8.90
 -10   2   2   36.80    9.90
   9  -2  -2   39.70    7.00
  -9  -2   2   56.89   10.60
  -9  -2   2   42.70   10.50
  -9   2   2   49.40   10.60
  -9   2   2   42.20    7.50
  -9   2   2   34.10    8.30
   8  -2  -2  448.56   22.30
  -8  -2   2  430.06   23.10
  -8  -2   2  466.95   23.80
   8  -2  -2  462.65   21.70
  -8   2   2  409.36   22.60
  -8   2   2  480.45   23.80
  -8   2   2  436.66   24.00
  -8   2   2  432.96   23.10
   8   2  -2  427.86   21.90
  -7  -2   2 1311.67   60.49
  -7  -2   2 1412.66   59.59
  -7  -2   2 1406.16   60.29
  -7  -2   2 1288.17   60.29
   7  -2  -2 1386.06   59.09
   7  -2  -2 1382.66   59.39
   7  -2  -2 1390.46   60.79
  -7   2   2 1424.06   60.59
  -7   2   2 1402.76   60.39
   7   2  -2 1399.06   58.99
  -7   2   2 1373.06   59.39
  -7   2   2 1296.27   60.69
   6  -2  -2   67.59    7.20
   6  -2  -2   71.19    7.60
  -6  -2   2   83.69    8.00
  -6  -2   2   71.59    7.00
   6  -2  -2   73.09    7.30
   6  -2  -2   76.79    5.90
  -6  -2   2   71.69    6.60
   6  -2  -2   70.99    6.10
  -6  -2   2   78.69    6.70
   6   2  -2   77.49    5.80
  -6   2   2   73.99    7.00
  -6   2   2   68.29    7.20
   6   2  -2   75.19    7.30
  -6   2   2   80.09    6.30
  -6   2   2   76.59    7.10
   6   2  -2   60.19    7.00
   5  -2  -2    5.80    2.20
  -5  -2   2    1.40    2.20
   5  -2  -2    6.50    2.20
   5  -2  -2    1.80    2.50
   5  -2  -2    3.80    2.70
  -5  -2   2    4.60    2.50
  -5  -2   2    0.00    3.00
  -5  -2   2    5.60    2.30
   5  -2  -2    4.60    2.70
   5   2  -2    6.10    2.70
   5   2  -2    5.10    2.70
  -5   2   2    4.30    2.40
   5   2  -2    7.40    1.90
  -5   2   2    2.20    2.10
  -5   2   2    4.50    2.50
  -5   2   2    3.00    2.50
   4  -2  -2 4800.42  199.98
  -4  -2   2 5204.38  201.08
  -4  -2   2 4529.95  200.68
   4  -2  -2 4817.02  200.48
  -4  -2   2 4986.30  200.68
  -4  -2   2 4937.21  200.58
   4  -2  -2 4789.22  200.68
   4  -2  -2 4978.90  200.78
   4  -2  -2 4834.52  200.98
   4   2  -2 5122.19  200.78
  -4   2   2 4560.94  200.98
  -4   2   2 4515.75  200.68
   4   2  -2 4695.93  199.58
  -4   2   2 5030.50  199.98
  -4   2   2 4786.62  200.88
   4   2  -2 4785.62  200.48
   3  -2  -2  163.18    8.40
   3  -2  -2  124.69    7.10
  -3  -2   2  138.89    7.90
  -3  -2   2  164.58    7.90
   3  -2  -2  154.58    7.90
  -3   2   2  147.39    8.30
  -3   2   2  158.68    8.10
   3   2  -2  124.59    7.60
  -3   2   2  159.18    7.20
  -3   2   2  156.48    8.20
   3   2  -2  159.08    6.80
   3   2  -2  166.38    7.90
  -2  -2   2  381.86   16.30
   2  -2  -2  348.67   16.50
   2  -2  -2  374.06   16.50
  -2  -2   2  335.27   16.30
   2  -2  -2  372.46   15.70
   2  -2  -2  373.86   16.80
   2  -2  -2  378.06   16.70
  -2   2   2  356.46   16.50
  -2   2   2  384.26   16.90
  -2   2   2  375.06   16.80
   2   2  -2  394.86   16.40
  -2   2   2  333.17   16.50
   2   2  -2  349.96   16.20
   2   2  -2  387.16   16.30
  -1  -2   2 1220.18   52.59
   1  -2  -2 1218.88   52.99
   1  -2  -2 1256.97   53.09
  -1  -2   2 1231.48   52.59
   1  -2  -2 1327.97   52.79
  -1  -2   2 1272.67   51.79
   1   2  -2 1316.77   52.59
  -1   2   2 1316.37   53.09
  -1   2   2 1217.28   53.09
  -1   2   2 1228.48   52.99
  -1   2   2 1322.27   53.09
   1   2  -2 1154.58   52.49
   1   2  -2 1249.57   52.49
   1   2  -2 1266.47   52.59
  -1   2   2 1237.88   52.79
   0  -2  -2  213.98   10.20
   0  -2  -2  244.78   11.00
   0  -2  -2  232.88   11.00
   0  -2   2  220.88   10.00
   0  -2  -2  231.08   10.80
   0  -2   2  228.38   10.50
   0  -2   2  211.38   10.30
   0   2  -2  227.28   10.40
   0   2   2  239.58   11.10
   0   2  -2  216.78   10.30
   0   2   2  209.88   10.40
   0   2   2  229.08   10.90
   0   2   2  227.68   10.80
   1  -2   2   98.29    5.40
  -1  -2  -2  104.19    5.50
  -1  -2  -2   94.09    5.80
   1  -2   2   89.79    5.60
   1  -2   2   97.79    5.20
  -1  -2  -2   77.29    5.70
   1  -2   2   98.69    5.60
   1   2   2  103.99    6.00
  -1   2  -2   95.39    5.50
   1   2   2  100.09    6.00
  -1   2  -2   99.49    5.50
   1   2   2   82.29    5.80
  -1   2  -2  100.29    5.70
  -2  -2  -2  317.77   14.90
  -2  -2  -2  336.27   15.50
   2  -2   2  320.67   15.00
   2  -2   2  308.77   14.70
   2  -2   2  295.17   15.00
  -2  -2  -2  288.17   15.00
   2   2   2  306.77   15.40
   2   2   2  331.57   15.30
  -2   2  -2  327.87   15.10
  -2   2  -2  321.17   15.00
  -2   2  -2  327.57   14.90
   3  -2   2  375.36   18.90
  -3  -2  -2  383.66   19.20
   3  -2   2  422.06   18.70
   3  -2   2  406.76   17.10
  -3  -2  -2  400.66   19.00
   3  -2   2  369.26   18.60
  -3  -2  -2  413.06   18.80
   3  -2   2  389.96   18.70
   3   2   2  409.46   19.10
  -3   2  -2  389.56   18.80
  -3   2  -2  388.06   18.70
   3   2   2  440.86   19.60
   3   2   2  375.66   18.70
  -3   2  -2  407.56   18.80
   4  -2   2   78.49    4.20
   4  -2   2   72.39    6.90
  -4  -2  -2   80.79    7.40
   4  -2   2   84.79    6.80
   4  -2   2   84.99    7.20
  -4  -2  -2   80.09    7.00
   4  -2   2   77.39    6.80
  -4  -2  -2   74.99    6.90
  -4   2  -2   84.79    6.80
  -4   2  -2   88.39    6.70
   4   2   2   68.29    6.70
   4   2   2   71.19    6.00
   4   2   2   63.69    6.40
   4   2   2   74.59    7.40
  -4   2  -2   80.89    6.90
   5  -2   2  130.89   10.20
   5  -2   2  143.39    9.60
  -5  -2  -2  145.69   10.20
   5  -2   2  145.69   10.50
   5  -2   2  133.89   10.20
  -5  -2  -2  129.69   10.40
  -5  -2  -2  139.39   10.60
   5  -2   2  133.89    6.50
  -5   2  -2  131.29    9.70
  -5   2  -2  135.89   10.00
   5   2   2  126.59   10.00
   5   2   2  132.09    9.60
   5   2   2  135.59   10.80
   5   2   2  136.89    9.30
  -5   2  -2  147.09   10.10
  -6  -2  -2  254.07   12.70
   6  -2   2  242.08   14.70
  -6  -2  -2  247.68   15.40
  -6  -2  -2  237.38   15.90
   6  -2   2  252.77   16.20
  -6   2  -2  251.27   15.20
   6   2   2  245.98   16.50
  -6   2  -2  251.57   15.70
   7  -2   2   72.49   13.70
  -7  -2  -2   75.39    7.10
  -7  -2  -2   73.09   10.30
  -7  -2  -2   67.09   11.20
   7  -2   2   69.09    9.40
  -7   2  -2   69.09   10.10
  -7   2  -2   71.29   10.40
  -8  -2  -2   83.99   14.30
  -8  -2  -2   94.29   12.70
   8  -2   2   67.29   11.60
  -8   2  -2   87.59   12.60
  -8   2  -2   70.39   12.80
  -9  -2  -2    0.60   10.60
  -9  -2  -2    4.90    9.20
   9  -2   2    1.60    8.00
  -9   2  -2   -1.90    9.30
  -9   2  -2   29.90   10.80
 -10  -3   2   19.50    9.20
  10  -3  -2   27.70    8.80
 -10   3   2   17.10   10.40
 -10   3   2   17.10   11.50
 -10   3   2   24.90   10.50
  -9  -3   2 1021.70   46.40
  -9  -3   2  985.60   46.90
   9  -3  -2  843.62   43.20
   9  -3  -2  957.80   44.40
  -9   3   2  988.00   46.10
  -9   3   2  980.90   46.50
  -9   3   2 1017.20   47.50
   8  -3  -2   35.90    7.60
   8  -3  -2   37.10    6.80
  -8  -3   2   44.10    8.50
  -8  -3   2   50.59    9.40
  -8   3   2   45.60    9.00
  -8   3   2   49.70   10.50
  -8   3   2   31.70    6.70
   8   3  -2   39.80    7.80
  -8   3   2   33.30    8.70
   7  -3  -2   53.69    6.60
  -7  -3   2   38.70    7.70
  -7  -3   2   48.70    7.60
   7  -3  -2   46.50    6.10
   7   3  -2   31.20    5.90
  -7   3   2   52.59    8.60
  -7   3   2   51.59    7.80
  -7   3   2   44.90    7.40
  -7   3   2   41.80    8.00
  -6  -3   2   20.50    4.40
   6  -3  -2   19.50    4.60
   6  -3  -2   20.30    4.60
  -6  -3   2   20.80    5.60
   6  -3  -2   16.30    5.50
  -6  -3   2   19.40    4.30
   6  -3  -2   16.70    5.30
  -6  -3   2   20.70    4.50
   6   3  -2   20.20    5.00
   6   3  -2   16.40    4.20
  -6   3   2   21.70    4.60
  -6   3   2   20.90    4.80
  -6   3   2   18.10    4.50
  -6   3   2   21.80    5.00
   6   3  -2   24.10    4.10
  -5  -3   2  108.19    7.90
   5  -3  -2  110.69    7.00
   5  -3  -2  115.09    8.60
  -5  -3   2  119.19    8.80
   5  -3  -2  118.19    8.90
  -5  -3   2  110.09    8.20
   5  -3  -2  115.09    7.50
   5  -3  -2  119.59    8.50
  -5   3   2  122.09    7.10
   5   3  -2  121.09    8.50
  -5   3   2  101.69    8.00
   5   3  -2  125.49    6.30
  -5   3   2  115.29    8.30
   5   3  -2  109.99    8.10
  -5   3   2  111.19    8.60
   5   3  -2  101.39    8.00
  -4  -3   2   20.00    4.00
   4  -3  -2   19.60    3.60
  -4  -3   2   21.50    4.00
   4  -3  -2   20.90    4.40
   4  -3  -2   23.90    4.70
   4  -3  -2   17.90    4.70
   4  -3  -2   16.90    3.10
   4   3  -2   17.20    3.90
   4   3  -2   17.50    2.10
  -4   3   2   16.30    3.50
   4   3  -2   18.50    4.10
  -4   3   2   18.70    4.30
   4   3  -2   23.60    4.00
  -4   3   2   17.50    3.10
  -4   3   2   20.00    4.10
   3  -3  -2   51.89    5.10
   3  -3  -2   52.09    5.00
   3  -3  -2   56.09    3.80
   3  -3  -2   49.99    4.80
  -3  -3   2   56.59    4.80
  -3  -3   2   62.19    4.70
   3  -3  -2   51.39    4.50
   3   3  -2   56.99    4.70
   3   3  -2   52.29    4.60
  -3   3   2   55.29    5.00
  -3   3   2   51.99    5.10
   3   3  -2   55.99    4.50
  -3   3   2   47.10    4.60
  -3   3   2   51.69    5.20
   2  -3  -2  446.86   19.60
   2  -3  -2  457.75   20.00
  -2  -3   2  443.26   19.50
   2  -3  -2  486.05   20.40
  -2  -3   2  425.76   19.70
   2  -3  -2  418.76   18.80
  -2  -3   2  451.65   19.70
  -2   3   2  393.76   19.70
  -2   3   2  401.56   20.00
  -2   3   2  416.16   19.60
   2   3  -2  410.16   19.30
   2   3  -2  434.96   19.60
  -2   3   2  433.36   20.10
  -1  -3   2   60.29    4.30
  -1  -3   2   58.49    2.80
   1  -3  -2   62.09    4.40
   1  -3  -2   63.19    4.90
  -1  -3   2   64.09    4.50
   1  -3  -2   53.89    4.90
   1   3  -2   61.69    4.30
  -1   3   2   58.59    4.90
  -1   3   2   63.29    4.80
   1   3  -2   58.39    4.30
  -1   3   2   56.99    4.20
  -1   3   2   53.99    4.70
  -1   3   2   60.39    4.70
   1   3  -2   45.90    4.00
   0  -3   2  326.87   14.40
   0  -3  -2  359.06   16.10
   0  -3   2  348.17   15.50
   0  -3  -2  353.36   16.00
   0  -3   2  325.07   15.20
   0  -3   2  297.37   15.30
   0   3  -2  303.07   15.10
   0   3   2  316.87   14.90
   0   3   2  311.27   15.80
   0   3  -2  336.47   14.40
   0   3  -2  326.07   15.20
   0   3  -2  314.17   15.20
   0   3   2  324.67   15.70
   0   3   2  367.96   15.90
   0   3   2  319.37   15.80
   1  -3   2 4642.64  193.68
   1  -3   2 4561.34  194.38
  -1  -3  -2 5007.50  195.08
   1  -3   2 4494.75  194.18
  -1  -3  -2 4660.63  194.18
  -1  -3  -2 4339.67  194.58
   1  -3   2 4601.34  194.48
  -1   3  -2 4698.43  194.28
  -1   3  -2 4589.64  193.78
   1   3   2 4939.21  194.78
  -1   3  -2 4512.35  194.38
  -1   3  -2 4307.17  194.28
   1   3   2 4842.92  194.98
   1   3   2 5384.96  195.28
   2  -3   2   19.70    3.80
   2  -3   2   15.80    3.60
   2  -3   2   15.10    2.70
  -2  -3  -2   13.30    3.20
  -2  -3  -2   12.90    3.00
  -2  -3  -2   13.30    3.10
   2  -3   2   17.50    4.10
  -2   3  -2   17.50    3.60
   2   3   2   12.60    3.00
   2   3   2   15.60    3.90
   2   3   2   18.50    3.60
  -2   3  -2   15.00    3.00
  -2   3  -2   15.80    3.20
  -2   3  -2   18.90    3.80
  -3  -3  -2   26.50    5.10
   3  -3   2   30.70    4.80
  -3  -3  -2   32.20    5.10
   3  -3   2   26.10    5.10
   3  -3   2   26.80    4.50
  -3  -3  -2   33.80    5.10
   3  -3   2   29.90    4.90
   3   3   2   32.10    5.30
  -3   3  -2   22.50    4.50
  -3   3  -2   28.00    4.60
  -3   3  -2   21.50    4.20
  -3   3  -2   25.90    4.60
   3   3   2   26.90    5.60
   3   3   2   28.60    5.00
   4  -3   2  281.87   15.70
  -4  -3  -2  288.87   16.20
   4  -3   2  298.57   13.50
  -4  -3  -2  288.57   15.90
   4  -3   2  302.27   15.50
  -4  -3  -2  307.07   16.10
   4  -3   2  281.27   16.10
   4  -3   2  302.67   15.50
  -4   3  -2  293.27   15.80
   4   3   2  297.17   16.30
  -4   3  -2  285.57   15.50
  -4   3  -2  289.87   15.50
   4   3   2  325.97   16.80
  -4   3  -2  285.67   15.30
   5  -3   2  977.70   46.80
  -5  -3  -2 1115.09   47.70
   5  -3   2 1104.69   47.70
   5  -3   2 1072.99   47.10
   5  -3   2 1060.49   44.50
   5  -3   2 1155.08   48.20
  -5  -3  -2 1013.30   47.90
   5   3   2 1051.79   46.20
   5   3   2 1047.50   48.20
  -5   3  -2 1047.50   47.70
  -5   3  -2 1028.20   47.20
   5   3   2 1011.60   47.70
  -5   3  -2 1017.50   47.00
   6  -3   2  662.03   30.40
  -6  -3  -2  617.54   31.50
   6  -3   2  632.54   26.90
  -6  -3  -2  606.34   30.60
  -6   3  -2  614.54   30.50
   6   3   2  574.04   31.80
  -6   3  -2  669.33   31.30
  -7  -3  -2   36.20    7.80
   7  -3   2   37.40    8.90
   7  -3   2   36.10   10.70
  -7  -3  -2   38.40    7.70
  -7  -3  -2   50.69   11.60
  -7   3  -2   54.19   10.00
  -7   3  -2   53.29   11.10
  -8  -3  -2  238.38   19.50
  -8  -3  -2  288.57   21.30
   8  -3   2  247.48   18.10
  -8   3  -2  246.28   20.00
  -8   3  -2  288.67   19.70
  -9  -4   2  312.37   21.20
   9  -4  -2  307.17   18.10
   9  -4  -2  296.87   18.80
  -9  -4   2  292.57   21.40
  -9   4   2  350.36   23.60
  -9   4   2  298.37   20.60
  -9   4   2  295.97   21.30
   8  -4  -2   97.89    9.80
  -8  -4   2  149.39   13.10
  -8  -4   2  112.09   12.90
   8  -4  -2  130.69   10.90
  -8   4   2  111.99   12.40
  -8   4   2  109.99   12.90
  -8   4   2  121.59   13.90
   7  -4  -2  209.38   12.70
   7  -4  -2  217.68   12.70
  -7  -4   2  177.68   13.90
  -7  -4   2  218.08   14.70
  -7   4   2  218.58   14.50
  -7   4   2  244.28   16.00
   7   4  -2  195.58   11.40
  -7   4   2  212.38   13.50
  -7   4   2  185.98   13.90
   7   4  -2  218.28   14.50
  -6  -4   2  179.08   11.60
   6  -4  -2  165.88   10.60
   6  -4  -2  176.58   10.20
   6  -4  -2  143.59   13.30
  -6  -4   2  176.68   12.10
  -6   4   2  170.38   10.50
  -6   4   2  162.88   11.70
  -6   4   2  165.98   12.40
   6   4  -2  171.98    8.70
  -6   4   2  139.99   11.80
   5  -4  -2  414.96   21.80
   5  -4  -2  415.76   22.20
  -5  -4   2  434.66   21.20
   5  -4  -2  438.36   20.10
   5  -4  -2  418.46   21.40
   5  -4  -2  432.46   20.60
  -5  -4   2  408.06   21.50
  -5   4   2  422.76   21.70
   5   4  -2  390.16   21.30
  -5   4   2  430.56   21.40
  -5   4   2  510.25   22.80
  -5   4   2  456.65   22.30
   5   4  -2  402.66   21.10
   5   4  -2  423.26   21.40
   5   4  -2  444.56   18.60
   4  -4  -2 2698.13  116.49
  -4  -4   2 2841.22  116.19
   4  -4  -2 2761.12  115.09
   4  -4  -2 2753.62  115.99
  -4  -4   2 2665.83  116.39
   4  -4  -2 2743.33  115.79
   4  -4  -2 2828.42  116.79
  -4   4   2 2678.03  116.09
   4   4  -2 2653.13  115.99
   4   4  -2 2944.11  116.39
  -4   4   2 2939.21  117.19
  -4   4   2 2736.33  116.89
  -4   4   2 2647.24  116.49
   4   4  -2 2701.73  116.19
  -3  -4   2  268.07   13.90
   3  -4  -2  271.77   12.80
   3  -4  -2  266.07   13.70
  -3  -4   2  270.37   14.00
   3  -4  -2  242.28   14.00
   3  -4  -2  275.27   14.60
  -3   4   2  290.67   14.70
  -3   4   2  255.87   14.40
   3   4  -2  257.37   13.70
   3   4  -2  253.67   13.70
  -3   4   2  281.37   13.90
  -3   4   2  292.57   14.40
   3   4  -2  262.77   13.80
   2  -4  -2  246.98   11.70
   2  -4  -2  255.17   13.40
   2  -4  -2  247.58   12.40
  -2  -4   2  246.78   13.10
  -2  -4   2  246.68   12.80
   2  -4  -2  241.38   12.90
   2   4  -2  232.28   12.50
   2   4  -2  260.97   12.70
  -2   4   2  242.88   13.00
  -2   4   2  249.88   12.50
   2   4  -2  231.38   12.60
  -2   4   2  237.08   13.30
   2   4  -2  237.18   12.60
  -2   4   2  258.57   13.50
  -1  -4   2   15.40    3.70
   1  -4  -2   20.00    4.30
   1  -4  -2   19.40    4.60
  -1  -4   2   16.60    4.00
  -1   4   2   18.60    3.50
   1   4  -2   18.40    3.60
  -1   4   2   18.50    4.60
  -1   4   2   24.50    4.30
  -1   4   2   19.00    4.20
   1   4  -2   20.70    3.90
  -1   4   2   19.40    3.80
   1   4  -2   22.20    4.00
   1   4  -2   15.40    3.70
   0  -4   2  138.29    8.90
   0  -4   2  156.78    7.50
   0  -4  -2  167.28    9.70
   0  -4   2  157.18    9.30
   0  -4  -2  148.99    9.70
   0  -4   2  140.89    8.80
   0   4  -2  158.18    8.90
   0   4   2  184.08    9.70
   0   4  -2  132.09    8.50
   0   4   2  137.29    9.20
   0   4  -2  154.48    8.90
   0   4  -2  137.59    8.80
   0   4  -2  145.69    7.40
   0   4   2  170.08    9.90
   0   4   2  144.69    8.20
   0   4   2  156.78    9.20
  -1  -4  -2  985.40   44.10
   1  -4   2 1039.00   43.80
   1  -4   2 1033.10   42.50
   1  -4   2  943.11   43.40
  -1  -4  -2  989.00   44.00
   1  -4   2  970.10   43.40
   1   4   2  908.01   44.00
   1   4   2 1084.39   44.10
  -1   4  -2 1090.79   43.70
   1   4   2  966.60   43.90
   1   4   2  982.20   42.70
  -1   4  -2  978.20   42.50
  -1   4  -2  976.10   43.60
   1   4   2 1048.70   44.30
  -1   4  -2  956.60   43.50
   2  -4   2   49.50    5.10
  -2  -4  -2   47.40    6.20
  -2  -4  -2   53.59    6.10
   2  -4   2   48.40    6.30
   2  -4   2   40.20    5.50
   2  -4   2   54.19    5.60
  -2  -4  -2   61.29    5.90
   2   4   2   52.49    6.40
  -2   4  -2   59.09    5.70
  -2   4  -2   55.89    4.90
  -2   4  -2   59.19    6.00
  -2   4  -2   45.70    5.60
   2   4   2   42.50    6.10
   2   4   2   37.50    6.40
   3  -4   2   49.00    7.00
  -3  -4  -2   38.70    6.60
  -3  -4  -2   50.09    6.10
   3  -4   2   46.70    6.00
  -3  -4  -2   47.70    6.90
   3  -4   2   52.29    6.70
   3  -4   2   52.69    6.00
  -3   4  -2   55.39    5.70
   3   4   2   45.80    6.60
   3   4   2   48.80    7.40
   3   4   2   44.00    7.40
  -3   4  -2   44.90    5.90
  -3   4  -2   44.80    6.20
  -3   4  -2   44.30    6.80
   4  -4   2  347.87   18.00
   4  -4   2  347.27   19.00
   4  -4   2  350.46   18.00
  -4  -4  -2  347.77   18.50
  -4  -4  -2  312.37   18.70
   4  -4   2  337.47   15.90
   4  -4   2  366.46   18.70
   4   4   2  320.87   19.20
   4   4   2  354.96   19.10
  -4   4  -2  324.77   18.00
   4   4   2  344.27   18.80
  -4   4  -2  376.16   18.70
  -4   4  -2  323.27   17.50
  -4   4  -2  313.37   17.90
  -5  -4  -2   84.69    9.40
   5  -4   2   91.79    6.20
   5  -4   2   72.89   11.60
   5  -4   2   82.29    8.70
   5  -4   2   64.59   11.20
  -5  -4  -2   92.89   10.50
   5   4   2   92.49    8.40
  -5   4  -2   83.39    9.70
   5   4   2   87.39   10.10
  -5   4  -2   74.99    8.60
   5   4   2   87.19   12.10
  -5   4  -2   83.59    9.30
   6  -4   2  652.13   28.50
   6  -4   2  634.84   31.60
  -6  -4  -2  655.23   32.50
  -6  -4  -2  670.83   33.40
   6  -4   2  608.34   33.80
  -6   4  -2  645.94   32.90
  -6   4  -2  665.63   32.30
   6   4   2  659.43   33.10
  -7  -4  -2   56.39   10.20
  -7  -4  -2   64.09   12.30
   7  -4   2   55.89   10.90
   7   4   2   82.69   13.30
  -7   4  -2   34.10    8.10
  -7   4  -2   47.80    9.70
  -8  -4  -2   20.60    9.60
  -8  -4  -2   37.10   11.00
   8  -4   2   25.70    8.30
   8   4   2   35.80   10.70
  -8   4  -2   68.39   15.00
   8  -5  -2   57.09   10.10
  -8  -5   2   59.79   12.50
  -8  -5   2   70.59   13.50
   8  -5  -2   42.40    9.30
  -8   5   2   75.39   13.50
  -8   5   2   93.49   15.30
  -8   5   2   85.99   13.00
   7  -5  -2   39.40    8.00
  -7  -5   2   38.80    8.10
  -7  -5   2   30.60    7.20
   7  -5  -2   42.70    7.70
  -7   5   2   44.00   10.50
  -7   5   2   54.39   10.90
  -7   5   2   44.60    9.70
   6  -5  -2   11.30    4.00
   6  -5  -2    4.40    4.00
  -6  -5   2    4.40    4.70
  -6  -5   2   15.10    5.60
  -6   5   2    2.10    5.00
  -6   5   2   11.80    5.60
   6   5  -2   14.50    5.40
  -6   5   2    5.10    4.60
  -6   5   2   11.40    7.80
   6   5  -2    9.20    1.90
  -5  -5   2  104.49    9.20
  -5  -5   2  105.79    9.70
   5  -5  -2  109.39   11.40
   5  -5  -2   98.29    7.80
   5  -5  -2  103.29    8.50
  -5   5   2  104.19    9.90
  -5   5   2   93.59    9.00
  -5   5   2   81.49    9.80
  -5   5   2   97.59   11.10
   5   5  -2  105.79    9.60
   4  -5  -2    5.20    4.90
   4  -5  -2   12.00    3.20
  -4  -5   2   18.20    4.40
  -4  -5   2    6.30    3.80
   4  -5  -2   13.90    4.80
   4  -5  -2   11.20    4.90
   4  -5  -2    7.40    3.70
  -4   5   2   26.80    5.40
  -4   5   2   11.20    4.50
   4   5  -2   13.00    4.00
  -4   5   2    8.90    3.90
  -4   5   2   12.10    5.60
   3  -5  -2   98.29    9.10
   3  -5  -2   83.79    9.30
   3  -5  -2   94.89    6.60
  -3  -5   2   93.39    8.10
   3  -5  -2   90.19    7.90
   3   5  -2   85.79    8.30
   3   5  -2   87.59    7.90
  -3   5   2  104.29    9.30
   3   5  -2   85.69    7.70
   3   5  -2   90.59    7.80
  -3   5   2   87.29    8.30
  -3   5   2   91.49    7.60
  -3   5   2   93.19    8.70
   2  -5  -2  341.77   16.60
  -2  -5   2  346.07   17.70
   2  -5  -2  378.16   18.40
   2  -5  -2  333.27   16.00
  -2  -5   2  323.67   17.30
  -2   5   2  352.76   17.70
   2   5  -2  318.67   17.00
  -2   5   2  322.67   17.80
  -2   5   2  327.77   16.50
   2   5  -2  302.07   16.70
  -2   5   2  319.27   17.80
  -2   5   2  329.17   17.90
   2   5  -2  339.27   17.30
   2   5  -2  333.47   17.10
   1  -5  -2   19.90    4.50
  -1  -5   2   20.20    4.10
   1  -5  -2   33.30    5.80
  -1  -5   2   23.80    5.10
  -1   5   2   30.50    4.50
   1   5  -2   23.40    2.30
  -1   5   2   10.80    4.00
   1   5  -2   19.30    4.90
  -1   5   2   22.90    5.70
  -1   5   2   25.00    6.40
   1   5  -2   19.20    4.80
  -1   5   2   22.80    5.90
   1   5  -2   23.10    5.80
   1   5  -2   16.80    4.20
   0  -5  -2  121.29   10.30
   0  -5   2  130.99    6.90
   0  -5  -2  115.89    9.40
   0  -5   2  130.99    8.90
   0  -5   2  151.88    9.50
   0   5  -2  115.99    8.80
   0   5  -2  140.29    9.50
   0   5   2  120.99    9.50
   0   5  -2  124.99    9.00
   0   5  -2  121.49    6.80
   0   5   2  134.99    9.40
   0   5   2  118.69    9.60
   0   5   2  127.19    7.80
   0   5  -2  125.89    8.60
   0   5   2  122.99   10.00
   1  -5   2 2045.20   90.89
   1  -5   2 2366.16   91.89
  -1  -5  -2 2113.99   91.99
   1  -5   2 2161.38   89.69
   1  -5   2 2218.28   91.29
  -1   5  -2 2094.89   89.69
  -1   5  -2 2200.08   91.29
   1   5   2 1960.30   91.39
   1   5   2 2325.57   92.19
   1   5   2 2009.60   91.39
  -1   5  -2 2176.88   91.39
   1   5   2 2203.38   92.19
   1   5   2 2082.99   89.99
  -1   5  -2 2011.20   90.99
  -2  -5  -2    4.00    3.70
  -2  -5  -2    1.70    3.60
   2  -5   2    7.30    3.50
   2  -5   2    7.20    3.10
   2  -5   2    7.00    3.80
   2  -5   2    5.50    4.00
  -2  -5  -2    4.70    3.90
  -2   5  -2    1.30    3.70
   2   5   2    3.20    2.50
   2   5   2    6.30    4.60
   2   5   2    1.10    3.50
   2   5   2    6.50    4.50
  -2   5  -2    2.90    2.70
  -2   5  -2    1.60    3.30
  -2   5  -2    7.90    3.50
   3  -5   2   80.79    8.10
   3  -5   2   86.69    9.50
  -3  -5  -2   89.89    9.30
   3  -5   2   50.49    9.00
   3  -5   2   81.29    8.10
  -3  -5  -2   97.09    9.00
   3   5   2   61.99   10.20
   3   5   2   86.59    9.40
   3   5   2   78.89    6.40
  -3   5  -2   78.19    7.30
  -3   5  -2   73.29    8.30
  -3   5  -2   51.89    8.00
  -3   5  -2   85.59    8.40
  -4  -5  -2  230.98   16.30
   4  -5   2  243.88   17.30
   4  -5   2  255.87   15.20
  -4  -5  -2  246.98   15.90
   4  -5   2  259.87   16.70
  -4   5  -2  272.97   16.20
   4   5   2  244.98   17.80
  -4   5  -2  240.08   15.90
  -4   5  -2  255.07   14.70
   4   5   2  300.67   17.00
  -5  -5  -2  444.96   24.80
  -5  -5  -2  449.16   25.60
   5  -5   2  488.75   21.80
   5  -5   2  501.95   27.10
   5  -5   2  461.95   24.10
  -5   5  -2  474.15   25.40
   5   5   2  440.26   22.90
  -5   5  -2  473.35   24.70
   5   5   2  466.35   25.60
  -5   5  -2  448.56   23.90
  -6  -5  -2  291.57   20.10
   6  -5   2  329.87   15.60
   6  -5   2  315.67   19.20
  -6  -5  -2  288.87   20.90
  -6   5  -2  301.87   19.70
  -6   5  -2  302.47   20.60
   6   5   2  327.57   21.30
  -7  -5  -2   -3.10    7.70
   7  -5   2   -3.60    6.40
  -7  -5  -2   11.00    9.70
   7   5   2    4.20    9.40
  -7   5  -2   -8.80    7.70
   7  -6  -2  538.15   27.80
  -7  -6   2  596.44   29.60
  -7  -6   2  533.95   29.90
   7  -6  -2  539.75   27.10
  -7   6   2  537.45   31.10
  -7   6   2  530.25   29.70
  -7   6   2  572.04   30.70
  -6  -6   2    7.70    6.00
   6  -6  -2   17.70    5.20
   6  -6  -2    2.20    5.10
  -6  -6   2   10.70    6.10
  -6   6   2    5.00    7.00
  -6   6   2   10.80    6.30
  -6   6   2    6.00    6.20
   5  -6  -2    0.90    3.80
   5  -6  -2   11.10    4.90
  -5  -6   2   -1.60    5.20
  -5  -6   2   10.70    5.50
  -5   6   2    4.50    4.70
  -5   6   2    4.40    9.50
   5   6  -2   -1.90    4.80
   5   6  -2    3.90    5.10
  -5   6   2    5.60    5.60
  -5   6   2    3.20    5.80
   4  -6  -2 1769.42   91.39
   4  -6  -2 2123.39   89.09
   4  -6  -2 2136.69   90.19
  -4  -6   2 2162.68   91.29
  -4   6   2 2083.79   91.29
  -4   6   2 2026.60   91.79
   4   6  -2 2303.17   90.99
  -4   6   2 2114.09   91.89
   4   6  -2 2183.88   90.89
  -3  -6   2   44.00    7.90
   3  -6  -2   46.40    8.40
   3  -6  -2   44.60    6.30
   3  -6  -2   43.90   10.40
   3   6  -2   43.90    7.70
  -3   6   2   35.90    7.90
  -3   6   2   35.60    6.50
   3   6  -2   49.40    7.90
  -3   6   2   57.29    9.20
  -3   6   2   27.10    6.60
  -2  -6   2    8.60    5.40
  -2  -6   2    5.00    4.20
   2  -6  -2   10.30    3.50
   2  -6  -2    9.10    5.80
  -2   6   2    3.80    4.20
  -2   6   2    5.80    5.90
   2   6  -2   10.00    4.50
   2   6  -2    9.70    4.50
  -2   6   2    6.60    3.70
  -2   6   2    8.70    5.30
   1  -6  -2  330.57   20.20
  -1  -6   2  352.76   19.80
  -1  -6   2  347.77   19.20
   1  -6  -2  339.97   19.80
   1   6  -2  349.77   18.80
  -1   6   2  383.46   20.30
  -1   6   2  363.46   17.80
  -1   6   2  335.87   19.10
  -1   6   2  366.86   20.90
   1   6  -2  376.76   19.20
   0  -6   2  360.96   20.20
   0  -6  -2  412.26   22.20
   0  -6   2  373.16   17.10
   0  -6  -2  359.96   20.60
   0  -6   2  357.86   19.60
   0   6  -2  368.06   16.90
   0   6   2  366.16   18.20
   0   6   2  399.76   20.60
   0   6   2  377.26   20.70
   0   6  -2  390.66   19.90
   0   6  -2  339.37   19.30
   0   6   2  387.36   21.40
   1  -6   2   27.30    5.40
  -1  -6  -2   31.80    8.00
   1  -6   2   30.70    5.60
   1  -6   2   16.50    4.80
   1   6   2   21.50    5.30
  -1   6  -2   33.20    7.10
   1   6   2   24.80    7.00
  -1   6  -2   29.50    7.10
   1   6   2   34.40    5.30
  -1   6  -2   26.80    4.70
   1   6   2   31.50    8.10
  -2  -6  -2  170.48   13.70
   2  -6   2  189.18   11.50
   2  -6   2  171.98   12.20
   2  -6   2  188.68   14.30
   2  -6   2  183.78   14.00
   2   6   2  165.68   12.80
  -2   6  -2  179.58   10.70
   2   6   2  172.38   13.50
   2   6   2  185.68   10.60
   2   6   2  170.68   15.20
  -2   6  -2  190.28   13.00
  -2   6  -2  179.48   12.80
   3  -6   2  125.29   13.20
   3  -6   2  128.89   13.80
   3  -6   2  124.09   11.20
   3  -6   2  119.79   11.00
  -3  -6  -2  135.69   12.50
  -3  -6  -2  134.69   12.20
   3   6   2  135.69    8.90
  -3   6  -2  133.89   11.60
  -3   6  -2  126.59   11.80
   3   6   2  123.69   11.90
  -3   6  -2  137.59   10.10
   3   6   2  128.89   12.50
  -4  -6  -2   40.90   10.30
   4  -6   2   31.60    6.90
  -4  -6  -2   50.29   11.00
  -4   6  -2   44.60   10.10
  -4   6  -2   37.60    8.40
   4   6   2   27.60    6.30
   4   6   2   32.00    7.40
  -4   6  -2   38.60    9.80
  -5  -6  -2  112.09   13.40
   5  -6   2   94.19    9.00
   5  -6   2   83.69   11.70
  -5  -6  -2  101.09   13.80
  -5   6  -2   82.29   12.60
  -5   6  -2   87.89   13.60
   5   6   2  109.29    9.00
   5   6   2   97.99   14.00
   6  -6   2  114.79   14.50
  -6  -6  -2  149.09   16.00
  -6  -6  -2  143.99   17.60
  -6   6  -2  129.79   16.00
   6   6   2  133.19   17.70
  -6  -7   2   12.70    8.00
   6  -7  -2   17.40    6.60
   6  -7  -2   33.70    7.80
  -6   7   2   29.40    8.50
   6   7  -2   33.60    8.70
  -6   7   2   19.60    8.40
  -6   7   2    8.60    9.50
  -5  -7   2   63.19   12.70
   5  -7  -2   79.09   11.00
   5  -7  -2   64.49    9.70
   5   7  -2   62.09   12.00
  -5   7   2   49.90   10.50
  -5   7   2   80.09   13.30
  -5   7   2   79.59   11.60
   4  -7  -2   14.80    5.30
  -4  -7   2    4.30    6.40
   4  -7  -2   13.10    5.90
  -4   7   2   10.10    5.40
   4   7  -2   10.50    6.20
  -4   7   2    6.20    6.90
  -4   7   2   17.60    7.40
  -3  -7   2   89.49   11.70
   3  -7  -2   89.19    9.30
  -3   7   2  113.79   13.30
   3   7  -2   94.09   11.20
  -3   7   2   81.99   11.50
  -3   7   2   79.49    9.50
   3   7  -2   77.89   10.90
  -2  -7   2  125.99   12.20
   2  -7  -2  123.09    9.90
  -2   7   2  124.49   12.10
   2   7  -2  131.19   12.20
   2   7  -2  117.59   11.80
  -2   7   2  121.79   13.40
  -2   7   2  117.49   10.00
  -1  -7   2   12.90   10.20
   1  -7  -2   38.60    7.70
   1  -7  -2   26.30    9.00
  -1   7   2   38.10    8.00
  -1   7   2   36.50    8.90
  -1   7   2   44.20    7.20
   1   7  -2   42.10    9.20
   1   7  -2   35.90    9.50
   0  -7  -2  113.49   16.90
   0  -7  -2  127.19   13.30
   0  -7   2   97.79   10.90
   0  -7   2  105.99   19.20
   0   7   2  110.89   12.20
   0   7  -2  108.39   11.60
   0   7   2  120.59   13.00
   0   7   2  107.89    8.90
   0   7  -2  129.79   11.30
  -1  -7  -2 1265.87   62.69
   1  -7   2 1391.76   61.59
  -1   7  -2 1414.56   62.19
   1   7   2 1454.65   63.09
  -1   7  -2 1456.55   61.99
  -1   7  -2 1364.36   58.89
   1   7   2 1361.76   59.39
   1   7   2 1329.27   62.19
   2  -7   2    3.70    5.50
  -2  -7  -2   13.40    7.30
  -2   7  -2    5.70    6.20
   2   7   2    0.80    6.00
  -2   7  -2    8.40    6.00
  -2   7  -2    2.10    3.90
   2   7   2    5.80    3.80
   2   7   2    0.80    5.70
   3  -7   2   38.90    7.60
  -3  -7  -2   11.20    8.30
   3   7   2    4.70    6.80
  -3   7  -2    5.10    6.60
   3   7   2   10.80    7.00
   3   7   2   10.90    4.30
  -3   7  -2   11.50    5.40
  -3   7  -2    8.30    7.00
   4  -7   2   58.99   12.30
  -4  -7  -2   89.19   14.80
  -4   7  -2   73.99   12.60
   4   7   2   78.79   13.00
   4   7   2   88.99   14.80
  -5  -7  -2  425.66   27.90
  -5  -7  -2  400.56   27.00
   5  -7   2  407.76   22.90
   5  -7   2  404.86   25.20
   5   7   2  447.76   26.70
  -5   7  -2  481.35   27.00
   4  -8  -2  608.34   31.20
  -4  -8   2  648.54   34.70
   4  -8  -2  625.64   33.00
  -4   8   2  627.84   35.90
  -4   8   2  665.53   35.10
  -4   8   2  659.53   32.60
  -3  -8   2  100.09   14.70
   3  -8  -2   43.90   11.00
  -3   8   2   68.69   15.90
   3   8  -2   76.49   13.70
  -3   8   2   49.99   10.70
  -3   8   2  103.69   15.00
   2  -8  -2   63.69   10.50
  -2  -8   2   52.39   10.20
  -2   8   2   68.89   14.90
   2   8  -2   53.79    9.70
  -2   8   2   43.90    9.70
  -2   8   2   48.90   10.20
   1  -8  -2   14.40    6.20
  -1  -8   2   26.30    8.60
   1   8  -2   17.20    7.50
  -1   8   2   16.80    8.20
  -1   8   2   11.90    9.00
  -1   8   2   14.80    5.70
   0  -8   2   54.49    9.50
   0   8   2   68.59    9.00
   0   8   2   57.99   14.10
   0   8  -2   49.20   12.10
   0   8   2   67.39   13.70
   1  -8   2  249.38   17.70
  -1  -8  -2  231.68   20.00
   1   8   2  197.58   19.00
  -1   8  -2  187.18   16.90
   1   8   2  195.08   15.20
   1   8   2  238.28   18.90
  -2  -8  -2   63.39   16.10
   2  -8   2   53.59   13.10
   2   8   2   48.80   10.00
   2   8   2   55.79   11.50
  -2   8  -2   41.00    9.50
  -3  -8  -2   38.30   11.10
   3  -8   2   22.20    9.40
   3   8   2   25.00   10.20
  -3   8  -2   27.80   10.20
 -10   0   3  122.89   14.60
 -10   0   3   87.59   13.60
  -9   0   3   37.00    7.50
  -9   0   3   34.40    8.50
  -9   0   3   32.20    6.20
  -8   0   3  148.99   11.20
  -8   0   3  162.38   10.60
  -8   0   3  153.78   10.90
  -8   0   3  127.09   10.30
  -8   0   3  129.09   11.20
  -7   0   3   26.60    5.00
   7   0  -3   17.30    4.00
  -7   0   3   16.00    4.00
  -7   0   3   15.40    4.00
   7   0  -3   19.80    4.30
  -7   0   3   14.90    3.90
  -7   0   3   22.00    4.10
   7   0  -3   27.30    6.30
   6   0  -3  204.58   10.90
   6   0  -3  188.98   11.00
  -6   0   3  200.28   10.80
  -6   0   3  203.88   10.90
  -6   0   3  201.08   11.20
  -6   0   3  191.98   10.80
   6   0  -3  197.18   10.80
   6   0  -3  212.68   11.20
  -6   0   3  197.28   11.30
   5   0  -3  333.07   16.20
   5   0  -3  351.36   16.20
  -5   0   3  346.47   16.30
   5   0  -3  380.36   16.30
  -5   0   3  335.27   16.10
  -5   0   3  340.77   16.20
   5   0  -3  348.27   16.20
  -5   0   3  343.37   16.00
  -5   0   3  320.47   16.30
   4   0  -3 2224.88   91.09
   4   0  -3 2123.79   91.29
  -4   0   3 2040.90   91.19
   4   0  -3 2340.37   91.09
  -4   0   3 2259.17   91.29
   4   0  -3 2213.88   91.19
  -4   0   3 2180.08   90.89
  -4   0   3 2049.70   91.09
  -4   0   3 2201.28   91.09
  -3   0   3  360.86   16.10
  -3   0   3  360.06   16.20
   3   0  -3  370.16   16.00
   3   0  -3  352.06   15.70
  -3   0   3  342.47   15.80
  -3   0   3  341.27   15.70
   3   0  -3  352.06   16.20
   3   0  -3  387.86   15.80
  -3   0   3  379.66   15.80
   2   0  -3   57.09    2.90
  -2   0   3   53.79    3.40
   2   0  -3   53.09    3.60
   2   0  -3   59.49    3.50
  -2   0   3   56.49    3.60
   2   0  -3   60.89    2.80
  -2   0   3   57.29    3.00
   0   0  -3  582.24   25.20
   0   0   3  580.44   25.50
   0   0   3  631.14   25.50
   0   0  -3  610.44   25.40
   0   0  -3  614.04   25.60
   0   0  -3  608.34   25.40
   0   0   3  564.64   25.30
   0   0   3  594.84   25.20
   1   0   3 1111.59   48.70
   1   0   3 1176.38   48.90
  -1   0  -3 1207.78   48.90
  -1   0  -3 1139.59   47.80
  -1   0  -3 1187.08   48.70
   1   0   3 1110.59   48.80
   2   0   3 1461.15   58.29
  -2   0  -3 1346.97   58.29
   2   0   3 1412.56   58.39
  -2   0  -3 1296.47   58.09
   2   0   3 1347.37   58.29
   3   0   3 2889.41  122.39
   3   0   3 2778.32  122.49
   3   0   3 3120.39  122.49
  -3   0  -3 3065.49  122.49
   3   0   3 3120.89  122.49
  -3   0  -3 3023.90  122.39
  -3   0  -3 2463.25  122.19
   4   0   3  292.97   15.20
   4   0   3  318.37   15.60
  -4   0  -3  275.57   15.20
  -4   0  -3  297.27   15.20
  -4   0  -3  275.17   15.40
   4   0   3  279.37   15.20
   4   0   3  325.17   15.90
  -5   0  -3  114.39    9.40
   5   0   3  110.99    9.60
   5   0   3  115.29    9.70
  -5   0  -3  113.69    9.00
   5   0   3  123.49    8.80
   5   0   3  102.89    9.90
  -6   0  -3  775.42   37.70
   6   0   3  844.62   37.90
  -6   0  -3  889.21   38.60
   6   0   3  708.43   37.60
   6   0   3  830.42   38.80
   7   0   3   60.09   14.40
   7   0   3   38.30    9.30
  -7   0  -3   50.59    9.70
  -7   0  -3   58.99   10.70
  -8   0  -3   13.30    7.70
  -8   0  -3    1.60    7.40
   8   0   3    4.70    7.50
 -10  -1   3   81.59   12.40
 -10  -1   3  108.19   14.30
 -10   1   3   86.39   12.40
 -10   1   3   84.89   13.20
 -10   1   3  122.49   13.70
  -9  -1   3  535.45   27.60
  -9  -1   3  506.15   27.70
  -9   1   3  502.65   26.90
  -9   1   3  560.84   28.30
  -9   1   3  565.04   27.80
  -8  -1   3  169.28   12.20
  -8  -1   3  152.98   11.40
  -8  -1   3  149.49   10.50
   8  -1  -3  159.78   10.50
  -8   1   3  172.48   11.80
  -8   1   3  131.89   10.60
  -8   1   3  179.38   12.30
  -8   1   3  160.68   11.50
  -8   1   3  157.98   11.50
   8   1  -3  156.98   11.40
   7  -1  -3  155.58    9.70
  -7  -1   3  150.28    9.60
  -7  -1   3  150.08   10.60
   7  -1  -3  167.68    9.80
  -7  -1   3  151.08   10.20
  -7  -1   3  168.18   11.00
  -7  -1   3  152.48   10.20
   7  -1  -3  159.88   10.80
   7  -1  -3  148.79   11.10
   7   1  -3  153.38    9.80
  -7   1   3  157.18    9.90
  -7   1   3  163.98   10.50
  -7   1   3  153.48   10.30
  -7   1   3  164.98   10.80
  -7   1   3  145.29    9.80
   7   1  -3  157.98   10.60
  -6  -1   3 4676.93  203.58
   6  -1  -3 5012.60  204.48
   6  -1  -3 4791.52  203.98
  -6  -1   3 5174.08  204.78
   6  -1  -3 4881.51  204.18
  -6  -1   3 4673.43  204.08
  -6  -1   3 5131.09  204.18
   6  -1  -3 4757.12  204.18
  -6  -1   3 5137.59  204.28
   6  -1  -3 4574.44  203.58
  -6   1   3 4666.63  204.28
   6   1  -3 4771.62  203.58
  -6   1   3 5015.30  203.58
  -6   1   3 4532.65  204.18
   6   1  -3 5316.67  204.18
  -6   1   3 5129.99  204.88
   6   1  -3 5090.79  204.28
  -6   1   3 5001.20  203.98
  -5  -1   3   42.80    4.80
  -5  -1   3   41.80    4.60
  -5  -1   3   43.70    3.90
  -5  -1   3   42.10    4.40
  -5  -1   3   34.80    4.10
   5  -1  -3   41.70    3.80
   5  -1  -3   44.70    4.80
   5  -1  -3   38.80    4.50
   5  -1  -3   49.30    4.60
   5  -1  -3   52.09    4.40
  -5   1   3   37.50    4.40
  -5   1   3   44.60    3.80
  -5   1   3   44.20    4.40
  -5   1   3   38.90    4.50
   5   1  -3   41.20    4.00
   5   1  -3   45.40    4.20
   5   1  -3   44.90    4.40
  -5   1   3   40.90    4.40
  -4  -1   3  141.59    7.80
   4  -1  -3  135.29    7.50
  -4  -1   3  128.89    7.40
   4  -1  -3  137.39    7.70
  -4  -1   3  155.78    7.50
   4  -1  -3  137.09    7.60
   4  -1  -3  143.29    7.80
  -4  -1   3  149.59    7.80
  -4  -1   3  140.79    7.10
   4   1  -3  148.19    7.20
  -4   1   3  142.89    7.70
  -4   1   3  130.79    7.70
   4   1  -3  143.89    7.30
  -4   1   3  141.19    6.90
   4   1  -3  124.39    7.20
  -4   1   3  144.39    7.70
  -4   1   3  147.69    7.90
  -3  -1   3  342.57   15.40
   3  -1  -3  341.77   16.00
  -3  -1   3  344.97   15.40
   3  -1  -3  358.06   15.80
   3  -1  -3  359.86   16.10
  -3  -1   3  344.37   16.00
   3  -1  -3  378.46   15.90
  -3  -1   3  339.17   15.50
   3   1  -3  367.06   15.40
  -3   1   3  326.57   15.90
   3   1  -3  352.46   15.40
  -3   1   3  363.86   15.90
  -3   1   3  340.87   16.00
   3   1  -3  372.46   15.40
  -3   1   3  364.66   15.00
  -2  -1   3 1979.90   84.09
   2  -1  -3 2042.90   84.79
   2  -1  -3 2087.69   84.49
  -2  -1   3 1937.11   84.19
   2  -1  -3 1966.60   84.59
  -2  -1   3 2120.49   84.79
   2  -1  -3 2092.09   84.89
  -2   1   3 2063.39   84.89
  -2   1   3 1929.51   84.79
  -2   1   3 1963.60   84.49
   2   1  -3 2059.39   83.89
  -2   1   3 2139.29   84.69
  -2   1   3 2066.39   84.69
   1  -1  -3  703.83   31.40
   1  -1  -3  790.02   31.40
  -1  -1   3  722.83   31.40
  -1  -1   3  743.43   30.60
  -1  -1   3  740.03   30.70
   1  -1  -3  734.53   30.70
   1  -1  -3  760.42   31.30
  -1  -1   3  720.03   31.20
   1   1  -3  743.53   30.60
  -1   1   3  761.02   31.40
  -1   1   3  729.53   30.70
  -1   1   3  697.53   31.30
   1   1  -3  747.03   30.60
  -1   1   3  703.43   31.50
  -1   1   3  742.13   31.30
  -1   1   3  763.62   31.30
   0  -1  -3   67.79    3.70
   0  -1  -3   64.29    3.70
   0  -1   3   65.59    3.50
   0  -1  -3   70.29    4.10
   0  -1   3   63.29    3.50
   0  -1   3   62.89    3.50
   0  -1   3   59.89    4.00
   0   1  -3   64.79    4.10
   0   1   3   63.49    3.60
   0   1   3   63.69    4.00
   0   1   3   62.79    4.10
   0   1  -3   65.09    3.50
   1  -1   3    4.80    1.70
   1  -1   3    2.50    1.30
   1  -1   3    4.70    0.80
  -1  -1  -3    2.70    1.40
   1  -1   3    2.80    1.40
  -1  -1  -3    2.70    1.50
  -1  -1  -3    5.10    1.60
  -1   1  -3    3.40    1.60
   1   1   3    3.20    1.50
   1   1   3    3.40    1.40
   1   1   3    4.10    1.60
   2  -1   3  189.98   10.10
   2  -1   3  186.08   10.10
  -2  -1  -3  200.58   10.40
   2  -1   3  196.58   10.00
  -2  -1  -3  180.18   10.10
   2  -1   3  195.08   10.10
   2   1   3  186.88   10.40
   2   1   3  202.98   10.20
   2   1   3  191.38   10.00
  -2   1  -3  196.68   10.00
  -2   1  -3  210.88   10.10
  -2   1  -3  212.08   10.30
   3  -1   3   15.30    3.20
  -3  -1  -3   13.90    3.20
  -3  -1  -3   16.00    3.30
  -3  -1  -3   17.10    4.00
   3  -1   3   11.80    2.90
   3  -1   3   13.90    2.70
   3  -1   3   14.70    3.30
   3   1   3   14.90    3.30
  -3   1  -3   19.60    3.80
  -3   1  -3   19.40    3.80
  -3   1  -3   16.80    3.80
   3   1   3   15.10    3.30
   3   1   3   15.50    3.20
  -4  -1  -3 1704.93   73.19
   4  -1   3 1735.23   73.39
   4  -1   3 1725.73   73.19
  -4  -1  -3 1594.84   73.49
  -4  -1  -3 1750.52   71.09
   4  -1   3 1846.42   73.49
   4  -1   3 1704.23   73.59
  -4  -1  -3 1594.14   73.29
   4   1   3 1693.03   73.29
  -4   1  -3 1633.84   73.19
  -4   1  -3 1689.93   73.19
   4   1   3 1721.63   73.79
   4   1   3 1897.21   73.29
   4   1   3 1760.42   73.49
  -4   1  -3 1610.04   73.29
  -5  -1  -3   18.70    2.60
   5  -1   3   24.00    5.30
   5  -1   3   17.90    4.80
  -5  -1  -3   18.60    4.80
  -5  -1  -3   18.30    4.80
  -5  -1  -3   14.70    5.30
   5  -1   3   16.90    4.30
   5   1   3   15.90    4.60
  -5   1  -3   13.40    4.10
  -5   1  -3   23.20    6.10
   5   1   3   22.30    5.30
   5   1   3   20.00    4.60
   5   1   3   13.30    5.20
   6  -1   3   58.29    8.00
  -6  -1  -3   52.39    8.90
   6  -1   3   49.20   10.50
  -6  -1  -3   53.79    3.90
  -6  -1  -3   64.09    8.80
   6  -1   3   70.89   10.30
  -6   1  -3   53.29    8.30
   6   1   3   51.29   11.40
   6   1   3   71.99    8.60
   6   1   3   55.19   10.30
  -6   1  -3   60.49    9.10
   7  -1   3   90.39   10.40
   7  -1   3   81.89   14.30
  -7  -1  -3   50.89   10.80
  -7  -1  -3   69.69   10.50
   7   1   3   50.59   10.10
   7   1   3   65.09   16.20
  -7   1  -3   60.69   10.10
  -7   1  -3   77.49   11.80
   8  -1   3  639.34   33.10
  -8  -1  -3  621.14   33.40
  -8  -1  -3  534.75   33.20
  -8   1  -3  677.23   34.60
   8   1   3  637.64   33.30
  -8   1  -3  685.93   33.80
 -10  -2   3    8.60    7.90
 -10  -2   3   30.10    8.00
 -10   2   3   32.30    9.00
 -10   2   3   21.20    7.80
 -10   2   3   13.50    8.20
   9  -2  -3  111.39   10.00
  -9  -2   3  109.69   11.40
   9  -2  -3   98.29   10.60
  -9  -2   3  101.89   11.60
  -9   2   3   93.99   11.50
  -9   2   3  112.59   11.80
  -9   2   3  117.29   12.60
  -8  -2   3   34.70    7.50
  -8  -2   3   50.19    8.30
   8  -2  -3   59.49    7.00
   8  -2  -3   49.50    7.10
  -8   2   3   43.20    8.20
   8   2  -3   67.79    7.70
  -8   2   3   56.29    8.50
  -8   2   3   40.40    8.60
  -8   2   3   72.49    8.70
  -7  -2   3  200.08   12.20
  -7  -2   3  182.98   12.00
  -7  -2   3  173.18   11.50
  -7  -2   3  192.38   12.90
   7  -2  -3  178.38   10.50
   7  -2  -3  174.68   10.80
   7  -2  -3  158.68   12.20
   7   2  -3  185.98   10.40
  -7   2   3  192.48   11.90
  -7   2   3  170.88   11.60
  -7   2   3  190.78   12.30
  -7   2   3  181.28   10.70
  -6  -2   3  178.98   11.20
   6  -2  -3  164.88   10.70
  -6  -2   3  169.08   10.10
   6  -2  -3  168.88    9.20
   6  -2  -3  176.98   10.90
  -6  -2   3  166.58    9.10
  -6  -2   3  172.48   10.40
   6  -2  -3  175.98   10.60
  -6  -2   3  163.58   10.30
   6  -2  -3  164.58    9.90
   6   2  -3  178.08   11.80
  -6   2   3  153.28   10.70
  -6   2   3  170.08   10.60
  -6   2   3  162.78    9.30
  -6   2   3  163.88   10.40
   6   2  -3  188.78   10.40
   6   2  -3  169.08    9.10
  -5  -2   3   36.80    3.40
   5  -2  -3   34.30    5.20
  -5  -2   3   37.10    4.40
   5  -2  -3   37.40    5.00
  -5  -2   3   29.80    5.10
   5  -2  -3   35.00    3.40
   5  -2  -3   37.30    5.20
   5  -2  -3   33.90    4.40
  -5  -2   3   33.00    4.30
  -5  -2   3   42.40    4.90
  -5   2   3   34.00    4.60
   5   2  -3   35.10    4.20
   5   2  -3   35.90    4.50
  -5   2   3   30.50    4.70
   5   2  -3   33.80    3.50
  -5   2   3   35.60    4.90
  -5   2   3   35.50    3.60
   4  -2  -3  102.89    6.50
  -4  -2   3   91.89    6.40
   4  -2  -3   99.19    6.70
  -4  -2   3   99.89    6.00
  -4  -2   3   92.49    6.20
   4  -2  -3  100.39    6.40
  -4  -2   3  103.89    5.20
   4  -2  -3  101.09    6.60
   4  -2  -3  103.39    5.20
  -4   2   3   95.29    6.60
   4   2  -3   99.89    5.20
   4   2  -3  106.39    6.00
  -4   2   3  102.59    6.60
  -4   2   3  103.09    6.50
   4   2  -3   99.19    6.00
  -4   2   3  100.89    5.20
   3  -2  -3  901.01   36.20
   3  -2  -3  913.91   36.20
   3  -2  -3  836.82   36.00
   3  -2  -3  855.01   36.10
  -3  -2   3  845.62   34.80
  -3  -2   3  774.42   35.40
   3  -2  -3  831.72   34.70
  -3  -2   3  768.62   35.50
  -3  -2   3  833.22   36.00
   3   2  -3  891.91   35.50
  -3   2   3  782.22   36.00
  -3   2   3  856.41   36.30
   3   2  -3  814.12   35.40
  -3   2   3  838.82   36.10
  -3   2   3  752.62   36.00
   3   2  -3  844.62   35.40
   2  -2  -3 1222.78   50.39
   2  -2  -3 1276.27   50.39
  -2  -2   3 1199.58   49.10
   2  -2  -3 1164.48   50.29
   2  -2  -3 1251.97   50.49
  -2  -2   3 1136.59   49.80
  -2   2   3 1132.59   50.49
  -2   2   3 1170.28   50.29
   2   2  -3 1220.78   49.60
  -2   2   3 1161.68   50.39
  -2   2   3 1120.99   50.39
   2   2  -3 1109.49   49.60
   2   2  -3 1192.18   49.60
   2   2  -3 1259.87   49.70
   1  -2  -3 5066.89  192.78
   1  -2  -3 4919.01  192.58
  -1   2   3 4604.04  192.48
  -1   2   3 4465.75  192.58
  -1   2   3 5037.90  192.58
  -1   2   3 4399.56  192.58
   1   2  -3 4152.18  191.68
  -1   2   3 4545.35  192.48
   0  -2   3  365.66   16.20
   0  -2  -3  359.76   16.80
   0  -2   3  361.96   16.30
   0  -2   3  369.16   16.80
   0  -2  -3  371.06   16.10
   0  -2  -3  342.27   16.70
   0  -2   3  384.16   16.20
   0   2   3  385.46   16.90
   0   2  -3  352.76   16.10
   0   2  -3  361.86   16.20
   0   2   3  318.37   16.80
   0   2   3  388.46   17.00
   0   2  -3  407.56   16.30
   1  -2   3 1178.28   50.39
  -1  -2  -3 1262.27   50.49
   1  -2   3 1130.19   50.59
   1  -2   3 1201.98   50.99
  -1  -2  -3 1183.18   50.99
   1  -2   3 1274.77   50.49
  -1  -2  -3 1146.19   51.09
   1   2   3 1161.88   51.19
   1   2   3 1112.69   51.09
  -1   2  -3 1194.48   50.89
  -1   2  -3 1120.49   50.39
   1   2   3 1338.87   51.19
  -2  -2  -3   11.60    2.90
   2  -2   3    8.60    2.50
  -2  -2  -3    7.10    2.20
   2  -2   3   14.30    3.20
   2  -2   3    9.00    2.50
  -2  -2  -3    6.50    2.60
   2  -2   3    9.30    2.60
  -2   2  -3    8.20    2.40
  -2   2  -3    7.90    2.30
   2   2   3    5.00    2.30
   2   2   3    6.00    2.20
  -2   2  -3   10.10    2.60
   2   2   3    4.00    2.30
   3  -2   3 1898.11   78.99
  -3  -2  -3 1936.21   81.19
  -3  -2  -3 2040.70   81.69
   3  -2   3 2017.20   81.09
   3  -2   3 1891.71   81.09
   3  -2   3 1934.11   81.39
   3  -2   3 1834.12   81.29
  -3  -2  -3 2044.50   81.99
   3   2   3 1839.42   81.39
  -3   2  -3 1961.40   81.39
   3   2   3 1810.92   81.09
  -3   2  -3 1675.83   80.79
   3   2   3 1960.90   81.99
  -3   2  -3 1949.60   81.39
  -4  -2  -3 1807.02   76.19
   4  -2   3 1956.40   75.79
  -4  -2  -3 1740.23   75.39
   4  -2   3 1649.23   75.49
   4  -2   3 1724.03   75.19
  -4  -2  -3 1662.93   75.49
   4  -2   3 1764.82   75.49
   4   2   3 1639.54   75.89
   4   2   3 1901.21   76.09
  -4   2  -3 1762.72   75.49
  -4   2  -3 1789.82   75.39
  -4   2  -3 1783.42   75.69
   4   2   3 1683.23   75.39
  -5  -2  -3   18.80    5.10
   5  -2   3    7.90    4.60
   5  -2   3   18.50    5.60
   5  -2   3   20.10    4.60
   5  -2   3   10.70    5.00
  -5  -2  -3   16.80    4.80
   5   2   3   17.60    6.20
   5   2   3   13.00    5.70
   5   2   3   20.20    4.70
   5   2   3   15.40    4.90
  -5   2  -3   24.50    5.20
  -5   2  -3   16.30    4.50
   6  -2   3   57.29   11.00
  -6  -2  -3   55.99    5.70
   6  -2   3   47.10   10.70
  -6  -2  -3   69.79   10.20
   6  -2   3   54.19    8.20
  -6  -2  -3   59.99    9.30
   6   2   3   53.59    8.60
   6   2   3   62.59   10.00
  -6   2  -3   53.79    8.70
  -6   2  -3   60.09    9.00
   7  -2   3  191.38   22.80
   7  -2   3  168.78   13.90
  -7  -2  -3  189.68   15.10
  -7  -2  -3  212.48   16.50
  -7   2  -3  169.58   15.50
  -7   2  -3  173.28   14.60
  -8  -2  -3  240.08   19.20
  -8  -2  -3  244.58   20.50
   8  -2   3  237.98   17.90
  -8   2  -3  230.48   18.70
  -8   2  -3  230.68   20.30
  10  -3  -3   93.19   12.70
  10  -3  -3   88.29   11.60
 -10  -3   3   54.39   14.20
 -10  -3   3   78.39   14.60
 -10   3   3   83.69   16.00
 -10   3   3   79.99   14.00
 -10   3   3   64.59   14.20
   9  -3  -3  404.96   22.40
  -9  -3   3  420.56   24.00
  -9  -3   3  440.76   24.90
   9  -3  -3  439.66   22.40
  -9   3   3  431.06   24.50
  -9   3   3  448.06   25.90
  -9   3   3  461.15   24.90
   8  -3  -3  160.08   11.40
  -8  -3   3  164.08   12.60
   8  -3  -3  165.18   11.10
  -8  -3   3  157.98   12.90
  -8   3   3  187.28   13.80
  -8   3   3  161.38   12.60
   8   3  -3  169.98   10.80
  -8   3   3  147.59   12.10
  -8   3   3  161.28   13.10
  -7  -3   3  101.89    8.80
   7  -3  -3   89.69    8.00
  -7  -3   3   79.29    9.00
   7  -3  -3   88.69    7.40
   7   3  -3   95.69    7.00
  -7   3   3  118.69   10.30
  -7   3   3   92.89    9.50
  -7   3   3   95.39    7.90
  -7   3   3   90.29    9.10
   6  -3  -3 3288.57  135.79
  -6  -3   3 3431.96  137.69
  -6  -3   3 3311.47  137.09
  -6  -3   3 3320.67  136.99
   6  -3  -3 3319.77  137.59
   6  -3  -3 3248.27  136.59
  -6  -3   3 3107.69  137.19
  -6   3   3 3043.30  137.19
  -6   3   3 3337.57  135.79
  -6   3   3 3392.16  137.59
   6   3  -3 3241.18  135.19
  -6   3   3 3193.98  137.79
   6   3  -3 3130.39  136.79
   6   3  -3 3234.28  136.79
  -5  -3   3   38.90    5.10
   5  -3  -3   45.50    6.00
   5  -3  -3   40.50    6.30
  -5  -3   3   42.40    5.10
  -5  -3   3   48.80    5.90
   5  -3  -3   40.90    5.00
   5  -3  -3   38.70    6.00
   5  -3  -3   41.30    3.80
  -5   3   3   38.10    3.90
   5   3  -3   41.10    3.20
   5   3  -3   29.10    5.20
  -5   3   3   33.40    5.30
  -5   3   3   40.00    5.80
   5   3  -3   45.60    5.20
  -5   3   3   33.50    5.30
   4  -3  -3  183.58   11.00
   4  -3  -3  207.08    9.50
  -4  -3   3  200.28   10.80
  -4  -3   3  186.48   10.40
   4  -3  -3  209.38   11.20
   4  -3  -3  203.28   10.80
   4  -3  -3  200.28   11.40
   4   3  -3  203.48   10.60
  -4   3   3  207.58   11.50
   4   3  -3  212.18   10.60
   4   3  -3  197.98   10.50
  -4   3   3  186.38   11.00
  -4   3   3  208.78   11.10
  -4   3   3  195.78   11.40
  -3  -3   3  290.97   13.50
   3  -3  -3  272.67   14.00
  -3  -3   3  264.87   13.60
   3  -3  -3  290.47   14.30
   3  -3  -3  265.77   13.80
   3  -3  -3  304.17   12.60
   3  -3  -3  297.97   14.10
  -3   3   3  288.17   14.10
   3   3  -3  279.57   13.40
   3   3  -3  269.57   13.40
  -3   3   3  316.87   14.60
  -3   3   3  273.97   14.00
   3   3  -3  269.07   13.40
  -3   3   3  276.57   14.30
   2  -3  -3 1051.19   43.70
  -2  -3   3 1017.40   42.90
   2  -3  -3  966.60   41.90
   2  -3  -3 1002.90   43.10
   2  -3  -3 1054.39   43.50
  -2  -3   3 1039.00   42.90
  -2   3   3  897.61   43.40
  -2   3   3  967.60   43.40
  -2   3   3  942.31   43.10
   2   3  -3 1058.59   42.80
   2   3  -3 1025.30   42.70
  -2   3   3 1049.89   43.70
   2   3  -3  973.60   42.60
   2   3  -3  982.70   42.70
  -1  -3   3  435.96   19.20
  -1  -3   3  443.66   18.00
   1  -3  -3  412.86   19.80
  -1  -3   3  454.15   19.20
   1   3  -3  450.55   19.10
   1   3  -3  432.06   19.00
  -1   3   3  415.56   19.80
  -1   3   3  437.06   19.60
  -1   3   3  427.96   19.30
  -1   3   3  362.96   19.30
   1   3  -3  387.66   18.80
   1   3  -3  410.16   18.80
  -1   3   3  440.46   20.00
   0  -3  -3  125.19    6.80
   0  -3   3  126.89    6.40
   0  -3  -3  134.89    7.90
   0  -3   3  122.09    7.00
   0  -3   3  114.29    7.10
   0  -3   3  144.89    7.80
   0  -3  -3  108.39    7.50
   0   3   3  130.29    8.00
   0   3   3  125.89    8.00
   0   3  -3  122.29    7.00
   0   3   3  127.29    7.20
   0   3   3  122.69    7.50
   0   3  -3  131.39    7.10
   0   3  -3  126.49    7.60
   0   3   3  136.99    8.00
   1  -3   3    1.00    1.80
  -1  -3  -3    2.50    2.30
   1  -3   3    9.20    2.70
  -1  -3  -3   14.60    3.30
   1  -3   3    1.80    2.10
   1  -3   3    2.60    2.10
  -1  -3  -3    0.90    2.30
  -1   3  -3   -0.60    1.70
   1   3   3    1.90    2.30
   1   3   3    3.40    2.60
  -1   3  -3    3.10    1.80
  -1   3  -3    1.10    1.80
   1   3   3    1.00    2.20
  -2  -3  -3  229.18   12.50
   2  -3   3  235.78   12.40
  -2  -3  -3  230.58   12.10
   2  -3   3  236.08   12.40
   2  -3   3  238.78   11.90
   2  -3   3  250.27   12.20
  -2  -3  -3  224.08   12.70
   2   3   3  202.68   12.30
   2   3   3  248.88   13.10
  -2   3  -3  220.88   12.00
   2   3   3  213.48   12.70
  -2   3  -3  229.48   12.40
  -2   3  -3  225.48   11.90
   3  -3   3   59.49    6.60
   3  -3   3   59.39    6.40
  -3  -3  -3   45.80    6.30
  -3  -3  -3   60.69    6.60
   3  -3   3   59.19    6.20
   3  -3   3   56.59    6.10
  -3  -3  -3   53.39    6.60
   3   3   3   54.29    6.80
  -3   3  -3   57.59    5.80
  -3   3  -3   46.70    5.90
   3   3   3   64.69    7.40
   3   3   3   62.19    6.70
  -3   3  -3   50.99    6.10
  -4  -3  -3 1461.85   60.19
  -4  -3  -3 1270.87   59.99
   4  -3   3 1348.47   59.29
  -4  -3  -3 1314.47   59.39
   4  -3   3 1354.86   59.99
   4  -3   3 1375.46   59.59
   4  -3   3 1355.36   56.79
   4  -3   3 1356.86   59.59
  -4   3  -3 1366.56   59.49
   4   3   3 1345.47   60.49
  -4   3  -3 1404.06   59.89
   4   3   3 1391.66   60.09
  -5  -3  -3   14.10    5.60
   5  -3   3    5.50    5.10
  -5  -3  -3   16.40    5.50
   5  -3   3   12.60    6.10
   5  -3   3   11.30    4.70
  -5   3  -3   30.50    7.30
  -5   3  -3   18.20    5.30
   5   3   3   10.00    5.90
   5   3   3   13.60    6.80
   6  -3   3   36.20    7.00
  -6  -3  -3   38.70   10.30
   6  -3   3   53.09   12.80
  -6  -3  -3   44.60    9.30
  -6  -3  -3   49.90    7.00
  -6   3  -3   34.30    8.70
  -6   3  -3   30.20    6.70
   6   3   3   44.60    9.80
   7  -3   3   78.79   11.40
  -7  -3  -3   94.99   12.90
  -7  -3  -3   55.39   13.20
  -7   3  -3   77.29   11.70
  -7   3  -3   77.39   13.00
  -8  -3  -3  547.55   32.60
  -8  -3  -3  544.55   31.10
   8  -3   3  530.15   29.60
  -8   3  -3  524.95   30.90
   9  -4  -3    1.20    5.90
  -9  -4   3   22.30    7.90
  -9  -4   3   13.80    7.70
   9  -4  -3   16.00    6.20
  -9   4   3   12.80    8.50
  -9   4   3   -6.70    6.90
  -9   4   3   26.10    8.30
   8  -4  -3  136.49   10.50
  -8  -4   3  133.09   12.10
  -8  -4   3  116.79   12.70
   8  -4  -3  130.59   11.00
  -8   4   3  130.09   13.30
  -8   4   3  164.98   14.60
  -8   4   3  147.79   13.00
  -7  -4   3   65.09    9.10
   7  -4  -3   68.39    7.20
  -7  -4   3   76.49    8.50
   7  -4  -3   76.09    8.20
  -7   4   3   63.29    8.20
  -7   4   3   95.19   10.40
  -7   4   3   58.69    9.10
   7   4  -3   66.69    5.90
   7   4  -3   81.09    9.80
  -7   4   3   71.99    9.40
   6  -4  -3  118.69    9.10
  -6  -4   3   99.39    9.00
  -6  -4   3  121.99    9.70
   6  -4  -3  121.29    7.60
   6   4  -3  111.69    6.00
  -6   4   3  108.99   10.30
  -6   4   3  112.19    9.90
   6   4  -3  105.49    9.20
  -6   4   3  121.99   11.20
  -6   4   3  125.19    9.80
   5  -4  -3  259.77   14.80
   5  -4  -3  267.47   14.00
  -5  -4   3  282.27   14.60
   5  -4  -3  256.87   12.60
  -5  -4   3  274.97   14.10
   5  -4  -3  225.88   14.90
  -5   4   3  258.97   15.40
  -5   4   3  273.57   15.30
   5   4  -3  242.78   14.00
  -5   4   3  261.37   14.60
  -5   4   3  241.08   14.50
   5   4  -3  263.87   14.30
   4  -4  -3 1120.09   48.50
   4  -4  -3 1125.09   47.00
   4  -4  -3 1037.80   49.00
   4  -4  -3 1171.38   49.00
  -4  -4   3 1084.29   48.50
  -4  -4   3 1089.99   48.20
   4  -4  -3 1126.19   48.40
  -4   4   3 1191.68   49.60
  -4   4   3 1115.59   48.60
   4   4  -3 1054.29   48.40
  -4   4   3 1086.99   48.90
  -4   4   3 1044.80   49.00
   4   4  -3 1159.68   48.20
   3  -4  -3   42.70    6.20
   3  -4  -3   45.00    3.70
   3  -4  -3   45.60    5.20
   3  -4  -3   37.10    5.60
  -3  -4   3   49.80    5.20
   3  -4  -3   47.70    5.50
   3   4  -3   42.00    5.10
  -3   4   3   47.30    5.40
   3   4  -3   44.60    4.90
   3   4  -3   43.60    5.00
  -3   4   3   48.10    6.10
  -3   4   3   40.20    5.40
  -3   4   3   43.90    5.80
   3   4  -3   42.80    5.30
  -2  -4   3   36.50    4.40
  -2  -4   3   27.40    4.50
   2  -4  -3   42.00    5.50
   2  -4  -3   30.20    4.90
   2  -4  -3   30.60    3.20
  -2   4   3   29.40    4.50
  -2   4   3   22.50    4.90
   2   4  -3   32.20    4.30
   2   4  -3   32.30    4.60
  -2   4   3   28.60    4.70
   2   4  -3   36.10    4.20
   2   4  -3   36.30    4.50
  -2   4   3   30.90    5.70
  -2   4   3   35.70    5.40
  -1  -4   3 4059.49  177.58
  -1  -4   3 4127.99  177.48
   1  -4  -3 4649.94  178.58
  -1  -4   3 4118.69  175.68
   1  -4  -3 4216.98  178.18
  -1   4   3 4274.47  178.28
  -1   4   3 3981.10  177.28
  -1   4   3 4460.25  178.28
   1   4  -3 4084.89  177.18
  -1   4   3 4214.68  178.28
   1   4  -3 4495.95  177.48
   1   4  -3 4502.25  177.38
   0  -4   3  256.37   12.90
   0  -4  -3  257.57   13.60
   0  -4   3  220.78   12.40
   0  -4   3  236.18   12.90
   0  -4  -3  251.07   13.70
   0  -4   3  242.68   11.30
   0   4   3  260.37   13.40
   0   4  -3  239.48   12.40
   0   4  -3  249.68   12.50
   0   4   3  231.78   12.20
   0   4   3  228.28   13.20
   0   4  -3  257.17   12.60
   0   4   3  244.28   13.60
   0   4   3  231.08   13.50
   1  -4   3  235.08   12.80
  -1  -4  -3  251.07   12.60
  -1  -4  -3  222.08   13.40
  -1  -4  -3  228.08   13.30
   1  -4   3  235.78   13.00
   1  -4   3  228.88   12.90
   1   4   3  237.88   13.70
  -1   4  -3  254.87   12.80
   1   4   3  241.98   13.80
  -1   4  -3  239.68   12.60
   1   4   3  247.18   12.30
   1   4   3  275.37   13.80
  -1   4  -3  231.58   12.80
  -2  -4  -3  793.02   33.70
   2  -4   3  760.32   32.60
  -2  -4  -3  734.13   32.40
   2  -4   3  683.03   32.70
   2  -4   3  757.12   31.90
  -2  -4  -3  644.04   32.70
   2  -4   3  709.63   32.70
  -2   4  -3  674.13   32.50
   2   4   3  718.93   33.20
  -2   4  -3  740.43   32.40
   2   4   3  732.23   33.50
   2   4   3  650.33   33.20
  -2   4  -3  720.13   32.60
   3  -4   3 1961.10   78.09
   3  -4   3 1773.92   77.99
   3  -4   3 1834.02   78.39
  -3  -4  -3 1755.72   78.39
  -3  -4  -3 1865.71   77.99
  -3  -4  -3 1840.52   78.89
   3  -4   3 1821.62   77.29
  -3   4  -3 1777.72   78.09
   3   4   3 1808.72   78.99
  -3   4  -3 1877.51   77.99
   3   4   3 1739.73   78.39
   3   4   3 1861.81   78.89
  -3   4  -3 1666.63   77.99
   4  -4   3  158.08   11.80
  -4  -4  -3  178.78   12.10
   4  -4   3  154.48   11.50
  -4  -4  -3  177.48   12.80
   4  -4   3  164.08    8.70
   4  -4   3  169.88   13.10
   4  -4   3  153.48   12.40
  -4   4  -3  178.38   11.80
  -4   4  -3  175.18   11.80
   4   4   3  163.38   14.10
   4   4   3  160.68   12.40
   4   4   3  137.49   12.80
  -5  -4  -3   87.89   10.00
   5  -4   3   91.89   12.70
   5  -4   3  106.29   10.60
   5  -4   3  117.49    6.50
   5  -4   3  112.29   13.60
  -5  -4  -3  117.79   12.10
  -5   4  -3  118.89   11.20
  -5   4  -3  128.29   10.80
   5   4   3  104.99   14.30
   5   4   3  129.29   12.10
  -6  -4  -3  519.15   28.30
   6  -4   3  469.75   26.30
  -6  -4  -3  544.85   27.60
  -6   4  -3  525.35   27.10
  -6   4  -3  468.75   27.20
   6   4   3  502.05   28.00
  -7  -4  -3   55.59   15.10
  -7  -4  -3   40.90    9.70
   7  -4   3   26.60    7.70
  -7   4  -3   43.90    9.50
   7   4   3   43.70   10.00
  -8  -5   3   30.60    7.80
   8  -5  -3   38.00    6.60
   8  -5  -3   33.40    7.20
  -8  -5   3   41.80    8.80
  -8   5   3   28.50    8.30
  -8   5   3   35.40    8.20
  -8   5   3   48.00   10.20
   7  -5  -3   59.09    9.00
  -7  -5   3   71.99    9.70
  -7  -5   3   52.39   10.10
   7  -5  -3   79.39    7.90
  -7   5   3   81.79   10.90
  -7   5   3   61.59   11.50
  -7   5   3   57.69   10.90
  -6  -5   3 2543.75  105.29
  -6  -5   3 2315.27  105.49
   6  -5  -3 2475.15  104.89
   6  -5  -3 2429.36  103.39
  -6   5   3 2654.43  106.99
   6   5  -3 2512.15  105.29
  -6   5   3 2440.56  105.49
  -6   5   3 2566.04  106.09
  -6   5   3 2199.58  106.09
   5  -5  -3   23.90    5.10
   5  -5  -3   31.00    5.00
  -5  -5   3   28.00    6.70
  -5  -5   3   28.10    6.60
  -5   5   3   25.50    5.70
  -5   5   3   29.20    5.40
   5   5  -3   21.40    4.90
  -5   5   3   32.90    7.90
  -5   5   3   22.80    6.40
   4  -5  -3   42.10    6.40
   4  -5  -3   38.70    4.80
  -4  -5   3   41.90    6.60
   4  -5  -3   44.20    9.30
   4  -5  -3   54.59    7.70
   4   5  -3   50.79    6.40
   4   5  -3   44.80    6.30
  -4   5   3   43.30    6.60
  -4   5   3   34.80    8.10
  -4   5   3   62.69    8.20
  -4   5   3   53.19    7.50
   3  -5  -3  106.29   10.40
  -3  -5   3  132.89    9.10
   3  -5  -3  133.39    9.40
   3  -5  -3  112.79   10.10
   3  -5  -3  119.29    7.30
   3   5  -3  112.89    9.00
  -3   5   3  126.09    8.90
   3   5  -3  117.49    8.50
  -3   5   3  129.79    9.60
   3   5  -3  112.09    8.40
  -3   5   3  117.79   10.70
  -3   5   3  120.79   10.10
  -3   5   3  117.39    9.80
   2  -5  -3  844.72   38.80
   2  -5  -3  834.12   36.50
  -2  -5   3  803.02   37.80
  -2  -5   3  816.42   38.00
  -2   5   3  900.31   38.70
   2   5  -3  790.02   37.50
  -2   5   3  795.42   38.60
   2   5  -3  905.81   37.90
  -2   5   3  805.72   38.70
   2   5  -3  891.21   37.70
  -2   5   3  885.61   38.60
  -2   5   3  849.52   37.60
  -1  -5   3  256.47   14.60
   1  -5  -3  270.37   15.20
   1  -5  -3  247.78   15.80
  -1   5   3  261.77   15.40
  -1   5   3  287.27   16.00
  -1   5   3  265.27   14.00
   1   5  -3  267.87   14.30
  -1   5   3  271.67   15.70
   1   5  -3  263.37   14.40
   1   5  -3  285.17   14.20
  -1   5   3  281.87   15.20
   0  -5   3  102.29    8.00
   0  -5  -3   88.59    9.60
   0  -5   3   90.09    7.80
   0  -5  -3   98.79    8.80
   0  -5   3   93.49    5.70
   0   5   3  105.19    8.90
   0   5   3   90.99    9.10
   0   5   3   79.59    8.10
   0   5   3   89.89    8.50
   0   5  -3  101.99    8.10
   0   5  -3  100.39    7.60
   0   5  -3   78.39    7.40
   0   5   3   95.29    7.20
  -1  -5  -3    4.30    3.60
  -1  -5  -3   10.20    3.60
   1  -5   3    8.60    3.90
   1  -5   3   11.90    2.90
   1  -5   3   14.90    4.30
   1  -5   3   14.50    4.10
   1   5   3   10.10    4.20
   1   5   3   11.20    4.20
   1   5   3   16.80    5.60
   1   5   3    3.40    2.90
  -1   5  -3    8.20    3.60
  -1   5  -3    8.20    3.40
   1   5   3   15.30    4.60
  -2  -5  -3  117.19   10.10
  -2  -5  -3  120.99   10.60
   2  -5   3  122.69   10.40
   2  -5   3  144.59   10.70
   2  -5   3  121.79    9.80
  -2  -5  -3  135.49   10.70
   2  -5   3  123.99    8.70
   2   5   3  132.19    8.50
   2   5   3  130.29   10.90
   2   5   3  109.99   11.40
  -2   5  -3  122.09    9.70
   2   5   3  138.59   11.70
  -3  -5  -3   30.40    7.80
  -3  -5  -3   52.69    8.70
   3  -5   3   29.60    6.20
   3  -5   3   35.70    9.30
   3  -5   3   41.30    7.80
   3  -5   3   51.69    7.60
  -3   5  -3   47.10    7.60
   3   5   3   39.50   10.60
   3   5   3   29.50    6.40
  -3   5  -3   32.30    7.30
   4  -5   3  807.92   37.60
   4  -5   3  763.62   33.60
  -4  -5  -3  818.32   37.50
   4  -5   3  740.53   36.00
  -4  -5  -3  807.92   36.90
   4  -5   3  687.43   36.40
  -4   5  -3  711.03   36.30
  -4   5  -3  748.33   36.10
   4   5   3  830.32   37.60
   4   5   3  702.53   37.80
   5  -5   3   49.30    9.40
   5  -5   3   42.40    5.60
  -5  -5  -3   43.50    9.00
  -5  -5  -3   45.60   10.60
  -5   5  -3   43.10   10.00
  -5   5  -3   41.70   10.20
   5   5   3   43.60   11.40
   6  -5   3   18.00    7.30
  -6  -5  -3   19.60    8.20
  -6  -5  -3   19.80    8.40
   6   5   3   11.70    8.50
  -6   5  -3    9.60    7.30
   7  -5   3    8.50    8.10
  -7  -5  -3   24.70   10.10
  -7   5  -3   30.50   10.40
  -7  -6   3  143.19   14.40
  -7  -6   3  136.39   14.50
   7  -6  -3  144.19   13.40
   7  -6  -3  126.39   10.70
  -7   6   3  138.29   16.40
  -7   6   3  145.79   15.70
  -7   6   3  141.49   14.90
  -6  -6   3   66.19   10.90
  -6  -6   3   75.99   10.10
   6  -6  -3   58.29    7.60
   6  -6  -3   70.09    9.50
  -6   6   3   56.59   10.40
  -6   6   3   64.89   11.20
   6   6  -3   54.19   10.20
  -6   6   3   71.59   12.00
  -5  -6   3   99.19   10.80
   5  -6  -3   95.79   10.00
   5  -6  -3  106.59    8.30
   5   6  -3  121.79   10.50
  -5   6   3  126.69   14.80
   5   6  -3  120.19   10.70
  -5   6   3  100.29   12.50
  -5   6   3   66.79    9.90
  -5   6   3   95.49   11.10
   4  -6  -3   46.20    8.10
  -4  -6   3   45.90    8.50
   4  -6  -3   43.20    6.00
  -4   6   3   34.10    7.80
   4   6  -3   52.19    8.30
   4   6  -3   51.69    8.00
  -4   6   3   48.30    9.80
  -4   6   3   40.10    8.50
  -4   6   3   52.19    8.20
   3  -6  -3  199.38   11.50
  -3  -6   3  200.18   13.40
   3   6  -3  198.88   12.90
  -3   6   3  198.98   15.30
  -3   6   3  222.38   14.20
   3   6  -3  211.78   13.40
  -3   6   3  214.68   14.80
  -3   6   3  198.78   12.90
  -2  -6   3  399.16   21.00
   2  -6  -3  374.46   22.40
  -2  -6   3  402.46   21.50
   2  -6  -3  393.86   19.10
  -2   6   3  410.76   20.20
  -2   6   3  371.76   21.80
  -2   6   3  441.26   21.70
   2   6  -3  392.36   20.60
  -2   6   3  394.76   22.50
   2   6  -3  395.46   20.60
  -1  -6   3 1390.86   57.99
  -1  -6   3 1264.67   57.69
   1  -6  -3 1263.17   58.39
   1  -6  -3 1203.98   58.69
  -1   6   3 1497.15   59.39
  -1   6   3 1297.87   56.49
   1   6  -3 1364.06   57.29
  -1   6   3 1307.67   58.89
  -1   6   3 1189.98   57.79
   1   6  -3 1225.98   57.09
   0  -6   3   90.79    5.90
   0  -6   3   78.59    8.80
   0  -6   3   79.59    9.40
   0  -6  -3   95.79   10.30
   0   6   3   73.19   11.50
   0   6  -3   87.69    8.60
   0   6  -3   78.69    8.80
   0   6   3   82.39    7.60
   0   6   3   92.89    9.90
   0   6   3   76.09    9.50
   1  -6   3  357.36   17.40
   1  -6   3  374.66   20.60
  -1  -6  -3  373.26   19.30
  -1  -6  -3  362.86   20.90
   1  -6   3  358.56   19.60
   1  -6   3  360.56   20.50
   1   6   3  371.06   20.40
  -1   6  -3  355.36   19.60
  -1   6  -3  370.26   20.00
   1   6   3  355.96   18.20
   1   6   3  394.96   21.10
   1   6   3  328.47   21.30
   2  -6   3    9.40    6.50
  -2  -6  -3   10.40    6.20
   2  -6   3    0.20    4.60
   2  -6   3    9.60    6.20
   2  -6   3    0.60    4.40
   2   6   3    5.30    3.60
   2   6   3    2.60    4.80
   2   6   3    3.50    5.20
  -2   6  -3    6.20    5.10
  -2   6  -3    4.70    4.60
   2   6   3    0.70    6.70
  -3  -6  -3  515.25   27.80
   3  -6   3  461.45   27.60
  -3  -6  -3  549.95   27.70
   3  -6   3  477.05   25.40
   3  -6   3  525.85   26.60
  -3   6  -3  493.25   26.50
   3   6   3  526.55   27.30
   3   6   3  516.45   24.50
  -3   6  -3  518.75   26.90
   3   6   3  567.54   28.30
   4  -6   3  571.44   29.60
  -4  -6  -3  617.24   31.60
  -4  -6  -3  548.05   30.60
   4   6   3  577.94   31.20
   4   6   3  599.54   27.50
  -4   6  -3  509.45   29.60
  -4   6  -3  638.84   30.20
  -5  -6  -3   33.10    9.30
   5  -6   3   29.20    8.20
  -5  -6  -3   15.80    7.90
  -5   6  -3   20.30    7.90
   5   6   3   32.90    8.90
   5   6   3   46.60    9.10
   6  -6   3   20.30    8.90
  -6  -6  -3   25.80    9.40
  -6   6  -3   22.20    9.90
   6  -7  -3  916.01   43.70
  -6  -7   3  944.91   45.40
  -6   7   3  874.01   45.60
  -6   7   3  942.01   46.80
  -6   7   3  957.50   44.90
   5  -7  -3   26.10    5.70
   5  -7  -3   38.00    7.30
  -5  -7   3   20.60    7.80
  -5   7   3   20.90    8.00
  -5   7   3   25.30    7.40
  -5   7   3   30.60    8.70
   5   7  -3   29.40    7.60
  -4  -7   3   64.39   10.80
   4  -7  -3   66.89   10.40
   4  -7  -3   59.29    8.10
  -4   7   3   57.19   12.90
  -4   7   3   66.99   11.20
  -4   7   3   53.79    9.90
   4   7  -3   62.39   11.10
   3  -7  -3   80.09    8.50
  -3  -7   3   82.09   11.00
  -3   7   3   92.39    9.80
   3   7  -3   57.09   10.30
  -3   7   3   67.19   11.10
  -3   7   3   99.59   13.10
   2  -7  -3  264.37   14.30
  -2  -7   3  242.08   16.60
   2   7  -3  243.38   16.10
  -2   7   3  266.87   18.60
  -2   7   3  237.78   17.00
  -2   7   3  250.77   15.30
  -1  -7   3  109.59   11.80
   1  -7  -3  105.39    9.70
  -1   7   3  114.09   10.00
   1   7  -3   94.69   11.20
   1   7  -3  110.29   10.60
  -1   7   3   86.69   11.40
  -1   7   3  103.89   13.20
   0  -7  -3  101.89   13.10
   0  -7   3   94.99   11.10
   0   7   3  125.69   11.60
   0   7   3  105.49    9.50
   0   7  -3   97.79   10.90
   0   7  -3   78.79   10.70
   0   7   3  102.29   12.90
  -1  -7  -3    7.00    6.70
   1  -7   3    2.60    6.00
  -1   7  -3    4.50    5.90
  -1   7  -3    0.10    4.60
   1   7   3   10.00    6.90
   1   7   3    0.10    4.10
   1   7   3    3.00    6.50
   2  -7   3  105.09   12.30
  -2  -7  -3  118.89   14.70
  -2   7  -3  129.49   13.20
   2   7   3  134.49   13.50
   2   7   3   93.69   13.50
   2   7   3  116.49   10.00
   3  -7   3   57.09   12.20
  -3  -7  -3   55.59   14.30
   3   7   3   64.29    8.90
  -3   7  -3   54.89   11.60
   3   7   3   50.19   12.20
   3   7   3   56.39   13.40
   4  -7   3  490.55   27.90
  -4  -7  -3  529.25   30.60
   4   7   3  457.45   25.30
   4   7   3  513.15   29.80
  -4   7  -3  507.75   29.00
   4   7   3  501.35   29.10
   4  -8  -3  301.27   19.90
  -4  -8   3  278.27   20.80
  -4   8   3  254.07   23.10
  -4   8   3  281.17   21.70
  -4   8   3  312.37   19.80
   3  -8  -3   53.89   10.40
  -3  -8   3   36.70    9.00
  -3   8   3   15.30    8.90
  -3   8   3   38.40   10.80
  -3   8   3   42.10    7.90
   2  -8  -3   24.30    6.70
  -2  -8   3   26.90    9.00
  -2   8   3   56.99   15.20
   2   8  -3   18.70    7.90
  -2   8   3   28.40    9.20
  -2   8   3   47.40   10.40
   1  -8  -3 1287.27   58.09
  -1  -8   3 1265.77   60.19
  -1   8   3 1293.77   57.89
  -1   8   3 1336.77   60.99
   1   8  -3 1305.57   59.79
  -1   8   3 1358.36   61.99
   0  -8  -3   60.09   15.60
   0  -8   3   50.59    9.40
   0   8   3   86.29   15.70
   0   8   3   66.39   14.80
   0   8   3   52.19    9.90
   0   8  -3   54.69   10.00
  -1  -8  -3    7.40   10.10
   1  -8   3   22.80    8.70
   1   8   3    8.50    9.40
  -1   8  -3   20.00    8.60
   1   8   3    4.50    9.30
   1   8   3    7.70    5.90
   2  -8   3  146.39   16.40
  -2  -8  -3  168.28   19.00
   2   8   3  166.28   18.60
  -2   8  -3  142.79   16.00
   2   8   3  142.99   17.80
 -10   0   4    4.10    6.90
 -10   0   4   17.30    7.50
 -10   0   4   14.10    6.30
  -9   0   4   12.00    5.20
  -9   0   4   17.70    5.90
  -9   0   4   20.20    5.80
  -8   0   4 2995.80  131.69
  -8   0   4 3072.09  131.29
  -8   0   4 3204.38  131.09
  -8   0   4 3145.69  130.79
  -7   0   4  136.89    9.20
  -7   0   4  132.79    8.90
  -7   0   4  127.69    8.80
   7   0  -4  128.79    8.70
  -7   0   4  131.79    9.40
   7   0  -4  116.89    9.30
  -7   0   4  128.19    8.90
   7   0  -4  123.69    9.30
  -6   0   4  219.18   11.40
   6   0  -4  233.28   12.00
   6   0  -4  206.08   11.60
   6   0  -4  212.98   11.90
  -6   0   4  223.28   12.00
   6   0  -4  211.08   11.70
  -6   0   4  234.58   12.10
  -6   0   4  240.28   12.00
  -6   0   4  221.58   11.80
  -5   0   4  452.35   20.90
   5   0  -4  462.35   20.90
   5   0  -4  450.65   21.20
  -5   0   4  438.16   20.70
   5   0  -4  491.85   20.70
  -5   0   4  468.05   21.00
  -5   0   4  476.75   20.60
   5   0  -4  447.26   20.60
  -5   0   4  441.36   21.00
  -4   0   4 2962.00  125.09
  -4   0   4 3115.39  125.29
  -4   0   4 2873.31  124.79
   4   0  -4 2904.61  125.29
   4   0  -4 3060.69  124.99
   4   0  -4 3059.99  124.59
  -4   0   4 2963.60  124.69
   4   0  -4 3053.09  124.59
  -4   0   4 3049.69  124.59
   3   0  -4    4.40    1.10
  -3   0   4    4.70    1.50
  -3   0   4    5.00    1.10
   3   0  -4    5.40    1.60
  -3   0   4    3.20    1.40
   3   0  -4    7.60    1.70
  -3   0   4    4.50    1.10
  -2   0   4 2108.09   89.59
  -2   0   4 2304.47   90.49
  -2   0   4 2174.48   89.49
   2   0  -4 2275.07   90.59
  -2   0   4 2135.49   89.89
  -2   0   4 2178.68   89.59
  -2   0   4 2101.79   90.39
  -2   0   4 2083.49   89.49
  -1   0   4  316.37   13.90
   1   0  -4  318.17   13.60
  -1   0   4  320.27   14.20
   1   0  -4  319.97   14.10
  -1   0   4  335.77   14.40
  -1   0   4  322.57   13.80
   1   0  -4  308.97   14.30
   1   0  -4  322.77   13.70
   0   0  -4  704.63   30.10
   0   0  -4  701.83   30.30
   0   0  -4  733.63   30.60
   0   0   4  754.32   30.50
   0   0   4  702.63   30.60
   0   0   4  725.33   30.20
   0   0  -4  695.83   30.30
   0   0   4  687.33   30.30
  -1   0  -4  705.83   29.50
   1   0   4  725.43   30.70
  -1   0  -4  721.53   30.70
   1   0   4  709.33   30.50
  -1   0  -4  660.53   30.40
   1   0   4  705.53   30.70
   2   0   4 1007.30   44.60
  -2   0  -4 1025.50   44.60
  -2   0  -4  972.10   44.30
  -2   0  -4 1102.59   44.60
   2   0   4 1046.70   44.40
   2   0   4 1027.90   44.60
  -3   0  -4  131.19    8.30
   3   0   4  131.19    8.40
  -3   0  -4  109.39    7.80
  -3   0  -4  103.89    7.90
   3   0   4  133.29    8.70
   3   0   4  115.49    8.00
   3   0   4  125.89    8.40
   4   0   4  549.15   27.40
  -4   0  -4  592.84   27.40
   4   0   4  569.54   27.10
  -4   0  -4  554.94   26.90
  -4   0  -4  579.14   27.10
   4   0   4  598.44   27.30
   5   0   4   43.00    8.90
   5   0   4   28.10    6.50
  -5   0  -4   30.60    7.20
   5   0   4   42.60    8.10
  -5   0  -4   31.10    6.90
  -6   0  -4 1044.50   49.70
   6   0   4 1138.79   50.69
  -6   0  -4 1051.59   49.30
   6   0   4 1079.79   49.30
  -7   0  -4  803.62   39.50
   7   0   4  786.02   39.00
  -7   0  -4  825.92   40.20
  -8   0  -4   80.79   14.90
   8   0   4   65.89   13.90
 -10  -1   4   50.99   10.70
 -10  -1   4   72.99   12.20
 -10   1   4   72.99   12.00
 -10   1   4   50.79   11.60
 -10   1   4   59.19   11.70
  -9  -1   4   -5.30    4.60
  -9  -1   4   10.80    4.90
  -9  -1   4    9.80    4.90
  -9   1   4   14.90    6.20
  -9   1   4    1.80    5.30
  -9   1   4    8.70    5.00
  -9   1   4   17.60    5.80
  -8  -1   4   48.10    7.40
  -8  -1   4   53.79    9.00
   8  -1  -4   54.99    7.00
  -8  -1   4   63.79    6.90
  -8  -1   4   46.40    7.50
   8   1  -4   51.79    7.70
  -8   1   4   39.90    7.60
  -8   1   4   53.49    7.50
  -8   1   4   55.49    7.60
  -8   1   4   45.60    7.50
  -7  -1   4   33.80    6.90
  -7  -1   4   29.80    5.50
  -7  -1   4   38.50    5.40
   7  -1  -4   28.10    5.30
   7  -1  -4   27.40    5.20
  -7  -1   4   38.40    5.90
  -7   1   4   42.90    6.10
  -7   1   4   35.00    5.70
  -7   1   4   37.00    6.00
  -7   1   4   30.80    5.20
  -7   1   4   28.70    6.10
   7   1  -4   26.90    6.70
   7   1  -4   34.80    5.80
   6  -1  -4  924.41   40.20
  -6  -1   4  937.81   40.30
  -6  -1   4  969.70   40.30
   6  -1  -4  920.91   40.30
  -6  -1   4  922.61   39.60
  -6  -1   4  922.31   40.20
   6  -1  -4  902.41   40.00
   6  -1  -4  893.01   40.20
  -6  -1   4  875.61   39.80
  -6   1   4  879.41   40.10
  -6   1   4  895.91   40.20
   6   1  -4  837.12   39.60
  -6   1   4  922.21   39.20
  -6   1   4  902.51   40.10
  -6   1   4  951.10   40.50
   6   1  -4  938.21   39.60
   6   1  -4  914.31   39.80
  -5  -1   4   12.00    2.30
   5  -1  -4   14.10    3.40
  -5  -1   4   12.50    3.10
   5  -1  -4   10.40    2.60
   5  -1  -4   11.60    3.20
  -5  -1   4   18.60    3.20
  -5  -1   4   14.20    3.20
  -5  -1   4   14.00    3.00
  -5   1   4   15.20    2.60
  -5   1   4    7.70    2.50
   5   1  -4   16.50    3.20
  -5   1   4   15.80    3.30
  -5   1   4    9.70    2.50
  -5   1   4    8.60    2.60
   5   1  -4   12.30    3.20
   5   1  -4   12.70    2.90
   4  -1  -4  272.17   12.90
  -4  -1   4  257.37   12.40
   4  -1  -4  278.37   13.40
  -4  -1   4  268.97   12.60
   4  -1  -4  286.37   13.30
   4  -1  -4  286.37   12.80
  -4  -1   4  269.77   13.30
  -4  -1   4  279.77   12.60
  -4   1   4  279.17   12.00
   4   1  -4  281.67   12.30
  -4   1   4  252.47   12.80
  -4   1   4  251.47   12.90
  -4   1   4  274.87   13.40
  -4   1   4  284.17   13.30
   4   1  -4  270.47   12.50
   4   1  -4  269.97   12.30
   3  -1  -4 4968.40  200.98
   3  -1  -4 5032.30  200.38
  -3  -1   4 4730.13  200.28
   3  -1  -4 4362.16  200.68
   3  -1  -4 4595.54  200.38
  -3  -1   4 5157.38  200.98
  -3   1   4 4772.82  200.58
  -3   1   4 5010.80  200.58
  -3   1   4 4716.63  200.88
  -3   1   4 4819.82  200.38
  -3   1   4 5176.08  200.98
   2  -1  -4   87.89    5.40
  -2  -1   4   94.39    5.40
   2  -1  -4   90.89    5.00
  -2  -1   4   97.49    5.00
  -2   1   4   92.79    5.10
  -2   1   4   91.49    5.00
  -2   1   4   89.69    5.50
  -2   1   4   96.29    5.60
  -2   1   4   91.09    5.00
  -2   1   4   94.59    5.10
  -1  -1   4 1104.59   44.90
   1  -1  -4 1088.29   45.00
  -1  -1   4 1055.89   44.10
   1  -1  -4 1097.19   44.80
  -1  -1   4 1045.10   45.10
   1  -1  -4 1110.39   44.40
  -1   1   4 1075.99   44.40
  -1   1   4 1010.20   44.90
   1   1  -4 1087.09   44.00
  -1   1   4 1013.70   44.90
  -1   1   4 1011.60   44.80
   0  -1   4  349.87   16.80
   0  -1   4  370.66   16.10
   0  -1  -4  365.16   16.40
   0  -1  -4  378.46   16.70
   0  -1  -4  370.46   16.40
   0  -1   4  366.96   16.20
   0  -1   4  374.46   16.40
   0   1  -4  381.36   16.20
   0   1   4  366.06   16.40
   0   1  -4  369.06   16.20
   0   1  -4  389.46   17.00
   0   1   4  373.86   16.90
   0   1   4  371.56   16.70
  -1  -1  -4 1862.21   79.79
  -1  -1  -4 2004.00   79.59
   1  -1   4 1868.71   79.79
  -1  -1  -4 1909.41   78.79
   1  -1   4 1940.81   78.39
   1  -1   4 1866.61   79.29
   1  -1   4 1870.21   79.49
  -1  -1  -4 1809.22   79.59
  -1   1  -4 1886.41   79.29
   1   1   4 1888.61   79.89
   1   1   4 1851.51   79.59
  -1   1  -4 1963.80   79.89
   1   1   4 1913.81   79.49
  -1   1  -4 1892.91   79.39
   2  -1   4 1085.29   48.40
   2  -1   4 1210.48   48.20
   2  -1   4 1118.29   48.30
  -2  -1  -4 1143.19   46.80
   2  -1   4 1096.49   48.20
  -2  -1  -4 1142.29   48.20
  -2  -1  -4 1111.29   48.40
  -2  -1  -4 1033.00   48.40
  -2   1  -4 1187.88   48.20
   2   1   4 1059.89   48.10
  -2   1  -4 1044.80   48.00
   2   1   4 1218.08   48.50
  -2   1  -4 1176.08   48.50
   2   1   4 1047.30   48.40
   3  -1   4   28.40    5.00
   3  -1   4   37.60    5.10
  -3  -1  -4   37.70    5.40
   3  -1   4   22.30    4.90
  -3  -1  -4   37.30    5.40
   3  -1   4   34.60    5.20
  -3  -1  -4   34.20    5.00
  -3   1  -4   32.90    4.80
  -3   1  -4   38.30    5.40
   3   1   4   26.80    5.40
   3   1   4   29.10    4.80
  -3   1  -4   25.10    4.40
   3   1   4   34.30    5.20
  -4  -1  -4  321.47   16.50
  -4  -1  -4  286.47   15.90
   4  -1   4  262.27   15.80
   4  -1   4  278.17   16.10
  -4  -1  -4  310.37   12.80
   4  -1   4  294.17   16.10
  -4  -1  -4  290.57   16.20
   4  -1   4  308.57   16.10
   4   1   4  291.37   16.60
   4   1   4  332.47   16.60
   4   1   4  296.97   16.00
  -4   1  -4  285.37   15.70
   4   1   4  299.67   15.90
  -4   1  -4  296.17   16.10
   5  -1   4   43.60    8.90
   5  -1   4   65.29    9.10
   5  -1   4   43.50    7.20
  -5  -1  -4   44.60    8.10
   5   1   4   86.69   10.20
   5   1   4   45.70    9.70
  -5   1  -4   56.79    7.70
   5   1   4   61.09    7.80
  -5   1  -4   54.69    8.20
   6  -1   4   64.89    9.10
   6  -1   4   67.59   12.30
   6  -1   4   43.60    8.80
  -6  -1  -4   71.79   10.40
  -6  -1  -4   53.79    9.30
  -6   1  -4   67.89    9.30
   6   1   4   71.29    9.50
  -6   1  -4   79.79   10.60
   6   1   4   64.49   14.20
   7  -1   4  135.79   13.00
  -7  -1  -4  132.79   14.50
  -7  -1  -4   98.59   13.20
  -7   1  -4  109.49   13.00
   7   1   4  127.19   13.30
  -7   1  -4  134.49   14.50
   8  -1   4   17.50    8.00
  -8  -1  -4   12.80    9.80
  -8   1  -4    8.10    8.80
   8   1   4   -3.70    8.70
  10  -2  -4  363.46   20.10
 -10  -2   4  331.37   22.00
 -10  -2   4  332.97   21.90
 -10   2   4  380.16   23.60
 -10   2   4  353.46   22.30
 -10   2   4  376.36   22.70
  -9  -2   4  386.56   22.90
   9  -2  -4  417.86   21.90
  -9  -2   4  426.56   22.80
  -9   2   4  408.86   23.00
  -9   2   4  430.56   23.90
  -9   2   4  408.26   23.20
  -9   2   4  488.15   29.60
  -8  -2   4  673.43   31.90
   8  -2  -4  675.03   31.30
  -8  -2   4  674.93   31.70
  -8   2   4  660.93   30.60
  -8   2   4  687.13   32.70
   8   2  -4  653.13   30.40
  -8   2   4  666.73   32.00
  -8   2   4  653.13   31.90
  -7  -2   4  143.99    9.90
  -7  -2   4  164.28   12.10
   7  -2  -4  136.49    9.70
  -7  -2   4  140.39    8.80
  -7  -2   4  135.89    9.80
  -7   2   4  149.29    9.00
  -7   2   4  143.59   10.30
  -7   2   4  162.38   10.90
   7   2  -4  150.28    9.10
  -7   2   4  156.28   10.50
  -6  -2   4  632.24   27.40
  -6  -2   4  608.64   28.80
   6  -2  -4  633.24   28.70
  -6  -2   4  657.73   28.40
  -6  -2   4  640.54   28.60
   6  -2  -4  568.44   28.70
  -6  -2   4  654.33   29.10
   6  -2  -4  609.64   28.60
   6  -2  -4  629.74   29.00
   6   2  -4  573.94   27.90
  -6   2   4  603.74   28.60
   6   2  -4  694.03   27.50
  -6   2   4  620.44   27.20
   6   2  -4  661.73   28.30
  -6   2   4  586.84   29.00
  -6   2   4  613.24   28.90
  -5  -2   4  116.29    7.10
  -5  -2   4  107.69    6.00
   5  -2  -4  126.59    7.70
   5  -2  -4   96.89    7.40
   5  -2  -4  116.09    8.00
  -5  -2   4  109.39    7.70
   5  -2  -4  104.99    7.30
  -5  -2   4  108.29    6.60
  -5   2   4  113.69    5.80
   5   2  -4  106.49    6.10
  -5   2   4  103.79    7.50
   5   2  -4  105.89    6.60
   5   2  -4  107.29    6.70
  -5   2   4  111.69    7.70
  -5   2   4  104.19    7.40
   4  -2  -4   26.90    4.30
  -4  -2   4   24.00    3.00
   4  -2  -4   21.00    3.70
  -4  -2   4   27.30    4.00
   4  -2  -4   23.60    3.90
  -4  -2   4   24.20    2.50
   4  -2  -4   39.30    4.00
  -4  -2   4   23.00    3.20
   4   2  -4   30.20    2.70
  -4   2   4   27.90    4.10
  -4   2   4   29.40    3.70
  -4   2   4   22.90    4.00
   4   2  -4   26.90    3.10
   4   2  -4   25.00    2.90
  -4   2   4   27.10    3.90
   4   2  -4   30.60    2.90
  -3  -2   4 1495.85   63.49
  -3  -2   4 1457.65   63.09
  -3  -2   4 1541.35   64.39
   3  -2  -4 1655.83   64.29
   3  -2  -4 1549.84   64.49
   3  -2  -4 1473.35   64.39
  -3  -2   4 1493.55   63.29
   3  -2  -4 1655.43   64.49
  -3   2   4 1440.46   64.29
  -3   2   4 1496.15   64.49
  -3   2   4 1539.15   64.39
  -3   2   4 1467.65   64.19
   3   2  -4 1501.35   63.19
   3   2  -4 1506.25   63.09
   3   2  -4 1513.65   63.09
  -2  -2   4  172.38    8.10
   2  -2  -4  169.08    9.20
  -2  -2   4  184.08    9.10
  -2  -2   4  200.58    8.30
  -2  -2   4  167.48    8.10
   2  -2  -4  192.48    9.30
   2   2  -4  173.48    8.00
  -2   2   4  176.58    9.30
  -2   2   4  180.18    9.10
   2   2  -4  172.88    7.90
  -2   2   4  169.98    9.10
  -2   2   4  167.28    9.00
   2   2  -4  177.38    7.70
  -2   2   4  177.48    9.20
   2   2  -4  176.08    7.70
  -1  -2   4  667.93   28.40
   1  -2  -4  608.44   28.60
  -1  -2   4  649.74   27.90
  -1  -2   4  667.83   27.80
  -1  -2   4  629.54   28.80
   1  -2  -4  676.03   27.70
   1  -2  -4  618.44   28.50
  -1   2   4  671.33   28.80
   1   2  -4  661.23   27.60
  -1   2   4  653.93   28.90
   1   2  -4  686.53   27.70
  -1   2   4  661.73   28.90
  -1   2   4  701.73   29.00
  -1   2   4  630.74   28.60
   0  -2  -4  658.13   28.60
   0  -2   4  633.44   27.80
   0  -2  -4  689.13   28.70
   0  -2   4  617.04   28.60
   0  -2   4  627.74   28.00
   0  -2  -4  639.64   27.80
   0  -2   4  684.93   27.90
   0   2  -4  674.83   27.80
   0   2  -4  697.53   27.90
   0   2   4  581.94   28.60
   0   2  -4  601.64   27.70
   0   2   4  624.14   27.80
   0   2   4  657.33   28.80
   0   2   4  680.83   28.70
   1  -2   4  224.08   10.80
  -1  -2  -4  203.48   11.00
   1  -2   4  209.78   11.10
   1  -2   4  213.18    9.70
  -1  -2  -4  209.98   11.30
   1  -2   4  226.38   10.80
   1  -2   4  218.78   10.60
  -1  -2  -4  215.68   10.60
  -1   2  -4  212.28   11.20
   1   2   4  234.48   11.60
   1   2   4  180.78   11.10
  -1   2  -4  200.08   10.40
   1   2   4  209.68   10.60
   1   2   4  209.18   11.20
  -1   2  -4  213.28   10.50
   2  -2   4 4009.40  162.98
  -2  -2  -4 4080.09  163.58
  -2  -2  -4 3941.61  162.98
   2  -2   4 3791.62  161.18
  -2  -2  -4 3711.33  163.48
   2  -2   4 3787.72  163.38
   2  -2   4 4132.19  163.08
   2  -2   4 3732.53  163.08
   2   2   4 3791.22  163.68
  -2   2  -4 3774.12  162.98
   2   2   4 3648.93  162.88
  -2   2  -4 4006.60  163.38
   2   2   4 4448.75  163.78
  -2   2  -4 3930.61  162.88
   3  -2   4  491.85   22.00
   3  -2   4  462.45   22.00
  -3  -2  -4  459.05   21.70
   3  -2   4  447.86   21.60
  -3  -2  -4  450.15   22.20
  -3  -2  -4  396.56   21.60
   3  -2   4  459.35   21.70
  -3   2  -4  470.75   21.60
   3   2   4  477.15   22.60
  -3   2  -4  438.36   21.60
   3   2   4  444.36   22.00
  -3   2  -4  430.26   21.80
   3   2   4  447.06   21.60
   4  -2   4   24.70    5.10
  -4  -2  -4   15.90    4.50
  -4  -2  -4   22.00    5.40
  -4  -2  -4   14.70    4.50
   4  -2   4   10.50    3.90
   4  -2   4   15.90    4.60
   4  -2   4   13.00    4.30
  -4   2  -4   20.40    4.50
   4   2   4   20.80    5.40
   4   2   4    8.20    4.90
  -4   2  -4   17.70    4.30
   4   2   4   17.30    4.20
  -5  -2  -4  372.06   19.80
   5  -2   4  345.17   20.20
  -5  -2  -4  378.66   20.40
   5  -2   4  360.26   19.40
  -5  -2  -4  370.06   16.40
   5  -2   4  348.77   20.00
   5   2   4  322.97   20.70
  -5   2  -4  362.16   19.40
   5   2   4  363.66   21.00
  -5   2  -4  340.47   19.50
   5   2   4  342.97   19.30
  -6  -2  -4 2311.57   95.69
  -6  -2  -4 1831.42   90.79
   6  -2   4 2147.49   95.39
  -6  -2  -4 2271.57   95.09
   6  -2   4 2264.77   94.69
   6   2   4 2251.27   94.89
  -6   2  -4 2239.78   94.69
  -6   2  -4 2179.08   94.99
   6   2   4 2143.49   95.89
  -7  -2  -4   81.69   13.00
   7  -2   4   84.39   12.10
  -7  -2  -4   66.49   11.00
  -7   2  -4   80.69   12.30
  -7   2  -4   61.29   13.40
   8  -2   4   23.50    8.60
  -8  -2  -4   36.40   11.00
  -8   2  -4   72.29   15.30
 -10  -3   4   16.50    8.30
  10  -3  -4   32.60    7.60
 -10  -3   4   32.80    8.50
 -10   3   4   20.30    8.40
 -10   3   4   29.90    9.00
 -10   3   4   27.70    9.50
   9  -3  -4   42.50    9.00
  -9  -3   4   39.70   10.20
  -9  -3   4   58.19   10.40
  -9   3   4   77.79   12.40
  -9   3   4   54.39   10.50
  -9   3   4   49.99   11.10
  -8  -3   4   49.60    8.30
   8  -3  -4   51.99    6.60
  -8  -3   4   34.80    7.90
   8  -3  -4   44.90    7.80
  -8   3   4   44.80    9.20
  -8   3   4   49.80    7.90
  -8   3   4   46.60    8.50
   8   3  -4   49.99    6.90
  -8   3   4   41.20    8.90
   7  -3  -4    8.70    3.10
  -7  -3   4   14.60    4.40
   7  -3  -4    6.10    3.80
  -7  -3   4   10.20    3.90
  -7   3   4   14.40    3.50
   7   3  -4    8.30    3.00
   7   3  -4   10.40    4.20
  -7   3   4    2.90    4.20
  -7   3   4    1.50    4.20
  -7   3   4   10.80    4.80
  -6  -3   4  662.83   29.70
   6  -3  -4  608.04   26.80
   6  -3  -4  560.14   29.00
  -6  -3   4  603.34   28.50
   6  -3  -4  623.54   28.50
  -6  -3   4  585.94   28.10
  -6   3   4  630.74   26.80
  -6   3   4  590.94   29.20
   6   3  -4  618.84   28.20
   6   3  -4  625.94   26.50
  -6   3   4  641.64   29.20
  -6   3   4  615.14   29.00
   6   3  -4  619.54   28.10
   5  -3  -4   47.30    6.40
   5  -3  -4   64.19   10.00
   5  -3  -4   53.19    3.80
  -5  -3   4   51.39    6.60
   5  -3  -4   57.99    6.10
   5  -3  -4   58.39    6.50
  -5  -3   4   52.89    5.20
  -5  -3   4   53.79    5.30
  -5   3   4   58.29    6.20
   5   3  -4   53.49    5.60
  -5   3   4   51.29    6.00
  -5   3   4   53.09    6.20
   5   3  -4   47.90    4.90
   5   3  -4   59.39    5.20
   4  -3  -4  242.38   12.90
  -4  -3   4  258.57   12.50
   4  -3  -4  257.97   13.40
   4  -3  -4  257.57   13.40
   4  -3  -4  259.87   13.20
  -4  -3   4  236.48   12.10
   4  -3  -4  249.97   10.90
  -4  -3   4  260.17   13.30
  -4   3   4  232.48   13.30
  -4   3   4  249.78   13.20
   4   3  -4  244.08   12.10
  -4   3   4  239.08   13.10
  -4   3   4  258.07   13.50
   4   3  -4  251.17   12.10
   4   3  -4  250.17   12.20
   3  -3  -4 4081.99  167.88
  -3  -3   4 4136.29  167.28
   3  -3  -4 3953.30  167.98
   3  -3  -4 4025.00  167.88
   3  -3  -4 4179.58  167.88
   3   3  -4 4268.17  166.98
  -3   3   4 4019.70  168.18
  -3   3   4 4199.08  168.28
   3   3  -4 3939.71  166.78
  -3   3   4 3909.51  167.88
   3   3  -4 4175.48  166.88
  -3   3   4 3753.02  167.78
   3   3  -4 3730.13  166.78
   2  -3  -4   17.50    1.70
  -2  -3   4   17.40    1.50
   2  -3  -4   17.50    1.80
  -2  -3   4   14.30    2.90
  -2  -3   4   17.60    1.50
   2  -3  -4   20.60    3.60
  -2  -3   4   16.70    2.80
   2  -3  -4   13.30    2.90
   2   3  -4   17.60    2.50
   2   3  -4   20.10    2.60
  -2   3   4   11.40    2.70
  -2   3   4   16.60    3.70
  -2   3   4   14.60    3.60
   2   3  -4   14.10    2.70
  -2   3   4   17.20    3.80
   2   3  -4   14.30    2.50
  -2   3   4   21.30    4.00
   1  -3  -4  392.66   18.60
  -1  -3   4  396.56   16.80
   1  -3  -4  386.66   18.30
  -1  -3   4  370.06   18.30
  -1  -3   4  411.86   17.70
   1  -3  -4  378.26   16.80
   1   3  -4  357.86   17.20
   1   3  -4  384.86   17.30
   1   3  -4  380.36   17.20
  -1   3   4  360.06   18.00
  -1   3   4  419.36   18.50
   1   3  -4  384.66   17.20
  -1   3   4  400.56   18.30
  -1   3   4  347.17   18.30
  -1   3   4  418.26   18.70
   0  -3   4  170.48    9.40
   0  -3  -4  206.08   10.40
   0  -3   4  184.88    9.30
   0  -3   4  179.78    8.90
   0  -3   4  161.68    9.80
   0  -3  -4  171.18    8.90
   0  -3  -4  164.28    9.90
   0   3  -4  172.08    9.10
   0   3   4  174.88   10.30
   0   3   4  190.68   10.40
   0   3  -4  188.88    9.20
   0   3  -4  189.58    9.20
   0   3   4  165.88   10.30
   0   3   4  163.88    9.60
   1  -3   4 1878.11   81.39
   1  -3   4 1881.31   81.79
   1  -3   4 2021.00   81.19
  -1  -3  -4 2086.59   82.29
  -1  -3  -4 1840.12   81.79
  -1  -3  -4 1928.71   80.99
   1  -3   4 2007.90   80.99
  -1   3  -4 1808.32   81.09
   1   3   4 1746.33   81.99
  -1   3  -4 1906.71   81.19
   1   3   4 2030.80   82.39
   1   3   4 1974.60   82.09
  -1   3  -4 1921.31   81.09
   2  -3   4 1038.90   43.00
   2  -3   4 1016.00   42.70
   2  -3   4  923.61   43.20
   2  -3   4  952.90   43.10
  -2  -3  -4  969.20   43.40
  -2  -3  -4  968.50   42.80
  -2  -3  -4  975.10   43.70
  -2   3  -4  913.71   42.60
   2   3   4 1036.10   44.00
   2   3   4  993.00   44.00
  -2   3  -4  997.60   43.40
  -2   3  -4  998.80   42.90
   2   3   4  951.20   43.50
  -3  -3  -4    5.60    3.80
   3  -3   4   15.90    4.40
   3  -3   4    7.40    3.60
  -3  -3  -4    8.70    3.60
   3  -3   4    4.80    3.80
   3  -3   4    5.20    3.90
  -3  -3  -4    4.60    3.80
   3   3   4    7.40    4.10
   3   3   4   11.40    4.50
  -3   3  -4    4.50    3.20
  -3   3  -4    3.60    3.00
   3   3   4    9.50    4.40
   4  -3   4  173.78   12.70
   4  -3   4  175.38   12.70
  -4  -3  -4  186.28   12.80
   4  -3   4  164.98   12.30
  -4  -3  -4  195.48   12.60
   4  -3   4  170.58   12.00
   4   3   4  156.28   13.30
  -4   3  -4  153.68   11.60
   4   3   4  183.28   13.90
  -4   3  -4  184.88   11.90
   5  -3   4   66.19    8.80
  -5  -3  -4   78.09    9.90
   5  -3   4   70.99   11.40
   5  -3   4   63.69   11.50
  -5  -3  -4   68.09   10.60
   5   3   4   51.79    9.80
  -5   3  -4   63.59    9.20
  -5   3  -4   48.30    8.60
   6  -3   4   75.99   10.80
  -6  -3  -4   83.39   12.90
  -6  -3  -4   62.99   11.50
   6   3   4   70.29   16.30
  -6   3  -4   59.69   10.80
  -6   3  -4   60.19   11.00
  -7  -3  -4   59.09   15.00
  -7  -3  -4   80.79   14.00
   7  -3   4   69.69   13.00
  -7   3  -4   91.69   13.80
   9  -4  -4   15.30    6.60
  -9  -4   4   14.10    7.10
  -9  -4   4    6.20    6.70
   9  -4  -4   10.40    6.00
  -9   4   4    2.10    7.30
  -9   4   4    9.20    7.40
  -9   4   4   -3.50    7.50
   8  -4  -4 2142.59   89.49
   8  -4  -4 2114.79   90.99
  -8  -4   4 2153.58   91.99
  -8  -4   4 2197.18   91.49
  -8   4   4 2051.99   92.19
  -8   4   4 2096.99   92.99
  -8   4   4 2025.80   92.09
  -7  -4   4  112.39    9.50
  -7  -4   4  130.69   10.40
   7  -4  -4  110.19    9.80
   7  -4  -4  109.89    7.80
  -7   4   4  102.59   11.10
  -7   4   4  106.89   10.50
   7   4  -4  110.59    6.00
  -7   4   4  124.59   11.20
  -7   4   4  110.09   12.70
   7   4  -4   88.59    9.80
  -6  -4   4  128.29    9.90
   6  -4  -4  131.79    9.90
   6  -4  -4  129.69    7.60
  -6  -4   4  127.79    9.40
  -6   4   4  120.99   11.50
   6   4  -4  148.69    9.90
  -6   4   4  133.69   10.40
  -6   4   4  139.99   10.70
  -6   4   4  134.49   11.00
  -5  -4   4  334.87   16.60
   5  -4  -4  323.47   14.90
   5  -4  -4  341.27   17.20
   5  -4  -4  308.67   17.60
   5  -4  -4  332.97   18.10
  -5  -4   4  340.97   17.00
   5   4  -4  328.47   16.70
   5   4  -4  315.27   16.40
  -5   4   4  330.57   17.60
  -5   4   4  326.07   18.00
  -5   4   4  354.06   18.30
  -5   4   4  323.97   17.50
  -4  -4   4 1535.25   64.59
   4  -4  -4 1471.95   65.39
   4  -4  -4 1565.44   62.69
   4  -4  -4 1568.64   64.99
   4  -4  -4 1541.45   64.89
  -4   4   4 1408.16   64.99
  -4   4   4 1480.55   64.99
  -4   4   4 1519.85   65.49
  -4   4   4 1435.66   65.39
   4   4  -4 1616.84   64.19
   4   4  -4 1455.05   63.99
   4   4  -4 1489.95   63.99
   4   4  -4 1450.25   63.99
   3  -4  -4   24.50    2.60
   3  -4  -4   30.60    5.60
  -3  -4   4   28.40    4.40
   3  -4  -4   20.30    4.60
   3  -4  -4   29.90    4.80
  -3   4   4   25.90    6.00
  -3   4   4   23.80    5.30
  -3   4   4   21.10    4.80
   3   4  -4   19.50    4.10
  -3   4   4   24.70    4.80
  -3   4   4   16.10    3.80
   3   4  -4   19.10    3.90
   3   4  -4   22.60    4.10
   3   4  -4   26.10    4.10
  -2  -4   4  979.00   41.10
   2  -4  -4  935.51   39.80
   2  -4  -4  931.01   39.70
  -2  -4   4  954.50   41.10
   2  -4  -4  907.31   41.90
   2   4  -4  911.81   40.60
   2   4  -4  894.11   40.50
   2   4  -4  933.41   40.60
  -2   4   4  949.80   42.20
  -2   4   4 1069.39   42.10
   2   4  -4  922.51   40.60
  -2   4   4  918.81   41.40
  -2   4   4  888.71   41.90
  -2   4   4  989.10   41.90
   1  -4  -4  149.39    7.90
  -1  -4   4  154.08    9.60
   1  -4  -4  138.99   10.10
  -1  -4   4  140.39    8.70
   1  -4  -4  137.19    9.40
  -1  -4   4  150.88    7.00
   1   4  -4  153.98    8.50
   1   4  -4  152.68    8.40
  -1   4   4  150.78    9.90
  -1   4   4  149.19    9.00
   1   4  -4  156.48    8.60
  -1   4   4  124.69    9.10
  -1   4   4  163.78   10.30
  -1   4   4  150.98    9.90
   1   4  -4  133.59    8.40
   0  -4  -4  285.87   13.80
   0  -4   4  319.17   14.50
   0  -4   4  262.57   14.40
   0  -4   4  290.07   15.00
   0  -4   4  289.07   13.30
   0  -4  -4  277.67   15.30
   0   4   4  285.07   14.40
   0   4   4  275.87   15.50
   0   4  -4  270.27   14.00
   0   4   4  297.17   15.20
   0   4   4  261.47   15.30
   0   4  -4  274.07   14.00
   0   4   4  317.37   15.60
   0   4  -4  269.17   14.00
  -1  -4  -4  389.16   18.00
  -1  -4  -4  375.16   19.10
  -1  -4  -4  339.67   19.00
   1  -4   4  353.16   18.10
   1  -4   4  400.26   17.50
   1  -4   4  372.36   18.80
   1  -4   4  361.16   18.50
   1   4   4  386.06   19.60
  -1   4  -4  384.56   18.10
   1   4   4  341.27   19.20
   1   4   4  384.86   19.20
   1   4   4  367.56   18.10
  -2  -4  -4  545.55   24.90
   2  -4   4  520.35   25.20
  -2  -4  -4  508.55   25.50
  -2  -4  -4  502.65   25.70
   2  -4   4  550.94   24.40
   2  -4   4  533.75   25.40
   2  -4   4  466.35   24.60
  -2   4  -4  498.55   24.80
   2   4   4  527.55   26.10
  -2   4  -4  551.14   24.80
   2   4   4  519.15   25.90
   2   4   4  571.94   26.30
   3  -4   4   66.39    8.30
   3  -4   4   76.29    9.10
   3  -4   4   78.29    8.60
  -3  -4  -4   61.79    8.70
   3  -4   4   69.79    8.20
  -3  -4  -4   88.09    9.20
  -3  -4  -4   78.79    8.50
  -3   4  -4   79.29    7.80
   3   4   4   79.19    9.10
   3   4   4   66.69    9.00
   3   4   4   89.59   10.60
  -3   4  -4   82.49    7.90
   4  -4   4  355.16   19.20
   4  -4   4  338.57   15.30
   4  -4   4  316.37   19.90
  -4  -4  -4  335.77   19.40
   4  -4   4  357.26   19.90
  -4  -4  -4  347.07   20.10
  -4   4  -4  342.07   18.70
  -4   4  -4  343.07   19.00
   4   4   4  330.67   19.80
  -5  -4  -4   29.90    7.20
  -5  -4  -4   48.70   10.80
   5  -4   4   19.30    8.60
   5  -4   4   27.30    6.80
  -5   4  -4   32.50    7.30
  -5   4  -4   26.80    6.40
   5   4   4   27.20    9.50
   5   4   4   32.80    7.70
  -6  -4  -4  656.23   33.80
   6  -4   4  655.13   33.30
  -6  -4  -4  663.73   34.70
   6   4   4  618.94   34.30
  -6   4  -4  646.24   33.10
   7  -4   4  479.55   27.70
  -7  -4  -4  467.25   30.20
  -7  -4  -4  444.16   28.70
   7   4   4  511.45   30.40
  -7   4  -4  506.15   28.90
  -8  -5   4    4.30    6.20
   8  -5  -4    6.90    6.20
  -8  -5   4    7.70    6.40
  -8   5   4    0.70    6.90
  -8   5   4    4.30    7.80
  -8   5   4    9.90    7.60
   7  -5  -4   69.19    6.80
  -7  -5   4   63.49    9.70
  -7  -5   4   51.99    9.00
   7  -5  -4   39.70    9.00
  -7   5   4   55.29   10.70
  -7   5   4   62.69   11.20
  -7   5   4   70.79   10.50
   6  -5  -4  459.75   23.20
   6  -5  -4  467.45   20.70
  -6  -5   4  477.75   23.10
  -6  -5   4  443.86   23.20
  -6   5   4  436.16   25.20
  -6   5   4  458.45   23.80
  -6   5   4  432.26   24.30
   6   5  -4  424.06   22.60
  -6   5   4  483.35   24.30
   5  -5  -4   14.30    2.80
  -5  -5   4   17.80    4.50
   5  -5  -4   15.70    4.60
  -5   5   4    6.40    5.90
  -5   5   4    5.20    4.30
   5   5  -4   14.90    4.20
   5   5  -4   12.10    4.10
  -5   5   4   19.30    5.30
  -5   5   4    9.90    4.80
   4  -5  -4   82.99    8.20
  -4  -5   4   69.09    7.50
   4  -5  -4   91.29    5.60
  -4   5   4   98.49    9.50
  -4   5   4   79.59    8.40
  -4   5   4  106.49   10.10
   4   5  -4   87.29    7.40
  -4   5   4   58.19    8.10
   4   5  -4   90.99    7.60
  -3  -5   4 1850.41   80.09
   3  -5  -4 1901.51   78.39
   3  -5  -4 1744.63   81.09
   3  -5  -4 1891.01   80.49
   3   5  -4 1788.32   79.59
  -3   5   4 1904.71   81.49
  -3   5   4 1903.71   81.19
  -3   5   4 1790.32   80.79
   3   5  -4 2047.80   79.99
   3   5  -4 1834.12   79.69
  -3   5   4 1982.90   81.59
  -3   5   4 1851.41   80.39
  -2  -5   4   32.60    5.40
  -2  -5   4   34.00    6.00
   2  -5  -4   40.40    8.20
   2  -5  -4   38.90    4.10
   2   5  -4   27.70    5.10
  -2   5   4   45.80    6.30
   2   5  -4   35.30    5.40
   2   5  -4   39.40    6.40
  -2   5   4   42.20    7.10
  -2   5   4   34.00    7.50
  -2   5   4   25.90    5.60
  -2   5   4   25.90    5.70
   1  -5  -4  357.16   19.80
  -1  -5   4  375.26   19.60
   1  -5  -4  342.67   20.50
  -1  -5   4  381.56   16.30
  -1  -5   4  389.46   19.20
   1  -5  -4  378.16   17.80
  -1   5   4  395.86   20.20
  -1   5   4  357.16   18.80
   1   5  -4  378.16   18.70
  -1   5   4  390.26   19.90
   1   5  -4  388.56   18.60
   1   5  -4  386.96   18.70
  -1   5   4  391.26   20.60
  -1   5   4  392.66   20.40
   0  -5   4  187.48   11.60
   0  -5   4  182.78    9.30
   0  -5   4  182.58   11.40
   0  -5  -4  163.28   12.00
   0  -5   4  179.18   11.70
   0  -5  -4  183.08   10.60
   0   5   4  200.38   12.70
   0   5  -4  176.28   10.90
   0   5   4  167.18   12.90
   0   5   4  176.38   10.70
   0   5   4  199.38   12.30
   0   5   4  168.88   12.60
   0   5  -4  160.78   11.10
  -1  -5  -4  776.22   36.70
   1  -5   4  747.93   35.80
  -1  -5  -4  782.32   35.10
   1  -5   4  836.72   36.10
   1  -5   4  804.62   34.20
   1  -5   4  746.63   35.40
   1   5   4  760.12   34.90
   1   5   4  779.62   36.70
  -1   5  -4  750.22   35.20
  -1   5  -4  769.12   35.40
   1   5   4  820.72   37.00
   1   5   4  784.42   36.90
   1   5   4  747.03   36.20
   2  -5   4  450.65   23.30
   2  -5   4  489.75   23.10
  -2  -5  -4  477.65   23.90
  -2  -5  -4  442.46   22.60
   2  -5   4  473.95   21.80
  -2  -5  -4  438.46   23.80
   2  -5   4  445.36   23.10
   2   5   4  453.85   24.00
   2   5   4  429.46   24.50
   2   5   4  436.66   21.80
  -2   5  -4  464.15   22.70
  -2   5  -4  413.66   22.50
   2   5   4  427.06   23.70
   3  -5   4   47.00    9.10
   3  -5   4   50.29   10.00
   3  -5   4   40.50    8.40
   3  -5   4   57.39   10.60
  -3  -5  -4   69.79   10.00
  -3  -5  -4   37.10    8.90
   3   5   4   60.09   13.40
   3   5   4   52.59    9.80
  -3   5  -4   58.69    9.00
  -3   5  -4   65.09    8.40
  -4  -5  -4  141.99   14.10
   4  -5   4  152.18    9.10
  -4  -5  -4  145.79   12.60
   4  -5   4  168.08   15.30
   4  -5   4  176.18   13.30
   4   5   4  180.78   18.60
  -4   5  -4  161.48   13.10
  -4   5  -4  130.09   12.80
   4   5   4  157.78   14.40
   5  -5   4   89.89   12.30
  -5  -5  -4   80.49   13.60
  -5  -5  -4   90.49   13.00
  -5   5  -4   69.69   11.50
   5   5   4   62.69   13.10
   6  -5   4   30.30    8.60
  -6  -5  -4   41.70   10.10
  -6  -5  -4   45.80   10.40
   6   5   4   37.00   10.40
  -6   5  -4   46.80    9.70
  -7  -6   4  101.79   13.20
   7  -6  -4  126.59   13.00
  -7  -6   4  113.19   12.80
  -7   6   4  103.59   13.90
  -7   6   4  128.89   15.90
  -7   6   4   95.69   13.90
   6  -6  -4  193.38   14.00
   6  -6  -4  193.58   10.70
  -6  -6   4  169.28   14.20
   6   6  -4  194.88   13.80
  -6   6   4  181.18   14.70
  -6   6   4  181.68   15.40
  -6   6   4  163.08   15.80
  -5  -6   4   82.89    9.90
   5  -6  -4   87.69    9.50
   5  -6  -4   69.39    6.40
   5   6  -4   67.89    9.00
  -5   6   4   57.79   14.10
  -5   6   4   63.79    9.80
  -5   6   4   76.39   11.30
  -5   6   4   73.69   10.70
   4  -6  -4   46.60    5.20
   4  -6  -4   45.80    8.40
  -4  -6   4   40.20    7.80
  -4   6   4   21.30    6.10
  -4   6   4   45.80   12.40
   4   6  -4   47.70    7.80
   4   6  -4   31.40    8.00
  -4   6   4   36.70    9.90
  -4   6   4   50.49    8.30
  -3  -6   4  521.55   26.80
   3  -6  -4  541.05   24.60
  -3   6   4  554.14   28.90
   3   6  -4  575.14   26.60
   3   6  -4  509.35   26.20
  -3   6   4  566.04   26.80
  -3   6   4  586.94   28.90
  -3   6   4  524.15   27.50
  -2  -6   4  167.98   12.70
   2  -6  -4  166.98    9.70
  -2   6   4  191.88   13.70
  -2   6   4  166.38   12.60
  -2   6   4  148.09   15.10
  -2   6   4  157.58   11.40
   2   6  -4  160.68   11.50
   2   6  -4  170.58   11.20
   1  -6  -4  238.58   13.00
  -1  -6   4  216.78   14.30
   1  -6  -4  227.78   15.40
  -1  -6   4  216.78   14.40
  -1   6   4  200.08   14.50
  -1   6   4  229.78   13.60
  -1   6   4  210.98   15.30
   1   6  -4  221.58   13.40
  -1   6   4  245.88   17.10
   0  -6   4  254.87   16.80
   0  -6   4  305.57   17.20
   0  -6  -4  273.77   17.70
   0  -6  -4  284.47   15.90
   0  -6   4  296.07   13.80
   0   6   4  313.17   15.90
   0   6  -4  293.47   16.50
   0   6  -4  322.57   16.40
   0   6   4  250.47   17.00
   0   6   4  276.57   19.40
   0   6   4  278.07   17.90
   1  -6   4  124.79   12.70
  -1  -6  -4  127.79   11.20
   1  -6   4  102.39    8.90
  -1  -6  -4  125.59   12.50
   1  -6   4  108.09   10.90
   1  -6   4  139.59   12.30
   1   6   4  132.89    9.60
   1   6   4  103.59   14.00
  -1   6  -4  120.19   10.20
  -1   6  -4   98.69   10.50
   1   6   4  140.39   11.80
   1   6   4  102.09   11.60
  -2  -6  -4 1602.44   67.49
   2  -6   4 1406.66   65.69
   2  -6   4 1434.06   63.89
   2  -6   4 1477.55   65.89
   2   6   4 1496.75   67.79
   2   6   4 1397.56   66.79
  -2   6  -4 1500.05   65.79
  -2   6  -4 1571.84   65.59
   2   6   4 1493.45   64.39
   2   6   4 1445.96   66.39
   3  -6   4  189.68   15.10
  -3  -6  -4  230.98   16.70
  -3  -6  -4  174.08   15.70
  -3   6  -4  199.18   14.70
   3   6   4  199.08   13.10
   3   6   4  213.58   16.70
   4  -6   4   18.80    7.10
   4  -6   4   27.90    5.20
  -4  -6  -4   26.50    9.00
  -4  -6  -4   37.20    9.40
   4   6   4   33.70    9.60
  -4   6  -4   34.30    7.90
   4   6   4   17.90    5.80
  -5  -6  -4  188.78   19.00
  -5  -6  -4  197.98   19.20
   5  -6   4  152.28   17.00
   5   6   4  207.78   15.10
   5   6   4  182.28   19.40
  -5   6  -4  188.38   16.80
  -6  -7   4  173.28   16.40
   6  -7  -4  167.38   15.30
  -6   7   4  162.88   16.60
  -6   7   4  161.78   16.30
  -6   7   4  156.88   18.50
  -5  -7   4   56.79   11.50
   5  -7  -4   56.19   11.20
  -5   7   4   44.00   10.70
  -5   7   4   49.90   11.40
  -5   7   4   49.90   12.30
   4  -7  -4   63.59    7.20
  -4  -7   4   60.19   10.70
   4  -7  -4   69.59   10.70
  -4   7   4   86.19   13.40
  -4   7   4   81.09   11.00
  -4   7   4   61.99   11.80
   4   7  -4   44.80   10.30
  -3  -7   4 1333.37   59.39
   3  -7  -4 1335.57   56.59
   3   7  -4 1305.57   58.39
  -3   7   4 1341.87   60.99
  -3   7   4 1281.97   59.99
  -3   7   4 1277.87   58.49
  -2  -7   4   -4.30    6.50
   2  -7  -4    5.60    3.90
  -2   7   4   -7.90    5.80
  -2   7   4   -0.40   10.20
   2   7  -4    3.90    5.20
  -2   7   4    0.80    6.00
  -2   7   4    7.40    5.20
  -1  -7   4   22.30    6.50
   1  -7  -4   25.80    8.00
  -1   7   4   35.90    8.30
  -1   7   4   26.50    7.80
   1   7  -4   30.30    6.60
  -1   7   4   27.60    7.50
   0  -7   4   40.20    8.20
   0  -7  -4   52.79   12.20
   0   7  -4   43.70    9.90
   0   7   4   44.90    8.70
   0   7   4   44.30   11.20
   0   7   4   22.50    7.70
   1  -7   4  718.73   35.40
  -1  -7  -4  680.53   36.50
   1   7   4  757.02   33.60
   1   7   4  738.23   36.50
  -1   7  -4  714.23   35.00
   1   7   4  671.03   36.60
  -2  -7  -4  359.36   23.00
   2  -7   4  321.47   20.90
   2   7   4  305.17   21.70
   2   7   4  309.67   21.20
  -2   7  -4  318.07   20.00
   2   7   4  315.37   18.10
  -3  -7  -4   50.69   11.40
   3  -7   4   31.90    8.90
   3   7   4   45.00    9.70
  -3   7  -4   33.70    9.30
   3   7   4   48.50   10.40
   3   7   4   34.70   10.20
   3  -8  -4   -4.50    8.10
  -3   8   4   27.00   11.00
  -3   8   4    3.60    7.30
  -3   8   4   18.60    9.30
  -2  -8   4  311.87   21.90
  -2   8   4  277.67   21.30
  -2   8   4  315.37   19.80
  -2   8   4  334.07   24.80
   1  -8  -4   56.79   10.70
  -1  -8   4   61.99   13.50
  -1   8   4   64.69   14.10
  -1   8   4   72.39   16.50
  -1   8   4   52.69   11.40
   0  -8   4   66.39   14.10
   0  -8  -4   81.29   16.90
   0   8   4   69.29   15.10
   0   8   4   93.59   17.80
   0   8   4   64.29   11.70
  -1  -8  -4  145.29   19.50
   1  -8   4  144.69   16.90
   1   8   4  121.79   18.60
   1   8   4  115.99   13.00
   1   8   4  154.28   17.90
 -10   0   5   82.79   12.30
 -10   0   5   94.09   11.80
 -10   0   5  110.89   12.40
  -9   0   5  205.18   13.30
  -9   0   5  192.58   13.10
  -9   0   5  175.18   13.40
  -9   0   5  163.78   13.80
  -8   0   5  322.47   17.30
  -8   0   5  322.57   17.50
  -8   0   5  327.97   17.90
  -8   0   5  343.97   17.60
  -7   0   5  580.54   26.20
  -7   0   5  563.34   26.00
  -7   0   5  573.74   25.70
   7   0  -5  516.55   25.80
   7   0  -5  555.74   26.40
   7   0  -5  557.14   26.20
  -7   0   5  582.44   26.40
  -6   0   5  909.61   40.10
   6   0  -5  925.31   40.10
   6   0  -5  898.01   40.50
  -6   0   5  950.90   39.60
  -6   0   5  912.81   40.50
  -6   0   5  904.51   39.80
   6   0  -5  935.01   39.70
  -6   0   5  890.01   40.10
   6   0  -5  908.21   39.60
  -5   0   5 1530.45   64.49
  -5   0   5 1596.24   63.59
   5   0  -5 1501.65   63.39
  -5   0   5 1469.45   63.59
  -5   0   5 1518.05   63.79
   5   0  -5 1517.15   64.09
   5   0  -5 1476.45   63.39
  -5   0   5 1479.95   64.09
   5   0  -5 1494.95   64.59
  -4   0   5   19.40    2.40
  -4   0   5   13.60    2.40
   4   0  -5   15.10    2.30
   4   0  -5   17.30    2.10
  -4   0   5   22.10    3.40
  -4   0   5   24.30    3.90
   4   0  -5   13.80    2.80
   4   0  -5   16.30    3.40
   3   0  -5 1434.96   62.29
  -3   0   5 1488.35   60.89
  -3   0   5 1490.25   60.89
  -3   0   5 1475.05   62.09
  -3   0   5 1498.85   62.29
  -3   0   5 1463.65   61.29
  -3   0   5 1459.15   61.09
  -3   0   5 1442.96   61.09
  -2   0   5   18.50    1.70
  -2   0   5   15.80    1.40
  -2   0   5   18.60    1.60
  -2   0   5   18.20    2.90
   2   0  -5   21.00    2.80
  -2   0   5   17.00    2.80
  -2   0   5   18.60    1.70
  -2   0   5   14.70    2.10
  -1   0   5  352.66   15.10
  -1   0   5  347.17   15.40
  -1   0   5  336.47   15.40
   1   0  -5  326.87   15.40
   1   0  -5  346.97   15.40
   1   0  -5  341.37   14.80
  -1   0   5  336.27   14.80
   1   0  -5  340.57   14.60
   0   0  -5 2190.38   89.99
   0   0   5 2135.39   89.99
   0   0  -5 2111.59   89.39
   0   0  -5 1970.30   89.49
   0   0  -5 2147.39   89.59
   0   0   5 2185.78   89.39
   0   0   5 2269.87   89.89
   0   0   5 2191.48   89.59
   1   0   5  238.68   12.30
  -1   0  -5  258.67   11.10
  -1   0  -5  241.08   12.50
   1   0   5  279.87   12.40
  -1   0  -5  231.78   12.10
   1   0   5  250.77   12.50
  -1   0  -5  242.48   12.30
  -2   0  -5    9.60    2.90
   2   0   5   10.80    3.10
   2   0   5    9.00    3.00
   2   0   5    5.00    2.90
  -2   0  -5   10.40    2.70
  -2   0  -5   12.20    3.30
   3   0   5 1418.26   61.39
   3   0   5 1427.36   61.19
  -3   0  -5 1352.96   61.19
  -3   0  -5 1430.26   61.39
  -3   0  -5 1391.26   61.09
   3   0   5 1475.15   61.69
   4   0   5  435.86   21.70
   4   0   5  430.56   22.30
  -4   0  -5  422.66   21.50
   4   0   5  429.06   21.90
  -4   0  -5  419.06   21.80
  -5   0  -5  705.93   33.80
   5   0   5  676.03   33.40
   5   0   5  666.93   34.00
  -5   0  -5  687.23   33.90
   5   0   5  783.62   35.00
  -6   0  -5  112.49   12.20
   6   0   5  105.69   11.90
  -6   0  -5   88.59   12.00
   7   0   5  250.27   18.80
  -7   0  -5  279.77   20.20
 -10  -1   5 1256.57   56.79
 -10  -1   5 1331.47   57.99
 -10  -1   5 1244.18   58.39
 -10   1   5 1270.17   58.79
 -10   1   5 1288.07   57.99
 -10   1   5 1249.28   57.99
  -9  -1   5   19.50    5.40
  -9  -1   5    6.20    5.10
  -9  -1   5   16.60    4.80
   9  -1  -5    7.90    4.70
  -9   1   5    8.20    5.40
  -9   1   5    8.30    5.70
  -9   1   5   12.00    5.50
  -9   1   5   10.80    5.50
  -8  -1   5   77.79    8.00
   8  -1  -5   78.49    8.10
  -8  -1   5   72.89    7.90
  -8  -1   5   64.19    9.50
  -8  -1   5   83.99    7.80
  -8   1   5   86.19    7.90
  -8   1   5   79.69    8.50
  -8   1   5   68.69    8.20
  -8   1   5   48.90    8.10
   8   1  -5   67.69    8.60
   7  -1  -5   13.80    3.80
  -7  -1   5   14.50    3.70
   7  -1  -5   18.80    4.70
  -7  -1   5   17.20    3.70
  -7  -1   5   20.80    4.70
  -7  -1   5   23.20    4.90
  -7   1   5   17.80    4.20
  -7   1   5    8.00    4.80
   7   1  -5   15.60    4.00
  -7   1   5    9.40    3.70
  -7   1   5   15.00    3.20
  -7   1   5   12.90    3.80
   7   1  -5   22.00    4.20
   6  -1  -5  243.68   13.40
  -6  -1   5  268.47   13.40
  -6  -1   5  254.47   12.70
  -6  -1   5  251.97   12.60
   6  -1  -5  250.87   13.60
  -6  -1   5  241.48   12.80
   6  -1  -5  248.08   13.00
  -6  -1   5  251.67   13.90
   6  -1  -5  254.67   13.10
  -6   1   5  239.08   12.90
  -6   1   5  250.97   13.60
  -6   1   5  244.48   13.20
   6   1  -5  230.78   12.30
   6   1  -5  249.78   12.60
   6   1  -5  272.17   12.60
  -6   1   5  262.27   13.70
  -6   1   5  247.78   11.90
   5  -1  -5  243.78   11.90
   5  -1  -5  239.58   11.90
  -5  -1   5  249.28   11.50
  -5  -1   5  243.48   12.90
  -5  -1   5  223.88   11.60
   5  -1  -5  251.17   12.70
   5  -1  -5  230.78   12.60
  -5  -1   5  252.77   11.90
   5   1  -5  238.48   11.30
  -5   1   5  222.08   12.10
  -5   1   5  240.88   10.90
   5   1  -5  231.18   11.10
  -5   1   5  256.17   12.10
   5   1  -5  254.77   11.90
  -5   1   5  240.48   12.60
  -5   1   5  231.78   12.60
   4  -1  -5   86.39    5.10
   4  -1  -5   76.49    5.10
   4  -1  -5   78.49    5.80
   4  -1  -5   84.79    6.00
  -4  -1   5   78.69    4.50
  -4  -1   5   80.69    5.10
  -4  -1   5   74.89    4.30
  -4  -1   5   79.29    6.10
  -4   1   5   86.79    5.30
   4   1  -5   77.89    4.10
  -4   1   5   73.89    5.00
  -4   1   5   79.19    3.90
  -4   1   5   81.39    6.00
  -4   1   5   80.59    6.00
  -3  -1   5  299.87   14.50
   3  -1  -5  329.27   13.70
  -3  -1   5  298.37   13.80
   3  -1  -5  300.57   14.50
  -3   1   5  294.67   14.50
  -3   1   5  300.97   13.80
  -3   1   5  309.17   13.80
  -3   1   5  291.37   14.50
  -3   1   5  303.17   13.90
  -3   1   5  286.67   13.60
  -2  -1   5   68.79    4.60
  -2  -1   5   78.59    4.80
   2  -1  -5   75.59    5.10
  -2   1   5   71.19    5.10
  -2   1   5   74.39    3.70
  -2   1   5   69.99    4.50
  -2   1   5   72.59    4.30
  -2   1   5   76.09    5.20
  -2   1   5   77.29    4.50
  -2   1   5   68.49    4.50
   1  -1  -5   61.79    4.00
  -1  -1   5   64.09    3.50
  -1  -1   5   61.59    4.50
  -1  -1   5   65.49    3.30
  -1  -1   5   62.99    4.30
   1  -1  -5   63.29    3.80
   1  -1  -5   64.59    4.40
   1  -1  -5   57.69    4.10
  -1   1   5   56.29    4.20
  -1   1   5   57.69    4.30
  -1   1   5   69.09    4.50
  -1   1   5   65.59    3.90
   1   1  -5   63.09    3.20
   0  -1   5 1195.38   49.70
   0  -1   5 1178.38   49.80
   0  -1  -5 1213.58   50.19
   0  -1   5 1166.88   49.99
   0  -1  -5 1240.98   50.39
   0  -1  -5 1210.28   50.29
   0  -1  -5 1168.78   49.99
   0  -1   5 1179.58   50.59
   0   1   5 1166.68   50.09
   0   1   5 1277.27   50.49
   0   1   5 1205.88   50.69
   0   1  -5 1235.78   50.69
   0   1  -5 1007.70   49.60
   0   1  -5 1146.29   49.70
   1  -1   5  115.39    6.90
   1  -1   5  123.89    7.70
  -1  -1  -5  116.69    6.20
  -1  -1  -5  123.79    7.20
  -1  -1  -5  118.79    7.30
   1  -1   5  120.79    5.70
   1  -1   5  114.99    7.10
  -1   1  -5  114.89    6.80
  -1   1  -5  119.89    7.50
  -1   1  -5  108.19    6.70
   1   1   5  119.49    7.20
   1   1   5  114.29    7.30
   1   1   5  129.99    7.80
  -2  -1  -5  190.98   10.80
   2  -1   5  182.58   10.30
  -2  -1  -5  186.38   10.50
  -2  -1  -5  184.68    8.60
   2  -1   5  193.28   10.60
   2  -1   5  181.08   10.70
  -2  -1  -5  174.58   10.40
   2   1   5  190.48   10.70
   2   1   5  181.28   10.30
  -2   1  -5  172.58   10.10
   2   1   5  179.98   10.90
  -2   1  -5  191.38   10.90
   3  -1   5   42.60    6.40
  -3  -1  -5   49.99    6.40
   3  -1   5   62.49    7.20
  -3  -1  -5   50.19    6.60
   3  -1   5   48.70    6.50
  -3  -1  -5   45.60    6.70
  -3  -1  -5   52.39    3.10
   3  -1   5   51.79    6.50
  -3   1  -5   54.69    6.30
   3   1   5   55.19    7.00
  -3   1  -5   51.89    6.00
   3   1   5   56.49    6.20
   3   1   5   56.59    7.20
  -3   1  -5   45.70    6.70
   4  -1   5 1611.94   68.39
   4  -1   5 1594.94   68.19
  -4  -1  -5 1470.85   68.19
  -4  -1  -5 1494.45   67.99
   4  -1   5 1574.94   67.89
  -4   1  -5 1530.45   67.99
  -4   1  -5 1601.34   67.79
   4   1   5 1663.33   68.39
   4   1   5 1563.44   67.99
   4   1   5 1498.05   68.39
   5  -1   5  627.44   29.90
   5  -1   5  552.24   29.00
  -5  -1  -5  609.94   28.90
  -5  -1  -5  549.85   29.00
   5  -1   5  539.25   28.40
   5   1   5  530.65   29.80
   5   1   5  622.54   29.90
  -5   1  -5  611.44   29.00
   5   1   5  529.55   28.20
  -5   1  -5  577.34   28.40
  -6  -1  -5   25.70    7.30
   6  -1   5   29.50    6.90
  -6  -1  -5   18.30    7.50
   6   1   5   25.20    7.10
  -6   1  -5   25.30    7.50
  -6   1  -5   22.10    6.80
   7  -1   5  284.37   19.50
  -7  -1  -5  253.87   20.20
   7   1   5  287.57   20.00
  -7   1  -5  291.77   20.40
 -10  -2   5   22.40    7.60
  10  -2  -5   19.30    6.90
 -10  -2   5   12.00    6.90
 -10   2   5   25.50    7.80
 -10   2   5   15.00    7.20
 -10   2   5   12.60    7.40
   9  -2  -5   85.59    9.90
  -9  -2   5   87.79   10.20
  -9  -2   5   86.09   10.10
  -9   2   5   88.89   10.80
  -9   2   5   84.69   10.90
  -9   2   5   78.59   10.90
   8  -2  -5 1143.49   49.90
  -8  -2   5 1159.68   49.90
  -8  -2   5 1163.48   49.60
  -8  -2   5 1099.69   48.40
   8   2  -5 1116.99   48.50
  -8   2   5 1085.69   48.10
  -8   2   5 1158.98   50.69
  -8   2   5 1080.29   50.19
  -8   2   5 1019.30   49.80
  -7  -2   5   68.09    9.60
   7  -2  -5   75.29    7.60
  -7  -2   5   57.19    6.60
  -7  -2   5   75.89    6.10
  -7  -2   5   74.19    6.90
  -7   2   5   73.99    7.70
  -7   2   5   70.09    5.70
  -7   2   5   81.69    8.00
   7   2  -5   78.69    6.60
  -7   2   5   71.29    7.70
   6  -2  -5   48.70    7.60
  -6  -2   5   57.49    7.50
   6  -2  -5   63.19    6.40
   6  -2  -5   68.79    6.90
  -6  -2   5   60.19    7.40
  -6  -2   5   61.89    5.70
  -6  -2   5   59.59    5.30
  -6  -2   5   62.09    4.90
   6   2  -5   59.89    5.20
   6   2  -5   53.79    5.60
   6   2  -5   66.89    5.30
   6   2  -5   67.09    5.20
  -6   2   5   57.29    4.20
  -6   2   5   62.49    6.80
  -6   2   5   44.10    7.20
  -6   2   5   54.29    5.90
  -6   2   5   60.49    6.30
   5  -2  -5 5661.73  222.68
  -5  -2   5 5307.77  221.58
  -5  -2   5 5537.85  223.18
   5  -2  -5 5469.65  222.98
   5  -2  -5 4945.21  222.48
   5  -2  -5 5561.74  223.08
  -5  -2   5 5468.65  221.78
  -5  -2   5 5205.78  222.08
   5   2  -5 5469.05  221.48
  -5   2   5 5024.80  222.98
   5   2  -5 5760.52  221.68
  -5   2   5 5094.49  222.78
  -5   2   5 5338.47  222.88
  -5   2   5 5364.96  222.58
   5   2  -5 5206.98  221.38
   4  -2  -5  478.25   22.70
  -4  -2   5  485.95   22.60
   4  -2  -5  505.65   22.20
  -4  -2   5  480.85   21.20
  -4  -2   5  475.15   21.00
   4  -2  -5  515.55   22.40
  -4  -2   5  460.25   21.30
   4  -2  -5  477.25   22.50
  -4   2   5  441.76   22.30
   4   2  -5  493.65   20.90
  -4   2   5  483.55   22.80
   4   2  -5  510.25   20.60
  -4   2   5  504.05   22.50
  -4   2   5  515.95   22.30
   3  -2  -5  312.27   15.10
   3  -2  -5  330.07   14.80
  -3  -2   5  308.27   13.50
  -3  -2   5  307.47   15.00
  -3  -2   5  297.47   13.80
  -3   2   5  339.47   14.90
  -3   2   5  289.57   14.50
  -3   2   5  308.57   14.80
  -3   2   5  306.27   15.20
  -3   2   5  290.17   14.70
  -2  -2   5  669.33   28.40
   2  -2  -5  640.24   28.60
   2  -2  -5  635.54   28.40
  -2  -2   5  643.54   28.60
  -2  -2   5  655.03   27.20
  -2   2   5  638.34   28.30
  -2   2   5  642.64   28.80
  -2   2   5  652.63   28.50
  -2   2   5  640.14   28.50
  -2   2   5  629.94   28.30
   1  -2  -5 4662.23  192.28
  -1  -2   5 4359.16  192.38
  -1  -2   5 4528.35  191.38
   1  -2  -5 4709.03  191.28
  -1  -2   5 4501.95  191.18
  -1  -2   5 4804.72  191.98
  -1   2   5 4768.52  192.48
  -1   2   5 4268.87  192.38
   1   2  -5 4773.32  191.08
  -1   2   5 4756.42  192.38
   1   2  -5 4945.31  190.88
  -1   2   5 4548.25  192.28
  -1   2   5 4608.24  192.68
   0  -2   5  272.27   12.20
   0  -2   5  289.67   12.30
   0  -2  -5  247.08   12.90
   0  -2   5  250.47   13.20
   0  -2  -5  275.47   13.10
   0  -2   5  261.77   12.40
   0  -2  -5  260.27   12.60
   0  -2  -5  269.47   12.40
   0   2  -5  249.38   12.00
   0   2  -5  254.47   12.00
   0   2   5  264.97   13.20
   0   2  -5  266.97   12.00
   0   2   5  248.28   13.40
   0   2   5  246.88   12.20
   0   2   5  258.77   13.30
   1  -2   5 1213.08   50.39
   1  -2   5 1246.48   51.69
   1  -2   5 1238.68   51.79
  -1  -2  -5 1250.67   51.59
   1  -2   5 1218.18   51.39
  -1  -2  -5 1150.18   52.09
  -1  -2  -5 1198.38   51.99
   1  -2   5 1158.38   52.09
  -1  -2  -5 1191.68   51.09
   1   2   5 1185.18   52.49
  -1   2  -5 1227.28   52.29
   1   2   5 1143.89   52.29
  -1   2  -5 1219.38   51.29
  -1   2  -5 1223.18   51.39
   1   2   5 1229.48   52.09
   1   2   5 1179.68   51.49
  -2  -2  -5  690.53   32.50
  -2  -2  -5  728.03   32.80
   2  -2   5  718.33   32.70
   2  -2   5  741.73   32.40
   2  -2   5  720.13   32.00
   2  -2   5  697.63   32.30
  -2  -2  -5  767.32   32.30
   2   2   5  689.33   33.00
   2   2   5  793.42   32.90
  -2   2  -5  710.83   32.60
   2   2   5  688.03   32.10
  -2   2  -5  673.73   31.90
  -3  -2  -5   20.50    4.60
   3  -2   5   25.60    5.70
   3  -2   5   16.90    4.30
   3  -2   5   25.60    6.00
  -3  -2  -5   18.60    4.40
   3  -2   5   17.20    4.90
  -3  -2  -5   27.40    6.40
   3   2   5   15.50    4.70
   3   2   5   22.60    5.40
  -3   2  -5   15.90    4.90
   3   2   5   19.50    4.90
  -3   2  -5   16.40    4.10
   4  -2   5    5.60    4.80
  -4  -2  -5   14.90    5.20
   4  -2   5    2.30    4.60
  -4  -2  -5   14.90    5.20
   4  -2   5   17.80    5.10
   4   2   5    6.20    4.10
  -4   2  -5    3.30    3.90
   4   2   5    5.70    5.50
   4   2   5   -5.30    5.00
  -4   2  -5    8.80    4.40
   5  -2   5   16.80    7.20
   5  -2   5    1.70    7.20
   5  -2   5   13.80    5.30
  -5  -2  -5   18.50    6.30
  -5  -2  -5    8.60    6.10
  -5  -2  -5   12.90    2.60
  -5  -2  -5   15.70    3.00
  -5   2  -5    9.70    5.20
   5   2   5    7.40    9.20
   5   2   5   14.00    5.50
   5   2   5   15.90    8.10
  -5   2  -5    2.80    5.40
  -6  -2  -5   59.59   11.30
  -6  -2  -5   57.19   12.70
   6  -2   5   44.00    8.50
  -6   2  -5   46.30   10.60
   6   2   5   52.59   10.50
  -6   2  -5   40.50    8.60
  -7  -2  -5   16.30    9.90
   7  -2   5   14.60    7.30
   7   2   5   23.90    8.80
  -7   2  -5   17.20    8.70
 -10  -3   5  930.41   46.20
 -10  -3   5 1040.30   46.00
  10  -3  -5 1040.80   45.70
 -10   3   5  979.90   47.50
 -10   3   5  908.51   46.70
 -10   3   5  889.51   46.50
  -9  -3   5    5.20    5.60
   9  -3  -5   12.90    5.80
  -9  -3   5   12.10    6.10
  -9   3   5   28.40    7.20
  -9   3   5   11.90    7.00
  -9   3   5    4.90    6.20
   8  -3  -5   62.89    8.70
  -8  -3   5   73.29    8.70
  -8  -3   5   84.69    8.50
  -8   3   5   58.19    9.20
  -8   3   5   69.49    9.30
  -8   3   5   57.79    9.60
   8   3  -5   66.39    6.90
   7  -3  -5   41.60    7.00
  -7  -3   5   34.70    6.20
  -7  -3   5   35.80    5.90
  -7   3   5   44.30    7.40
  -7   3   5   43.40    7.00
  -7   3   5   36.20    7.40
   7   3  -5   32.90    6.40
   7   3  -5   33.60    4.90
  -7   3   5   28.30    4.40
  -6  -3   5  135.99    9.20
  -6  -3   5  152.98    9.10
   6  -3  -5  152.08   10.20
  -6   3   5  152.08   10.90
  -6   3   5  149.49   10.60
   6   3  -5  156.38    9.00
   6   3  -5  144.89    9.30
  -6   3   5  135.79    9.90
  -6   3   5  146.19   10.70
  -5  -3   5  186.98    9.70
  -5  -3   5  185.18    8.30
  -5  -3   5  184.78   10.10
   5  -3  -5  178.88   11.00
   5  -3  -5  179.88   11.00
   5   3  -5  193.68    9.80
  -5   3   5  173.88   10.90
  -5   3   5  179.28   11.10
   5   3  -5  173.58    9.30
  -5   3   5  189.68   11.40
   5   3  -5  185.48    9.50
  -5   3   5  165.98   11.10
   4  -3  -5   80.59    7.00
  -4  -3   5   93.89    5.80
   4  -3  -5   77.99    7.50
   4  -3  -5  102.99    7.40
  -4  -3   5   78.49    7.20
   4  -3  -5   85.49    7.10
  -4   3   5   73.59    6.60
   4   3  -5   89.39    5.10
  -4   3   5   82.39    6.90
  -4   3   5   87.89    7.20
   4   3  -5   91.89    5.20
   4   3  -5   92.39    5.50
  -4   3   5   86.89    7.20
  -3  -3   5  207.48   11.60
   3  -3  -5  217.48   11.90
   3  -3  -5  220.58   11.80
  -3  -3   5  209.58   10.40
  -3  -3   5  224.48    9.50
   3   3  -5  217.88   10.10
  -3   3   5  231.38   12.10
  -3   3   5  206.68   11.90
   3   3  -5  216.68    9.70
  -3   3   5  190.58   11.60
   3   3  -5  231.58    9.80
  -3   3   5  215.58   11.90
   3   3  -5  219.28   10.10
  -3   3   5  195.98   11.40
  -2  -3   5   72.89    6.20
   2  -3  -5   69.39    5.90
   2  -3  -5   72.79    6.00
  -2  -3   5   66.69    5.80
  -2  -3   5   70.09    4.80
  -2  -3   5   74.49    4.30
   2  -3  -5   76.39    6.60
  -2   3   5   72.99    6.10
   2   3  -5   75.39    4.40
  -2   3   5   70.39    6.40
   2   3  -5   80.89    4.20
  -2   3   5   70.59    5.90
   2   3  -5   74.19    4.10
  -2   3   5   69.69    6.30
  -2   3   5   74.49    6.00
   2   3  -5   75.89    4.50
   1  -3  -5   42.10    4.90
   1  -3  -5   45.20    3.30
   1  -3  -5   39.70    4.70
  -1  -3   5   43.90    5.00
  -1  -3   5   46.40    3.80
  -1  -3   5   35.70    4.40
  -1  -3   5   48.20    4.20
  -1  -3   5   42.20    3.90
   1   3  -5   45.90    3.60
  -1   3   5   46.80    5.40
  -1   3   5   44.10    5.20
   1   3  -5   47.80    3.80
  -1   3   5   44.20    4.90
  -1   3   5   47.20    5.10
   1   3  -5   43.70    3.40
  -1   3   5   38.30    5.30
   0  -3  -5  999.20   42.60
   0  -3  -5  935.61   43.60
   0  -3  -5 1065.59   43.90
   0  -3   5 1004.00   43.00
   0  -3   5 1042.70   42.80
   0  -3   5 1031.00   42.70
   0  -3   5  993.00   42.70
   0  -3   5  991.80   43.90
   0   3   5 1025.80   44.30
   0   3   5 1021.10   43.90
   0   3  -5  983.80   42.50
   0   3   5  947.11   44.00
   0   3   5 1001.00   43.70
   0   3  -5  956.80   42.50
   0   3  -5  951.20   42.50
   1  -3   5  126.99    8.10
  -1  -3  -5  135.39    9.20
   1  -3   5  128.79    9.00
  -1  -3  -5  134.39    8.20
   1  -3   5  128.89    8.40
   1  -3   5  140.19    7.30
   1  -3   5  134.89    8.40
  -1  -3  -5  128.69    8.90
   1   3   5  130.09    9.40
  -1   3  -5  130.39    8.10
  -1   3  -5  145.09    8.10
   1   3   5  122.89    9.10
   1   3   5  124.89    9.50
  -1   3  -5  125.09    7.90
   2  -3   5  126.99    9.00
   2  -3   5  135.59    6.80
   2  -3   5  140.39    9.30
  -2  -3  -5  122.79    9.40
  -2  -3  -5  135.09    9.10
  -2  -3  -5  129.59    9.80
   2  -3   5  131.79    9.60
   2  -3   5  130.19    9.30
   2   3   5  122.69    9.80
  -2   3  -5  135.79    8.70
   2   3   5  126.19   10.50
   2   3   5  126.89    9.80
  -3  -3  -5   39.60    7.40
   3  -3   5   55.79    7.40
   3  -3   5   57.69    7.60
   3  -3   5   57.39    8.30
  -3  -3  -5   30.30    7.30
   3  -3   5   46.30    7.60
  -3  -3  -5   43.40    7.70
  -3   3  -5   45.60    6.80
  -3   3  -5   62.09    7.20
   3   3   5   57.99    9.30
   3   3   5   50.99    8.90
   3   3   5   48.70    7.70
  -4  -3  -5 1200.98   55.29
  -4  -3  -5 1226.68   55.79
   4  -3   5 1132.89   54.79
   4  -3   5 1233.78   55.29
   4  -3   5 1240.68   55.49
   4   3   5 1283.47   56.59
  -4   3  -5 1253.07   55.09
   4   3   5 1292.37   56.19
  -4   3  -5 1226.68   54.79
  -5  -3  -5  428.66   22.90
   5  -3   5  375.76   22.10
  -5  -3  -5  376.06   23.00
   5  -3   5  391.26   23.50
  -5   3  -5  418.46   22.40
   5   3   5  397.76   25.80
  -5   3  -5  370.66   21.60
   6  -3   5    6.70    7.20
  -6  -3  -5   19.70    8.50
  -6  -3  -5   30.70    9.10
  -6   3  -5   18.20    7.90
  -7  -3  -5  281.87   22.40
  -7   3  -5  222.08   21.00
  -9  -4   5  129.89   13.50
   9  -4  -5  134.29   13.30
  -9  -4   5  160.78   13.30
  -9   4   5  135.29   15.80
  -9   4   5  130.39   14.70
  -9   4   5  125.69   14.00
   8  -4  -5  181.18   13.50
  -8  -4   5  181.68   12.80
  -8  -4   5  167.58   13.30
  -8   4   5  208.28   14.80
  -8   4   5  209.58   14.80
  -8   4   5  166.28   14.80
  -7  -4   5  334.17   17.90
   7  -4  -5  328.97   18.70
  -7  -4   5  330.87   18.40
  -7   4   5  328.47   20.50
  -7   4   5  355.76   19.50
  -7   4   5  331.67   19.20
  -7   4   5  360.06   20.10
   7   4  -5  351.06   18.10
  -6  -4   5  562.24   26.90
  -6  -4   5  546.25   26.30
   6  -4  -5  569.94   27.60
  -6   4   5  575.14   28.00
   6   4  -5  590.84   26.30
  -6   4   5  560.84   27.70
  -6   4   5  614.94   28.50
  -6   4   5  534.05   28.10
   5  -4  -5  902.01   41.10
  -5  -4   5  907.01   40.20
  -5  -4   5  881.11   39.80
  -5   4   5  840.32   41.40
   5   4  -5  943.31   39.80
   5   4  -5  929.51   39.70
  -5   4   5  938.21   41.80
  -5   4   5  884.01   41.10
  -5   4   5  907.51   41.30
   5   4  -5  956.30   39.80
  -4  -4   5   16.30    4.20
   4  -4  -5   10.90    4.50
   4  -4  -5   21.80    4.40
   4  -4  -5   10.30    4.40
  -4  -4   5   13.70    4.30
   4   4  -5   23.30    4.50
  -4   4   5   13.40    4.10
  -4   4   5   24.10    5.30
   4   4  -5   15.40    3.10
  -4   4   5   15.80    4.00
  -4   4   5   11.70    4.00
   4   4  -5   19.70    3.90
  -4   4   5   15.60    4.20
   4   4  -5   15.50    4.10
   3  -4  -5  685.83   35.80
   3  -4  -5  801.52   35.70
  -3  -4   5  787.62   34.70
  -3   4   5  787.22   35.90
  -3   4   5  835.12   36.00
  -3   4   5  794.62   36.20
   3   4  -5  817.02   34.20
  -3   4   5  833.22   35.90
   3   4  -5  792.72   34.30
   3   4  -5  844.52   34.40
  -3   4   5  735.63   36.00
   3   4  -5  772.52   34.10
   2  -4  -5   19.30    2.50
  -2  -4   5   24.50    5.50
  -2  -4   5   24.30    4.30
   2  -4  -5    9.90    3.40
   2  -4  -5   16.80    3.70
   2  -4  -5   17.50    4.90
   2   4  -5   21.60    3.70
  -2   4   5   24.20    5.20
   2   4  -5   20.10    3.60
  -2   4   5   21.40    5.10
  -2   4   5   15.60    3.80
   2   4  -5   14.00    2.90
  -2   4   5   19.40    4.70
  -2   4   5   14.90    4.20
   2   4  -5   17.00    3.50
   1  -4  -5  292.57   15.10
  -1  -4   5  269.87   13.90
  -1  -4   5  276.37   12.60
   1  -4  -5  264.47   12.80
  -1  -4   5  274.27   14.90
  -1   4   5  311.27   15.20
  -1   4   5  255.67   15.00
   1   4  -5  283.07   13.40
   1   4  -5  272.47   13.50
   1   4  -5  261.17   13.30
   1   4  -5  267.67   13.40
  -1   4   5  256.97   15.20
  -1   4   5  302.67   15.40
  -1   4   5  274.67   14.60
   0  -4  -5 1350.96   57.29
   0  -4   5 1295.07   58.69
   0  -4  -5 1315.37   58.99
   0  -4   5 1410.16   57.09
   0  -4   5 1362.96   57.99
   0  -4   5 1304.37   57.69
   0   4   5 1407.66   59.09
   0   4  -5 1379.46   57.59
   0   4   5 1359.66   59.29
   0   4   5 1367.66   59.39
   0   4   5 1298.97   58.29
   0   4  -5 1402.86   57.69
   0   4  -5 1249.47   57.39
   0   4   5 1352.86   58.89
   1  -4   5  131.99    9.90
  -1  -4  -5  136.99   10.20
  -1  -4  -5  145.59   10.20
  -1  -4  -5  138.79    8.90
   1  -4   5  136.59    9.20
   1  -4   5  125.39    9.40
   1  -4   5  143.19    8.80
  -1   4  -5  133.59    8.80
  -1   4  -5  125.19    8.60
   1   4   5  139.79   10.50
   1   4   5  129.59    9.40
   1   4   5  147.79   11.10
   1   4   5  116.09   10.90
  -2  -4  -5   -0.40    3.70
   2  -4   5   -2.60    3.80
  -2  -4  -5    5.20    4.20
   2  -4   5    5.40    4.30
   2  -4   5    2.60    4.10
  -2  -4  -5    4.10    3.90
   2   4   5    8.20    5.20
  -2   4  -5    1.00    3.30
   2   4   5   11.20    4.80
   2   4   5    3.70    5.20
   3  -4   5  812.82   37.50
  -3  -4  -5  791.82   37.50
   3  -4   5  748.63   36.60
  -3  -4  -5  829.42   38.10
   3  -4   5  807.32   37.30
   3  -4   5  773.12   36.80
   3   4   5  714.73   37.90
  -3   4  -5  759.82   36.40
  -3   4  -5  857.01   37.10
   3   4   5  781.32   38.50
   3   4   5  858.71   38.30
  -4  -4  -5  322.07   20.10
  -4  -4  -5  310.17   19.40
   4  -4   5  331.07   20.60
   4  -4   5  313.67   19.20
   4   4   5  342.17   23.00
   4   4   5  302.87   19.90
  -4   4  -5  358.86   19.20
  -4   4  -5  341.47   19.50
  -5  -4  -5  455.65   27.20
   5  -4   5  492.85   26.60
  -5  -4  -5  468.15   26.60
  -5   4  -5  540.25   26.40
   5   4   5  451.25   27.30
   6  -4   5   99.19   13.80
  -6  -4  -5   88.69   15.30
  -6   4  -5   98.39   14.20
   6   4   5   97.99   16.90
  -8  -5   5   17.60    6.50
   8  -5  -5   11.20    7.00
  -8  -5   5   17.20    6.30
  -8   5   5   14.80    7.40
  -8   5   5   16.40    7.60
  -8   5   5    8.10    7.20
  -7  -5   5   11.90    5.40
   7  -5  -5   10.40    5.80
  -7  -5   5   32.30    8.20
  -7   5   5   19.80    7.20
  -7   5   5   16.40    6.60
  -7   5   5   12.30    6.10
  -6  -5   5  233.48   14.50
   6  -5  -5  262.17   15.60
   6  -5  -5  232.78   10.90
   6   5  -5  218.18   13.90
  -6   5   5  246.48   15.60
  -6   5   5  260.67   15.90
  -6   5   5  253.37   16.50
  -6   5   5  215.98   20.20
   5  -5  -5  133.89   10.70
  -5  -5   5  137.49   10.00
  -5   5   5  144.69   11.20
   5   5  -5  130.89    9.50
  -5   5   5  144.49   11.20
  -5   5   5  125.59   12.60
   5   5  -5  141.69    9.70
  -5   5   5  138.99   11.80
  -4  -5   5   78.39    7.40
   4  -5  -5   78.29    8.30
  -4   5   5   91.49   11.20
  -4   5   5   75.69   10.00
  -4   5   5   87.99    8.80
   4   5  -5   67.69    6.60
  -4   5   5   60.49    8.60
  -4   5   5   69.69    8.10
   4   5  -5   66.99    7.00
   3  -5  -5  121.49    9.40
  -3  -5   5   90.29    8.10
   3  -5  -5  114.99    6.00
   3  -5  -5  112.79    6.10
  -3   5   5  118.29    9.40
   3   5  -5  112.59    8.30
  -3   5   5   99.79   10.50
  -3   5   5  115.99   10.10
   3   5  -5  123.99    8.10
  -3   5   5  113.09    9.30
  -3   5   5  101.39   10.80
   3   5  -5  125.49    8.10
   2  -5  -5   68.49    7.30
  -2  -5   5   70.69    8.30
   2  -5  -5   56.99    4.90
  -2  -5   5   66.69    7.00
   2  -5  -5   62.89    4.60
  -2   5   5   53.29    7.50
  -2   5   5   62.99    9.60
   2   5  -5   53.69    5.90
  -2   5   5   65.89    9.20
   2   5  -5   62.29    6.80
  -2   5   5   57.99    7.30
  -2   5   5   51.79    7.90
   2   5  -5   51.89    6.00
   1  -5  -5   68.99    5.80
  -1  -5   5   68.69    4.30
  -1  -5   5   63.59    7.00
   1  -5  -5   56.99    8.00
  -1  -5   5   69.49    7.90
  -1   5   5   52.19    9.40
  -1   5   5   58.29    9.10
   1   5  -5   68.49    6.30
  -1   5   5   60.49    7.60
  -1   5   5   70.59    8.50
   1   5  -5   42.20    6.60
   1   5  -5   57.19    6.10
  -1   5   5   58.89    7.30
   0  -5   5  713.73   31.20
   0  -5  -5  683.13   30.00
   0  -5  -5  708.93   32.40
   0  -5   5  627.84   31.60
   0  -5   5  704.23   29.30
   0  -5   5  666.43   30.80
   0   5   5  618.14   32.20
   0   5  -5  630.04   30.40
   0   5   5  713.83   32.20
   0   5   5  620.84   32.30
   0   5  -5  673.73   30.50
   0   5   5  658.03   32.40
   0   5   5  637.24   30.80
   1  -5   5   48.30    6.70
  -1  -5  -5   40.70    8.30
   1  -5   5   47.60    7.90
  -1  -5  -5   48.40    7.60
   1  -5   5   46.10    8.00
   1  -5   5   52.79    7.90
  -1   5  -5   53.39    7.10
   1   5   5   40.20   10.10
   1   5   5   39.30    8.50
  -1   5  -5   45.70    6.90
   1   5   5   61.99    8.40
   1   5   5   43.70    7.00
   1   5   5   50.39   11.10
   2  -5   5   66.39    9.20
   2  -5   5   70.69    9.00
   2  -5   5   74.79    9.90
   2  -5   5   68.09   10.30
  -2  -5  -5   77.69    9.90
  -2  -5  -5   79.59   10.00
   2   5   5   54.49   12.70
   2   5   5   55.79    7.80
   2   5   5   71.29   10.30
  -2   5  -5   63.69    8.10
  -3  -5  -5   29.90    7.40
   3  -5   5   37.60    9.40
  -3  -5  -5   47.90   10.40
   3  -5   5   40.40   10.50
   3   5   5   35.50    9.30
  -3   5  -5   28.00    6.40
  -3   5  -5   36.10    8.30
   3   5   5   48.10   10.40
  -4  -5  -5  924.71   44.80
  -4  -5  -5  893.61   44.10
   4  -5   5  870.11   43.60
   4   5   5  950.10   45.10
  -4   5  -5  961.20   43.40
  -5  -5  -5  276.57   21.70
   5  -5   5  298.07   20.80
  -5  -5  -5  313.17   21.20
   5   5   5  297.97   22.40
  -5   5  -5  291.27   20.60
  -7  -6   5   39.60   10.80
   7  -6  -5   36.80    8.60
  -7   6   5   49.40    9.70
  -7   6   5   54.19   14.40
  -7   6   5   42.00    9.00
   6  -6  -5   11.30    6.20
  -6  -6   5   14.20    5.70
  -6   6   5   26.00    7.30
  -6   6   5   12.30    7.30
  -6   6   5   18.30    7.20
   5  -6  -5 2156.38   93.69
  -5  -6   5 2205.48   93.49
  -5   6   5 2298.87   95.49
  -5   6   5 2098.19   93.89
  -5   6   5 2070.19   94.29
   4  -6  -5  229.38   15.30
   4  -6  -5  234.08   11.30
  -4  -6   5  219.88   14.50
  -4   6   5  251.97   16.30
  -4   6   5  245.18   15.70
  -4   6   5  246.08   16.90
  -4   6   5  238.18   19.20
   4   6  -5  251.97   14.40
   3  -6  -5   80.09    9.40
  -3  -6   5   82.69    8.80
   3  -6  -5   68.39    5.50
   3  -6  -5   73.69    6.30
  -3   6   5   83.19    9.80
  -3   6   5   81.99   10.60
  -3   6   5   69.19   12.70
   3   6  -5   71.69    8.00
   3   6  -5   65.29    8.40
  -3   6   5   73.49    9.00
  -2  -6   5  298.77   17.00
  -2  -6   5  287.57   17.60
   2  -6  -5  284.37   14.10
   2  -6  -5  294.17   14.60
  -2   6   5  265.57   20.10
  -2   6   5  302.07   18.70
   2   6  -5  318.57   16.00
  -2   6   5  261.97   17.30
  -2   6   5  280.47   16.70
   2   6  -5  284.77   16.00
  -1  -6   5 1696.83   73.09
  -1  -6   5 1623.24   73.59
   1  -6  -5 1655.23   71.39
   1  -6  -5 1796.32   74.69
  -1   6   5 1723.93   74.19
   1   6  -5 1582.94   72.19
  -1   6   5 1665.43   72.79
  -1   6   5 1577.64   74.59
   1   6  -5 1626.44   72.29
  -1   6   5 1831.72   75.09
   0  -6   5   71.89    9.80
   0  -6   5   78.39    6.60
   0  -6  -5   79.49   10.80
   0  -6   5   71.99    9.70
   0  -6  -5   79.79    8.80
   0   6  -5   67.99    8.70
   0   6   5   65.99   10.50
   0   6  -5   65.59    8.40
   0   6   5   74.79   13.40
   0   6   5   70.49    8.90
   0   6   5   67.39   10.10
  -1  -6  -5  417.26   23.10
   1  -6   5  400.96   22.10
   1   6   5  381.86   22.80
   1   6   5  401.56   20.60
  -1   6  -5  395.06   21.00
   1   6   5  360.96   24.90
   1   6   5  382.46   22.30
  -2  -6  -5  277.37   19.60
   2  -6   5  297.57   18.70
  -2   6  -5  277.97   17.60
   2   6   5  304.37   19.30
   2   6   5  275.37   16.60
   2   6   5  298.97   19.40
   3  -6   5   44.80    9.30
  -3  -6  -5   34.50    9.00
  -3  -6  -5   51.29   12.50
   3   6   5   41.70    9.20
   3   6   5   58.79   13.00
  -3   6  -5   44.30    8.00
  -4  -6  -5   19.90    9.70
  -4  -6  -5   19.60    9.50
   4  -6   5    4.10    7.50
   4   6   5   26.60   10.00
   4   6   5   24.90    7.00
   6  -7  -5   73.59   13.40
  -6   7   5   56.59   13.70
  -6   7   5   83.39   15.90
   5  -7  -5   82.79   12.30
  -5  -7   5   93.29   12.00
  -5   7   5  120.29   13.70
  -5   7   5   90.89   15.40
  -5   7   5   64.89   13.50
  -4  -7   5   88.19   11.10
   4  -7  -5   61.59   11.90
  -4   7   5   80.89   14.70
  -4   7   5   94.19   12.50
  -4   7   5   95.29   13.00
  -3  -7   5   95.39   13.20
   3  -7  -5   83.69   11.50
  -3   7   5   89.19   12.50
  -3   7   5  107.69   12.00
  -3   7   5   96.89   14.20
  -2  -7   5   77.09   12.30
   2  -7  -5   67.19    7.20
  -2   7   5   55.89   10.20
  -2   7   5   69.59   13.20
  -2   7   5   68.29   12.10
   1  -7  -5   50.09   13.00
  -1  -7   5   36.40    8.30
  -1   7   5   33.40    8.80
  -1   7   5   37.90    7.20
  -1   7   5   67.59   13.10
   0  -7  -5  394.06   24.70
   0  -7   5  391.76   23.30
   0   7   5  386.96   24.20
   0   7   5  386.16   21.30
   0   7   5  376.06   23.80
   1  -7   5   53.19   11.90
  -1  -7  -5   66.49   14.10
   1   7   5   67.39   11.50
   1   7   5   56.39   10.40
   1   7   5   74.89   13.10
  -2  -7  -5   -0.60    9.60
   2  -7   5   15.30    8.60
   2   7   5    9.80    9.00
   2   7   5    3.50    8.20
   2   7   5   13.60    6.80
 -10   0   6   60.29   11.00
 -10   0   6   54.09   10.60
 -10   0   6   54.29   10.40
  -9   0   6   13.70    6.10
  -9   0   6   18.50    5.20
  -9   0   6   22.40    5.70
  -9   0   6   13.70    5.00
  -8   0   6  200.48   12.80
  -8   0   6  202.58   12.30
  -8   0   6  212.88   12.20
  -8   0   6  188.88   12.40
   7   0  -6  399.56   20.80
  -7   0   6  418.66   19.70
  -7   0   6  418.26   20.20
   7   0  -6  405.26   20.50
   7   0  -6  404.86   19.50
  -7   0   6  418.36   20.00
  -7   0   6  410.16   19.40
   6   0  -6   63.29    5.00
  -6   0   6   57.09    5.90
   6   0  -6   53.59    6.50
  -6   0   6   62.09    5.10
   6   0  -6   52.09    6.20
  -6   0   6   50.69    5.10
   6   0  -6   59.79    5.20
  -6   0   6   52.89    5.30
   5   0  -6  523.25   22.00
   5   0  -6  529.45   23.60
  -5   0   6  492.25   23.80
   5   0  -6  528.25   22.20
  -5   0   6  499.45   22.30
  -5   0   6  511.25   22.50
  -5   0   6  513.95   23.40
  -5   0   6  488.25   22.60
   5   0  -6  506.95   23.90
  -4   0   6  170.58    8.20
  -4   0   6  164.18    9.80
   4   0  -6  174.18    9.80
  -4   0   6  158.08    9.30
  -4   0   6  176.08    8.20
  -4   0   6  171.28    7.90
  -3   0   6   27.30    2.70
  -3   0   6   28.60    4.10
  -3   0   6   23.50    2.10
  -3   0   6   22.10    3.60
   3   0  -6   19.00    3.70
  -3   0   6   21.80    2.00
  -2   0   6 4404.56  174.48
  -2   0   6 4050.19  174.08
  -2   0   6 4356.26  175.48
  -2   0   6 4068.49  174.38
  -2   0   6 4121.19  175.58
  -2   0   6 4372.66  174.08
   2   0  -6 4362.86  175.58
  -2   0   6 4074.69  174.88
   1   0  -6  665.63   28.20
  -1   0   6  663.73   28.20
   1   0  -6  647.54   28.20
  -1   0   6  626.24   27.80
  -1   0   6  645.14   27.60
  -1   0   6  645.04   28.20
   1   0  -6  626.74   27.40
   1   0  -6  649.93   27.20
   0   0  -6   40.70    3.50
   0   0  -6   37.10    4.30
   0   0   6   38.20    4.30
   0   0   6   35.40    4.00
   0   0  -6   37.40    3.70
   0   0   6   40.40    3.90
   0   0  -6   33.20    3.30
   1   0   6  273.77   13.50
   1   0   6  265.27   13.70
  -1   0  -6  261.57   12.10
  -1   0  -6  290.57   13.60
  -1   0  -6  275.27   13.50
   1   0   6  278.27   14.00
  -1   0  -6  255.07   13.80
   2   0   6 3307.57  144.89
   2   0   6 3344.07  144.99
   2   0   6 3651.73  144.79
  -2   0  -6 3522.65  144.69
  -2   0  -6 3455.55  144.99
  -3   0  -6  315.57   16.50
  -3   0  -6  313.27   17.00
   3   0   6  314.67   17.20
   3   0   6  302.67   16.80
   3   0   6  326.47   17.00
   4   0   6   98.79   11.10
  -4   0  -6   86.19    9.00
   4   0   6   91.09   10.90
  -4   0  -6   62.49    9.30
   4   0   6   77.29    9.00
   5   0   6  520.35   30.00
   5   0   6  570.74   29.00
  -5   0  -6  623.74   29.60
  -5   0  -6  575.54   29.10
  -6   0  -6   18.90    7.90
   6   0   6   24.30    7.70
 -10  -1   6  580.94   28.80
 -10  -1   6  529.65   28.90
 -10  -1   6  620.84   30.30
 -10   1   6  585.04   29.60
 -10   1   6  576.64   30.10
 -10   1   6  559.64   30.10
  -9  -1   6  118.09   10.20
  -9  -1   6  111.79   10.10
  -9  -1   6  114.39   10.40
   9  -1  -6  103.79   11.20
  -9   1   6  102.99   10.30
  -9   1   6  120.19   11.70
  -9   1   6  107.39   10.90
  -8  -1   6  127.29    9.30
  -8  -1   6  104.39    8.70
  -8  -1   6  111.19   11.10
   8  -1  -6   99.69    9.70
  -8  -1   6  131.89    9.30
  -8   1   6  110.39    8.50
  -8   1   6  118.69   10.30
   8   1  -6  108.99    9.70
  -8   1   6  108.09    9.30
  -8   1   6  114.39    9.60
   7  -1  -6 2119.99   89.99
  -7  -1   6 2085.89   88.89
  -7  -1   6 2146.99   89.19
  -7  -1   6 2206.98   89.39
  -7  -1   6 2151.38   88.69
  -7   1   6 1914.31   89.39
  -7   1   6 2124.29   87.99
   7   1  -6 2113.59   88.79
  -7   1   6 2134.79   89.79
   7   1  -6 2056.09   88.39
  -7   1   6 2062.29   89.09
   6  -1  -6   52.29    6.20
  -6  -1   6   46.60    4.50
  -6  -1   6   50.69    4.90
  -6  -1   6   54.59    5.50
   6  -1  -6   61.29    7.20
   6  -1  -6   52.59    5.60
  -6  -1   6   63.09    6.30
   6  -1  -6   54.89    5.50
   6   1  -6   54.09    4.30
  -6   1   6   46.30    5.10
  -6   1   6   45.70    6.00
  -6   1   6   56.19    5.60
  -6   1   6   58.29    4.10
   6   1  -6   56.59    4.70
   6   1  -6   60.69    6.10
  -5  -1   6  829.52   36.50
   5  -1  -6  813.32   36.30
  -5  -1   6  815.42   34.50
   5  -1  -6  800.42   36.50
  -5  -1   6  813.32   35.50
   5  -1  -6  844.32   35.30
   5  -1  -6  811.12   35.20
  -5  -1   6  779.02   34.80
  -5   1   6  839.12   35.30
  -5   1   6  797.82   36.20
  -5   1   6  758.22   36.30
  -5   1   6  841.52   35.70
  -5   1   6  815.92   34.20
   5   1  -6  810.52   34.30
  -5   1   6  864.21   35.80
  -4  -1   6   85.09    4.40
  -4  -1   6   92.29    7.00
  -4  -1   6   90.89    5.90
   4  -1  -6   87.59    6.60
   4  -1  -6   93.89    5.40
  -4   1   6   83.29    5.60
  -4   1   6   92.39    5.70
  -4   1   6   86.39    6.80
  -4   1   6   87.59    5.30
  -4   1   6   89.69    6.80
  -3  -1   6 2314.47   96.89
  -3  -1   6 2428.66   97.39
   3  -1  -6 2348.07   97.59
  -3  -1   6 2275.47   96.99
  -3   1   6 2459.65   97.59
  -3   1   6 2315.27   96.69
  -3   1   6 2319.57   95.69
  -3   1   6 2296.17   97.49
  -3   1   6 2339.17   96.39
  -3   1   6 2231.48   96.39
  -3   1   6 2180.58   96.59
  -2  -1   6 1065.89   46.80
   2  -1  -6 1102.29   47.00
  -2  -1   6 1151.28   46.90
  -2   1   6 1059.39   47.30
  -2   1   6 1104.19   46.30
  -2   1   6 1059.79   46.40
  -2   1   6 1149.98   46.40
  -2   1   6 1067.39   46.50
  -1  -1   6   43.00    2.90
  -1  -1   6   45.10    3.10
  -1  -1   6   46.00    4.10
  -1  -1   6   40.50    4.30
   1  -1  -6   41.80    3.70
   1  -1  -6   44.00    3.50
   1  -1  -6   43.30    4.10
   1  -1  -6   44.80    3.60
  -1   1   6   50.69    4.40
  -1   1   6   41.10    4.00
   1   1  -6   42.90    2.70
  -1   1   6   41.10    3.90
  -1   1   6   41.60    3.60
   0  -1   6  128.59    7.20
   0  -1   6  125.29    6.80
   0  -1  -6  129.69    7.40
   0  -1  -6  121.69    7.30
   0  -1  -6  106.09    7.10
   0  -1   6  131.99    6.70
   0  -1  -6  134.19    7.00
   0  -1   6  116.29    7.80
   0   1   6  116.89    7.40
   0   1   6  121.19    7.30
   0   1  -6  133.29    6.60
   0   1  -6  137.69    8.10
   0   1   6  130.59    7.90
  -1  -1  -6   23.20    4.10
   1  -1   6   18.10    3.80
   1  -1   6   18.70    4.00
   1  -1   6   18.80    3.80
  -1  -1  -6   15.70    3.30
  -1  -1  -6   16.20    4.20
  -1  -1  -6   13.40    2.70
   1   1   6   18.50    3.60
  -1   1  -6   16.80    3.60
  -1   1  -6   13.00    3.10
   1   1   6   17.00    4.00
   1   1   6   14.10    3.50
  -1   1  -6   20.20    3.50
   2  -1   6   89.29    7.80
  -2  -1  -6  100.09    7.70
  -2  -1  -6  104.99    7.80
   2  -1   6   93.19    7.50
  -2  -1  -6   96.59    7.50
  -2  -1  -6   94.49    5.10
   2  -1   6   87.29    7.50
  -2   1  -6   89.59    7.00
  -2   1  -6   96.39    8.20
   2   1   6   95.59    7.50
   2   1   6   90.49    7.70
  -2   1  -6   89.49    7.20
   2   1   6   91.99    8.10
  -3  -1  -6  168.88   11.60
  -3  -1  -6  167.38   11.10
   3  -1   6  176.18   11.50
   3  -1   6  173.08   11.20
   3  -1   6  163.18   11.30
   3   1   6  145.09   10.70
   3   1   6  170.48   11.70
  -3   1  -6  175.88   10.70
  -3   1  -6  168.38   11.00
   3   1   6  157.88   12.00
  -4  -1  -6   31.20    6.20
   4  -1   6   46.60    9.20
  -4  -1  -6   33.20    6.50
   4  -1   6   29.10    6.60
   4  -1   6   28.80    5.90
  -4   1  -6   30.50    5.90
   4   1   6   30.90    7.10
  -4   1  -6   34.70    7.90
   4   1   6   15.90    5.10
   4   1   6   33.60    7.30
   5  -1   6   37.60    9.30
  -5  -1  -6   34.40    8.00
   5  -1   6   26.30    8.60
  -5  -1  -6   45.60    9.70
  -5   1  -6   29.60    7.00
   5   1   6   42.90    9.20
   5   1   6   32.30    9.70
  -5   1  -6   41.40    9.80
   6  -1   6    1.50    6.20
  -6  -1  -6   -2.90    7.10
   6   1   6   -0.90    6.90
  -6   1  -6    1.80    7.60
  10  -2  -6   21.90    7.40
 -10  -2   6   12.60    6.40
 -10  -2   6   19.40    6.60
 -10   2   6    5.60    6.90
 -10   2   6    6.40    7.60
 -10   2   6   16.60    7.30
  -9  -2   6   97.39    9.40
   9  -2  -6  101.59   10.90
  -9  -2   6  108.29   10.40
  -9  -2   6  102.79   10.00
  -9   2   6  103.19   11.40
  -9   2   6  112.09   12.20
  -9   2   6   93.69   11.00
  -8  -2   6  632.04   29.10
  -8  -2   6  580.94   28.30
   8  -2  -6  610.34   29.70
  -8  -2   6  604.24   27.90
  -8   2   6  627.24   29.90
  -8   2   6  650.13   30.20
   8   2  -6  598.74   28.10
  -8   2   6  611.94   27.10
  -8   2   6  597.44   29.20
   7  -2  -6   14.60    4.80
  -7  -2   6   15.00    3.40
  -7  -2   6   13.60    3.20
  -7  -2   6   18.50    5.50
  -7  -2   6   12.40    3.50
  -7   2   6   10.90    3.90
  -7   2   6   14.10    3.20
   7   2  -6    8.20    3.30
   7   2  -6   11.80    3.70
  -7   2   6   12.00    4.30
  -7   2   6    7.10    3.90
   7   2  -6   16.70    3.80
   6  -2  -6   89.99    8.10
  -6  -2   6  102.69    6.70
  -6  -2   6   90.09    6.30
  -6  -2   6   96.19    6.40
   6  -2  -6  100.59    8.00
  -6   2   6   96.79    7.40
  -6   2   6  104.49    8.10
   6   2  -6  102.59    6.30
  -6   2   6   94.79    8.10
   6   2  -6  100.69    5.80
   6   2  -6   94.29    5.80
  -6   2   6   86.19    7.70
   5  -2  -6   17.10    3.50
   5  -2  -6   10.70    3.30
  -5  -2   6   10.40    2.40
  -5  -2   6   11.30    2.50
   5  -2  -6   10.70    3.40
  -5  -2   6   12.10    4.20
   5  -2  -6   10.80    4.00
  -5  -2   6   10.20    2.80
  -5   2   6   12.50    3.80
  -5   2   6   11.40    3.20
   5   2  -6   11.60    1.90
  -5   2   6   13.40    3.20
  -5   2   6   15.90    4.00
   4  -2  -6   96.99    7.20
  -4  -2   6  102.09    5.10
   4  -2  -6  114.59    7.00
  -4  -2   6  101.79    5.90
  -4  -2   6   92.99    7.60
  -4   2   6   99.79    6.50
  -4   2   6   90.79    6.80
  -4   2   6   96.29    6.80
  -4   2   6   95.49    7.50
  -4   2   6  103.49    7.00
  -3  -2   6  249.78   12.60
  -3  -2   6  241.58   12.50
   3  -2  -6  230.88   12.60
  -3  -2   6  239.38   11.40
   3  -2  -6  251.37   12.30
  -3   2   6  246.58   12.00
  -3   2   6  234.08   12.10
  -3   2   6  232.98   12.20
  -3   2   6  236.28   12.80
  -3   2   6  247.08   12.30
  -2  -2   6 1576.94   60.99
   2  -2  -6 1419.86   61.09
  -2  -2   6 1456.85   59.29
  -2  -2   6 1410.36   60.99
  -2   2   6 1367.16   60.89
  -2   2   6 1395.56   60.69
  -2   2   6 1482.55   60.99
  -2   2   6 1387.26   61.29
  -2   2   6 1366.56   60.59
  -1  -2   6   34.40    3.10
  -1  -2   6   33.10    2.90
   1  -2  -6   36.20    4.10
   1  -2  -6   34.80    3.20
   1  -2  -6   35.60    4.20
  -1  -2   6   35.80    4.00
  -1  -2   6   33.90    4.70
  -1   2   6   36.20    4.60
  -1   2   6   40.10    4.50
  -1   2   6   37.30    4.50
  -1   2   6   36.60    4.90
  -1   2   6   35.80    3.20
  -1   2   6   29.10    4.50
   1   2  -6   33.70    2.60
   0  -2   6  984.30   40.70
   0  -2  -6  942.21   41.20
   0  -2   6  921.31   40.70
   0  -2   6 1043.70   41.20
   0  -2  -6  960.80   41.10
   0  -2  -6  885.91   41.60
   0  -2   6  951.30   42.10
   0   2  -6  988.60   40.60
   0   2   6  990.10   41.90
   0   2   6  904.41   42.00
   0   2   6  923.01   41.10
   0   2   6  973.90   42.20
   0   2  -6  963.30   40.60
   1  -2   6    6.20    1.80
   1  -2   6    3.20    3.10
   1  -2   6    6.40    3.30
  -1  -2  -6    9.40    2.40
  -1  -2  -6   20.20    4.50
  -1  -2  -6    7.60    3.10
   1  -2   6    6.70    2.80
  -1  -2  -6    9.90    3.10
   1  -2   6    7.90    2.80
  -1   2  -6    7.90    2.60
   1   2   6    2.60    3.20
  -1   2  -6    9.40    3.70
   1   2   6    9.30    3.50
   1   2   6    7.30    3.00
  -1   2  -6    9.00    2.60
   1   2   6    6.40    2.70
  -2  -2  -6  943.81   41.80
   2  -2   6  944.51   42.20
  -2  -2  -6  942.11   42.40
   2  -2   6  924.61   42.40
   2  -2   6  904.41   41.80
  -2  -2  -6  938.51   40.40
  -2  -2  -6  965.50   42.20
   2  -2   6  975.00   41.70
  -2   2  -6  941.61   41.60
  -2   2  -6  926.81   41.40
   2   2   6  925.31   41.80
   2   2   6  952.70   42.40
   2   2   6  990.40   43.00
   3  -2   6  941.01   42.50
  -3  -2  -6  945.91   42.30
   3  -2   6  890.01   41.70
   3  -2   6  970.30   42.20
  -3  -2  -6  943.51   39.50
  -3  -2  -6  861.21   42.20
   3   2   6  922.01   42.60
   3   2   6  909.91   42.90
   3   2   6  937.71   41.90
  -3   2  -6  959.30   41.60
  -4  -2  -6  170.08   13.20
  -4  -2  -6  185.68   13.00
   4  -2   6  166.48   13.90
   4  -2   6  169.08   13.40
   4  -2   6  146.49   12.50
  -4  -2  -6  171.38    8.20
   4   2   6  161.98   15.10
   4   2   6  147.99   14.70
   4   2   6  156.38   12.20
  -4   2  -6  173.08   12.40
  -4   2  -6  173.08   12.90
   5  -2   6  127.89   12.70
  -5  -2  -6  114.79   12.90
  -5  -2  -6  125.79   13.70
  -5   2  -6  142.19   12.30
   5   2   6  128.89   12.30
   6  -2   6  179.38   16.60
  -6  -2  -6  197.18   18.40
  -6   2  -6  208.88   17.50
   6   2   6  225.68   17.20
 -10  -3   6  403.96   22.40
  10  -3  -6  429.96   23.10
 -10  -3   6  320.27   23.40
 -10   3   6  360.26   24.00
 -10   3   6  355.16   22.90
 -10   3   6  403.86   24.40
   9  -3  -6   72.89   10.80
  -9  -3   6   48.40    9.30
  -9  -3   6   45.30    9.50
  -9   3   6   73.49   11.60
  -9   3   6   47.60   10.70
  -9   3   6   59.79   11.40
  -8  -3   6  106.29    9.80
   8  -3  -6  129.69   11.30
  -8  -3   6  119.89    9.50
  -8   3   6  104.99   11.40
  -8   3   6  121.29   11.20
  -8   3   6  136.49   12.00
  -7  -3   6 1884.11   75.19
  -7  -3   6 1772.52   76.69
  -7  -3   6 1856.81   76.29
   7  -3  -6 1814.92   77.89
  -7   3   6 1736.03   77.99
   7   3  -6 1617.74   75.69
  -7   3   6 1840.52   78.29
  -7   3   6 1803.42   77.69
  -7   3   6 1823.22   78.19
  -6  -3   6   26.60    4.90
  -6  -3   6   27.00    4.30
  -6  -3   6   26.20    3.30
   6  -3  -6   30.30    5.50
   6   3  -6   23.80    5.00
  -6   3   6   19.40    4.50
   6   3  -6   26.40    4.10
  -6   3   6   26.20    6.30
  -6   3   6   24.00    4.60
  -6   3   6   21.50    4.90
   5  -3  -6  406.66   20.00
   5  -3  -6  330.87   19.30
  -5  -3   6  389.46   20.40
  -5  -3   6  401.16   18.30
  -5  -3   6  364.56   17.20
  -5   3   6  408.96   20.10
  -5   3   6  397.06   20.00
  -5   3   6  418.16   20.40
  -5   3   6  406.86   19.70
   5   3  -6  423.86   17.80
   5   3  -6  432.76   17.80
  -4  -3   6   36.00    3.10
  -4  -3   6   38.80    3.70
   4  -3  -6   43.40    5.80
  -4  -3   6   41.50    6.60
   4   3  -6   44.10    3.20
  -4   3   6   35.40    5.90
  -4   3   6   44.10    5.60
   4   3  -6   40.30    3.00
  -4   3   6   31.80    6.20
  -4   3   6   37.10    5.30
  -4   3   6   38.80    5.60
   3  -3  -6 2042.30   86.99
  -3  -3   6 2062.99   85.09
  -3  -3   6 2070.19   86.79
   3   3  -6 2046.20   84.59
  -3   3   6 2054.19   86.69
  -3   3   6 2116.79   87.39
  -3   3   6 2033.10   86.99
  -3   3   6 2068.19   86.79
  -3   3   6 1926.01   86.89
  -2  -3   6  917.11   38.50
  -2  -3   6  889.01   39.60
  -2  -3   6  896.81   40.20
   2  -3  -6  902.51   39.90
  -2   3   6  883.91   40.20
   2   3  -6  909.21   37.90
  -2   3   6  897.21   39.90
  -2   3   6  972.70   40.10
  -2   3   6  867.81   40.20
  -2   3   6  915.11   40.20
   2   3  -6  899.21   37.90
  -1  -3   6  108.59    8.20
   1  -3  -6  118.39    8.00
  -1  -3   6  121.19    6.90
   1  -3  -6  118.89    6.40
  -1  -3   6  133.89    6.80
   1  -3  -6  116.79    7.90
  -1  -3   6  124.19    7.60
  -1   3   6  110.29    8.00
  -1   3   6  105.99    8.20
   1   3  -6  121.29    6.00
  -1   3   6  122.59    8.50
   1   3  -6  121.59    6.50
   1   3  -6  118.39    6.00
  -1   3   6  115.59    8.50
  -1   3   6  102.39    8.60
   1   3  -6  117.89    6.40
   0  -3   6   73.49    5.50
   0  -3   6   61.09    5.90
   0  -3   6   63.59    6.80
   0  -3  -6   64.29    6.50
   0  -3   6   70.39    5.70
   0  -3  -6   70.89    5.50
   0  -3   6   69.39    5.50
   0  -3  -6   64.59    5.90
   0  -3  -6   63.49    6.40
   0   3   6   62.09    7.30
   0   3  -6   65.49    5.00
   0   3   6   55.59    7.30
   0   3  -6   61.99    5.10
   0   3  -6   66.19    4.90
   0   3   6   60.49    6.80
   1  -3   6   21.30    4.90
   1  -3   6   12.40    3.50
   1  -3   6   10.70    3.70
   1  -3   6   15.60    2.70
  -1  -3  -6   11.50    4.00
  -1  -3  -6   14.60    3.90
  -1  -3  -6   11.50    3.10
   1  -3   6   14.20    3.90
  -1  -3  -6   12.30    3.60
   1   3   6    6.80    3.70
  -1   3  -6   13.70    3.30
  -1   3  -6   10.20    3.00
   1   3   6   17.50    5.10
  -1   3  -6    4.80    2.80
   1   3   6   12.60    4.50
   2  -3   6   99.29    9.30
   2  -3   6   94.69    5.20
   2  -3   6   92.79    8.60
  -2  -3  -6   95.69    9.00
   2  -3   6  104.99    9.50
  -2  -3  -6   91.09    8.90
  -2  -3  -6  102.39    7.20
  -2  -3  -6   93.99    8.80
   2  -3   6   80.29    8.10
   2   3   6  109.69   10.40
   2   3   6  107.59   10.20
  -2   3  -6  104.59    8.10
  -2   3  -6  105.09    8.20
   2   3   6   99.19    9.20
   3  -3   6   99.89   10.70
  -3  -3  -6   95.89   10.40
   3  -3   6  121.39   10.70
  -3  -3  -6  108.69   10.40
  -3  -3  -6  117.99    7.70
   3  -3   6  126.39   10.80
   3   3   6  116.39   10.90
   3   3   6  124.49   12.50
   3   3   6  104.19   12.60
  -3   3  -6  125.99    9.50
   4  -3   6   33.10    9.50
  -4  -3  -6   42.70    9.70
  -4  -3  -6   29.80    5.20
   4  -3   6   31.80    6.80
  -4  -3  -6   34.80    7.50
  -4   3  -6   39.60    9.10
  -4   3  -6   29.30    6.50
   4   3   6   49.40    9.50
  -5  -3  -6   27.10    7.70
   5  -3   6   17.20    7.10
  -5  -3  -6    8.90    6.50
  -5   3  -6   48.10   11.00
  -6  -3  -6   37.10   10.00
  -6   3  -6   35.10    9.40
  -9  -4   6   33.90    6.90
   9  -4  -6   26.40    7.20
  -9  -4   6   21.70    6.80
  -9   4   6   27.80    8.30
  -9   4   6   20.50    8.30
  -9   4   6   25.20    8.70
  -8  -4   6  125.89   11.10
   8  -4  -6  118.79   12.00
  -8  -4   6  123.29   10.30
  -8   4   6  122.39   12.30
  -8   4   6  129.99   13.00
  -8   4   6  123.19   12.70
  -7  -4   6  270.57   15.10
  -7  -4   6  301.87   16.00
   7  -4  -6  275.37   16.80
  -7   4   6  310.47   17.70
  -7   4   6  283.77   17.40
  -7   4   6  261.47   17.50
  -6  -4   6   98.69    7.70
   6  -4  -6  111.29    9.50
  -6   4   6   83.19    9.40
   6   4  -6   70.59    7.10
  -6   4   6   87.99    8.80
  -6   4   6   76.99   10.40
   6   4  -6   86.09    6.90
  -6   4   6  109.09    9.80
  -5  -4   6  327.17   17.20
   5  -4  -6  357.96   19.20
  -5   4   6  371.76   19.00
   5   4  -6  373.06   16.40
  -5   4   6  333.17   19.10
   5   4  -6  365.56   16.90
  -5   4   6  396.66   19.70
  -5   4   6  343.37   19.40
   4  -4  -6  142.89   10.30
  -4  -4   6  139.09    8.50
  -4   4   6  146.79   10.60
  -4   4   6  139.89   10.60
   4   4  -6  158.08    8.10
  -4   4   6  151.18   11.20
   4   4  -6  149.49    8.30
  -4   4   6  140.09   10.30
  -4   4   6  162.58   11.40
   4   4  -6  159.58    7.60
   4   4  -6  143.89    7.50
  -3  -4   6   30.70    7.00
   3  -4  -6   37.80    6.30
  -3   4   6   41.00    7.10
   3   4  -6   40.60    4.10
  -3   4   6   37.50    6.10
  -3   4   6   36.00    6.70
   3   4  -6   45.00    4.30
  -3   4   6   55.89    7.10
   3   4  -6   40.70    3.40
  -3   4   6   40.00    7.90
   3   4  -6   39.90    3.50
  -2  -4   6 2552.24  101.49
  -2  -4   6 2511.65  101.49
  -2  -4   6 2400.36  102.59
  -2  -4   6 2454.45  103.39
   2  -4  -6 2258.47  103.69
   2  -4  -6 2460.65  103.79
  -2  -4   6 2409.66  104.19
   2  -4  -6 2470.95  101.09
   2   4  -6 2506.35  101.69
  -2   4   6 2451.15  103.99
  -2   4   6 2367.66  103.89
  -2   4   6 2337.97  103.89
  -2   4   6 2459.55  104.49
  -2   4   6 2412.66  104.29
   2   4  -6 2535.65  102.09
   2   4  -6 2553.54  101.69
  -1  -4   6  462.05   20.40
   1  -4  -6  474.25   22.50
   1  -4  -6  454.55   21.90
  -1  -4   6  480.95   21.30
   1  -4  -6  448.66   20.10
  -1  -4   6  455.45   22.70
  -1  -4   6  448.26   21.50
   1   4  -6  463.35   20.30
  -1   4   6  437.36   22.20
  -1   4   6  470.25   23.10
   1   4  -6  425.96   20.30
  -1   4   6  448.86   22.70
  -1   4   6  435.36   22.70
   1   4  -6  446.66   20.50
   1   4  -6  453.85   20.60
  -1   4   6  434.26   22.20
   0  -4   6   16.10    4.50
   0  -4  -6   16.60    3.40
   0  -4   6   20.50    4.00
   0  -4  -6   11.10    4.20
   0  -4   6   12.00    3.80
   0  -4   6   17.90    3.70
   0  -4  -6   13.60    3.80
   0  -4   6   25.60    5.30
   0   4  -6   13.70    3.10
   0   4   6   20.00    5.40
   0   4   6   13.40    5.30
   0   4   6   12.80    4.60
   0   4   6    9.90    3.90
   0   4   6   28.60    6.70
   0   4  -6   15.80    3.30
   1  -4   6  169.58   11.30
   1  -4   6  185.18   10.10
   1  -4   6  171.68   12.10
  -1  -4  -6  177.18   12.10
   1  -4   6  170.48   10.90
  -1  -4  -6  178.38   10.90
  -1  -4  -6  166.48   12.30
   1  -4   6  179.58   11.20
   1   4   6  164.88   13.20
  -1   4  -6  178.88   10.60
  -1   4  -6  162.38   10.30
   1   4   6  173.48   13.30
   1   4   6  177.78   12.70
   1   4   6  177.88   11.80
  -2  -4  -6 2126.69   95.29
   2  -4   6 2200.78   95.19
   2  -4   6 2085.39   94.29
   2  -4   6 2253.37   92.09
   2  -4   6 2170.48   93.99
  -2  -4  -6 2102.29   94.99
  -2  -4  -6 2134.59   93.89
   2  -4   6 2148.09   94.09
   2   4   6 2346.07   95.99
   2   4   6 2384.86   95.79
   2   4   6 2139.69   95.89
  -2   4  -6 2285.47   93.99
  -2   4  -6 2300.37   94.09
  -3  -4  -6  168.48   13.20
   3  -4   6  155.68   16.70
   3  -4   6  161.58   12.90
  -3  -4  -6  167.28   13.70
   3   4   6  164.58   16.60
  -3   4  -6  166.48   12.20
   3   4   6  154.98   13.70
  -4  -4  -6   71.89   12.50
   4  -4   6   65.79   11.40
  -4  -4  -6   86.49   11.90
  -4   4  -6   89.99   10.90
   4   4   6   70.89   12.20
   5  -4   6  351.86   22.90
  -5  -4  -6  383.26   23.60
  -5   4  -6  363.36   22.40
   5   4   6  369.36   24.40
  -8  -5   6   47.70    9.90
  -8  -5   6   40.20    7.50
   8  -5  -6   55.19   11.80
  -8   5   6   47.90    9.10
  -8   5   6   60.49   13.40
  -8   5   6   58.99   12.70
  -7  -5   6 1000.30   45.10
   7  -5  -6  979.10   45.90
  -7   5   6  952.90   46.30
  -7   5   6  947.81   46.40
  -7   5   6 1069.49   47.70
   6  -5  -6   27.30    6.60
  -6  -5   6   41.20    7.30
  -6   5   6   39.70    9.70
  -6   5   6   65.49   10.00
  -6   5   6   39.50    7.30
   5  -5  -6  350.76   19.50
  -5  -5   6  338.37   17.90
  -5   5   6  371.36   20.50
  -5   5   6  345.37   20.90
  -5   5   6  335.47   22.20
  -5   5   6  331.97   19.40
   5   5  -6  368.56   17.20
  -5   5   6  352.86   20.00
   5   5  -6  363.96   17.60
   4  -5  -6   65.09    8.20
  -4  -5   6   54.89    6.40
  -4   5   6   57.29    8.90
  -4   5   6   62.99    8.10
  -4   5   6   51.59    8.50
   4   5  -6   61.39    5.90
  -4   5   6   61.89   10.60
  -4   5   6   52.79   10.30
   4   5  -6   49.50    6.00
  -3  -5   6  837.22   40.00
   3  -5  -6  810.32   39.40
  -3   5   6  890.51   39.90
  -3   5   6  938.91   40.80
   3   5  -6  815.42   37.70
   3   5  -6  887.01   37.40
  -3   5   6  940.21   41.10
  -3   5   6  891.81   40.60
  -3   5   6  797.92   39.60
   3   5  -6  832.02   37.70
   2  -5  -6  402.66   21.10
  -2  -5   6  412.66   21.80
   2  -5  -6  411.96   18.00
   2  -5  -6  415.16   18.10
  -2   5   6  386.86   22.20
   2   5  -6  416.36   19.50
  -2   5   6  422.16   21.70
  -2   5   6  383.56   21.20
  -2   5   6  404.16   22.70
  -2   5   6  425.06   22.30
   2   5  -6  434.86   19.30
   1  -5  -6   67.89    8.80
   1  -5  -6   63.19    5.80
  -1  -5   6   54.89    8.50
  -1  -5   6   65.39    5.20
  -1  -5   6   58.69    7.50
   1  -5  -6   56.69    7.80
  -1   5   6   36.50   10.10
  -1   5   6   61.19   10.50
   1   5  -6   67.99    6.60
  -1   5   6   76.49    8.70
  -1   5   6   64.79    7.70
   1   5  -6   75.59    6.70
  -1   5   6   67.29    8.90
   0  -5   6   60.99    8.00
   0  -5  -6   51.89    8.60
   0  -5   6   46.40    8.30
   0  -5   6   62.99    8.10
   0  -5  -6   72.49    7.00
   0  -5   6   62.19    6.60
   0   5   6   61.39    8.60
   0   5   6   54.39   11.20
   0   5  -6   64.79    7.00
   0   5   6   67.39   10.90
   0   5  -6   57.19    6.70
   0   5   6   57.39    8.00
   0   5   6   54.89    9.20
   1  -5   6   65.99    8.90
   1  -5   6   65.19    8.80
   1  -5   6   50.69    8.90
   1  -5   6   67.49    9.60
  -1  -5  -6   61.39    9.90
  -1  -5  -6   69.49    8.60
  -1   5  -6   74.19    8.20
   1   5   6   80.19   12.90
   1   5   6   56.49    9.90
   1   5   6   71.99    8.50
  -1   5  -6   87.99    8.10
   1   5   6   63.49    9.80
   1   5   6   59.29   12.90
  -2  -5  -6   41.70    9.90
   2  -5   6   42.10    9.90
   2  -5   6   40.90    9.20
  -2  -5  -6   52.79   10.00
  -2   5  -6   38.50    7.90
   2   5   6   48.70    8.50
   2   5   6   41.80   10.30
   3  -5   6  142.89   14.10
  -3  -5  -6  177.68   14.70
  -3  -5  -6  141.09   14.90
  -3   5  -6  136.39   12.80
   3   5   6  169.48   15.40
  -4  -5  -6   39.10    9.70
   4  -5   6   50.29    9.30
   4   5   6   41.10   10.00
   7  -6  -6    4.70    7.40
  -7  -6   6    8.10    6.50
  -7   6   6   -5.30    7.50
  -7   6   6   23.20    8.80
  -7   6   6   13.00    7.30
   6  -6  -6  131.19   13.20
  -6  -6   6  122.49   11.60
  -6   6   6  112.79   13.40
  -6   6   6  137.49   15.30
  -6   6   6  105.79   13.80
   5  -6  -6   15.10    6.30
  -5  -6   6   10.50    5.00
  -5   6   6    2.00    5.80
  -5   6   6   13.10    6.90
  -5   6   6    9.70    6.30
   4  -6  -6  104.69   11.10
  -4  -6   6  104.09   10.20
  -4   6   6  127.49   12.10
  -4   6   6  106.39   11.80
  -4   6   6  107.39   12.70
   3  -6  -6  157.48   12.60
  -3  -6   6  156.78   13.60
  -3   6   6  147.09   12.50
  -3   6   6  140.19   13.50
  -3   6   6  152.48   12.50
   2  -6  -6  452.55   20.60
   2  -6  -6  450.65   24.20
  -2  -6   6  460.75   25.00
  -2   6   6  455.25   24.10
  -2   6   6  496.35   26.00
   2   6  -6  461.05   22.60
  -2   6   6  464.65   25.00
  -1  -6   6   24.30    6.80
   1  -6  -6   15.10    6.70
   1   6  -6   21.30    5.10
  -1   6   6   27.90    6.50
  -1   6   6   19.20    6.70
  -1   6   6   17.80    5.60
   0  -6  -6  288.07   18.60
   0  -6   6  302.07   18.00
   0   6   6  249.97   18.10
   0   6   6  271.47   16.50
   0   6   6  287.97   18.40
   0   6  -6  229.68   15.40
  -1  -6  -6   26.40    8.30
   1  -6   6   28.00    7.70
   1   6   6   24.50    6.10
   1   6   6   27.90    8.10
   1   6   6   23.00    7.60
   2  -6   6  413.56   24.50
   2   6   6  449.06   25.90
   2   6   6  408.36   25.00
   2   6   6  434.06   23.20
  -3  -6  -6  428.46   26.20
   3  -6   6  398.56   25.30
   3   6   6  444.36   27.10
   3   6   6  378.96   23.00
   3   6   6  444.26   25.60
  -5  -7   6   33.90    7.40
   5  -7  -6   17.20    8.60
  -5   7   6   59.49   15.60
  -5   7   6   52.69    9.80
  -5   7   6   55.29   12.90
  -4  -7   6  -15.70    7.80
   4  -7  -6    3.40    7.10
  -4   7   6    9.40    7.60
  -4   7   6   11.20    7.50
  -4   7   6   16.20    8.90
   3  -7  -6  716.23   36.40
  -3  -7   6  716.13   37.40
  -3   7   6  796.22   37.70
  -3   7   6  700.83   38.50
  -3   7   6  740.23   36.50
  -2  -7   6  274.77   19.10
   2  -7  -6  256.57   18.10
  -2   7   6  294.77   21.10
  -2   7   6  279.97   18.20
  -2   7   6  232.58   18.90
  -1  -7   6  105.29   13.50
  -1   7   6  109.59   15.80
  -1   7   6  123.59   13.00
  -1   7   6  112.29   15.10
   0  -7   6   14.90    8.30
   0   7   6    8.90    7.90
   0   7   6    3.00    6.50
   0   7   6    9.00    8.10
   1  -7   6   29.40    9.30
   1   7   6   39.30   10.70
   1   7   6   38.60    8.10
   1   7   6   35.20    9.40
 -10   0   7   41.30   10.10
 -10   0   7   33.30    7.60
 -10   0   7   25.20    6.80
  -9   0   7 1627.74   72.39
  -9   0   7 1709.43   73.19
  -9   0   7 1688.93   73.19
  -8   0   7  473.05   22.40
   8   0  -7  462.95   23.90
  -8   0   7  454.25   22.40
  -8   0   7  470.75   23.00
  -8   0   7  492.65   23.70
  -7   0   7  178.08   11.30
   7   0  -7  171.38   10.20
   7   0  -7  182.28   12.30
  -7   0   7  177.68   10.40
   7   0  -7  182.28   12.20
  -7   0   7  175.68    9.90
  -7   0   7  174.78   10.10
  -6   0   7  318.97   15.40
  -6   0   7  330.87   15.40
  -6   0   7  323.47   15.00
   6   0  -7  319.77   17.10
   6   0  -7  317.67   14.30
  -6   0   7  319.27   16.40
   6   0  -7  333.97   14.90
  -5   0   7 1380.96   62.59
  -5   0   7 1513.35   60.99
  -5   0   7 1509.65   61.19
   5   0  -7 1437.86   62.79
  -5   0   7 1457.25   60.99
  -5   0   7 1444.66   60.49
  -5   0   7 1444.46   62.29
  -5   0   7 1419.56   60.99
   4   0  -7  229.88   12.80
  -4   0   7  246.68   12.60
  -4   0   7  238.98   10.70
  -4   0   7  231.58   12.80
  -4   0   7  230.98   11.10
  -4   0   7  240.08   10.70
  -3   0   7    0.00    2.60
  -3   0   7    3.80    1.20
  -3   0   7    2.00    1.10
   3   0  -7    7.40    2.80
  -3   0   7    3.30    2.40
  -3   0   7    3.90    1.70
  -2   0   7  293.87   12.70
   2   0  -7  298.27   14.40
  -2   0   7  287.97   13.90
  -2   0   7  305.47   13.20
  -2   0   7  294.57   14.80
  -2   0   7  299.87   12.80
  -2   0   7  289.27   14.40
  -2   0   7  285.77   13.20
   1   0  -7    1.50    1.50
  -1   0   7    0.00    1.70
  -1   0   7    1.00    2.20
   1   0  -7   -0.20    1.80
  -1   0   7    5.60    2.30
  -1   0   7    0.40    1.70
  -1   0   7   -0.70    1.80
   1   0  -7    2.10    1.10
   0   0  -7    3.30    2.00
   0   0  -7    4.90    2.10
   0   0   7    7.00    2.40
   0   0   7    5.00    2.70
   0   0  -7    4.20    1.90
   0   0  -7    5.20    2.70
   0   0   7    1.70    2.40
   1   0   7  194.38   11.10
  -1   0  -7  166.48   10.10
  -1   0  -7  190.68   11.20
  -1   0  -7  189.98   10.20
   1   0   7  180.08   10.70
   1   0   7  174.18   10.60
   2   0   7    1.80    3.90
   2   0   7    3.90    3.90
  -2   0  -7    0.30    4.30
  -2   0  -7   -1.60    3.20
  -2   0  -7   -1.30    3.30
   2   0   7    2.00    3.40
  -3   0  -7  159.48   11.40
   3   0   7  162.08   12.50
   3   0   7  168.28   11.70
  -3   0  -7  144.59   11.60
   3   0   7  156.18   11.90
   4   0   7   58.49    9.20
   4   0   7   50.49   12.30
  -4   0  -7   56.19    9.70
   5   0   7  784.92   38.20
  -5   0  -7  773.72   38.20
  -6   0  -7  265.37   20.30
   6   0   7  238.68   19.40
 -10  -1   7  153.48   13.10
 -10  -1   7  138.69   13.10
 -10  -1   7  126.49   12.20
 -10   1   7   89.39   12.80
 -10   1   7  138.89   14.40
 -10   1   7  138.09   13.00
  -9  -1   7   73.69    9.10
  -9  -1   7   66.09    8.50
   9  -1  -7   54.89   10.20
  -9  -1   7   69.69    9.20
  -9   1   7   74.99    9.30
  -9   1   7   55.49    9.20
  -9   1   7   77.69   10.40
  -8  -1   7   99.89    8.90
   8  -1  -7  103.79   10.20
  -8  -1   7  101.79   11.00
  -8  -1   7  107.79    8.10
  -8  -1   7  101.99    8.30
  -8   1   7   89.79    8.70
  -8   1   7   91.39    9.70
   8   1  -7  109.59   10.50
  -8   1   7  101.89    8.90
  -7  -1   7  308.17   15.80
  -7  -1   7  319.47   15.30
  -7  -1   7  301.87   14.70
  -7  -1   7  319.07   16.60
   7  -1  -7  291.27   16.90
  -7   1   7  293.97   14.00
   7   1  -7  308.07   16.50
  -7   1   7  313.77   15.60
   7   1  -7  319.27   14.70
  -7   1   7  291.67   15.90
  -7   1   7  293.17   16.80
   6  -1  -7   14.60    4.10
  -6  -1   7   18.70    3.40
  -6  -1   7   12.20    4.10
   6  -1  -7    5.20    5.00
  -6  -1   7   16.70    3.00
  -6  -1   7   17.00    3.60
   6  -1  -7   15.90    3.40
  -6   1   7   26.40    5.60
  -6   1   7   16.50    2.40
   6   1  -7   18.20    2.90
  -6   1   7   20.50    4.70
  -6   1   7   17.00    4.10
  -6   1   7   13.50    2.40
  -6   1   7   14.10    3.30
   5  -1  -7  111.99    6.50
  -5  -1   7  108.49    9.00
  -5  -1   7  106.89    5.70
   5  -1  -7  122.49    8.70
  -5  -1   7  119.39    7.60
  -5   1   7  120.69    9.20
  -5   1   7  114.09    7.00
  -5   1   7  113.39    8.30
  -5   1   7  116.89    6.70
  -5   1   7  112.29    7.00
   4  -1  -7 1603.64   69.19
  -4  -1   7 1629.74   68.99
  -4  -1   7 1577.74   68.19
  -4  -1   7 1660.23   68.49
  -4   1   7 1618.14   69.19
  -4   1   7 1566.04   67.49
  -4   1   7 1589.84   67.89
  -4   1   7 1646.24   69.19
  -4   1   7 1625.34   67.59
  -4   1   7 1615.44   67.89
   3  -1  -7  190.58   10.80
  -3  -1   7  197.28   10.90
  -3  -1   7  194.68   10.30
  -3  -1   7  199.08   10.40
  -3   1   7  190.38    9.60
  -3   1   7  193.58    8.90
  -3   1   7  202.38   11.20
  -3   1   7  195.08    9.40
  -3   1   7  201.88   11.10
  -3   1   7  202.78    9.90
  -3   1   7  184.88    9.70
  -2  -1   7  339.67   16.00
  -2  -1   7  321.87   15.80
   2  -1  -7  321.57   16.00
  -2   1   7  318.37   16.50
  -2   1   7  345.77   15.60
  -2   1   7  332.77   15.40
  -2   1   7  338.27   15.20
  -2   1   7  337.87   15.10
  -2   1   7  313.37   14.80
   1  -1  -7   22.90    3.70
   1  -1  -7   25.70    3.30
   1  -1  -7   26.80    4.00
  -1  -1   7   27.20    2.70
  -1  -1   7   24.30    4.00
   1  -1  -7   24.60    3.60
  -1  -1   7   24.70    3.00
  -1  -1   7   32.10    4.50
   1   1  -7   26.70    2.30
  -1   1   7   32.40    4.40
  -1   1   7   27.50    3.70
  -1   1   7   27.40    3.90
  -1   1   7   30.00    4.00
   0  -1  -7 3125.79  135.39
   0  -1  -7 3245.48  135.19
   0  -1   7 3192.88  136.09
   0  -1  -7 3425.06  135.49
   0  -1   7 3307.17  134.79
   0  -1   7 3170.38  135.29
   0  -1   7 3329.77  134.99
   0  -1  -7 3350.56  135.59
   0   1   7 3150.48  135.59
   0   1   7 3219.58  135.59
   0   1  -7 3370.26  136.19
   0   1   7 3015.30  135.79
   0   1   7 3244.68  135.99
   0   1  -7 3315.67  134.59
  -1  -1  -7  734.13   31.90
   1  -1   7  701.13   32.50
  -1  -1  -7  704.33   31.90
  -1  -1  -7  714.13   30.60
   1  -1   7  697.03   31.80
   1  -1   7  714.63   31.50
  -1  -1  -7  714.93   32.10
  -1   1  -7  742.23   31.40
  -1   1  -7  692.83   31.30
   1   1   7  715.83   32.00
   1   1   7  703.13   32.00
   1   1   7  694.13   32.40
  -1   1  -7  689.13   32.40
  -2  -1  -7   12.30    4.60
   2  -1   7   12.90    4.50
  -2  -1  -7   18.30    2.80
   2  -1   7   17.30    4.20
   2  -1   7   18.90    4.30
  -2  -1  -7    6.60    3.90
  -2   1  -7    9.30    3.70
  -2   1  -7    8.70    3.60
   2   1   7    8.70    4.40
   2   1   7   11.90    3.80
   2   1   7   12.60    4.60
   3  -1   7  317.57   18.10
  -3  -1  -7  322.87   18.30
   3  -1   7  312.07   18.20
   3  -1   7  344.37   18.40
  -3  -1  -7  326.57   18.00
  -3   1  -7  343.77   17.60
  -3   1  -7  376.96   18.20
   3   1   7  314.17   18.70
   3   1   7  269.17   17.40
   3   1   7  304.07   18.70
   4  -1   7   -6.10    5.10
  -4  -1  -7   -0.40    5.60
  -4  -1  -7    2.20    5.70
   4   1   7   -3.80    4.40
  -4   1  -7    7.70    5.60
   4   1   7    8.60    8.50
   5  -1   7  317.97   20.40
  -5  -1  -7  287.57   20.10
  -5   1  -7  335.17   20.40
   5   1   7  328.67   20.10
   6  -1   7    8.80    7.70
  -6  -1  -7   11.20    9.80
   6   1   7    9.30    8.50
  10  -2  -7  337.87   20.90
 -10  -2   7  342.77   19.40
 -10  -2   7  348.97   20.20
 -10   2   7  281.47   19.90
 -10   2   7  306.87   20.80
 -10   2   7  345.87   22.20
  -9  -2   7  992.60   43.40
  -9  -2   7  964.60   44.30
   9  -2  -7  963.50   45.40
  -9  -2   7  954.10   43.50
  -9   2   7 1003.00   45.40
  -9   2   7  937.81   44.70
  -9   2   7 1003.20   45.90
  -8  -2   7   14.80    4.20
   8  -2  -7   10.60    5.00
  -8  -2   7    3.70    3.90
  -8  -2   7   10.70    3.90
  -8   2   7    9.90    4.40
  -8   2   7    8.90    5.50
  -8   2   7    6.40    4.50
   8   2  -7    7.10    3.50
  -7  -2   7  370.76   17.40
  -7  -2   7  403.06   20.60
   7  -2  -7  367.56   20.00
  -7  -2   7  370.46   18.00
  -7  -2   7  382.06   18.00
  -7   2   7  361.06   19.80
  -7   2   7  379.66   19.10
  -7   2   7  367.16   19.30
   7   2  -7  361.96   17.20
  -7   2   7  381.16   19.50
  -6  -2   7   21.90    3.70
  -6  -2   7   25.30    4.40
   6  -2  -7   18.80    4.90
  -6  -2   7   18.50    3.00
  -6   2   7   22.60    5.10
  -6   2   7   19.00    4.00
  -6   2   7   30.10    6.50
  -6   2   7   22.00    5.70
   6   2  -7   18.30    2.60
  -5  -2   7  838.92   36.90
  -5  -2   7  836.42   35.90
   5  -2  -7  858.41   38.70
  -5  -2   7  797.82   38.60
  -5   2   7  903.31   38.00
  -5   2   7  886.11   38.00
  -5   2   7  864.61   38.70
  -5   2   7  877.01   37.70
  -5   2   7  828.22   37.40
   4  -2  -7 1372.46   56.59
  -4  -2   7 1356.16   56.19
   4  -2  -7 1287.87   57.49
  -4  -2   7 1325.87   57.09
  -4  -2   7 1355.96   57.59
  -4   2   7 1303.47   56.89
  -4   2   7 1350.96   56.89
  -4   2   7 1295.57   56.49
  -4   2   7 1279.87   56.49
  -4   2   7 1324.47   57.79
   3  -2  -7   40.60    5.40
  -3  -2   7   40.60    5.80
  -3  -2   7   45.60    4.30
  -3  -2   7   47.80    5.40
  -3   2   7   34.90    4.60
  -3   2   7   36.30    5.10
  -3   2   7   39.70    4.40
  -3   2   7   40.50    4.90
  -3   2   7   39.10    5.60
  -2  -2   7   41.70    5.20
  -2  -2   7   42.10    5.30
   2  -2  -7   45.90    5.20
  -2   2   7   44.10    4.80
  -2   2   7   45.70    5.10
  -2   2   7   45.20    4.70
  -2   2   7   39.40    5.50
  -2   2   7   46.20    5.40
  -1  -2   7   69.39    4.60
  -1  -2   7   68.99    6.40
   1  -2  -7   65.69    5.80
   1  -2  -7   64.99    4.90
   1  -2  -7   66.49    5.50
  -1  -2   7   68.59    5.60
  -1  -2   7   64.69    4.10
  -1   2   7   65.09    4.80
   1   2  -7   66.49    3.80
  -1   2   7   66.19    6.80
  -1   2   7   72.29    6.40
  -1   2   7   68.79    5.90
  -1   2   7   65.69    6.40
  -1   2   7   68.59    6.10
   0  -2   7  466.65   22.80
   0  -2   7  469.75   21.10
   0  -2  -7  500.05   22.30
   0  -2  -7  471.65   22.20
   0  -2  -7  466.75   21.70
   0  -2   7  460.55   21.40
   0  -2   7  469.25   21.10
   0  -2  -7  480.75   21.70
   0   2  -7  485.85   20.60
   0   2   7  456.95   21.50
   0   2   7  486.95   22.90
   0   2  -7  474.95   20.70
   0   2   7  441.26   22.50
   0   2   7  479.75   22.50
  -1  -2  -7  452.45   22.40
   1  -2   7  472.75   20.30
   1  -2   7  473.65   23.00
   1  -2   7  474.55   22.10
   1  -2   7  487.95   21.80
   1  -2   7  461.15   23.10
  -1  -2  -7  480.55   22.20
  -1  -2  -7  471.85   21.30
  -1   2  -7  461.55   21.50
   1   2   7  432.46   22.90
   1   2   7  512.45   23.10
   1   2   7  435.96   23.10
   1   2   7  448.96   22.00
  -1   2  -7  468.55   21.40
  -2  -2  -7  304.27   16.50
   2  -2   7  268.87   15.80
   2  -2   7  296.07   15.80
   2  -2   7  313.77   17.00
  -2  -2  -7  285.57   16.20
  -2  -2  -7  299.07   16.30
  -2  -2  -7  295.67   14.00
   2   2   7  272.37   15.70
   2   2   7  313.87   17.20
   2   2   7  282.37   17.30
  -2   2  -7  295.87   15.40
  -2   2  -7  286.37   15.40
  -3  -2  -7    1.30    4.90
   3  -2   7    7.40    5.30
   3  -2   7    6.30    5.20
  -3  -2  -7   -0.20    4.80
  -3  -2  -7    9.90    2.30
   3  -2   7   10.70    5.60
  -3   2  -7    8.80    4.60
   3   2   7    5.90    6.30
   3   2   7    1.80    6.60
   3   2   7    9.40    4.70
  -3   2  -7   15.10    4.90
  -4  -2  -7   51.19   10.20
   4  -2   7   74.79   10.70
  -4   2  -7   50.29    9.70
   4   2   7   39.20    9.60
   5  -2   7 1261.27   59.09
  -5  -2  -7 1232.48   58.79
   5   2   7 1274.07   58.69
  -5   2  -7 1356.06   58.49
   9  -3  -7   89.59   12.10
  -9  -3   7   88.49    9.50
  -9  -3   7   83.19    9.90
  -9   3   7   88.19   12.70
  -9   3   7   72.89   11.50
  -9   3   7   83.49   11.40
  -8  -3   7   95.39    7.20
   8  -3  -7   97.79   11.10
  -8  -3   7   99.89    8.80
  -8  -3   7  107.19    8.50
  -8   3   7   84.39   10.30
  -8   3   7  109.59   11.80
  -8   3   7  102.59   11.20
  -7  -3   7  271.37   12.80
  -7  -3   7  261.67   13.90
   7  -3  -7  280.37   16.40
  -7  -3   7  261.77   13.20
  -7   3   7  264.57   16.50
  -7   3   7  270.57   15.90
  -7   3   7  265.57   15.20
   7   3  -7  226.68   13.10
  -7   3   7  278.37   16.30
   6  -3  -7   15.10    4.60
  -6  -3   7   16.70    3.60
  -6  -3   7   19.90    4.10
   6   3  -7   23.80    3.50
  -6   3   7   26.30    6.30
  -6   3   7   17.50    4.90
  -6   3   7   17.70    4.30
  -6   3   7   36.40    7.40
   6   3  -7   19.80    3.50
  -5  -3   7   53.09    4.40
   5  -3  -7   55.29    7.20
  -5  -3   7   56.19    4.30
  -5   3   7   71.09    7.00
  -5   3   7   50.09    7.40
  -5   3   7   66.29    7.40
  -5   3   7   65.59    7.90
  -5   3   7   60.69    6.70
   4  -3  -7 1178.48   52.19
  -4  -3   7 1128.19   51.99
  -4  -3   7 1205.78   49.90
  -4   3   7 1175.28   51.99
  -4   3   7 1184.08   51.69
  -4   3   7 1222.98   52.59
  -4   3   7 1116.49   51.39
  -4   3   7 1269.67   52.19
  -3  -3   7  201.48   12.30
   3  -3  -7  208.48   12.30
  -3  -3   7  210.18   10.20
  -3  -3   7  218.08   12.30
  -3   3   7  205.28   12.30
  -3   3   7  197.58   12.10
  -3   3   7  220.08   12.30
  -3   3   7  203.68   11.60
  -3   3   7  210.08   12.70
  -2  -3   7  297.77   14.70
   2  -3  -7  257.47   14.30
   2  -3  -7  281.57   14.80
  -2  -3   7  275.87   15.10
  -2  -3   7  279.37   12.70
  -2   3   7  268.57   14.80
  -2   3   7  278.57   14.90
  -2   3   7  295.27   14.70
  -2   3   7  265.27   15.00
  -2   3   7  267.57   15.10
   1  -3  -7   41.60    4.20
  -1  -3   7   36.60    5.60
  -1  -3   7   46.70    4.30
  -1  -3   7   47.40    5.80
   1  -3  -7   54.59    6.00
  -1  -3   7   50.59    4.40
  -1  -3   7   52.49    6.60
  -1   3   7   47.30    7.20
  -1   3   7   48.40    6.10
  -1   3   7   57.39    6.60
   1   3  -7   46.80    3.90
   1   3  -7   50.29    3.80
  -1   3   7   43.10    6.10
  -1   3   7   47.50    7.20
   0  -3   7 2394.96   97.19
   0  -3   7 2242.28   98.99
   0  -3   7 2261.57   97.59
   0  -3   7 2435.16   98.09
   0  -3  -7 2358.96   97.39
   0  -3  -7 2267.27   97.89
   0  -3   7 2338.67   97.19
   0  -3  -7 2261.57   98.49
   0  -3  -7 2184.78   98.49
   0   3   7 2252.57   98.69
   0   3  -7 2480.15   96.79
   0   3   7 2237.18   99.09
   0   3   7 2443.16   99.29
  -1  -3  -7  504.45   22.70
   1  -3   7  460.35   23.20
   1  -3   7  477.45   24.00
  -1  -3  -7  478.15   23.60
   1  -3   7  499.25   22.90
   1  -3   7  449.16   22.20
  -1  -3  -7  471.55   22.20
  -1  -3  -7  502.05   23.60
   1  -3   7  456.55   20.90
   1   3   7  445.96   24.00
   1   3   7  454.25   24.30
   1   3   7  439.96   23.80
  -1   3  -7  500.25   22.20
  -1   3  -7  487.45   22.10
   2  -3   7   25.40    5.50
  -2  -3  -7   21.40    5.90
  -2  -3  -7   14.00    5.40
  -2  -3  -7   23.10    5.60
  -2  -3  -7   36.00    5.60
   2  -3   7   33.90    8.20
   2  -3   7   26.10    5.40
   2   3   7   12.80    5.30
  -2   3  -7   29.80    6.90
   2   3   7   27.30    7.00
   2   3   7   33.40    7.20
  -2   3  -7   23.40    4.90
  -3  -3  -7  321.77   18.60
   3  -3   7  286.87   18.70
  -3  -3  -7  298.47   15.20
  -3  -3  -7  326.07   19.00
   3   3   7  292.27   18.90
   3   3   7  336.67   20.80
  -3   3  -7  304.87   17.30
   4  -3   7   24.80    7.30
  -4  -3  -7   12.00    7.00
  -4   3  -7   10.60    6.40
   4   3   7   13.70    7.10
  -5  -3  -7  237.68   19.10
   5  -3   7  240.08   18.80
   5   3   7  236.48   19.70
   9  -4  -7 1068.89   51.09
  -9  -4   7 1066.09   49.70
  -9  -4   7 1082.99   48.80
  -9   4   7 1182.88   52.49
  -9   4   7 1086.09   52.09
  -9   4   7 1077.39   51.29
  -8  -4   7  309.37   16.40
  -8  -4   7  287.97   17.00
   8  -4  -7  299.77   19.00
  -8   4   7  287.97   19.40
  -8   4   7  310.67   19.90
  -8   4   7  324.67   19.30
  -7  -4   7   55.79    7.00
   7  -4  -7   51.69    9.40
  -7   4   7   55.09    9.30
  -7   4   7   61.29   10.20
  -7   4   7   51.29   10.00
   6  -4  -7  195.68   13.60
  -6  -4   7  193.88   11.00
  -6   4   7  205.58   16.00
   6   4  -7  186.38   10.30
   6   4  -7  184.58   10.40
  -6   4   7  189.88   13.60
  -6   4   7  197.68   13.20
  -6   4   7  264.17   21.50
  -6   4   7  209.88   14.30
   5  -4  -7 1023.90   46.10
  -5  -4   7 1048.20   43.80
  -5   4   7 1043.80   46.20
  -5   4   7  940.71   46.10
  -5   4   7  994.60   46.20
   5   4  -7  997.70   42.70
   5   4  -7 1024.20   42.70
  -5   4   7  997.00   46.10
  -5   4   7 1068.69   45.80
   4  -4  -7  157.58   11.30
  -4   4   7  152.38   11.80
  -4   4   7  142.29   10.60
  -4   4   7  148.59   12.20
  -4   4   7  169.28   11.80
  -4   4   7  174.08   11.70
   3  -4  -7   41.00    6.90
  -3  -4   7   39.50    8.20
  -3  -4   7   41.50    7.40
  -3  -4   7   40.70    3.60
  -3  -4   7   36.40    3.40
   3   4  -7   43.10    3.40
  -3   4   7   47.70    6.90
   3   4  -7   43.30    3.20
  -3   4   7   50.09    7.60
  -3   4   7   36.20    8.60
  -3   4   7   45.60    8.10
  -3   4   7   38.10    6.90
   2  -4  -7  169.08   11.10
  -2  -4   7  162.28    8.80
  -2  -4   7  157.28    8.90
  -2  -4   7  152.38   11.30
  -2  -4   7  144.79   11.10
   2  -4  -7  160.58   10.80
   2   4  -7  165.08    8.10
  -2   4   7  165.38   11.40
  -2   4   7  157.48   11.90
  -2   4   7  158.38   11.90
  -2   4   7  147.49   11.00
  -2   4   7  162.08   11.20
   2   4  -7  159.68    8.20
  -1  -4   7   42.60    7.30
  -1  -4   7   55.19    5.60
   1  -4  -7   53.79    4.90
  -1  -4   7   55.69    7.90
  -1  -4   7   44.70    6.10
   1  -4  -7   54.09    7.10
   1  -4  -7   57.49    7.50
   1   4  -7   50.89    5.00
  -1   4   7   56.59    7.70
  -1   4   7   51.29    9.30
  -1   4   7   45.10    7.20
   1   4  -7   50.09    5.30
  -1   4   7   45.00    8.30
   1   4  -7   54.09    4.30
  -1   4   7   47.00    7.10
   0  -4   7    7.40    3.60
   0  -4  -7    5.70    4.40
   0  -4   7   19.40    4.70
   0  -4   7   15.20    4.00
   0  -4   7   22.60    4.50
   0  -4  -7    8.60    3.90
   0  -4  -7   12.40    3.70
   0  -4   7   10.60    4.70
   0   4   7    5.00    5.40
   0   4   7   16.00    6.60
   0   4  -7    7.10    3.30
   0   4  -7    7.60    3.10
   0   4   7   12.00    4.80
   0   4   7    9.50    4.10
   0   4   7    7.00    4.50
   1  -4   7  141.69   10.70
   1  -4   7  107.89   11.20
   1  -4   7  138.69   11.60
  -1  -4  -7  119.99   11.20
   1  -4   7  137.69   10.40
  -1  -4  -7  145.99   10.10
  -1  -4  -7  143.69   11.80
   1  -4   7  147.29    9.00
  -1  -4  -7  150.78   10.70
   1   4   7  144.39   13.70
   1   4   7  137.59   12.00
  -1   4  -7  141.29    9.70
   1   4   7  129.59   13.80
   1   4   7  128.09   11.10
   2  -4   7   21.20    6.50
  -2  -4  -7   41.40    9.70
  -2  -4  -7   29.60    6.80
  -2  -4  -7   16.50    6.20
   2   4   7   19.90    8.20
  -2   4  -7   16.90    5.10
   2   4   7   14.90    6.20
  -3  -4  -7   77.49   11.30
   3  -4   7   81.19   11.80
  -3  -4  -7   73.29    8.30
  -3   4  -7   61.69   10.50
   3   4   7   59.19   11.90
  -4  -4  -7   51.89   13.40
   4  -4   7   32.10    8.50
   4   4   7   54.59   10.40
   8  -5  -7  103.49   13.90
  -8  -5   7   93.99   11.10
  -8   5   7   87.69   14.70
  -8   5   7  114.19   13.80
  -8   5   7   80.39   14.30
  -7  -5   7  134.69   10.80
   7  -5  -7  104.89   13.10
  -7   5   7  117.19   12.40
  -7   5   7  135.19   14.10
  -7   5   7  137.49   13.90
   6  -5  -7   28.20    6.80
  -6  -5   7   27.60    6.70
  -6   5   7   37.60    9.50
  -6   5   7   17.10    6.80
  -6   5   7   27.00    6.70
   5  -5  -7   84.39   10.30
  -5  -5   7   62.19    7.00
  -5   5   7   83.29   10.60
  -5   5   7   69.59    9.80
  -5   5   7   65.89   10.50
  -4  -5   7  810.22   37.10
   4  -5  -7  759.52   36.20
   4   5  -7  733.93   33.30
  -4   5   7  800.22   37.20
   4   5  -7  666.13   33.60
  -4   5   7  830.52   36.90
  -4   5   7  768.82   37.80
  -4   5   7  798.52   36.50
   3  -5  -7   81.49    9.40
  -3  -5   7   81.29   10.10
   3   5  -7   80.09    6.50
  -3   5   7   78.89    9.90
  -3   5   7   87.09   11.90
  -3   5   7   93.09    9.50
  -3   5   7   91.39   10.00
  -3   5   7   83.79   12.50
   3   5  -7   77.19    6.70
  -2  -5   7  110.19    8.40
  -2  -5   7  106.99    5.80
   2  -5  -7  106.49   10.00
  -2  -5   7   99.19   10.70
   2   5  -7  104.19    7.60
  -2   5   7  107.19   10.40
  -2   5   7  113.69   12.60
   2   5  -7  103.29    6.60
  -2   5   7  121.39   13.30
  -2   5   7   95.59    9.90
  -2   5   7  111.69   10.80
   1  -5  -7   16.90    3.60
  -1  -5   7   22.60    6.40
  -1  -5   7   17.90    4.40
   1  -5  -7   20.60    6.10
  -1  -5   7   18.80    6.10
   1  -5  -7   18.10    5.40
  -1  -5   7   17.30    3.80
   1   5  -7   12.50    3.60
  -1   5   7   13.50    5.50
  -1   5   7   14.40    7.00
  -1   5   7   11.00    5.40
   1   5  -7   14.00    3.80
  -1   5   7   22.40    8.30
  -1   5   7    5.90    4.80
   0  -5  -7 1595.34   70.59
   0  -5  -7 1409.96   68.19
   0  -5   7 1574.74   68.79
   0  -5   7 1462.35   68.99
   0  -5   7 1669.33   71.09
   0  -5  -7 1571.34   69.49
   0   5   7 1624.54   70.19
   0   5   7 1767.12   71.09
   0   5  -7 1597.04   68.39
   0   5   7 1598.34   71.29
   0   5   7 1721.23   71.69
  -1  -5  -7  405.66   20.90
  -1  -5  -7  384.36   22.50
   1  -5   7  373.86   22.20
   1   5   7  418.26   23.20
   1   5   7  359.46   21.20
   1   5   7  413.66   22.40
  -2  -5  -7   15.30    5.30
  -2  -5  -7    2.00    7.10
   2  -5   7   32.60    7.70
   2   5   7   25.90    8.10
   2   5   7    4.20    5.70
  -3  -5  -7  123.49   11.80
   3  -5   7  123.99   14.80
  -3  -5  -7  116.79   15.60
   3   5   7  120.29   16.10
  -6  -6   7   23.30    6.00
   6  -6  -7   20.90    7.90
  -6   6   7   24.10    8.10
  -6   6   7    1.30    7.20
  -6   6   7   13.80    7.70
   5  -6  -7  312.47   20.00
  -5   6   7  302.57   20.10
  -5   6   7  353.66   22.00
  -5   6   7  342.87   21.30
  -4  -6   7  571.04   30.20
   4  -6  -7  566.64   29.20
  -4   6   7  543.15   30.30
  -4   6   7  592.84   29.80
  -4   6   7  560.84   29.70
   3  -6  -7   42.90    7.80
  -3  -6   7   55.69   10.90
  -3   6   7   61.19   10.90
  -3   6   7   51.39   10.10
  -3   6   7   63.59   11.90
  -2  -6   7   24.30    7.30
   2  -6  -7   33.80    7.60
  -2   6   7   42.10    7.70
  -2   6   7   38.60    7.90
  -2   6   7   24.50    7.60
  -1  -6   7   92.79   12.40
   1  -6  -7   82.39   11.30
  -1   6   7   98.59   12.70
  -1   6   7   99.49   12.20
  -1   6   7   82.69   11.80
   0  -6  -7  230.38   15.70
   0  -6   7  195.18   16.80
   0   6   7  222.88   15.70
   0   6   7  220.98   17.60
   0   6   7  211.28   16.50
   1  -6   7  283.57   20.00
  -1  -6  -7  291.57   18.50
   1   6   7  284.07   18.70
   1   6   7  288.07   19.80
   1   6   7  295.07   21.10
  -2  -6  -7  146.99   14.30
   2  -6   7  143.19   16.30
   2   6   7  149.69   17.30
   2   6   7  170.88   17.40
   2   6   7  150.78   14.90
  -4   7   7  363.56   24.50
  -4   7   7  408.46   26.30
   3  -7  -7  103.79   13.80
  -3  -7   7   95.79   14.90
  -3   7   7   60.19   13.40
  -3   7   7   78.69   16.00
  -3   7   7   96.59   14.40
   2  -7  -7   93.49   13.10
  -2  -7   7   75.09   14.30
  -2   7   7   55.19   11.80
  -2   7   7   60.39   13.60
  -2   7   7   55.79   13.40
  -1  -7   7   16.50    8.50
   1  -7  -7   11.70    7.00
  -1   7   7   37.70   10.20
  -1   7   7   24.90    9.10
  -1   7   7   33.70    8.60
 -10   0   8  104.79   12.30
 -10   0   8  140.19   12.30
 -10   0   8  147.99   14.20
  -9   0   8   95.09   11.10
  -9   0   8  131.29    9.80
  -9   0   8  110.79   10.30
  -8   0   8   81.69    7.30
  -8   0   8   89.89    7.70
  -8   0   8   77.29    9.30
  -7   0   8  456.75   20.30
  -7   0   8  448.76   20.00
   7   0  -8  401.66   22.20
   7   0  -8  404.66   19.30
  -7   0   8  426.06   19.50
  -7   0   8  432.96   21.60
   6   0  -8  335.77   18.30
  -6   0   8  346.67   16.10
  -6   0   8  351.66   15.90
  -6   0   8  350.36   15.90
  -6   0   8  334.97   15.10
  -6   0   8  298.57   15.10
  -6   0   8  369.16   15.90
  -6   0   8  353.26   17.70
  -5   0   8   47.20    6.10
  -5   0   8   43.40    3.50
  -5   0   8   43.00    4.00
  -5   0   8   45.30    3.60
   5   0  -8   52.79    6.80
  -4   0   8  867.81   37.30
  -4   0   8  878.91   38.80
   4   0  -8  884.71   39.10
  -4   0   8  858.21   39.00
   3   0  -8  227.78   12.70
  -3   0   8  237.38   12.80
  -3   0   8  239.08   11.50
  -3   0   8  228.88   12.80
  -2   0   8 1219.18   50.99
  -2   0   8 1240.98   50.99
  -2   0   8 1230.88   51.59
  -2   0   8 1217.48   52.39
  -2   0   8 1232.18   52.89
  -2   0   8 1236.68   51.59
  -2   0   8 1233.18   53.49
   2   0  -8 1209.18   52.89
  -1   0   8 1627.54   68.69
  -1   0   8 1615.34   68.19
  -1   0   8 1636.54   69.29
  -1   0   8 1630.44   68.69
   1   0  -8 1633.24   68.99
   1   0  -8 1627.14   68.09
   0   0   8   36.50    5.70
   0   0   8   34.70    4.90
   0   0   8   34.60    5.00
   0   0  -8   35.90    4.50
   0   0  -8   33.90    6.00
   0   0  -8   32.30    4.10
   0   0  -8   33.60    4.10
  -1   0  -8   18.10    3.90
  -1   0  -8   20.20    5.10
  -1   0  -8   12.80    3.50
   1   0   8   11.00    4.10
   1   0   8   11.30    4.10
   1   0   8   16.80    4.50
   2   0   8   15.00    4.90
   2   0   8   27.00    5.80
  -2   0  -8   39.90    7.20
   2   0   8   25.10    5.90
  -2   0  -8   30.40    6.60
  -3   0  -8  975.20   43.90
   3   0   8  950.10   44.40
   4   0   8    2.10    5.90
  -4   0  -8   18.50    6.90
   5   0   8  100.79   14.20
 -10  -1   8   94.19   11.10
 -10  -1   8   81.69   11.30
 -10  -1   8  120.09   12.90
 -10   1   8   90.59   12.40
 -10   1   8  112.29   14.40
 -10   1   8   97.49   11.90
  -9  -1   8  124.09   11.50
   9  -1  -8  119.99   12.80
  -9  -1   8  106.99    9.90
  -9  -1   8  112.19    9.60
  -9   1   8  124.59   10.90
  -9   1   8  105.99   10.20
  -9   1   8   94.59   12.10
  -8  -1   8    9.30    3.60
  -8  -1   8    5.20    3.30
   8  -1  -8    5.40    5.00
  -8  -1   8   12.90    4.60
  -8   1   8    2.90    4.10
  -8   1   8    3.30    3.90
  -8   1   8    5.10    5.00
  -8   1   8   -3.20    5.20
   8   1  -8   -1.20    3.40
   7  -1  -8  878.51   42.20
  -7  -1   8  882.21   39.80
  -7  -1   8  946.71   41.20
  -7  -1   8  912.61   39.10
  -7  -1   8  967.90   41.30
  -7   1   8  919.61   40.30
  -7   1   8  880.01   40.80
  -7   1   8  944.71   42.10
  -7   1   8  976.10   41.00
  -6  -1   8  329.27   15.90
  -6  -1   8  309.17   13.80
  -6  -1   8  297.37   13.80
   6  -1  -8  297.77   16.90
  -6   1   8  308.67   16.80
  -6   1   8  315.87   14.70
  -6   1   8  322.87   15.30
  -6   1   8  306.57   14.90
  -6   1   8  279.97   15.00
  -5  -1   8   62.69    5.70
  -5  -1   8   60.89    6.20
   5  -1  -8   50.59    6.90
  -5   1   8   59.29    4.60
  -5   1   8   51.09    4.80
  -5   1   8   49.99    7.00
  -5   1   8   55.89    4.80
  -5   1   8   50.39    5.00
  -4  -1   8    4.00    3.00
  -4  -1   8   -0.30    4.10
  -4  -1   8    3.30    2.40
   4  -1  -8    2.70    3.20
  -4   1   8    3.40    2.20
  -4   1   8   -2.30    3.20
  -4   1   8    3.40    4.10
  -4   1   8    4.50    2.10
  -4   1   8    1.60    2.00
  -4   1   8    2.80    1.80
  -3  -1   8   93.49    6.80
  -3  -1   8   95.99    7.70
  -3  -1   8   93.89    7.00
   3  -1  -8   92.79    7.50
  -3   1   8   90.99    5.40
  -3   1   8   98.79    5.90
  -3   1   8   90.69    5.10
  -3   1   8   85.89    5.60
  -3   1   8   77.09    7.50
  -3   1   8   90.49    6.10
  -2  -1   8   38.00    5.60
  -2  -1   8   34.80    5.20
   2  -1  -8   32.90    5.10
  -2   1   8   36.80    3.90
  -2   1   8   33.90    4.10
  -2   1   8   35.00    3.90
  -2   1   8   33.00    5.70
  -2   1   8   35.90    4.20
  -2   1   8   38.80    4.50
  -1  -1   8  302.37   14.00
  -1  -1   8  304.17   13.50
   1  -1  -8  308.07   14.70
  -1  -1   8  306.57   14.80
   1  -1  -8  297.37   14.10
   1  -1  -8  302.27   15.00
  -1  -1   8  293.57   15.50
  -1   1   8  313.87   15.20
   1   1  -8  298.07   13.10
  -1   1   8  307.07   14.70
  -1   1   8  301.17   14.70
  -1   1   8  291.67   14.90
   0  -1   8  201.28   12.20
   0  -1  -8  217.38   11.20
   0  -1   8  209.18   11.10
   0  -1  -8  194.68   11.60
   0  -1  -8  210.28   11.30
   0  -1   8  219.18   10.80
   0  -1  -8  195.78   10.80
   0   1   8  204.38   11.60
   0   1   8  213.88   12.10
   0   1  -8  213.08    9.90
   0   1  -8  187.38   10.90
   0   1   8  207.88   11.90
   0   1   8  211.78   11.60
  -1  -1  -8    8.20    2.60
  -1  -1  -8   12.00    4.40
  -1  -1  -8   11.00    3.60
  -1  -1  -8   10.10    3.80
   1  -1   8    4.90    3.50
   1  -1   8    7.40    4.30
   1  -1   8    7.90    3.90
   1   1   8    9.00    3.80
  -1   1  -8    3.10    3.20
  -1   1  -8    5.80    3.20
   1   1   8    4.40    4.10
   1   1   8    2.50    4.10
  -2  -1  -8    7.80    4.50
   2  -1   8   12.40    4.90
   2  -1   8    8.60    5.00
   2  -1   8    2.90    4.70
  -2  -1  -8   12.00    4.50
   2   1   8    0.20    5.60
   2   1   8    0.70    4.80
  -2   1  -8   11.60    4.50
   2   1   8    9.60    4.40
  -2   1  -8    7.60    4.10
   3  -1   8 1128.69   51.09
  -3  -1  -8 1104.99   50.39
   3   1   8 1131.99   50.59
  -3   1  -8 1099.59   49.90
  -4  -1  -8  168.28   14.10
   4  -1   8  114.29   13.60
   4   1   8  113.49   12.90
   5  -1   8   21.20    9.10
   5   1   8   17.90    8.00
  -9  -2   8  837.62   36.90
   9  -2  -8  809.82   39.30
  -9  -2   8  785.32   36.00
  -9  -2   8  805.72   36.90
  -9   2   8  791.22   38.30
  -9   2   8  783.82   37.70
  -9   2   8  849.72   39.30
  -8  -2   8   73.59    8.30
  -8  -2   8   79.49    6.50
  -8  -2   8   90.39    7.40
   8  -2  -8   66.09   10.10
  -8   2   8   79.79    9.00
  -8   2   8   95.39   10.70
  -8   2   8   71.39    8.70
  -7  -2   8   24.30    4.20
   7  -2  -8   23.00    5.40
  -7  -2   8   35.00    5.70
  -7  -2   8   13.30    6.90
  -7   2   8   26.90    5.40
  -7   2   8   17.20    4.60
  -7   2   8   22.70    5.80
  -7   2   8   26.80    6.30
  -6  -2   8 1326.47   56.79
   6  -2  -8 1325.57   58.79
  -6   2   8 1366.06   57.79
  -6   2   8 1344.67   57.69
  -6   2   8 1305.57   58.69
  -6   2   8 1288.37   57.29
  -6   2   8 1339.57   57.09
  -5  -2   8 1076.59   46.10
  -5  -2   8 1093.79   47.00
   5  -2  -8 1088.29   47.80
  -5   2   8 1110.09   46.40
  -5   2   8 1075.29   46.10
  -5   2   8 1132.59   46.80
  -5   2   8 1016.50   46.50
  -5   2   8  946.51   47.50
   4  -2  -8   84.99    8.30
  -4  -2   8  103.59    7.70
  -4  -2   8   88.39    9.10
  -4  -2   8  103.59    7.00
  -4   2   8   84.69    6.90
  -4   2   8  101.19    6.80
  -4   2   8   96.69    7.30
  -4   2   8   93.99    7.30
  -4   2   8   89.19    8.70
  -3  -2   8  206.98   12.80
  -3  -2   8  230.98   11.80
   3  -2  -8  219.98   12.70
  -3  -2   8  218.98   12.40
  -3   2   8  229.08   11.60
  -3   2   8  225.98   11.90
  -3   2   8  220.78   12.00
  -3   2   8  221.68   13.10
  -3   2   8  223.08   12.30
  -2  -2   8 2404.06  100.79
  -2  -2   8 2368.46  100.09
   2  -2  -8 2367.26  100.39
  -2   2   8 2333.37  100.49
  -2   2   8 2476.15  100.09
  -2   2   8 2440.36   99.89
  -2   2   8 2426.56  101.29
  -2   2   8 2198.78  100.09
   1  -2  -8  105.69    7.80
   1  -2  -8  106.89    7.30
  -1  -2   8   98.49    6.20
  -1  -2   8  105.89    7.80
  -1  -2   8  115.99    8.70
   1  -2  -8  111.49    6.80
  -1  -2   8  108.39    5.50
  -1   2   8  105.59    8.60
  -1   2   8  103.29    7.70
  -1   2   8  110.49    6.70
  -1   2   8  113.09    9.20
  -1   2   8  105.19    8.10
  -1   2   8   93.09    8.20
   0  -2  -8   78.29    7.30
   0  -2   8   81.59    6.30
   0  -2  -8   88.09    7.30
   0  -2  -8   82.39    7.40
   0  -2   8   93.09    8.50
   0  -2  -8   80.49    6.80
   0  -2   8   80.49    6.10
   0  -2   8   75.99    6.30
   0   2   8   76.19    7.90
   0   2   8   72.49    7.80
   0   2  -8   89.69    4.90
   0   2   8   78.39    8.50
   0   2  -8   83.99    4.90
   0   2   8   89.59    6.90
   0   2  -8   83.99    6.00
  -1  -2  -8  736.73   33.40
   1  -2   8  757.02   32.90
  -1  -2  -8  718.33   31.80
  -1  -2  -8  705.73   33.10
   1  -2   8  764.62   34.20
  -1  -2  -8  677.43   33.10
   1  -2   8  744.63   32.50
   1   2   8  656.83   33.60
  -1   2  -8  750.02   32.30
  -1   2  -8  657.83   31.80
   1   2   8  726.23   32.90
   1   2   8  779.32   34.50
  -2  -2  -8   47.80    5.00
   2  -2   8   45.30    8.30
   2  -2   8   43.00    8.90
  -2  -2  -8   32.40    6.40
   2   2   8   57.49    8.00
   2   2   8   48.60    8.40
  -2   2  -8   33.00    7.20
   2   2   8   46.90   10.70
  -2   2  -8   28.70    6.80
   3  -2   8   86.89   11.30
  -3  -2  -8   90.09   11.10
   3   2   8   93.49   10.30
  -3   2  -8   60.29    9.30
   4  -2   8   47.80   11.90
  -4  -2  -8   68.39   12.30
   4   2   8   39.80    8.20
  -9  -3   8   52.29    8.70
   9  -3  -8   57.39   12.20
  -9  -3   8   76.09    8.30
  -9   3   8   62.29   11.10
  -9   3   8   56.29   12.60
  -9   3   8   66.09   11.20
   8  -3  -8   23.60    6.70
  -8  -3   8   14.50    3.80
  -8  -3   8   12.80    4.10
  -8   3   8   14.70    5.80
  -8   3   8   16.80    6.40
  -8   3   8   15.20    5.80
   7  -3  -8  841.72   40.40
  -7  -3   8  867.31   37.00
  -7  -3   8  842.92   37.30
  -7   3   8  888.21   39.30
  -7   3   8  826.62   40.50
  -7   3   8  886.51   40.00
  -6  -3   8  268.47   12.50
   6  -3  -8  262.97   15.90
  -6  -3   8  268.77   11.90
  -6   3   8  272.67   15.00
  -6   3   8  233.58   15.40
  -6   3   8  261.77   14.30
  -6   3   8  226.38   15.80
  -6   3   8  237.88   15.00
  -5  -3   8  106.19    9.50
  -5  -3   8  107.59    6.50
   5  -3  -8   91.29    9.40
  -5   3   8  100.99    8.20
  -5   3   8  117.89   10.40
  -5   3   8   96.39    8.60
  -5   3   8   84.29    9.00
  -5   3   8  101.09    9.30
  -4  -3   8    3.70    2.50
  -4  -3   8    5.90    4.10
   4  -3  -8    6.20    4.40
  -4   3   8    5.40    4.30
  -4   3   8    9.30    4.10
  -4   3   8    4.90    4.20
  -4   3   8   10.30    3.60
  -4   3   8   10.10    3.80
   3  -3  -8   59.39    7.20
  -3  -3   8   49.40    8.30
  -3  -3   8   50.19    5.20
  -3  -3   8   46.80    7.20
  -3   3   8   61.29    7.50
  -3   3   8   54.89    7.30
  -3   3   8   49.60    6.60
  -3   3   8   63.39    6.50
  -3   3   8   48.50    7.60
  -2  -3   8   45.30    7.40
   2  -3  -8   41.00    6.60
  -2  -3   8   41.20    3.50
  -2  -3   8   51.79    7.30
  -2   3   8   45.20    7.30
  -2   3   8   39.90    6.40
  -2   3   8   43.50    7.20
  -2   3   8   38.20    6.10
  -2   3   8   49.80    7.70
  -1  -3   8  193.48   11.90
  -1  -3   8  180.38    9.80
  -1  -3   8  181.98   12.40
  -1  -3   8  187.88   11.20
   1  -3  -8  197.58   11.70
   1  -3  -8  197.38   10.00
   1  -3  -8  188.68   11.60
  -1   3   8  191.58   12.10
  -1   3   8  205.98   12.90
  -1   3   8  183.88   12.50
  -1   3   8  170.38   12.20
   0  -3  -8  174.88   11.80
   0  -3   8  150.58   12.10
   0  -3   8  169.78    9.90
   0  -3   8  167.08   10.20
   0  -3  -8  177.18   11.00
   0  -3   8  183.38   12.50
   0  -3   8  176.78   10.20
   0  -3  -8  166.28   10.60
   0   3  -8  171.28    9.60
   0   3   8  192.48   12.70
   0   3   8  162.18   12.00
   0   3   8  181.68   13.20
   0   3   8  194.18   13.10
   0   3  -8  179.88    8.60
   1  -3   8    0.80    3.70
   1  -3   8    8.60    3.10
  -1  -3  -8    1.50    4.40
  -1  -3  -8    8.00    5.00
   1  -3   8    8.90    4.30
  -1  -3  -8    3.20    3.50
   1  -3   8    6.30    5.10
  -1  -3  -8    0.00    4.60
  -1   3  -8    9.90    4.00
   1   3   8   -1.90    4.30
   1   3   8    4.80    6.30
   1   3   8    9.80    6.40
  -1   3  -8   12.20    3.80
   2  -3   8    5.80    6.00
  -2  -3  -8    2.50    3.60
  -2  -3  -8    6.00    5.60
   2   3   8   13.50    6.00
  -2   3  -8   -5.30    3.70
  -3  -3  -8  929.61   42.90
   3  -3   8  908.51   43.30
   3   3   8  862.41   43.20
  -4  -3  -8  148.89   15.30
   4  -3   8  120.39   15.00
   4   3   8  119.29   15.70
  -8  -4   8   70.79    8.10
   8  -4  -8   50.89   12.00
  -8   4   8   69.89   12.60
  -8   4   8   82.99   11.40
  -8   4   8   56.99   11.50
   7  -4  -8  267.77   17.70
  -7  -4   8  257.07   13.70
  -7   4   8  247.68   17.70
  -7   4   8  257.97   16.40
  -7   4   8  277.87   17.40
  -6  -4   8  243.08   11.80
   6  -4  -8  248.18   15.70
  -6   4   8  241.48   16.10
  -6   4   8  222.78   14.60
  -6   4   8  212.08   15.20
   5  -4  -8   24.90    6.10
  -5  -4   8   39.50    8.70
  -5   4   8   28.80    7.80
  -5   4   8   25.20    5.40
  -5   4   8   35.70    8.40
  -4  -4   8  527.25   26.50
   4  -4  -8  549.74   26.40
  -4   4   8  481.65   26.50
  -4   4   8  524.85   26.70
  -4   4   8  507.95   26.60
  -4   4   8  556.64   25.90
  -4   4   8  535.25   26.40
  -3  -4   8  133.99    7.60
  -3  -4   8  131.09   11.40
   3  -4  -8  150.08   11.00
  -3  -4   8  146.59    8.30
  -3   4   8  140.39   11.70
  -3   4   8  146.69   12.10
  -3   4   8  139.39   10.40
  -3   4   8  130.09   10.90
  -3   4   8  138.49   12.20
  -2  -4   8  717.93   34.40
  -2  -4   8  754.72   32.20
  -2  -4   8  680.03   33.50
  -2  -4   8  728.03   31.60
   2  -4  -8  734.63   34.00
  -2   4   8  719.73   33.80
  -2   4   8  688.73   34.10
  -2   4   8  729.93   34.50
  -2   4   8  706.53   34.80
  -2   4   8  798.52   34.90
  -1  -4   8  998.80   43.90
  -1  -4   8  974.80   44.20
  -1  -4   8  992.00   45.80
   1  -4  -8 1007.70   42.60
  -1  -4   8  994.10   43.40
   1  -4  -8  974.50   44.70
   1  -4  -8 1050.19   45.40
   1   4  -8  966.60   42.30
  -1   4   8  989.40   45.60
  -1   4   8  979.70   46.30
  -1   4   8 1072.19   46.20
   1   4  -8  982.00   42.30
  -1   4   8 1023.50   45.40
  -1   4   8  973.90   45.70
   0  -4   8   26.40    6.50
   0  -4  -8   36.50    6.50
   0  -4   8   24.60    6.20
   0  -4  -8   32.00    6.40
   0  -4   8   41.70    8.10
   0  -4   8   44.10    8.90
   0  -4  -8   30.50    5.70
   0   4   8   37.70    8.80
   0   4   8   39.20    8.70
   0   4  -8   38.80    5.20
   0   4   8   36.50    6.80
   0   4   8   35.90    8.50
  -1  -4  -8   17.20    6.30
  -1  -4  -8   17.60    4.70
   1  -4   8    5.80    6.10
   1   4   8   15.50    6.40
   1   4   8   16.20    5.30
  -2  -4  -8   40.10    7.80
  -2  -4  -8   29.20    7.80
   2  -4   8   53.69   11.00
   2   4   8   33.40    8.20
   3  -4   8  611.44   33.10
  -3  -4  -8  644.94   33.00
   3   4   8  614.94   33.30
  -7  -5   8  397.36   20.10
   7  -5  -8  399.96   24.00
  -7   5   8  412.26   23.30
  -7   5   8  407.16   24.30
  -7   5   8  406.16   24.60
   6  -5  -8  184.18   15.10
  -6  -5   8  176.88   10.80
  -6   5   8  191.68   15.80
  -6   5   8  173.28   14.90
  -6   5   8  164.68   14.40
   5  -5  -8   47.30   10.30
  -5  -5   8   68.49   11.10
  -5   5   8   43.40    9.50
  -5   5   8   51.69   10.90
  -5   5   8   35.40    7.80
   4  -5  -8   -0.20    5.70
  -4  -5   8    1.00    5.70
  -4   5   8   -4.70    4.90
  -4   5   8    8.20    6.20
  -4   5   8   13.90    6.30
   3  -5  -8  112.09   11.10
  -3  -5   8  110.29   11.80
  -3   5   8  100.29   10.80
  -3   5   8   95.49   11.30
  -3   5   8   92.59   11.30
  -2  -5   8   50.09   10.00
  -2  -5   8   37.70    6.30
   2  -5  -8   50.59    8.90
  -2   5   8   52.79    9.60
  -2   5   8   38.60    7.30
  -2   5   8   51.89    9.60
   1  -5  -8  205.88   14.30
  -1  -5   8  206.68   15.80
  -1   5   8  184.08   15.00
  -1   5   8  214.88   15.70
  -1   5   8  215.08   14.90
   0  -5  -8  123.99   11.80
   0  -5   8  138.49   13.60
   0   5   8  143.79   13.60
   0   5   8  134.49   13.40
   0   5   8  134.29   12.70
   1  -5   8    7.50    7.40
  -1  -5  -8   13.90    6.30
   1   5   8   10.60    6.80
   1   5   8   20.60    7.40
   1   5   8    9.50    6.40
   2  -5   8   44.90    9.60
  -2  -5  -8   62.59   13.60
  -2  -5  -8   25.50    7.00
   2   5   8   21.10    7.00
   2   5   8   24.60    8.30
   2   5   8   29.10    8.90
  -5  -6   8  445.16   26.70
   5  -6  -8  419.86   25.50
  -5   6   8  457.15   26.90
  -5   6   8  423.66   26.50
  -5   6   8  486.95   26.00
  -4  -6   8   12.20    8.00
   4  -6  -8   16.40    7.70
  -4   6   8   15.20    7.30
  -4   6   8   22.50    8.30
  -4   6   8    8.90    7.60
   3  -6  -8   61.09   12.10
  -3  -6   8   95.79   13.70
  -3   6   8   72.49   13.10
  -3   6   8   82.79   12.60
  -3   6   8  123.89   14.00
   2  -6  -8 1107.09   51.39
  -2  -6   8 1093.69   52.39
  -2   6   8 1119.19   51.99
  -2   6   8 1142.69   53.19
  -2   6   8 1107.29   52.29
  -1  -6   8   51.79   12.70
   1  -6  -8   54.39   11.80
  -1   6   8   47.70   11.90
  -1   6   8   51.99    9.70
  -1   6   8   49.90   12.80
   0  -6   8   59.09   13.90
   0  -6  -8   92.19   12.90
   0   6   8   87.29   14.50
   0   6   8   85.09   12.80
   0   6   8   97.29   14.60
  -9   0   9  152.98   10.50
  -9   0   9  151.88   11.30
  -9   0   9  162.38   13.60
  -8   0   9  804.62   36.90
  -8   0   9  787.32   35.00
  -8   0   9  781.72   35.00
  -8   0   9  768.02   34.00
  -7   0   9  106.99    7.30
  -7   0   9  107.29    6.90
  -7   0   9  125.69   10.20
  -7   0   9  104.69    7.10
   7   0  -9  103.99   10.90
   6   0  -9  203.58   13.50
  -6   0   9  197.48    9.60
  -6   0   9  199.68   10.60
  -6   0   9  201.38    9.70
  -6   0   9  205.48   12.90
  -6   0   9  200.68   10.10
  -5   0   9  133.79    7.60
   5   0  -9  142.89   10.40
  -5   0   9  131.39   10.00
   4   0  -9  351.86   18.30
  -4   0   9  351.16   16.30
  -4   0   9  351.36   18.10
   3   0  -9  969.00   42.00
  -3   0   9  938.91   42.00
  -3   0   9  921.71   40.70
  -3   0   9  945.61   42.20
  -2   0   9  798.32   36.80
   2   0  -9  806.62   36.00
  -2   0   9  809.12   35.60
  -2   0   9  797.62   34.60
  -2   0   9  825.72   34.60
  -1   0   9   56.19    5.50
  -1   0   9   67.89    5.50
  -1   0   9   74.99    5.90
  -1   0   9   61.09    6.90
   1   0  -9   72.99    6.30
   0   0  -9  119.49    7.30
   0   0  -9  119.79   10.10
   0   0   9  124.39    8.50
   0   0   9  120.59    8.60
   0   0   9  122.19    9.40
   1   0   9 2440.76   99.89
  -1   0  -9 2425.06   99.09
   1   0   9 2458.75  100.29
  -1   0  -9 2056.99   98.49
   2   0   9    0.80    5.40
   3   0   9  115.09   12.70
   4   0   9  444.56   26.00
  -9  -1   9   35.00    7.20
  -9  -1   9   46.70    6.70
   9  -1  -9   56.19    9.70
  -9  -1   9   53.79   10.40
  -9   1   9   46.20    8.10
  -9   1   9   43.70    8.20
  -9   1   9   33.20    8.50
  -8  -1   9 1003.30   43.90
   8  -1  -9  963.10   45.50
  -8  -1   9  943.41   42.00
  -8   1   9  981.30   45.00
  -8   1   9  957.20   42.50
  -8   1   9  981.60   43.30
  -7  -1   9  309.47   16.80
   7  -1  -9  288.07   18.10
  -7  -1   9  308.37   16.00
  -7  -1   9  310.87   13.90
  -7   1   9  306.97   15.60
  -7   1   9  303.67   17.70
  -7   1   9  319.97   15.80
  -7   1   9  301.77   14.90
  -6  -1   9  337.97   16.60
   6  -1  -9  365.36   19.00
  -6  -1   9  341.17   17.50
  -6   1   9  314.07   16.00
  -6   1   9  331.37   18.50
  -6   1   9  333.57   15.70
  -6   1   9  332.47   15.40
  -6   1   9  351.76   16.40
   5  -1  -9   14.60    4.40
  -5  -1   9   12.00    3.50
  -5  -1   9   16.70    4.20
  -5   1   9   16.40    3.30
  -5   1   9    9.80    2.70
  -5   1   9   18.40    4.20
  -5   1   9   11.10    4.70
  -5   1   9   16.30    3.00
  -4  -1   9 1920.21   80.89
   4  -1  -9 1878.21   81.49
  -4  -1   9 1871.71   80.29
  -4   1   9 1892.01   79.59
  -4   1   9 1928.41   78.79
  -4   1   9 1910.51   81.69
  -4   1   9 1891.91   79.49
  -4   1   9 1876.41   78.79
  -3  -1   9  460.95   23.20
  -3  -1   9  489.45   22.90
   3  -1  -9  482.65   23.10
  -3  -1   9  469.45   22.40
  -3   1   9  455.05   20.90
  -3   1   9  479.65   21.60
  -3   1   9  479.15   20.90
  -3   1   9  483.45   20.90
  -3   1   9  485.55   21.50
  -3   1   9  487.25   23.70
  -2  -1   9   29.40    6.60
   2  -1  -9   31.30    6.00
  -2  -1   9   38.60    5.90
  -2   1   9   37.50    5.10
  -2   1   9   40.30    4.80
  -2   1   9   39.60    4.50
  -2   1   9   42.90    4.80
  -2   1   9   29.20    4.50
  -2   1   9   36.90    6.90
  -1  -1   9  159.38   10.40
  -1  -1   9  161.48    8.90
   1  -1  -9  166.68    8.90
  -1  -1   9  153.58   10.90
  -1  -1   9  162.88    8.00
   1  -1  -9  165.98   10.20
  -1   1   9  171.98    9.70
  -1   1   9  187.78   10.40
  -1   1   9  155.28    9.80
  -1   1   9  175.18   10.30
  -1   1   9  177.08   10.00
   0  -1  -9    7.30    4.10
   0  -1   9    8.70    4.40
   0  -1  -9   10.90    3.70
   0  -1  -9    7.30    3.60
   0  -1   9   11.00    3.50
   0  -1   9    8.60    3.40
   0  -1  -9    7.30    3.30
   0   1   9   10.30    4.60
   0   1   9    5.00    3.60
   0   1   9    7.00    4.20
   0   1   9    5.40    3.80
   0   1  -9    8.70    2.90
  -1  -1  -9  480.45   21.50
   1  -1   9  466.85   24.40
   1  -1   9  482.95   23.30
  -1  -1  -9  504.65   23.50
   1   1   9  487.65   25.10
   1   1   9  473.85   24.00
  -1   1  -9  457.45   22.50
   1   1   9  479.45   23.70
  -2  -1  -9    2.50    4.60
   2  -1   9    1.50    5.40
   2   1   9    9.20    5.20
   3  -1   9   31.40    8.00
   3   1   9   28.00    7.10
   4  -1   9   86.59   14.60
   4   1   9   64.39   13.40
   9  -2  -9 1103.99   51.59
  -9  -2   9 1083.49   47.90
  -9   2   9 1093.29   51.39
  -9   2   9 1081.29   49.90
  -9   2   9 1132.69   49.40
  -8  -2   9   91.59    9.10
   8  -2  -9   83.19   11.50
  -8  -2   9   90.99    6.80
  -8   2   9   85.49   11.80
  -8   2   9   97.29    9.40
  -8   2   9   85.89    9.00
  -7  -2   9  271.97   15.30
   7  -2  -9  270.87   17.50
  -7   2   9  303.97   15.90
  -7   2   9  286.07   17.60
  -7   2   9  289.97   15.10
  -6  -2   9   65.29    8.10
   6  -2  -9   67.99    8.90
  -6  -2   9   71.19    7.00
  -6   2   9   71.39    7.30
  -6   2   9   57.89    6.60
  -6   2   9   71.69   10.90
  -6   2   9   65.49    9.30
  -6   2   9   66.99    7.10
  -5  -2   9  338.87   17.40
   5  -2  -9  329.67   18.30
  -5  -2   9  343.07   16.80
  -5   2   9  331.07   16.60
  -5   2   9  332.57   16.90
  -5   2   9  325.87   16.60
  -5   2   9  340.37   18.60
  -5   2   9  326.97   16.00
  -4  -2   9   54.59    6.90
   4  -2  -9   50.79    7.50
  -4  -2   9   54.89    6.40
  -4   2   9   50.39    6.20
  -4   2   9   59.39    6.40
  -4   2   9   50.59    5.90
  -4   2   9   46.10    8.20
  -4   2   9   48.00    5.50
  -3  -2   9    9.50    4.20
  -3  -2   9    6.60    3.60
   3  -2  -9   16.90    4.80
  -3  -2   9   12.20    5.20
  -3   2   9   15.10    3.30
  -3   2   9   21.10    5.40
  -3   2   9    5.40    3.60
  -3   2   9   16.70    3.80
  -3   2   9   13.50    4.50
  -2  -2   9    5.40    4.00
  -2  -2   9   12.90    4.90
   2  -2  -9   12.00    4.10
  -2   2   9   16.20    4.70
  -2   2   9    8.70    3.80
  -2   2   9   12.90    3.90
  -2   2   9    9.40    3.30
  -2   2   9    6.90    3.30
   1  -2  -9  401.86   18.90
  -1  -2   9  404.56   19.50
   1  -2  -9  419.46   19.90
  -1  -2   9  400.56   18.10
  -1  -2   9  387.86   20.60
   1  -2  -9  421.46   19.40
  -1   2   9  391.46   19.60
  -1   2   9  392.46   20.50
  -1   2   9  376.56   21.10
  -1   2   9  397.26   20.10
  -1   2   9  392.86   19.80
  -1   2   9  401.66   18.80
   0  -2  -9  191.58   12.00
   0  -2  -9  210.68   12.30
   0  -2   9  176.88   13.20
   0  -2  -9  199.08   12.20
   0  -2   9  201.98   11.00
   0  -2  -9  190.68   11.50
   0  -2   9  193.08   11.10
   0  -2   9  194.38   10.60
   0   2   9  206.18   11.80
   0   2   9  208.78   14.90
   0   2   9  186.48   12.50
   0   2  -9  186.58   10.20
   0   2   9  207.48   13.70
  -1  -2  -9  633.14   28.80
  -1  -2  -9  600.64   30.40
   1  -2   9  681.53   30.20
   1  -2   9  644.14   31.70
   1   2   9  670.83   31.40
   1   2   9  630.44   30.30
   2  -2   9  494.55   25.70
  -2  -2  -9  414.06   26.10
   2   2   9  471.05   24.30
   2   2   9  500.25   25.50
   3  -2   9   73.39   13.00
   3   2   9   75.49   12.20
   3   2   9   98.79   13.20
  -8  -3   9  709.53   31.80
   8  -3  -9  747.83   36.50
  -8   3   9  751.92   34.60
  -8   3   9  716.13   35.20
  -8   3   9  730.93   36.80
   7  -3  -9  286.77   19.10
  -7   3   9  308.17   17.70
  -7   3   9  320.37   19.40
  -7   3   9  297.77   17.00
  -6  -3   9  284.87   17.00
   6  -3  -9  274.07   17.70
  -6  -3   9  288.67   14.00
  -6   3   9  289.27   15.50
  -6   3   9  297.87   18.20
  -6   3   9  265.67   16.00
   5  -3  -9   24.40    6.00
  -5  -3   9   27.50    5.10
  -5  -3   9   26.40    5.90
  -5   3   9   22.90    6.40
  -5   3   9   20.10    4.60
  -5   3   9   20.80    5.60
  -5   3   9   20.20    4.70
  -4  -3   9 1425.56   59.89
   4  -3  -9 1379.66   61.89
  -4  -3   9 1456.95   61.89
  -4   3   9 1351.66   61.09
  -4   3   9 1406.86   60.69
  -4   3   9 1439.96   62.69
  -4   3   9 1349.77   61.29
  -4   3   9 1423.56   61.49
  -3  -3   9  326.77   15.50
  -3  -3   9  275.87   17.00
   3  -3  -9  312.67   17.10
  -3   3   9  297.47   16.70
  -3   3   9  311.57   16.20
  -3   3   9  310.87   17.80
  -3   3   9  307.37   17.10
  -3   3   9  306.97   17.20
  -2  -3   9   43.50    8.50
   2  -3  -9   53.69    7.70
  -2  -3   9   56.09    8.40
  -2   3   9   31.80    6.40
  -2   3   9   59.79    7.40
  -2   3   9   53.69    7.10
  -2   3   9   33.30    8.30
  -2   3   9   57.19    8.90
   1  -3  -9  158.98   11.10
  -1  -3   9  152.08   12.30
  -1  -3   9  163.58    9.10
  -1  -3   9  152.68   12.60
  -1  -3   9  156.98   11.40
  -1   3   9  162.28   12.40
  -1   3   9  188.18   15.20
  -1   3   9  159.88   11.50
  -1   3   9  174.78   11.90
   0  -3   9   13.90    5.50
   0  -3  -9   15.10    4.40
   0  -3   9   17.00    4.00
   0   3   9   19.00    5.50
   0   3   9   14.50    5.10
   0   3   9   12.80    5.80
   1  -3   9  336.87   20.20
  -1  -3  -9  321.57   19.20
  -1  -3  -9  329.87   17.10
   1   3   9  333.07   19.70
   2  -3   9   13.80    7.70
   2   3   9   23.30    7.80
   3  -3   9    2.20    8.10
   3   3   9   15.20    8.50
  -8  -4   9  520.05   22.90
  -8   4   9  448.86   28.60
  -8   4   9  509.25   26.50
   7  -4  -9   99.89   13.20
  -7   4   9  104.99   11.40
  -7   4   9  101.59   11.80
  -7   4   9  120.29   14.00
   6  -4  -9  187.38   14.60
  -6  -4   9  146.19   14.30
  -6   4   9  175.58   15.40
  -6   4   9  169.68   12.80
  -6   4   9  170.48   13.20
  -5  -4   9  143.19   12.70
   5  -4  -9  125.59   12.20
  -5   4   9  125.39   11.80
  -5   4   9  138.19   11.20
  -5   4   9  127.69   13.10
  -4  -4   9  255.07   16.40
   4  -4  -9  267.37   16.40
  -4   4   9  278.37   17.30
  -4   4   9  244.38   15.80
  -4   4   9  235.88   15.00
  -3  -4   9  679.43   32.60
  -3  -4   9  675.33   29.30
   3  -4  -9  655.13   32.10
  -3   4   9  687.73   33.20
  -3   4   9  654.33   32.20
  -3   4   9  644.84   31.40
  -2  -4   9  589.44   25.10
  -2  -4   9  573.54   29.00
   2  -4  -9  545.45   28.10
  -2  -4   9  588.54   26.30
  -2   4   9  570.74   28.20
  -2   4   9  587.54   28.70
  -2   4   9  555.94   28.90
  -1  -4   9   68.09   11.00
   1  -4  -9   66.19    9.40
  -1  -4   9   68.59    6.80
  -1   4   9   79.29   10.00
  -1   4   9   78.89    9.80
  -1   4   9   72.89   10.20
   0  -4   9  110.79   12.80
   0  -4  -9  108.39   10.70
   0   4   9  108.69   12.20
   0   4   9  125.19   12.20
   0   4   9  132.29   12.10
   1  -4   9 1737.63   76.99
  -1  -4  -9 1757.42   74.59
   1   4   9 1627.44   76.79
   1   4   9 1828.02   76.69
   1   4   9 1681.63   76.49
   2  -4   9    4.00    8.60
   2   4   9    1.30    7.60
  -6  -5   9   87.79   14.50
   6  -5  -9  106.29   13.80
  -6   5   9   93.39   14.30
  -6   5   9   97.49   12.40
  -6   5   9   93.29   12.90
  -5  -5   9   11.40    7.30
   5  -5  -9   -2.30    6.90
  -5   5   9    4.10    5.90
  -5   5   9   -1.10    6.30
  -5   5   9    1.60    7.10
   4  -5  -9 1077.89   50.79
  -4  -5   9 1079.09   51.19
  -4   5   9 1129.99   51.89
  -4   5   9 1137.59   50.49
  -4   5   9 1082.39   51.19
   3  -5  -9  281.07   18.50
  -3  -5   9  291.27   19.00
  -3   5   9  287.87   17.80
  -3   5   9  250.97   18.80
  -3   5   9  299.37   18.80
   2  -5  -9    4.70    6.20
  -2  -5   9   12.90    7.20
  -2   5   9   23.20    7.10
  -2   5   9   10.40    7.50
  -2   5   9    0.80    6.30
  -1  -5   9   32.00    8.40
   1  -5  -9   65.59   10.90
  -1   5   9   39.60    7.80
  -1   5   9   45.00    8.60
  -1   5   9   32.80    8.10
   0  -5   9   35.90    8.70
   0  -5  -9   23.30    7.20
   0   5   9   35.20    8.10
   0   5   9   25.50    7.40
   0   5   9   47.10   11.80
   1  -5   9  245.58   20.20
  -1  -5  -9  302.47   17.90
   1   5   9  278.57   19.30
   1   5   9  217.18   21.20
  -3  -6   9   41.70    9.90
   3  -6  -9   25.60    8.50
  -3   6   9   33.70    8.60
  -3   6   9   16.30    8.60
  -3   6   9   28.70    9.50
  -9   0  10  410.56   20.40
  -9   0  10  424.86   23.90
  -8   0  10   79.89   10.80
  -8   0  10   50.39    5.80
  -8   0  10   45.60    6.00
  -7   0  10   50.39    9.10
   7   0 -10   53.29   10.00
  -6   0  10 2737.03  114.89
   6   0 -10 2697.13  115.39
  -6   0  10 2662.33  112.29
   5   0 -10  153.18   11.90
  -5   0  10  164.28   11.90
  -5   0  10  148.29    8.50
  -4   0  10   98.89    7.00
   4   0 -10  105.79    9.60
  -4   0  10   90.79    9.30
   3   0 -10  440.06   21.50
  -3   0  10  408.06   21.80
  -3   0  10  431.36   20.10
   2   0 -10  353.56   18.20
  -2   0  10  369.76   19.60
  -2   0  10  360.96   16.50
  -2   0  10  360.86   16.40
  -2   0  10  360.36   18.00
  -1   0  10  165.48   11.30
  -1   0  10  167.98    9.10
  -1   0  10  171.58    9.90
  -1   0  10  160.08    9.20
  -1   0  10  179.48   10.10
   0   0  10   58.59    7.80
   0   0  10   70.49    9.10
   0   0  10   65.59    7.50
   1   0  10   10.60    6.20
   2   0  10   50.49    8.70
  -9  -1  10    6.90    3.90
  -9  -1  10    8.30    6.90
   9  -1 -10   11.90    8.90
  -9   1  10    9.20    4.70
  -9   1  10   23.20    5.70
  -9   1  10   12.70    8.10
  -8  -1  10   64.39   10.30
   8  -1 -10   30.60    8.80
  -8   1  10   52.89    6.20
  -8   1  10   53.49    7.20
  -8   1  10   71.29   11.40
   7  -1 -10   15.80    6.80
  -7  -1  10   -2.30    3.90
  -7  -1  10    8.20    4.90
  -7   1  10    4.00    3.40
  -7   1  10    9.80    6.10
  -7   1  10    4.60    3.30
  -6  -1  10   45.50    8.20
  -6  -1  10   52.49    6.70
   6  -1 -10   44.10    9.20
  -6   1  10   60.59    9.80
  -6   1  10   52.99    5.10
  -6   1  10   51.19    5.60
  -5  -1  10  255.27   13.50
   5  -1 -10  233.98   15.20
  -5  -1  10  257.17   14.80
  -5   1  10  250.17   12.20
  -5   1  10  251.37   12.00
  -5   1  10  241.98   15.50
  -4  -1  10  321.27   17.40
   4  -1 -10  324.27   17.90
  -4  -1  10  315.77   16.50
  -4   1  10  339.67   18.40
  -4   1  10  332.87   15.10
  -4   1  10  316.37   15.10
  -3  -1  10  196.08   12.60
   3  -1 -10  176.28   12.40
  -3  -1  10  196.78   11.80
  -3   1  10  197.08   13.20
  -3   1  10  196.18   10.00
  -3   1  10  201.38   10.30
  -3   1  10  202.38   10.50
  -3   1  10  193.08    9.20
  -2  -1  10    8.60    5.50
   2  -1 -10   -0.30    3.90
  -2  -1  10    9.60    4.80
  -2  -1  10   11.80    4.30
  -2   1  10   -2.20    3.00
  -2   1  10   -2.00    4.50
  -2   1  10    0.70    2.60
  -2   1  10    2.90    2.80
  -2   1  10    1.90    3.10
  -2   1  10    2.30    3.10
  -1  -1  10 1464.15   62.19
  -1  -1  10 1524.95   62.29
   1  -1 -10 1452.25   63.29
  -1  -1  10 1506.65   64.39
  -1   1  10 1462.75   65.29
  -1   1  10 1439.86   62.69
  -1   1  10 1459.45   63.39
  -1   1  10 1510.15   63.59
  -1   1  10 1431.86   63.19
   0  -1  10  183.08   10.90
   0  -1 -10  183.08   10.60
   0  -1  10  173.88   13.00
   0   1  10  170.98   11.80
   0   1  10  149.88   11.60
   1  -1  10   82.19   11.20
   1   1  10   94.09   10.50
   1   1  10   96.09   10.10
   2  -1  10  166.88   15.40
   2   1  10  168.38   14.10
   2   1  10  161.48   14.30
   8  -2 -10  489.15   27.60
  -8   2  10  533.15   27.80
  -8   2  10  523.15   24.40
  -8   2  10  486.85   24.90
  -7  -2  10   32.60    6.40
   7  -2 -10   52.29   10.80
  -7  -2  10   35.60    8.10
  -7   2  10   49.50    7.50
  -7   2  10   34.40    6.60
  -7   2  10   41.00    8.00
  -6  -2  10  791.22   36.00
   6  -2 -10  805.12   37.70
  -6  -2  10  795.02   35.50
  -6   2  10  748.33   35.00
  -6   2  10  780.02   34.30
  -6   2  10  790.02   37.40
  -6   2  10  778.12   37.70
  -5  -2  10  643.44   29.10
   5  -2 -10  605.04   30.60
  -5  -2  10  628.14   29.30
  -5   2  10  638.34   31.20
  -5   2  10  609.64   28.60
  -5   2  10  625.84   27.60
  -5   2  10  613.74   28.40
  -4  -2  10  231.18   14.20
  -4  -2  10  227.28   13.60
   4  -2 -10  236.48   15.00
  -4   2  10  237.48   12.20
  -4   2  10  231.08   13.30
  -4   2  10  253.87   13.00
  -4   2  10  232.18   15.70
  -3  -2  10   36.10    7.10
   3  -2 -10   25.50    5.70
  -3  -2  10   39.40    7.60
  -3   2  10   37.00    6.10
  -3   2  10   17.20    5.90
  -3   2  10   38.80    5.60
  -3   2  10   30.40    5.20
  -2  -2  10   57.99    9.60
   2  -2 -10   72.09    8.40
  -2  -2  10   84.19    9.00
  -2  -2  10   75.79    9.10
  -2   2  10   80.59    7.40
  -2   2  10   49.10    9.20
  -2   2  10   66.99    7.40
  -2   2  10   62.49    7.90
  -1  -2  10  711.53   34.20
  -1  -2  10  749.03   31.20
   1  -2 -10  731.63   33.20
  -1   2  10  705.33   32.80
  -1   2  10  689.93   33.40
  -1   2  10  734.73   32.20
  -1   2  10  723.63   34.90
   0  -2 -10  282.27   15.60
   0  -2  10  301.57   18.20
   0  -2  10  293.77   15.80
   0   2  10  283.87   16.40
   0   2  10  283.47   15.90
   0   2  10  287.67   17.10
   1  -2  10  149.09   13.80
   1   2  10  133.09   12.20
   1   2  10  152.38   12.90
   2  -2  10  229.18   17.60
   2   2  10  191.28   16.50
   2   2  10  229.68   16.30
   8  -3 -10   13.40    7.50
  -8  -3  10   39.70    8.80
  -8   3  10    8.40    7.90
  -8   3  10   42.70    9.60
  -8   3  10   37.20    9.50
   7  -3 -10   35.30    8.30
  -7  -3  10   43.70    7.90
  -7   3  10   33.60    8.10
  -7   3  10   47.50    9.20
  -7   3  10   35.10    8.50
   6  -3 -10   45.40    8.60
  -6  -3  10   38.60    9.40
  -6   3  10   46.30    8.20
  -6   3  10   32.30    7.50
  -6   3  10   46.60    7.30
  -5  -3  10  193.88   11.20
   5  -3 -10  178.08   14.20
  -5  -3  10  184.58   13.40
  -5   3  10  187.88   15.00
  -5   3  10  181.48   11.70
  -5   3  10  186.58   12.50
  -4  -3  10  271.47   14.20
  -4  -3  10  242.38   15.90
   4  -3 -10  234.28   15.90
  -4   3  10  248.98   14.20
  -4   3  10  256.87   17.70
  -4   3  10  259.07   15.10
  -3  -3  10  169.48   12.70
   3  -3 -10  139.39   12.10
  -3  -3  10  159.88   10.60
  -3   3  10  150.88   11.50
  -3   3  10  144.59   13.10
  -3   3  10  162.68   10.70
  -2  -3  10    4.40    5.50
  -2  -3  10   12.80    5.10
   2  -3 -10    8.10    5.00
  -2   3  10   12.60    4.80
  -2   3  10   18.40    4.80
  -2   3  10   16.10    6.20
   1  -3 -10 1166.28   51.69
  -1  -3  10 1125.39   52.99
  -1  -3  10 1214.58   49.50
  -1   3  10 1146.89   52.59
  -1   3  10 1215.98   51.99
  -1   3  10 1113.39   53.19
   0  -3 -10  145.79   11.90
   0  -3  10  208.28   15.30
   0   3  10  163.78   13.50
   0   3  10  155.48   14.10
   0   3  10  164.88   13.10
   1  -3  10   79.69   13.60
   1   3  10   66.39   11.90
  -7  -4  10   40.40    9.50
  -7   4  10   13.50    8.30
  -7   4  10   37.20    7.60
   6  -4 -10 1696.83   76.09
  -6  -4  10 1739.53   75.69
  -6   4  10 1711.33   76.69
  -6   4  10 1777.22   74.39
  -6   4  10 1604.94   74.89
   5  -4 -10   86.19   12.20
  -5  -4  10   87.29   12.40
  -5   4  10   80.09   10.70
  -5   4  10   73.79   10.30
  -5   4  10   82.19   13.30
  -4  -4  10  106.49   12.30
   4  -4 -10  106.59   12.40
  -4   4  10  105.09   11.60
  -4   4  10  144.69   14.00
  -4   4  10  103.39   11.00
   3  -4 -10  290.57   18.00
  -3  -4  10  296.47   18.90
  -3   4  10  295.17   19.50
  -3   4  10  255.37   16.90
  -3   4  10  302.47   17.90
  -2  -4  10  273.67   17.80
   2  -4 -10  252.17   16.90
  -2  -4  10  255.07   18.30
  -2   4  10  268.67   18.00
  -2   4  10  284.77   17.50
  -2   4  10  273.67   17.00
   1  -4 -10  106.59   11.70
  -1  -4  10  100.29   13.40
  -1   4  10  130.79   12.70
  -1   4  10  111.69   13.10
  -1   4  10  116.19   12.30
   0  -4 -10   81.79   10.80
   0  -4  10   85.79   13.70
   0   4  10   69.19   11.80
   0   4  10   68.39   12.80
   0   4  10   57.79   12.30
   4  -5 -10  180.08   16.00
  -4  -5  10  199.48   16.90
  -4   5  10  149.19   15.60
  -4   5  10  199.98   15.50
  -4   5  10  146.79   17.00
   3  -5 -10   75.99   12.50
  -3  -5  10   59.89   13.60
  -3   5  10   67.69   13.70
  -3   5  10   50.09   11.70
  -3   5  10   61.19   11.60
  -2  -5  10   21.30    8.40
   2  -5 -10   21.90    7.90
  -2   5  10   20.90    7.80
  -2   5  10    5.00    7.20
  -2   5  10   18.70    8.00
  -8   0  11   39.00    8.40
  -7   0  11   76.19   11.60
  -6   0  11  250.37   16.80
   5   0 -11  151.78   12.70
  -5   0  11  162.68   13.20
  -4   0  11   31.10    6.30
  -3   0  11  828.62   36.80
  -3   0  11  831.42   38.90
  -2   0  11  170.78    9.10
  -2   0  11  149.79   13.60
  -2   0  11  195.78    9.50
  -2   0  11  179.78   11.90
  -1   0  11  212.08   10.40
  -1   0  11  212.78   12.00
  -1   0  11  206.58   14.10
   0   0  11   90.89   11.30
   0   0  11   65.49    8.60
   1   0  11    7.30    5.70
   1   0  11   -1.90    6.90
  -8  -1  11  778.02   36.00
  -8   1  11  737.13   37.00
  -8   1  11  713.63   32.50
   7  -1 -11  219.98   16.90
  -7  -1  11  228.48   15.30
  -7   1  11  216.48   10.90
  -7   1  11  214.98   16.90
   6  -1 -11   10.50    6.70
  -6  -1  11   12.40    6.00
  -6   1  11   11.80    6.90
  -5  -1  11   25.50    5.10
   5  -1 -11   16.80    6.50
  -5  -1  11   24.20    6.20
  -5   1  11   54.19   10.70
   4  -1 -11   21.10    6.20
  -4  -1  11    8.90    4.60
  -4  -1  11   17.20    5.60
  -4   1  11   16.30    2.90
  -4   1  11   18.90    2.80
  -4   1  11   34.90    6.90
  -3  -1  11  332.97   18.50
   3  -1 -11  337.67   18.40
  -3  -1  11  308.17   17.40
  -3   1  11  324.87   15.40
  -3   1  11  326.67   15.50
  -3   1  11  303.17   19.20
   2  -1 -11    5.60    5.00
  -2  -1  11    2.60    5.60
  -2  -1  11    8.60    5.50
  -2   1  11    9.80    3.60
  -2   1  11    4.40    5.90
  -2   1  11   24.50    6.50
  -2   1  11    7.20    2.90
  -1  -1  11   64.99    6.20
  -1  -1  11   65.39    6.10
   1  -1 -11   56.49    8.40
  -1  -1  11   63.89   10.20
  -1   1  11   71.59    8.80
  -1   1  11   82.79    7.50
  -1   1  11   74.29    7.90
  -1   1  11   70.69   11.50
   0  -1  11    5.20    4.30
   0  -1  11   21.30    7.00
   0   1  11    6.60    4.80
   0   1  11   13.60    5.30
   0   1  11    5.50    5.90
   1  -1  11   -8.10    7.80
   1   1  11    5.70    6.60
   1   1  11    8.70    7.00
   7  -2 -11  282.47   19.40
  -7   2  11  302.67   20.40
  -7   2  11  289.87   15.60
  -6  -2  11  612.44   29.30
  -6  -2  11  610.34   29.40
   6  -2 -11  593.04   31.40
  -6   2  11  617.24   32.00
  -6   2  11  595.04   28.00
  -6   2  11  638.14   28.10
  -5  -2  11    3.60    5.20
   5  -2 -11   21.80    6.60
  -5  -2  11    7.20    5.40
  -5   2  11    2.80    7.10
  -5   2  11    6.20    3.00
  -5   2  11    9.30    3.90
  -4  -2  11   16.80    5.50
  -4  -2  11    5.40    5.40
   4  -2 -11   15.50    6.00
  -4   2  11   11.10    6.80
  -4   2  11   19.80    5.00
  -4   2  11   18.00    4.40
  -3  -2  11 1537.45   68.29
  -3  -2  11 1598.64   68.79
   3  -2 -11 1619.54   68.99
  -3   2  11 1584.94   70.09
  -3   2  11 1493.95   67.29
  -3   2  11 1591.54   66.59
   2  -2 -11   15.30    5.70
  -2  -2  11   17.30    6.40
  -2  -2  11   15.70    6.30
  -2   2  11   24.70    4.70
  -2   2  11   14.40    4.60
  -2   2  11    9.70    6.10
  -1  -2  11    3.80    6.60
   1  -2 -11    3.40    5.50
  -1   2  11   16.90    6.20
  -1   2  11   11.20    5.20
  -1   2  11   11.40    4.90
   0  -2  11  236.58   17.50
   0   2  11  268.67   15.80
   0   2  11  241.78   16.20
   0   2  11  221.68   17.80
   6  -3 -11   12.90    7.00
  -6  -3  11   27.30    7.00
  -6   3  11   15.80    5.70
  -6   3  11   14.10    8.80
  -6   3  11   12.80    5.20
   5  -3 -11   18.80    7.10
  -5  -3  11   21.60    6.90
  -5   3  11   27.50    6.10
  -5   3  11   33.70    7.60
  -5   3  11   22.60    8.00
  -4  -3  11   11.10    6.50
   4  -3 -11    6.00    6.50
  -4   3  11    7.60    4.70
  -4   3  11    7.80    7.60
  -4   3  11   11.00    5.40
  -3  -3  11  186.18   14.40
   3  -3 -11  243.98   16.40
  -3  -3  11  227.48   16.50
  -3   3  11  244.48   14.10
  -3   3  11  237.98   17.30
  -3   3  11  249.88   15.00
  -2  -3  11   25.20    6.40
   2  -3 -11   24.40    6.80
  -2  -3  11   14.10    7.30
  -2   3  11   12.50    5.60
  -2   3  11   27.00    7.40
  -2   3  11   18.90    6.10
  -1  -3  11   64.29   13.20
   1  -3 -11   50.79   10.40
  -1   3  11   60.19   10.40
  -1   3  11   50.29   10.10
  -1   3  11   60.39   12.20
  -4  -4  11   36.50    8.90
   4  -4 -11   64.59   12.90
  -4   4  11   40.70   10.00
  -4   4  11   28.50    8.80
  -3  -4  11  544.55   28.80
   3  -4 -11  536.95   27.80
  -3   4  11  536.75   26.30
  -3   4  11  402.16   31.80
  -6   0  12   -2.50    7.80
  -5   0  12  643.64   32.80
  -4   0  12   40.80    8.20
  -3   0  12  419.66   24.00
  -2   0  12   24.10    7.70
  -6  -1  12   19.40    8.10
   6  -1 -12   22.30    8.30
  -6   1  12    7.60    8.50
   5  -1 -12 1094.39   51.39
  -5  -1  12 1093.79   50.89
  -5   1  12 1158.58   52.29
   4  -1 -12   61.99   11.50
  -4  -1  12   80.69   11.80
  -4   1  12   59.69   12.60
   3  -1 -12   46.50   10.60
  -3  -1  12   50.99   11.40
  -3   1  12   28.50    8.00
  -3   1  12   27.80    4.90
   2  -1 -12  113.19   12.00
  -2  -1  12  123.59   14.00
  -2   1  12  120.39    9.20
  -2   1  12  140.19   14.40
   5  -2 -12   61.19   12.70
  -5   2  12   94.39   15.20
  -4  -2  12   13.20    6.70
   4  -2 -12    8.40    7.50
  -4   2  12    4.80    4.30
  -4   2  12   17.70    9.10
  -3  -2  12   36.90    7.70
  -3  -2  12   31.30    7.90
   3  -2 -12   24.70    7.80
  -3   2  12   33.90    7.60
  -3   2  12   27.00    8.20

_computing_structure_solution     'SHELXT 2014/4 (Sheldrick, 2014)'
;
_shelx_hkl_checksum              10641
loop_
_space_group_symop_operation_xyz
'x, y, z'
'-x, y+1/2, -z'
loop_
_atom_site_label
_atom_site_type_symbol
_atom_site_fract_x
_atom_site_fract_y
_atom_site_fract_z
_atom_site_U_iso_or_equiv
_atom_site_adp_type
_atom_site_occupancy
_atom_site_site_symmetry_order
_atom_site_calc_flag
_atom_site_refinement_flags_posn
_atom_site_refinement_flags_adp
_atom_site_refinement_flags_occupancy
_atom_site_disorder_assembly
_atom_site_disorder_group
Sr1 Sr 0.17562(5) 0.25145(10) 1.09578(4) 0.00957(12) Uani 1 1 d . . . . .
Sr2 Sr -0.23307(5) 0.26927(10) 0.26093(4) 0.01007(12) Uani 1 1 d . . . . .
Mn1 Mn 0.49532(15) 0.5104(2) 0.49881(14) 0.00509(14) Uani 1 1 d . . . . .
V1 V 0.54077(8) 0.2622(2) 0.83892(7) 0.00503(14) Uani 1 1 d . . . . .
V2 V 0.04603(7) 0.7591(2) 0.32017(7) 0.00518(15) Uani 1 1 d . . . . .
O1 O 0.4984(6) 0.0200(7) 0.7212(6) 0.0091(9) Uani 1 1 d . . . . .
O2 O -0.0236(6) 0.9834(7) 0.1962(6) 0.0112(11) Uani 1 1 d . . . . .
O3 O 0.2865(3) 0.7667(8) 0.4441(3) 0.0085(5) Uani 1 1 d . . . . .
O6 O 0.4250(4) 0.2530(9) 0.9675(3) 0.0163(6) Uani 1 1 d . . . . .
O5 O 0.3312(3) 0.2573(12) 0.4271(3) 0.0066(5) Uani 1 1 d D . . . .
H5 H 0.256(6) 0.294(11) 0.479(6) 0.030 Uiso 1 1 d D U . . .
O4 O 0.7674(4) 0.2766(8) 0.9545(3) 0.0156(7) Uani 1 1 d . . . . .
O7 O -0.0672(4) 0.7425(9) 0.4535(3) 0.0199(7) Uani 1 1 d . . . . .
O8 O 0.4814(6) 0.5011(7) 0.7143(6) 0.0098(9) Uani 1 1 d . . . . .
O9 O -0.0056(6) 0.5351(8) 0.1969(6) 0.0115(10) Uani 1 1 d . . . . .
loop_
_atom_site_aniso_label
_atom_site_aniso_U_11
_atom_site_aniso_U_22
_atom_site_aniso_U_33
_atom_site_aniso_U_23
_atom_site_aniso_U_13
_atom_site_aniso_U_12
Sr1 0.00948(19) 0.0128(2) 0.00787(19) -0.0002(3) 0.00491(14) -0.0003(3)
Sr2 0.00913(19) 0.0134(2) 0.00996(19) 0.0010(3) 0.00613(14) 0.0010(3)
Mn1 0.0073(3) 0.0045(3) 0.0040(2) -0.00001(19) 0.0027(2) -0.0002(2)
V1 0.0066(3) 0.0048(3) 0.0044(3) -0.0001(5) 0.0028(2) -0.0001(5)
V2 0.0042(3) 0.0058(3) 0.0055(3) 0.0003(5) 0.0017(2) 0.0001(5)
O1 0.014(2) 0.0073(19) 0.007(2) 0.0026(19) 0.0041(16) 0.0012(17)
O2 0.010(2) 0.008(2) 0.013(3) 0.0024(15) 0.0009(19) 0.0040(14)
O3 0.0070(12) 0.0081(14) 0.0094(11) -0.0009(18) 0.0020(10) 0.001(2)
O6 0.0206(14) 0.0181(16) 0.0163(13) 0.001(2) 0.0141(12) 0.000(2)
O5 0.0054(12) 0.0063(14) 0.0092(11) 0.000(3) 0.0041(10) 0.002(2)
O4 0.0085(13) 0.0232(19) 0.0129(13) -0.0017(19) 0.0012(11) -0.0044(19)
O7 0.0134(14) 0.035(2) 0.0162(13) 0.002(2) 0.0108(12) 0.004(2)
O8 0.018(2) 0.006(2) 0.007(2) 0.0042(18) 0.0076(18) 0.0032(16)
O9 0.014(2) 0.010(2) 0.012(3) -0.0030(17) 0.0061(19) -0.0006(16)
loop_
_atom_type_symbol
_atom_type_description
_atom_type_scat_dispersion_real
_atom_type_scat_dispersion_imag
_atom_type_scat_source
O O 0.0106 0.0060 'International Tables Vol C Tables 4.2.6.8 and 6.1.1.4'
H H 0.0000 0.0000 'International Tables Vol C Tables 4.2.6.8 and 6.1.1.4'
V V 0.3005 0.5294 'International Tables Vol C Tables 4.2.6.8 and 6.1.1.4'
Mn Mn 0.3368 0.7283 'International Tables Vol C Tables 4.2.6.8 and 6.1.1.4'
Sr Sr -1.5307 3.2498 'International Tables Vol C Tables 4.2.6.8 and 6.1.1.4'
loop_
_geom_angle_atom_site_label_1
_geom_angle_atom_site_label_2
_geom_angle_atom_site_label_3
_geom_angle
_geom_angle_site_symmetry_1
_geom_angle_site_symmetry_3
O6 Sr1 O9 137.19(16) . 1_556
O6 Sr1 O2 140.99(16) . 1_546
O9 Sr1 O2 81.82(9) 1_556 1_546
O6 Sr1 O5 111.26(8) . 1_556
O9 Sr1 O5 72.94(16) 1_556 1_556
O2 Sr1 O5 74.46(15) 1_546 1_556
O6 Sr1 O9 76.74(12) . 2_546
O9 Sr1 O9 120.88(8) 1_556 2_546
O2 Sr1 O9 82.48(14) 1_546 2_546
O5 Sr1 O9 151.27(18) 1_556 2_546
O6 Sr1 O2 74.07(12) . 2_546
O9 Sr1 O2 82.44(14) 1_556 2_546
O2 Sr1 O2 122.12(8) 1_546 2_546
O5 Sr1 O2 148.24(18) 1_556 2_546
O9 Sr1 O2 59.89(8) 2_546 2_546
O6 Sr1 O4 132.51(8) . 1_455
O9 Sr1 O4 58.69(13) 1_556 1_455
O2 Sr1 O4 60.40(13) 1_546 1_455
O5 Sr1 O4 116.04(7) 1_556 1_455
O9 Sr1 O4 63.99(11) 2_546 1_455
O2 Sr1 O4 63.83(11) 2_546 1_455
O6 Sr1 O1 67.05(13) . 2_657
O9 Sr1 O1 83.75(13) 1_556 2_657
O2 Sr1 O1 131.28(14) 1_546 2_657
O5 Sr1 O1 56.83(14) 1_556 2_657
O9 Sr1 O1 143.01(11) 2_546 2_657
O2 Sr1 O1 101.51(13) 2_546 2_657
O4 Sr1 O1 140.27(13) 1_455 2_657
O6 Sr1 O8 66.03(12) . 2_647
O9 Sr1 O8 129.53(14) 1_556 2_647
O2 Sr1 O8 89.59(12) 1_546 2_647
O5 Sr1 O8 56.91(14) 1_556 2_647
O9 Sr1 O8 106.88(13) 2_546 2_647
O2 Sr1 O8 140.03(10) 2_546 2_647
O4 Sr1 O8 148.88(12) 1_455 2_647
O1 Sr1 O8 65.40(8) 2_657 2_647
O6 Sr1 O4 76.52(13) . 2_647
O9 Sr1 O4 146.28(12) 1_556 2_647
O2 Sr1 O4 64.50(11) 1_546 2_647
O5 Sr1 O4 97.95(17) 1_556 2_647
O9 Sr1 O4 55.94(11) 2_546 2_647
O2 Sr1 O4 113.53(11) 2_546 2_647
O4 Sr1 O4 100.38(13) 1_455 2_647
O1 Sr1 O4 119.03(10) 2_657 2_647
O8 Sr1 O4 55.47(10) 2_647 2_647
O6 Sr1 O4 77.35(13) . 2_657
O9 Sr1 O4 59.94(12) 1_556 2_657
O2 Sr1 O4 141.59(11) 1_546 2_657
O5 Sr1 O4 95.80(17) 1_556 2_657
O9 Sr1 O4 112.93(11) 2_546 2_657
O2 Sr1 O4 53.77(11) 2_546 2_657
O4 Sr1 O4 93.76(12) 1_455 2_657
O1 Sr1 O4 52.82(10) 2_657 2_657
O8 Sr1 O4 116.49(9) 2_647 2_657
O4 Sr1 O4 153.45(9) 2_647 2_657
O6 Sr1 V2 72.12(6) . 2_546
O9 Sr1 V2 103.55(11) 1_556 2_546
O2 Sr1 V2 103.99(11) 1_546 2_546
O5 Sr1 V2 176.27(9) 1_556 2_546
O9 Sr1 V2 29.82(10) 2_546 2_546
O2 Sr1 V2 30.10(10) 2_546 2_546
O4 Sr1 V2 60.48(5) 1_455 2_546
O1 Sr1 V2 124.61(10) 2_657 2_546
O8 Sr1 V2 126.70(9) 2_647 2_546
O4 Sr1 V2 84.28(6) 2_647 2_546
O4 Sr1 V2 83.32(6) 2_657 2_546
O2 Sr2 O8 96.90(13) 1_545 2_546
O2 Sr2 O9 81.99(9) 1_545 .
O8 Sr2 O9 172.88(16) 2_546 .
O2 Sr2 O1 168.51(16) 1_545 2_556
O8 Sr2 O1 75.96(8) 2_546 2_556
O9 Sr2 O1 103.96(14) . 2_556
O2 Sr2 O4 64.17(14) 1_545 1_454
O8 Sr2 O4 111.31(14) 2_546 1_454
O9 Sr2 O4 61.85(13) . 1_454
O1 Sr2 O4 109.64(14) 2_556 1_454
O2 Sr2 O7 76.85(14) 1_545 2_546
O8 Sr2 O7 106.76(14) 2_546 2_546
O9 Sr2 O7 79.90(14) . 2_546
O1 Sr2 O7 113.63(14) 2_556 2_546
O4 Sr2 O7 127.57(8) 1_454 2_546
O2 Sr2 O3 121.24(14) 1_545 2_546
O8 Sr2 O3 63.44(14) 2_546 2_546
O9 Sr2 O3 123.11(13) . 2_546
O1 Sr2 O3 63.94(14) 2_556 2_546
O4 Sr2 O3 172.08(7) 1_454 2_546
O7 Sr2 O3 60.35(7) 2_546 2_546
O2 Sr2 O6 102.46(13) 1_545 1_454
O8 Sr2 O6 66.38(13) 2_546 1_454
O9 Sr2 O6 106.92(13) . 1_454
O1 Sr2 O6 66.55(13) 2_556 1_454
O4 Sr2 O6 56.80(7) 1_454 1_454
O7 Sr2 O6 173.06(13) 2_546 1_454
O3 Sr2 O6 115.34(7) 2_546 1_454
O2 Sr2 V2 99.84(11) 1_545 2_546
O8 Sr2 V2 86.17(11) 2_546 2_546
O9 Sr2 V2 100.95(10) . 2_546
O1 Sr2 V2 88.77(11) 2_556 2_546
O4 Sr2 V2 156.86(6) 1_454 2_546
O7 Sr2 V2 29.35(5) 2_546 2_546
O3 Sr2 V2 31.05(5) 2_546 2_546
O6 Sr2 V2 146.28(5) 1_454 2_546
O2 Sr2 V1 82.41(11) 1_545 1_454
O8 Sr2 V1 89.00(11) 2_546 1_454
O9 Sr2 V1 83.89(10) . 1_454
O1 Sr2 V1 88.41(11) 2_556 1_454
O4 Sr2 V1 28.00(6) 1_454 1_454
O7 Sr2 V1 155.18(6) 2_546 1_454
O3 Sr2 V1 144.14(5) 2_546 1_454
O6 Sr2 V1 28.80(5) 1_454 1_454
V2 Sr2 V1 174.88(2) 2_546 1_454
O2 Sr2 V2 102.43(10) 1_545 .
O8 Sr2 V2 158.91(10) 2_546 .
O9 Sr2 V2 25.64(10) . .
O1 Sr2 V2 86.15(10) 2_556 .
O4 Sr2 V2 84.99(10) 1_454 .
O7 Sr2 V2 70.12(11) 2_546 .
O3 Sr2 V2 98.80(9) 2_546 .
O6 Sr2 V2 116.61(10) 1_454 .
V2 Sr2 V2 82.33(2) 2_546 .
V1 Sr2 V2 101.74(3) 1_454 .
O2 Sr2 V2 23.72(10) 1_545 1_545
O8 Sr2 V2 81.64(10) 2_546 1_545
O9 Sr2 V2 99.38(11) . 1_545
O1 Sr2 V2 155.86(10) 2_556 1_545
O4 Sr2 V2 86.72(10) 1_454 1_545
O7 Sr2 V2 64.49(11) 2_546 1_545
O3 Sr2 V2 98.01(9) 2_546 1_545
O6 Sr2 V2 112.27(10) 1_454 1_545
V2 Sr2 V2 80.79(2) 2_546 1_545
V1 Sr2 V2 100.19(3) 1_454 1_545
V2 Sr2 V2 113.639(16) . 1_545
O8 Mn1 O1 178.4(2) . 2_656
O8 Mn1 O5 91.76(15) . .
O1 Mn1 O5 87.30(15) 2_656 .
O8 Mn1 O5 88.48(15) . 2_656
O1 Mn1 O5 92.52(15) 2_656 2_656
O5 Mn1 O5 177.8(3) . 2_656
O8 Mn1 O3 93.92(14) . 2_646
O1 Mn1 O3 87.30(14) 2_656 2_646
O5 Mn1 O3 82.87(18) . 2_646
O5 Mn1 O3 94.90(19) 2_656 2_646
O8 Mn1 O3 86.39(14) . .
O1 Mn1 O3 92.44(14) 2_656 .
O5 Mn1 O3 99.82(19) . .
O5 Mn1 O3 82.40(19) 2_656 .
O3 Mn1 O3 177.28(19) 2_646 .
O8 Mn1 Mn1 91.86(14) . 2_656
O1 Mn1 Mn1 88.12(14) 2_656 2_656
O5 Mn1 Mn1 143.97(17) . 2_656
O5 Mn1 Mn1 38.21(16) 2_656 2_656
O3 Mn1 Mn1 132.56(12) 2_646 2_656
O3 Mn1 Mn1 44.73(10) . 2_656
O8 Mn1 Mn1 88.47(13) . 2_646
O1 Mn1 Mn1 91.63(13) 2_656 2_646
O5 Mn1 Mn1 38.47(16) . 2_646
O5 Mn1 Mn1 139.34(17) 2_656 2_646
O3 Mn1 Mn1 44.95(10) 2_646 2_646
O3 Mn1 Mn1 137.77(12) . 2_646
Mn1 Mn1 Mn1 177.50(8) 2_656 2_646
O8 Mn1 Sr2 140.51(13) . 1_655
O1 Mn1 Sr2 40.78(13) 2_656 1_655
O5 Mn1 Sr2 86.01(12) . 1_655
O5 Mn1 Sr2 92.40(11) 2_656 1_655
O3 Mn1 Sr2 46.65(7) 2_646 1_655
O3 Mn1 Sr2 132.87(8) . 1_655
Mn1 Mn1 Sr2 112.55(5) 2_656 1_655
Mn1 Mn1 Sr2 65.88(4) 2_646 1_655
O8 Mn1 Sr2 39.90(12) . 2_556
O1 Mn1 Sr2 138.86(13) 2_656 2_556
O5 Mn1 Sr2 95.93(10) . 2_556
O5 Mn1 Sr2 85.67(12) 2_656 2_556
O3 Mn1 Sr2 133.83(8) 2_646 2_556
O3 Mn1 Sr2 46.53(7) . 2_556
Mn1 Mn1 Sr2 65.64(4) 2_656 2_556
Mn1 Mn1 Sr2 115.90(5) 2_646 2_556
Sr2 Mn1 Sr2 178.04(5) 1_655 2_556
O8 Mn1 Sr1 50.11(13) . 2_657
O1 Mn1 Sr1 131.25(13) 2_656 2_657
O5 Mn1 Sr1 137.43(12) . 2_657
O5 Mn1 Sr1 41.94(9) 2_656 2_657
O3 Mn1 Sr1 82.03(9) 2_646 2_657
O3 Mn1 Sr1 96.14(9) . 2_657
Mn1 Mn1 Sr1 66.40(4) 2_656 2_657
Mn1 Mn1 Sr1 112.09(5) 2_646 2_657
Sr2 Mn1 Sr1 110.79(3) 1_655 2_657
Sr2 Mn1 Sr1 67.94(2) 2_556 2_657
O8 Mn1 Sr1 129.91(13) . 1_554
O1 Mn1 Sr1 48.78(13) 2_656 1_554
O5 Mn1 Sr1 41.63(10) . 1_554
O5 Mn1 Sr1 138.91(10) 2_656 1_554
O3 Mn1 Sr1 96.08(9) 2_646 1_554
O3 Mn1 Sr1 85.76(9) . 1_554
Mn1 Mn1 Sr1 115.33(5) 2_656 1_554
Mn1 Mn1 Sr1 66.15(4) 2_646 1_554
Sr2 Mn1 Sr1 67.93(2) 1_655 1_554
Sr2 Mn1 Sr1 113.38(3) 2_556 1_554
Sr1 Mn1 Sr1 178.08(4) 2_657 1_554
O4 V1 O6 106.77(14) . .
O4 V1 O1 109.1(2) . .
O6 V1 O1 109.4(2) . .
O4 V1 O8 107.7(2) . .
O6 V1 O8 111.0(2) . .
O1 V1 O8 112.72(12) . .
O4 V1 Sr2 49.08(9) . 1_656
O6 V1 Sr2 57.69(10) . 1_656
O1 V1 Sr2 122.99(16) . 1_656
O8 V1 Sr2 123.84(16) . 1_656
O4 V1 Sr1 55.09(18) . 2_657
O6 V1 Sr1 110.95(18) . 2_657
O1 V1 Sr1 139.46(14) . 2_657
O8 V1 Sr1 54.50(15) . 2_657
Sr2 V1 Sr1 77.48(2) 1_656 2_657
O4 V1 Sr1 62.09(18) . 2_647
O6 V1 Sr1 106.96(18) . 2_647
O1 V1 Sr1 49.94(15) . 2_647
O8 V1 Sr1 142.01(14) . 2_647
Sr2 V1 Sr1 79.07(2) 1_656 2_647
Sr1 V1 Sr1 112.932(16) 2_657 2_647
O4 V1 Sr2 127.92(19) . 2_546
O6 V1 Sr2 71.59(17) . 2_546
O1 V1 Sr2 38.50(13) . 2_546
O8 V1 Sr2 121.69(15) . 2_546
Sr2 V1 Sr2 106.69(3) 1_656 2_546
Sr1 V1 Sr2 175.81(2) 2_657 2_546
Sr1 V1 Sr2 68.77(3) 2_647 2_546
O4 V1 Sr2 121.16(19) . 2_556
O6 V1 Sr2 75.19(17) . 2_556
O1 V1 Sr2 125.98(15) . 2_556
O8 V1 Sr2 35.80(13) . 2_556
Sr2 V1 Sr2 105.16(3) 1_656 2_556
Sr1 V1 Sr2 69.13(3) 2_657 2_556
Sr1 V1 Sr2 175.71(2) 2_647 2_556
Sr2 V1 Sr2 108.902(16) 2_546 2_556
O7 V2 O9 109.1(2) . .
O7 V2 O2 111.3(2) . .
O9 V2 O2 107.74(13) . .
O7 V2 O3 105.28(13) . .
O9 V2 O3 111.0(2) . .
O2 V2 O3 112.4(2) . .
O7 V2 Sr1 123.51(10) . 2_556
O9 V2 Sr1 53.41(17) . 2_556
O2 V2 Sr1 54.39(16) . 2_556
O3 V2 Sr1 131.14(8) . 2_556
O7 V2 Sr2 51.89(10) . 2_556
O9 V2 Sr2 127.07(18) . 2_556
O2 V2 Sr2 125.12(17) . 2_556
O3 V2 Sr2 53.49(8) . 2_556
Sr1 V2 Sr2 175.352(19) 2_556 2_556
O7 V2 Sr2 67.83(18) . .
O9 V2 Sr2 41.25(14) . .
O2 V2 Sr2 123.20(15) . .
O3 V2 Sr2 122.70(17) . .
Sr1 V2 Sr2 78.29(2) 2_556 .
Sr2 V2 Sr2 99.44(3) 2_556 .
O7 V2 Sr2 74.52(18) . 1_565
O9 V2 Sr2 127.15(17) . 1_565
O2 V2 Sr2 37.25(15) . 1_565
O3 V2 Sr2 118.77(17) . 1_565
Sr1 V2 Sr2 79.95(2) 2_556 1_565
Sr2 V2 Sr2 97.42(3) 2_556 1_565
Sr2 V2 Sr2 113.639(16) . 1_565
O7 V2 Sr1 132.6(2) . 1_564
O9 V2 Sr1 110.55(16) . 1_564
O2 V2 Sr1 30.83(14) . 1_564
O3 V2 Sr1 83.54(14) . 1_564
Sr1 V2 Sr1 66.23(2) 2_556 1_564
Sr2 V2 Sr1 115.94(3) 2_556 1_564
Sr2 V2 Sr1 144.511(18) . 1_564
Sr2 V2 Sr1 61.22(2) 1_565 1_564
V1 O1 Mn1 122.3(2) . 2_646
V1 O1 Sr2 116.4(2) . 2_546
Mn1 O1 Sr2 110.1(2) 2_646 2_546
V1 O1 Sr1 102.6(2) . 2_647
Mn1 O1 Sr1 101.43(16) 2_646 2_647
Sr2 O1 Sr1 99.38(14) 2_546 2_647
V2 O2 Sr2 119.0(2) . 1_565
V2 O2 Sr1 129.5(2) . 1_564
Sr2 O2 Sr1 97.53(15) 1_565 1_564
V2 O2 Sr1 95.5(2) . 2_556
Sr2 O2 Sr1 117.67(15) 1_565 2_556
Sr1 O2 Sr1 96.75(15) 1_564 2_556
V2 O3 Mn1 134.9(3) . 2_656
V2 O3 Mn1 129.5(2) . .
Mn1 O3 Mn1 90.33(9) 2_656 .
V2 O3 Sr2 95.46(9) . 2_556
Mn1 O3 Sr2 98.45(12) 2_656 2_556
Mn1 O3 Sr2 98.50(12) . 2_556
V1 O6 Sr1 165.26(16) . .
V1 O6 Sr2 93.51(11) . 1_656
Sr1 O6 Sr2 101.07(8) . 1_656
Mn1 O5 Mn1 103.32(11) . 2_646
Mn1 O5 Sr1 109.6(2) . 1_554
Mn1 O5 Sr1 108.9(2) 2_646 1_554
Mn1 O5 H5 96(4) . .
Mn1 O5 H5 121(4) 2_646 .
Sr1 O5 H5 116(3) 1_554 .
V1 O4 Sr2 102.92(12) . 1_656
V1 O4 Sr1 167.21(18) . 1_655
Sr2 O4 Sr1 88.22(8) 1_656 1_655
V1 O4 Sr1 98.0(2) . 2_657
Sr2 O4 Sr1 102.43(14) 1_656 2_657
Sr1 O4 Sr1 85.55(10) 1_655 2_657
V1 O4 Sr1 91.5(2) . 2_647
Sr2 O4 Sr1 99.47(14) 1_656 2_647
Sr1 O4 Sr1 80.29(10) 1_655 2_647
Sr1 O4 Sr1 153.45(9) 2_657 2_647
V2 O7 Sr2 98.76(12) . 2_556
V1 O8 Mn1 121.8(2) . .
V1 O8 Sr2 120.4(2) . 2_556
Mn1 O8 Sr2 111.59(19) . 2_556
V1 O8 Sr1 96.26(18) . 2_657
Mn1 O8 Sr1 100.16(15) . 2_657
Sr2 O8 Sr1 98.72(14) 2_556 2_657
V2 O9 Sr1 137.2(2) . 1_554
V2 O9 Sr2 113.11(19) . .
Sr1 O9 Sr2 97.82(17) 1_554 .
V2 O9 Sr1 96.8(2) . 2_556
Sr1 O9 Sr1 98.12(14) 1_554 2_556
Sr2 O9 Sr1 112.12(16) . 2_556
loop_
_geom_bond_atom_site_label_1
_geom_bond_atom_site_label_2
_geom_bond_distance
_geom_bond_site_symmetry_2
Sr1 O6 2.532(2) .
Sr1 O9 2.566(4) 1_556
Sr1 O2 2.594(4) 1_546
Sr1 O5 2.684(3) 1_556
Sr1 O9 2.738(5) 2_546
Sr1 O2 2.766(5) 2_546
Sr1 O4 2.906(3) 1_455
Sr1 O1 2.921(5) 2_657
Sr1 O8 2.962(4) 2_647
Sr1 O4 2.994(5) 2_647
Sr1 O4 3.294(5) 2_657
Sr1 V2 3.3862(6) 2_546
Sr2 O2 2.567(4) 1_545
Sr2 O8 2.574(4) 2_546
Sr2 O9 2.584(5) .
Sr2 O1 2.590(4) 2_556
Sr2 O4 2.664(3) 1_454
Sr2 O7 2.700(3) 2_546
Sr2 O3 2.738(2) 2_546
Sr2 O6 2.910(3) 1_454
Sr2 V2 3.3911(6) 2_546
Sr2 V1 3.4367(6) 1_454
Sr2 V2 3.6041(14) .
Sr2 V2 3.7083(14) 1_545
Mn1 O8 1.915(5) .
Mn1 O1 1.930(5) 2_656
Mn1 O5 1.946(7) .
Mn1 O5 1.957(7) 2_656
Mn1 O3 2.154(4) 2_646
Mn1 O3 2.162(4) .
Mn1 Mn1 3.06092(15) 2_656
Mn1 Mn1 3.06094(16) 2_646
Mn1 Sr2 3.7245(13) 1_655
Mn1 Sr2 3.7314(14) 2_556
Mn1 Sr1 3.7999(12) 2_657
Mn1 Sr1 3.8072(12) 1_554
V1 O4 1.655(3) .
V1 O6 1.659(2) .
V1 O1 1.763(5) .
V1 O8 1.777(5) .
V1 Sr2 3.4366(6) 1_656
V1 Sr1 3.6164(14) 2_657
V1 Sr1 3.7258(14) 2_647
V1 Sr2 3.7258(13) 2_546
V1 Sr2 3.7965(13) 2_556
V2 O7 1.682(3) .
V2 O9 1.695(5) .
V2 O2 1.706(5) .
V2 O3 1.757(2) .
V2 Sr1 3.3862(6) 2_556
V2 Sr2 3.3912(6) 2_556
V2 Sr2 3.7083(14) 1_565
V2 Sr1 3.9073(14) 1_564
O1 Mn1 1.930(5) 2_646
O1 Sr2 2.590(4) 2_546
O1 Sr1 2.921(4) 2_647
O2 Sr2 2.567(4) 1_565
O2 Sr1 2.594(4) 1_564
O2 Sr1 2.766(5) 2_556
O3 Mn1 2.154(4) 2_656
O3 Sr2 2.738(2) 2_556
O6 Sr2 2.910(3) 1_656
O5 Mn1 1.957(7) 2_646
O5 Sr1 2.684(3) 1_554
O5 H5 0.88(3) .
O4 Sr2 2.664(3) 1_656
O4 Sr1 2.906(3) 1_655
O4 Sr1 2.994(5) 2_657
O4 Sr1 3.294(5) 2_647
O7 Sr2 2.700(3) 2_556
O8 Sr2 2.574(4) 2_556
O8 Sr1 2.962(4) 2_657
O9 Sr1 2.566(4) 1_554
O9 Sr1 2.738(5) 2_556
