#------------------------------------------------------------------------------
#$Date: 2021-02-15 12:00:22 +0200 (Mon, 15 Feb 2021) $
#$Revision: 261957 $
#$URL: file:///home/coder/svn-repositories/cod/cif/1/56/03/1560376.cif $
#------------------------------------------------------------------------------
#
# This file is available in the Crystallography Open Database (COD),
# http://www.crystallography.net/
#
# All data on this site have been placed in the public domain by the
# contributors.
#
data_1560376
loop_
_publ_author_name
'Al-Azzawi, Mohanad'
'Zeller, Matthias'
'Li, Dingqiang'
'Wagner, Timothy R.'
_publ_section_title
;
 Crystal chemistry of ordered rocksalt-type Ca 2 NF
;
_journal_name_full               'Journal of Solid State Chemistry'
_journal_page_first              126
_journal_page_last               131
_journal_paper_doi               10.1016/j.jssc.2017.07.017
_journal_volume                  254
_journal_year                    2017
_chemical_formula_sum            'Ca F0.6147 N0.4619'
_chemical_formula_weight         58.23
_space_group_crystal_system      cubic
_space_group_IT_number           227
_space_group_name_Hall           '-F 4vw 2vw 3'
_space_group_name_H-M_alt        'F d -3 m :2'
_atom_sites_solution_hydrogens   .
_atom_sites_solution_primary     direct
_atom_sites_solution_secondary   difmap
_cell_angle_alpha                90
_cell_angle_beta                 90
_cell_angle_gamma                90
_cell_formula_units_Z            32
_cell_length_a                   10.0301(5)
_cell_length_b                   10.0301(5)
_cell_length_c                   10.0301(5)
_cell_measurement_reflns_used    5682
_cell_measurement_temperature    100(2)
_cell_measurement_theta_max      62.6072
_cell_measurement_theta_min      3.5183
_cell_volume                     1009.06(9)
_computing_cell_refinement       'SAINT V8.34A (Bruker, 2014)'
_computing_data_collection       'Apex2 v2014.1-1 (Bruker, 2014)'
_computing_data_reduction        'SAINT V8.34A (Bruker, 2014)'
_computing_structure_refinement
;  
SHELXL-2013 (Sheldrick, 2013), 
SHELXLE Rev656 (H\"ubschle et al., 2011)
;
_computing_structure_solution    'SHELXS-97 (Sheldrick, 2008)'
_diffrn_ambient_temperature      100(2)
_diffrn_measured_fraction_theta_full 0.984
_diffrn_measured_fraction_theta_max 0.997
_diffrn_measurement_device_type  'Bruker AXS D8 Quest CMOS diffractometer'
_diffrn_measurement_method       'omega and phi scans'
_diffrn_radiation_monochromator  'laterally graded multilayer (Goebel) mirror'
_diffrn_radiation_type           MoK\a
_diffrn_radiation_wavelength     0.71073
_diffrn_reflns_av_R_equivalents  0.0347
_diffrn_reflns_av_unetI/netI     0.0217
_diffrn_reflns_Laue_measured_fraction_full 0.984
_diffrn_reflns_Laue_measured_fraction_max 0.997
_diffrn_reflns_limit_h_max       17
_diffrn_reflns_limit_h_min       -21
_diffrn_reflns_limit_k_max       22
_diffrn_reflns_limit_k_min       -17
_diffrn_reflns_limit_l_max       22
_diffrn_reflns_limit_l_min       -11
_diffrn_reflns_number            4544
_diffrn_reflns_point_group_measured_fraction_full 0.984
_diffrn_reflns_point_group_measured_fraction_max 0.997
_diffrn_reflns_theta_full        25.242
_diffrn_reflns_theta_max         51.801
_diffrn_reflns_theta_min         3.518
_diffrn_source                   'I-mu-S microsource X-ray tube'
_exptl_absorpt_coefficient_mu    4.220
_exptl_absorpt_correction_T_max  0.7522
_exptl_absorpt_correction_T_min  0.5703
_exptl_absorpt_correction_type   multi-scan
_exptl_absorpt_process_details   'Apex2 v2014.1-1 (Bruker, 2014)'
_exptl_crystal_colour            yellow
_exptl_crystal_density_diffrn    3.066
_exptl_crystal_description       block
_exptl_crystal_F_000             920
_exptl_crystal_size_max          0.170
_exptl_crystal_size_mid          0.070
_exptl_crystal_size_min          0.050
_refine_diff_density_max         1.278
_refine_diff_density_min         -1.449
_refine_diff_density_rms         0.285
_refine_ls_extinction_coef       0.0031(6)
_refine_ls_extinction_expression Fc^*^=kFc[1+0.001xFc^2^\l^3^/sin(2\q)]^-1/4^
_refine_ls_extinction_method     SHELXL
_refine_ls_goodness_of_fit_ref   1.347
_refine_ls_hydrogen_treatment    undef
_refine_ls_matrix_type           full
_refine_ls_number_parameters     17
_refine_ls_number_reflns         316
_refine_ls_number_restraints     2
_refine_ls_restrained_S_all      1.342
_refine_ls_R_factor_all          0.0294
_refine_ls_R_factor_gt           0.0293
_refine_ls_shift/su_max          0.025
_refine_ls_shift/su_mean         0.004
_refine_ls_structure_factor_coef Fsqd
_refine_ls_weighting_details
'w=1/[\s^2^(Fo^2^)+(0.0199P)^2^+5.2699P] where P=(Fo^2^+2Fc^2^)/3'
_refine_ls_weighting_scheme      calc
_refine_ls_wR_factor_gt          0.0675
_refine_ls_wR_factor_ref         0.0675
_reflns_Friedel_coverage         0.000
_reflns_Friedel_fraction_full    .
_reflns_Friedel_fraction_max     .
_reflns_number_gt                315
_reflns_number_total             316
_reflns_threshold_expression     'I > 2\s(I)'
_cod_data_source_file            JSSC-2017-254-126.cif
_cod_data_source_block           Quest14mz237_0m
_cod_original_cell_volume        1009.06(15)
_cod_original_sg_symbol_H-M      'F d -3 m'
_cod_database_code               1560376
_shelx_space_group_comment
;
The symmetry employed for this shelxl refinement is uniquely defined
by the following loop, which should always be used as a source of
symmetry information in preference to the above space-group names.
They are only intended as comments.
;
_shelx_estimated_absorpt_t_min   0.534
_shelx_estimated_absorpt_t_max   0.817
_shelxl_version_number           2013-4
_shelx_res_file
;
TITL Quest14mz237_0m in Fd-3m
CELL 0.71073  10.0301   10.0301   10.0301   90.0000   90.0000   90.0000
ZERR   32.00   0.0005   0.0005   0.0005   0.000   0.000   0.000
LATT  4
SYMM 0.75-X, 0.25-Y, 0.5+Z
SYMM 0.25-X, 0.5+Y, 0.75-Z
SYMM 0.5+X, 0.75-Y, 0.25-Z
SYMM Z, X, Y
SYMM 0.5+Z, 0.75-X, 0.25-Y
SYMM 0.75-Z, 0.25-X, 0.5+Y
SYMM 0.25-Z, 0.5+X, 0.75-Y
SYMM Y, Z, X
SYMM 0.25-Y, 0.5+Z, 0.75-X
SYMM 0.5+Y, 0.75-Z, 0.25-X
SYMM 0.75-Y, 0.25-Z, 0.5+X
SYMM 0.75+Y, 0.25+X, 0.5-Z
SYMM -Y, -X, -Z
SYMM 0.25+Y, 0.5-X, 0.75+Z
SYMM 0.5-Y, 0.75+X, 0.25+Z
SYMM 0.75+X, 0.25+Z, 0.5-Y
SYMM 0.5-X, 0.75+Z, 0.25+Y
SYMM -X, -Z, -Y
SYMM 0.25+X, 0.5-Z, 0.75+Y
SYMM 0.75+Z, 0.25+Y, 0.5-X
SYMM 0.25+Z, 0.5-Y, 0.75+X
SYMM 0.5-Z, 0.75+Y, 0.25+X
SYMM -Z, -Y, -X
SFAC Ca  F  N
UNIT 32 19.67 14.78
LIST 4 ! automatically inserted. Change 6 to 4 for CHECKCIF!!
TEMP -173.15

L.S. 314
BOND
FMAP 2
PLAN 4
ACTA

SIZE 0.05 0.07 0.17
FMAP 2
REM damp 200
REM RIGU F1 F1B
REM SUMP 1.0 0 0.5 2 1.0 3 2.0 4
SUMP 1.0 0 1.0 4 1.0 5
SUMP 64.0 0 40.0 2 16.0 3 48.0 4 16.0 5
EADP N1 F3
EXYZ N1 F3
SHEL 99 0.45

WGHT    0.019900    5.269899
EXTI    0.003139
FVAR       0.26766   0.21314   0.61772   0.92471   0.07530
F1    2    0.250000    0.750000    0.500000    30.08333    0.01198    0.01198 =
         0.01198    0.00074    0.00074   -0.00074
F1B   2    0.283114    0.783114    0.466886    20.16667    0.01106    0.01106 =
         0.01106   -0.00260   -0.00260    0.00260
F2    2    0.375000    0.875000    0.375000    20.04167    0.00745    0.00745 =
         0.00745    0.00000    0.00000    0.00000
N1    3    0.500000    0.500000    0.500000    40.08333    0.00585    0.00585 =
         0.00585    0.00013    0.00013    0.00013
F3    2    0.500000    0.500000    0.500000    50.08333    0.00585    0.00585 =
         0.00585    0.00013    0.00013    0.00013
CA    1    0.509905    0.740095    0.509905    10.16667    0.00511    0.00511 =
         0.00511    0.00029   -0.00029    0.00029
HKLF 4

REM  Quest14mz237_0m in Fd-3m
REM R1 =  0.0293 for     315 Fo > 4sig(Fo)  and  0.0294 for all     316 data
REM     17 parameters refined using      2 restraints

END

WGHT      0.0199      5.2214

REM Highest difference peak  1.278,  deepest hole -1.449,  1-sigma level  0.285
Q1    1   0.5081  0.7419  0.4716  10.50000  0.05    1.04
Q2    1   0.5132  0.4831  0.6206  11.00000  0.05    0.65
Q3    1   0.5011  0.7034  0.6267  11.00000  0.05    0.65
Q4    1   0.3823  0.5254  0.5254  10.50000  0.05    0.62
;
_shelx_res_checksum              5465
_shelx_hkl_file
;
  -1  -1   1 57.7917 2.73091   4
  -2   0   0 0.10169 0.31487   4
   0   2   0 0.07272 0.31083   4
   2   0   0 0.00047 0.33649   4
  -2  -2   0 55.1391 2.71365   4
   2   2   0 53.1344 2.69829   4
  -2  -2   2 4591.58 202.062   4
  -3  -1   1 8.63821 0.77963   4
  -3   1   1 8.29691 0.67209   4
  -1  -3   1 8.37372 0.75416   4
  -1  -1  -3 8.35461 0.69154   3
   1  -3   1 9.06161 0.58130   4
   1   3  -1 9.14840 0.77224   4
   3  -1   1 9.07712 0.61739   4
   3   1  -1 8.29391 0.79963   4
   3   1   1 8.03616 0.75620   4
  -3  -3   1 470.627 22.6008   4
  -3   1  -3 474.989 22.0380   3
   1  -3  -3 504.701 22.5592   3
   3   3  -1 512.469 23.8991   4
   3   3   1 481.398 23.1727   4
  -3  -3   3 1090.45 51.1947   4
  -3   3   3 1101.68 49.3606   3
  -4   0   2 -0.0986 0.44964   4
   0  -2  -4 -0.1864 0.39005   3
   2   4   0 -0.0151 0.50368   4
  -4  -2   0 -0.0925 0.43324   4
  -4   2   0 0.27886 0.26664   4
  -2   0  -4 0.24146 0.33983   3
   0  -4   2 0.07749 0.41013   4
   4   2   0 0.19069 0.50208   4
  -4  -2   2 0.19325 0.48038   4
  -4   2  -2 0.33331 0.19361   3
  -2  -4   2 -0.0781 0.44436   4
  -2   2   4 0.13525 0.55270   3
   2  -4  -2 0.31760 0.31617   3
   2  -2   4 0.08898 0.43891   3
   2   4  -2 -0.0698 0.53242   4
   0  -4  -4 9999.99 436.239   3
  -4  -4   2 2.59586 0.47888   4
  -4  -2   4 1.67978 0.48853   4
  -2  -4   4 2.11625 0.51700   4
   4   4  -2 1.91574 0.60240   4
   4   4   2 2.04925 0.79548   4
  -4  -4   4 9367.99 412.297   4
  -5  -1   1 439.692 21.1188   4
  -5   1   1 441.966 20.4314   4
  -1  -5   1 453.751 21.0970   4
  -1   1   5 425.052 20.1368   3
  -1   5  -1 414.242 20.6325   4
   1  -1   5 401.795 19.6127   3
   1   5  -1 451.152 21.0439   4
   1   5   1 438.213 20.9271   4
   5  -1   1 441.786 20.0672   4
   5   1  -1 442.960 21.0553   4
   5   1   1 410.790 20.1267   4
   5   3   1 60.3837 3.34693   4
  -5  -3   1 60.1444 3.33538   4
  -1  -3  -5 62.4436 3.12149   3
   3   5  -1 62.6803 3.35131   4
  -1  -5   3 63.1039 3.26149   4
  -3  -5   1 63.2330 3.35710   4
  -5   3   1 62.4551 2.95369   4
  -3  -1  -5 64.1436 3.10260   3
   3   5   1 59.2663 3.31586   4
   1  -5   3 61.2279 3.08834   4
   5   3  -1 60.0790 3.35160   4
  -5  -1   3 58.2451 3.30806   4
  -5  -3   3 2.81758 0.53358   4
  -3  -5   3 3.43985 0.52930   4
  -3   3   5 3.18620 0.56237   3
   3  -5   3 2.66677 0.34434   4
   3  -3   5 3.23961 0.46173   3
  -5  -5   1 504.982 23.7188   4
  -5   1  -5 491.001 23.2107   3
  -5   5   1 556.753 23.5667   4
  -1  -5   5 551.405 24.8064   4
   1  -5  -5 552.220 23.9303   3
   5   5  -1 507.650 23.7141   4
   5   5   1 527.038 24.5862   4
  -5  -5   3 267.561 12.6550   4
  -5  -3   5 268.202 12.6631   4
  -5   3   5 277.249 12.4446   1
  -5   5   3 271.736 12.3855   1
  -3  -5   5 272.461 12.6355   4
  -3   5   5 275.540 12.4080   1
   5   5   3 254.794 12.6123   4
  -5  -5   5 881.014 40.0949   4
  -5   5   5 898.370 39.3959   1
  -6   0   0 0.94578 0.29306   4
   0   0   6 1.54577 0.48250   3
   0   6   0 1.20580 0.43858   4
   6   0   0 1.25961 0.44805   4
  -6   0   2 24.7042 1.60006   4
   2   6   0 23.1805 1.62657   4
   6   0   2 22.7613 1.52509   4
   6   2   0 23.4787 1.67236   4
   0  -6   2 24.5313 1.53540   4
  -2  -6   2 3694.95 162.960   4
   6   2   2 3558.89 162.714   4
  -2   2   6 3608.80 161.125   3
  -6  -2   2 3526.01 162.607   4
  -2  -2  -6 3811.88 161.618   3
   4   6   0 0.16616 0.58624   4
  -6   0   4 -0.0886 0.34502   1
   0  -6   4 0.33958 0.43739   4
   6   4   0 0.69271 0.51830   4
  -6   2   4 44.7188 2.52831   1
  -2  -6   4 44.2862 2.62117   4
  -4   6   2 37.8732 2.34403   1
  -2  -4  -6 41.0435 2.37618   3
   4   6  -2 42.1364 2.66729   4
  -6  -4   2 42.2755 2.64350   4
   6   4   2 43.6729 2.70354   4
   2  -6  -4 45.5381 2.34136   3
   4   6   2 44.2592 2.70410   4
  -6   4   2 45.0072 2.26463   4
  -6   2  -4 43.8731 2.16234   3
  -4   2   6 42.3066 2.46779   1
  -4  -6   2 47.1438 2.71435   4
  -2   6   4 37.9628 2.36870   1
  -4  -2  -6 43.7905 2.38898   3
   2  -6   4 41.8726 2.31384   4
   6   4  -2 42.0220 2.68785   4
  -6  -2   4 44.8894 2.69531   4
  -6  -4  -4 9.49977 1.09258   2
  -6  -4   4 9.59308 0.99114   4
  -6   4   4 8.20208 0.83952   1
  -6   4   4 9.59020 0.85107   3
  -4  -6   4 10.6532 1.02159   4
  -4  -4   6 9.71604 0.96680   4
  -4   4   6 8.72935 0.84361   1
  -4   6   4 7.61464 0.82229   1
   4  -6   4 9.28903 0.62516   3
   4  -6   4 9.45344 0.64615   4
  -6   0  -6 226.094 10.7784   3
  -6   0   6 269.120 11.2701   1
  -6   0   6 221.419 10.8305   2
  -6   6   0 238.582 10.9335   1
   0  -6  -6 244.087 10.9915   3
   0  -6   6 244.372 11.1623   4
   0   6   6 238.649 10.9894   1
   0   6   6 211.495 10.7620   2
   6   6   0 239.023 11.3530   4
  -6  -6  -2 2368.90 101.064   2
  -6  -6   2 2310.44 106.060   4
  -6  -2   6 2208.87 101.492   2
  -6  -2   6 2190.04 104.839   4
  -6   2   6 2541.70 104.193   1
  -6   2   6 2208.80 101.385   2
  -6   6   2 2366.39 103.220   1
  -2  -6   6 2458.15 106.052   4
  -2   6   6 2392.33 103.487   1
  -2   6   6 2147.64 101.541   2
   2   6   6 2246.12 100.998   1
   2   6   6 2121.38 101.338   2
   6   6  -2 2315.63 105.767   4
   6   6   2 2310.09 105.902   4
  -6  -6  -4 93.4975 4.78702   2
  -6  -6   4 92.0612 4.81259   2
  -6  -6   4 93.1028 5.59251   4
  -6  -4   6 92.0621 4.80745   2
  -6  -4   6 96.5619 5.25663   4
  -6   4   6 98.1010 4.99116   1
  -6   4   6 93.0565 4.63928   2
  -6   4   6 95.1985 4.77839   3
  -6   6   4 99.5656 4.99727   1
  -4  -6   6 104.019 5.29704   4
  -4   6   6 98.0751 4.96434   1
  -4   6   6 89.6919 4.60227   2
   4  -6   6 94.9186 4.52064   3
   6   6   4 89.8615 6.17949   4
  -6  -6   6 1493.16 66.4512   2
  -6  -6   6 1566.45 68.3412   4
  -6   6   6 1584.15 68.8614   1
  -6   6   6 1415.20 66.0937   2
  -7  -1   1 157.780 7.78123   4
  -7   1   1 167.408 7.66262   4
  -1   1   7 160.865 7.67944   3
  -1   7  -1 169.008 7.54515   4
  -1   7   1 157.820 7.57166   4
   1  -1   7 154.511 7.61522   3
   1   7  -1 163.475 7.74166   4
   1   7   1 156.844 7.73617   4
   7  -1   1 168.777 7.64475   4
   7   1  -1 165.378 7.85057   4
   7   1   1 168.476 7.82845   4
  -7  -3   1 412.997 19.6393   4
  -7   1   3 473.547 19.5531   1
  -7   1   3 448.534 19.5200   4
  -3   7   1 423.096 19.4002   1
   3   7  -1 426.428 19.6130   4
   7   3   1 398.715 19.5780   4
   7  -1   3 439.698 19.9081   4
  -1  -7   3 449.106 19.9263   4
   1   7   3 421.947 19.3952   1
   1  -7   3 451.254 20.4784   4
   3   7   1 418.749 19.6022   4
   7   3  -1 415.242 19.6473   4
  -1   7   3 417.396 19.4158   1
  -7  -1   3 425.813 19.6088   4
  -7   3   1 450.366 20.0900   4
   7   1   3 442.978 19.9642   4
  -7   3   3 1058.34 47.2727   4
  -3  -7   3 1057.48 48.9841   4
  -3  -3  -7 1041.94 47.3563   3
  -7  -3   3 1062.89 49.3539   4
  -7   3   3 1106.86 46.2177   1
  -7  -3  -3 1106.01 46.1676   2
   7  -3   3 1094.92 47.4965   4
   7   3   3 1034.34 48.5078   4
  -3   3   7 1068.53 46.1349   1
  -3   3   7 1018.60 46.6697   3
  -3   7   3 1021.38 46.1354   1
   3  -3   7 986.076 47.1185   3
   3   7   3 963.483 46.5442   4
   5   7  -1 1.48556 0.56916   4
  -1   5   7 1.12940 0.39085   1
  -1   5   7 0.86976 0.30323   2
  -5   7   1 1.65919 0.42246   1
   1   7   5 1.20250 0.38570   1
  -7   1   5 0.67814 0.35347   2
  -5  -1   7 1.14078 0.41370   2
   1   7   5 0.96687 0.32905   2
  -5   7  -1 1.56059 0.47518   1
   1   5   7 0.93825 0.40277   1
  -5   1   7 1.39198 0.43705   1
  -5   1   7 0.75581 0.37411   2
  -7   1  -5 1.03288 0.24773   3
  -1   7   5 1.05014 0.39482   1
  -7  -1   5 1.30389 0.46791   1
  -5  -1  -7 1.54568 0.31517   3
  -7  -1   5 1.10737 0.35032   2
  -7   5   1 1.57817 0.46409   1
   3   7   5 66.5381 3.61805   1
  -5  -3   7 64.4495 3.61329   2
   3  -5   7 70.0787 3.53366   3
  -5   7   3 72.9467 3.79799   1
  -3  -5  -7 67.6259 3.69082   3
  -7   3   5 75.1509 3.85660   1
  -3   5   7 66.4888 3.68678   1
  -3   5   7 63.6824 3.48745   2
  -7  -5   3 67.6544 3.99373   4
  -7  -5   3 62.1903 3.56915   2
  -3  -7   5 74.4793 4.00591   4
  -7   3   5 65.0147 3.44091   2
  -5  -3   7 71.8420 4.05639   4
  -3  -5   7 73.6587 4.05935   4
  -7  -3   5 69.5293 4.01797   4
  -7  -3   5 68.6334 3.63883   2
  -7   5   3 70.6024 3.75005   1
  -7   5   3 72.9850 3.50561   4
  -5  -3  -7 68.3741 3.65515   3
   3   5   7 59.6363 3.50791   2
  -5  -7   3 67.5887 3.96934   4
  -5   3   7 77.1058 3.89739   1
  -5   3   7 65.7806 3.52773   2
  -5   3   7 71.2897 3.73228   3
  -7  -5  -3 67.3731 3.61133   2
  -3   7   5 69.9217 3.77724   1
  -3   7   5 65.5941 3.41614   2
   3  -7   5 69.3270 3.48940   4
   5   7   3 73.7332 4.09925   4
  -7  -5   5 25.8475 1.74787   2
  -7  -5   5 27.8943 2.06479   4
  -7   5   5 27.4613 1.84404   1
  -7   5   5 23.7235 1.50008   2
  -5  -7   5 22.4010 1.69047   2
  -5  -5   7 22.6584 1.71254   2
  -5  -5   7 26.4182 1.99280   4
  -5   5   7 25.7297 1.77745   1
  -5   5   7 24.4951 1.60200   2
  -5   7   5 25.9551 1.84513   1
  -5   7   5 25.0750 1.51904   2
   5  -7   5 26.8788 1.31251   4
   5   5   7 22.0383 1.63637   2
   7  -5   5 27.8032 1.42008   4
   7   5   5 29.5814 2.15261   4
  -7  -7  -1 595.845 27.6054   2
  -7  -7   1 603.978 27.6257   2
  -7  -1  -7 582.504 27.4874   3
  -7  -1   7 690.628 28.0509   1
  -7  -1   7 606.536 27.6022   2
  -7  -1   7 591.363 28.0295   4
  -7   1   7 700.626 28.0686   1
  -7   1   7 587.481 27.5123   2
  -7   7  -1 632.072 27.5746   1
  -7   7   1 614.107 27.6805   1
  -1  -7  -7 636.271 27.7160   3
  -1  -7   7 602.628 27.9480   4
  -1   7   7 651.812 27.8313   1
  -1   7   7 567.764 27.4381   2
   1  -7   7 657.427 27.8566   4
   1   7   7 638.723 27.7317   1
   1   7   7 565.936 27.4824   2
   7   7  -1 627.647 28.2133   4
   7   7   1 614.202 28.1581   4
  -7  -7  -3 883.717 39.3002   2
  -7  -7   3 885.277 39.3224   2
  -7  -7   3 898.244 39.9322   4
  -7  -3   7 873.112 39.3038   2
  -7  -3   7 862.636 39.8136   4
  -7   3   7 956.816 39.6640   1
  -7   3   7 850.385 39.1119   2
  -7   7   3 913.044 39.4956   1
  -7   7   3 919.731 39.7263   4
  -3  -7   7 892.278 39.7924   4
  -3   7   7 906.974 39.5082   1
  -3   7   7 832.941 39.0554   2
   3  -7   7 900.007 39.6447   4
   3   7   7 901.285 39.3182   1
   3   7   7 844.817 39.2115   2
   7   7   3 883.154 39.8631   4
  -7  -7   5 141.155 6.98466   2
  -7  -7   5 144.730 7.54490   4
  -7  -5   7 131.413 6.91764   2
  -7  -5   7 126.794 7.32509   4
  -7   5   7 148.275 7.28602   1
  -7   5   7 137.305 6.71642   2
  -7   7   5 143.538 7.17807   1
  -7   7   5 139.577 6.54108   2
  -5  -7   7 143.900 6.97021   2
  -5  -7   7 145.383 7.52433   4
  -5   7   7 148.745 7.24808   1
  -5   7   7 138.478 6.71096   2
   5   7   7 142.056 6.87737   1
   5   7   7 133.120 6.87123   2
   7   5   7 134.772 6.70203   1
   7   7   5 148.585 7.60136   4
  -7  -7   7 996.378 42.9948   2
  -7  -7   7 971.086 43.6041   4
  -7   7   7 975.980 43.2097   1
  -7   7   7 937.543 42.5008   2
   7   7   7 998.196 42.7657   1
   7   7   7 916.801 43.5258   4
   0   0   8 7604.52 334.241   3
  -8   0   2 -0.2040 0.39541   1
  -2   8   0 0.08099 0.34018   1
   2   8   0 0.51146 0.66620   4
   8   0   2 0.51741 0.36604   4
   0   8   2 -0.3240 0.46238   4
   8   2   0 0.14064 0.45407   4
   0   8   2 0.09145 0.31476   1
  -8  -2   0 -0.0637 0.28682   2
   8  -2   2 4.74508 0.60373   4
  -2   8   2 3.12628 0.51764   1
  -2   8   2 4.65581 0.65195   4
  -2   2   8 4.25666 0.76463   3
  -8   2   2 3.82882 0.55043   1
  -8  -2   2 3.27621 0.51189   2
   2   8   2 5.03339 0.84329   4
   8   2   2 4.48205 0.72229   4
  -2   8  -2 3.41316 0.51414   1
   2   8  -2 4.36975 0.80621   4
  -4   0   8 6768.67 269.594   1
   8   0   4 6178.38 269.836   4
  -8  -4   0 6108.51 267.629   2
  -8   4   0 6410.27 267.785   1
  -8   0   4 6112.06 270.705   4
  -4   8   0 6246.91 268.705   1
   4   8   0 5928.66 270.111   4
  -8   0   4 6466.04 269.117   1
  -8   0   4 6101.93 267.042   2
   0   4   8 6151.12 267.029   1
   0   4   8 5604.75 267.143   2
   8   4   0 5757.15 273.468   4
   0   8   4 6104.52 269.211   1
   0   8   4 5375.55 265.849   2
   0  -8   4 6170.43 269.467   4
  -4   0   8 5879.33 267.238   2
  -8  -4   2 17.5775 1.34139   2
  -8  -2  -4 16.5821 1.23553   2
  -8  -4   2 20.4648 1.64505   4
   4   8  -2 19.2618 1.71271   4
  -8   2   4 18.7275 1.41582   4
  -8   2   4 20.3268 1.50517   1
  -4   8   2 21.1332 1.42534   1
  -2   4   8 19.0505 1.41704   1
   2  -4   8 19.0984 1.44872   3
   2   8   4 18.3784 1.41027   1
  -8   2   4 17.5432 1.22942   2
   8   4   2 22.9165 1.76913   4
   8  -2   4 21.1215 1.40296   4
   8   2   4 18.9565 1.77717   4
  -4   2   8 16.9331 1.31129   2
  -8  -2   4 19.6368 1.57001   4
  -8   4   2 20.0003 1.45852   1
  -4   8  -2 18.8888 1.36887   1
   2  -8   4 20.6437 1.36663   4
   2   4   8 16.3953 1.31075   2
   4   8   2 20.5408 1.73191   4
  -4   2   8 19.2402 1.38987   1
  -8   4   2 22.0119 1.27853   4
  -4   2   8 19.7629 1.56751   3
  -8   2  -4 20.3659 1.13587   3
  -2   8   4 17.4531 1.18017   2
  -8  -2   4 16.3446 1.28980   2
  -2   8   4 20.0962 1.45535   1
  -4  -4   8 5196.27 234.926   4
  -8  -4  -4 5252.49 230.692   2
  -4  -4   8 5273.05 230.316   2
  -4   8   4 4925.78 228.650   2
  -4   8   4 5340.67 233.033   1
  -8  -4   4 5443.81 231.414   2
  -4  -4  -8 4899.42 230.131   3
  -4   4   8 5720.37 233.193   1
  -4  -8   4 5257.04 234.761   4
   8   4   4 5260.02 234.773   4
  -8  -4   4 5340.91 235.373   4
  -8   4   4 5432.01 232.023   1
  -8   4   4 5264.31 228.925   2
  -8   4   4 5308.88 231.743   4
  -4   4   8 4906.21 229.726   2
   8  -4   4 5233.06 229.010   4
   4   8   4 5084.44 234.000   4
   4   4   8 5052.75 230.315   2
  -8   0   6 0.08128 0.46094   4
   8   6   0 0.21479 0.51460   4
   0   8   6 0.11875 0.32704   2
   0   6   8 -0.1051 0.34232   2
   6   8   0 0.60594 0.65625   4
  -6  -8   0 0.83552 0.60651   2
  -8   6   0 0.38508 0.42465   1
  -6   0   8 0.20662 0.40604   1
  -6   0   8 -0.1197 0.38572   2
   0   8   6 -0.2814 0.38097   1
   0   6   8 0.02862 0.40402   1
  -8   0   6 -0.0322 0.38830   1
  -8  -6   0 0.02009 0.43793   2
  -8   0   6 -0.0653 0.34513   2
  -8   0  -6 0.51653 0.46029   3
   0  -8  -6 0.83738 0.57504   3
  -8  -6   2 1.90730 0.60925   4
  -6  -2   8 0.71741 0.43511   2
  -8   2   6 1.36948 0.44044   1
  -2   6   8 0.69343 0.36389   2
  -8  -6   2 1.10625 0.47845   2
  -8   6  -2 2.14903 0.63559   1
   2   8   6 1.05995 0.40972   1
   2   8   6 1.14878 0.34038   2
  -8   2   6 1.27280 0.49198   4
  -6  -2   8 1.19613 0.61395   4
   8   6   2 1.42151 0.48638   4
  -6   8   2 1.39032 0.42867   1
  -6  -8  -2 1.38156 0.52335   2
  -2   6   8 1.44619 0.45081   1
  -8   2   6 1.10312 0.35700   2
  -6   2   8 0.92694 0.37631   2
   6   8   2 1.99157 0.73256   4
  -8  -2   6 1.54213 0.40678   2
  -8   6   2 1.24378 0.42518   1
  -6  -2  -8 1.97762 0.61729   3
   8   6  -2 1.59381 0.52338   4
  -8  -6  -2 1.19284 0.42915   2
   2   6   8 1.73616 0.52244   1
   2   6   8 1.03208 0.38059   2
  -8  -2   6 1.68326 0.50588   4
  -2   8   6 1.51211 0.33294   2
  -6   2   8 1.45769 0.44332   1
  -6   8  -2 0.98655 0.50305   1
  -6  -8   2 1.27708 0.57845   2
  -2   8   6 1.29140 0.43348   1
  -6   8   4 29.6338 2.06597   1
  -6   8   4 27.8161 1.55771   2
  -4  -8   6 26.3161 1.87937   2
  -4  -8   6 28.7062 2.44870   4
  -8   4   6 29.1938 2.03450   1
  -4   6   8 29.1637 1.97872   1
  -4   6   8 27.9198 1.79097   2
  -8  -6   4 26.4250 2.15901   4
  -4  -6  -8 24.4278 1.88325   3
  -8   4   6 27.7253 1.73197   2
  -8   4   6 30.8534 1.88500   3
  -6  -8  -4 28.1573 1.90922   2
   4   8   6 27.6454 1.84055   1
   6   4   8 27.3465 1.87229   2
  -6  -4   8 27.9711 1.89314   2
  -6  -4   8 24.4787 2.07313   4
  -8  -6   4 27.7007 1.88914   2
   8   6   4 31.6580 2.32349   4
  -4  -6   8 33.2661 2.33584   4
  -4  -6   8 27.4915 1.93932   2
   8   4   6 30.6500 2.26328   4
   4   6   8 28.1292 1.84087   1
  -8   6   4 31.1539 2.07970   1
  -8   6   4 26.6371 1.55231   2
  -8   6   4 31.1044 1.77411   4
   4   6   8 27.0993 1.85445   2
   6   8   4 31.9642 2.36739   4
  -6   4   8 30.2394 2.10715   1
  -6   4   8 26.1051 1.74736   2
  -6   4   8 30.1082 2.00611   3
  -8  -4   6 27.0177 1.83573   2
  -8  -4   6 24.1665 2.05567   4
  -4   8   6 29.2895 2.01831   1
  -4   8   6 27.4414 1.70326   2
   4  -8   6 28.5410 1.61168   3
   4  -8   6 29.1227 1.66597   4
  -6  -8   4 26.4916 1.84766   2
  -6  -8   4 27.7551 2.20908   4
  -8  -6  -4 25.8468 1.81096   2
  -8  -6   6 45.8010 2.82216   2
  -8  -6   6 43.7912 3.14784   4
  -8   6   6 48.4716 3.01063   1
  -8   6   6 46.5250 2.52844   2
  -6  -8   6 49.3103 2.88329   2
  -6  -8   6 51.4331 3.33428   4
  -6  -6   8 44.1153 2.76456   2
  -6  -6   8 45.8956 3.16801   4
  -6   6   8 48.7824 3.03221   1
  -6   6   8 44.6273 2.63419   2
  -6   8   6 45.1215 2.92376   1
  -6   8   6 45.7035 2.48859   2
   6   6   8 42.5364 2.60323   1
   6   6   8 46.1142 2.81081   2
   6   8   6 44.4910 2.71317   1
   6   8   6 47.9833 3.32187   4
   8   6   6 46.8762 3.25273   4
  -8  -8   0 3412.31 153.057   2
  -8   0   8 3441.20 159.173   1
  -8   0   8 3410.58 154.989   2
  -8   0   8 3168.95 154.721   4
  -8   8   0 3670.28 155.153   1
   0  -8   8 3733.20 162.646   4
   0   8   8 3581.37 154.434   1
   0   8   8 3373.76 154.927   2
   8   8   0 3564.37 157.172   4
  -8  -8  -2 89.2571 4.65135   2
  -8  -8   2 86.2243 4.63310   2
  -8  -2   8 81.2699 4.53185   2
  -8  -2   8 74.8267 4.83170   4
  -8   2   8 85.1904 4.49352   2
  -8   8  -2 91.7839 4.50931   1
  -8   8   2 89.6230 4.71240   1
  -2  -8  -8 83.8080 4.61797   3
  -2  -8   8 91.6194 5.00743   4
  -2   8   8 90.7611 4.79026   1
  -2   8   8 79.5888 4.39280   2
   2  -8   8 94.2143 4.71630   4
   2   8   8 91.3035 4.66917   1
   2   8   8 81.4394 4.48780   2
   8   2   8 84.6430 4.71262   2
   8   8  -2 91.0817 5.18831   4
   8   8   2 82.5259 5.02639   4
  -8  -8  -4 2861.42 124.999   2
  -8  -8   4 2895.47 125.381   2
  -8  -8   4 2831.78 125.459   4
  -8  -4   8 2826.36 125.945   2
  -8  -4   8 2741.02 125.159   4
  -8   4   8 2940.81 127.927   1
  -8   4   8 2781.80 125.900   2
  -8   4   8 2720.98 124.558   3
  -8   8   4 2879.57 127.516   1
  -8   8   4 2774.94 122.675   2
  -8   8   4 2846.93 124.221   4
  -4  -8   8 2825.69 123.314   2
  -4  -8   8 2972.08 126.584   4
  -4   8   8 2970.23 128.923   1
  -4   8   8 2783.61 124.512   2
   4  -8   8 2741.38 124.883   3
   4  -8   8 2592.04 124.515   4
   4   8   8 2967.65 125.811   1
   4   8   8 2675.64 125.729   2
   8   4   8 2959.80 124.090   2
   8   8   4 2724.19 124.972   4
  -8  -8   6 96.7053 5.21077   2
  -8  -8   6 94.4571 5.72378   4
  -8  -6   8 100.611 5.53209   2
  -8  -6   8 86.8335 5.51806   4
  -8   6   8 102.083 5.55328   1
  -8   6   8 99.5889 5.45391   2
  -8   8   6 100.283 5.43838   1
  -8   8   6 95.4093 4.67814   2
  -6  -8   8 95.6437 5.14589   2
  -6  -8   8 95.2595 5.63036   4
  -6   8   8 97.3367 5.40267   1
  -6   8   8 94.0461 5.08452   2
   6  -8   8 87.5974 4.56390   4
   6   8   8 95.5258 5.06156   1
   8   6   8 96.0448 5.15208   2
   8   8   6 104.561 5.84555   4
  -8  -8   8 1954.18 84.7386   2
  -8   8   8 1952.93 87.2654   1
  -8   8   8 1815.24 84.0711   2
   8   8   8 2045.76 84.5779   1
   8   8   8 1853.36 84.5925   2
  -9  -1  -1 486.209 21.8274   2
  -9  -1   1 466.507 21.8410   2
  -9  -1   1 467.304 22.2169   4
  -9   1  -1 563.508 22.4644   2
  -9   1   1 543.778 22.1540   1
  -9   1   1 489.027 21.7480   2
  -1  -1   9 481.063 22.1260   3
  -1   1   9 471.347 21.9560   2
  -1   1   9 478.011 22.0999   3
  -1   9  -1 481.669 22.0852   1
  -1   9  -1 503.167 22.1540   4
  -1   9   1 487.381 22.1385   1
  -1   9   1 476.995 21.9454   4
   1  -1   9 461.389 22.0302   3
   1   9  -1 507.977 22.1928   4
   1   9   1 480.976 22.1491   4
   9  -1   1 495.513 22.0697   4
   9   1   1 496.734 22.3274   4
  -9  -1  -3 280.144 12.9364   2
  -9  -3   1 288.817 13.1110   2
   1   9   3 279.769 13.3758   4
  -9   1   3 312.449 13.4107   1
  -9   1   3 278.556 12.9453   2
  -9   1   3 285.142 13.3093   4
   1   9   3 280.612 13.2823   1
  -3   9   1 292.727 13.3143   1
  -1   3   9 305.786 13.1681   1
  -1   3   9 271.865 13.0649   2
   1  -3   9 285.941 13.2195   3
  -3  -1   9 293.817 13.1543   1
   3   9  -1 291.385 13.5068   4
  -3  -1   9 278.312 13.1219   2
   9  -1   3 284.585 13.1813   4
   9   3   1 273.204 13.4925   4
   3   9   1 278.945 13.4347   4
  -1   9   3 267.610 12.8214   2
   9   1   3 284.595 13.3736   4
  -9  -1   3 294.539 13.0875   2
  -9  -1   3 300.401 13.5449   4
   9   3  -1 275.899 13.5336   4
  -1   9   3 275.452 13.1909   4
  -3   1   9 305.224 13.2381   1
  -3   1   9 280.525 13.1156   2
  -3   1   9 277.987 13.2594   3
  -9  -3  -1 275.262 13.0379   2
  -3   9  -1 298.246 13.2655   1
  -9   3   1 305.585 13.2237   1
   1   3   9 272.779 13.0730   2
  -1   9   3 281.515 13.3035   1
  -3   9   3 88.4376 4.52003   2
   3  -9  -3 99.1680 4.68400   3
  -9  -3  -3 91.7940 4.78899   2
  -9  -3   3 96.4945 4.91285   2
  -9  -3   3 100.700 5.36879   4
  -9   3   3 102.646 5.09358   1
  -3   9  -3 98.8516 4.91890   1
   3   9   3 97.7118 5.29855   4
   9  -3   3 99.3441 4.71650   4
  -3  -3   9 90.6497 4.87780   2
  -3   3   9 102.592 5.05446   1
  -3   3   9 92.9186 4.86406   2
  -3  -9   3 101.643 5.27954   4
  -3   9   3 101.202 5.13348   1
   3   3   9 86.5964 4.81066   2
  -9   3   3 92.6309 4.60306   2
  -9   3   3 95.8452 4.87846   4
   9   3   3 93.2649 5.24296   4
  -9  -5   1 639.314 30.8138   2
  -9   5  -1 713.390 30.7753   1
  -1   5   9 655.296 30.7579   2
  -5  -9  -1 696.651 30.8634   2
  -5  -1   9 757.575 31.1332   1
  -9   1   5 749.674 31.2630   1
   1  -9  -5 715.261 30.8092   3
  -1   5   9 738.714 30.9876   1
   1   9   5 703.212 31.0702   1
   1   9   5 645.681 30.6524   2
   9  -1   5 661.002 30.8944   4
   9   5   1 692.898 31.4013   4
  -9   1   5 695.268 30.7297   2
  -9   1   5 696.290 31.1668   4
   5   9  -1 712.986 31.4061   4
  -5   9   1 709.329 31.0446   1
  -5  -1   9 648.095 30.8139   2
  -1  -9   5 697.828 31.1009   4
  -9   1  -5 659.704 30.5148   3
   5   9   1 667.236 31.3025   4
  -1   9   5 698.253 31.0943   1
   1  -9   5 663.208 30.8134   4
  -1   9   5 652.035 30.5959   2
  -5  -9   1 685.116 30.8389   2
  -9  -1   5 706.505 30.8380   2
  -9  -5  -1 658.820 30.8133   2
  -5   1   9 764.703 31.1686   1
  -5   1   9 657.650 30.7999   2
   9   1   5 698.739 31.1707   4
   1   5   9 626.506 30.7414   2
  -9   5   1 730.356 30.9590   1
   9   5  -1 702.652 31.4513   4
  -5   9  -1 726.317 30.9609   1
  -9  -1   5 702.994 31.3254   4
   1   5   9 731.171 30.8570   1
  -9   3   5 274.403 13.6101   4
   9   5   3 297.350 14.0755   4
   3  -5   9 296.348 13.4472   3
  -9  -5   3 290.200 13.5678   2
  -9  -5   3 287.263 14.1020   4
  -5  -9  -3 295.805 13.5530   2
  -5  -3   9 292.368 13.5754   2
  -9   3   5 299.292 13.3145   2
   3   9   5 295.904 13.6811   1
   9  -3   5 295.596 13.3424   4
  -3  -5  -9 270.418 13.5691   3
  -5   9   3 297.550 13.7710   1
  -9   3   5 303.857 13.8199   1
  -3   5   9 315.275 13.7618   1
  -3   5   9 281.190 13.4368   2
  -3  -9   5 294.908 13.9423   4
  -3   9  -5 304.962 13.4453   1
   5   3   9 282.730 13.4831   2
   5   9   3 271.731 14.2474   4
  -9   5   3 297.119 13.0423   2
  -3  -5   9 301.843 13.5843   2
  -5  -9   3 289.452 14.1854   4
  -5   3   9 294.191 13.6398   3
  -9   5   3 288.378 13.3806   4
   3   5   9 313.836 13.4426   1
  -3   9   5 298.772 13.8068   1
  -3   9   5 273.984 13.1818   2
  -5   9  -3 302.981 13.4792   1
   9   3   5 273.669 13.9088   4
  -9  -5  -3 290.363 13.5193   2
  -9  -3   5 280.358 13.9917   4
  -3  -5   9 303.100 14.1469   4
  -9  -3   5 285.084 13.5343   2
  -9   5   3 306.592 13.7373   1
   3   5   9 278.832 13.4830   2
  -5   3   9 288.605 13.4678   2
  -5   3   9 320.694 13.8518   1
  -5  -9   3 283.336 13.4800   2
   5   5   9 866.060 38.2833   2
  -5   9   5 862.510 37.8128   2
  -5   9   5 866.615 40.3300   1
  -5  -9   5 852.227 38.8406   4
  -9   5   5 840.641 38.1808   4
  -9   5   5 891.758 39.2347   1
  -9  -5   5 839.582 38.3157   2
  -9  -5   5 810.942 38.8596   4
  -5   9  -5 880.727 38.0296   1
  -9   5   5 866.060 37.8642   2
  -5  -9   5 837.054 38.2293   2
  -5   5   9 839.874 38.1375   2
  -5  -5   9 889.406 38.3682   2
  -5  -5   9 867.335 38.9484   4
  -5   5   9 904.339 38.6066   1
   9   5   5 867.225 38.9009   4
   5   9   5 861.643 38.8979   4
  -9   7  -1 41.8461 2.43121   1
  -7  -1   9 39.2293 2.47237   2
  -7  -1   9 35.5492 2.74033   4
  -1  -9   7 44.2147 2.73365   4
  -7  -9  -1 38.0524 2.43754   2
   1  -7   9 41.7037 2.69434   4
  -9   1   7 37.4916 3.36851   1
  -9   1   7 39.1058 2.40263   2
   7   9  -1 43.3807 2.97415   4
  -1   7   9 37.5225 2.38629   2
   9   7   1 41.8882 2.92590   4
   1   9   7 40.1625 2.61274   1
   1   9   7 38.0735 2.38000   2
  -9   1   7 37.1861 2.66913   4
  -9  -7   1 36.7132 2.43038   2
  -1   7   9 40.7486 2.56229   1
  -7   9   1 41.7664 2.56419   1
   1  -9   7 40.6227 2.50002   4
  -1  -7   9 42.7214 2.81857   4
  -7  -9   1 38.6667 2.47205   2
   7   9   1 44.9247 3.01203   4
  -9  -7  -1 37.6337 2.42791   2
  -9   7   1 42.2389 2.54418   1
  -1   9   7 37.2407 2.31820   2
  -9  -1   7 36.4881 2.67511   4
   1   7   9 42.9804 2.57763   1
   1   7   9 35.9035 2.35973   2
   9   7  -1 39.2893 2.90165   4
  -7   9  -1 42.3314 2.51291   1
  -9  -1   7 38.9362 2.45244   2
  -1   9   7 41.2005 2.64914   1
  -7   1   9 39.1766 2.44535   2
  -1  -9  -7 41.2909 2.53525   3
  -7   1   9 42.8294 2.79150   1
  -3   7   9 13.9941 1.11013   2
  -9  -7   3 10.8779 1.32084   4
   3   9   7 14.8476 1.27103   1
  -9  -7   3 11.6884 1.17196   2
   3  -7   9 15.4679 1.58245   3
  -9   3   7 14.9145 1.30516   1
  -7  -3   9 11.4090 1.13632   2
  -3  -9   7 11.3456 1.58414   2
   3   9   7 14.1158 1.15577   2
   7   3   9 11.3804 1.23657   2
  -9   3   7 12.4590 1.07372   2
  -9   3   7 10.7938 1.15302   4
  -3  -9   7 14.7040 1.41847   4
   9  -3   7 14.1976 1.16795   4
   3   7   9 13.1227 1.13685   1
   3   7   9 12.5459 1.14807   2
  -7   3   9 14.2638 1.28582   1
  -7  -9   3 13.3509 1.24829   2
   3  -9   7 14.0337 1.16361   4
  -3   9   7 13.1991 1.25364   1
  -9   7   3 12.7783 1.31630   1
  -3  -7   9 11.8021 1.29536   2
   9   3   7 11.9916 1.24648   2
   9   3   7 12.6145 1.25274   4
  -9  -3   7 12.5553 1.14071   2
  -9  -3   7 10.4579 1.28585   4
  -3   9   7 12.5945 0.99101   2
  -3  -7   9 12.4346 1.26136   4
  -7   3   9 11.1404 1.04299   2
  -7   3   9 13.5746 1.39588   3
  -9  -7  -3 12.8512 1.17464   2
  -7   9  -3 14.0528 1.08943   1
  -5   7   9 90.6255 5.06747   2
   7   5   9 95.1843 5.05714   2
   9   7   5 91.7964 5.53432   4
  -5  -9   7 91.3286 5.47678   4
   9  -5   7 94.1499 4.60503   4
  -7  -5   9 94.2933 5.07188   2
   5   9   7 97.5683 5.11512   1
  -9   5   7 96.5808 5.31080   1
  -9   5   7 92.0411 4.76679   2
  -9   5   7 88.2865 5.04988   4
  -9  -7   5 89.0212 5.55982   4
  -9  -7   5 95.3923 5.12983   2
  -7   9   5 105.806 5.43172   1
  -7   9   5 99.9517 4.53935   2
  -7  -5   9 90.9991 5.47495   4
  -5  -9   7 94.0725 5.08073   2
  -5   7   9 95.7355 5.25796   1
  -5  -7   9 99.7244 5.11469   2
  -7  -9   5 96.2625 5.06069   2
  -9   7   5 96.8283 5.29402   1
  -9   7   5 94.7818 4.53516   2
  -9   7   5 96.8015 4.77785   4
   9   5   7 89.5463 5.46303   4
  -7  -9   5 88.6548 5.44789   4
  -7   5   9 99.9161 5.35324   1
  -7   5   9 99.1729 5.19969   2
  -5  -7   9 97.0123 5.62634   4
   7   9   5 95.4030 5.59432   4
  -5   9   7 94.3799 5.27565   1
  -5   9   7 95.2827 4.75738   2
  -9  -5   7 93.8846 5.18563   2
  -9  -5   7 81.7366 5.34624   4
   5   7   9 102.486 4.98192   1
   5   7   9 96.6010 5.06452   2
  -9  -7   7 5.86547 0.86186   2
  -9   7   7 4.12561 0.67413   2
  -7  -9   7 5.45349 0.92012   2
  -7  -9   7 4.28153 1.14774   4
  -7  -7   9 5.20646 1.24053   4
  -7   7   9 4.15273 0.70558   1
  -7   7   9 5.51389 0.73212   2
  -7   9   7 4.25529 0.80813   1
  -7   9   7 4.32095 0.60407   2
   7   7   9 3.35094 0.88475   1
   7   7   9 4.89800 0.78890   2
   7   9   7 4.22551 0.75347   1
   9   7   7 5.60525 0.81954   1
  -9  -9  -1 661.789 28.5585   2
  -9  -9   1 626.798 28.0631   2
  -9  -1   9 561.559 27.8409   2
  -9   1   9 643.516 28.4287   1
  -9   1   9 592.737 27.8505   2
  -9   9  -1 643.365 27.9128   1
  -9   9   1 629.064 28.0517   1
  -1  -9   9 665.118 28.5090   4
  -1   9   9 628.242 28.1835   1
  -1   9   9 584.245 27.7583   2
   1  -9   9 627.065 28.1425   4
   1   9   9 646.701 28.1596   1
   1   9   9 591.767 27.8367   2
   9   9  -1 614.655 28.6880   4
   9   9   1 581.580 28.5758   4
  -9  -9  -3 344.276 15.8993   2
  -9  -3   9 328.912 15.8215   2
  -9   3   9 355.756 16.2751   1
  -9   3   9 321.219 15.6329   2
  -9   3   9 314.154 15.6981   3
  -9   9  -3 365.037 15.6067   1
  -9   9   3 342.086 16.0367   1
  -3  -9   9 335.192 15.7661   2
  -3  -9   9 368.119 16.5521   4
  -3   9   9 346.649 16.1194   1
  -3   9   9 336.531 15.6248   2
   3  -9   9 331.317 15.4678   3
   3   9   9 364.228 15.9814   1
   3   9   9 319.534 15.7400   2
   9   3   9 328.692 15.7445   2
   9   9   3 331.276 16.5140   4
  -9  -9   5 960.782 41.7998   2
  -9  -5   9 854.286 41.6118   2
  -9   5   9 967.426 42.1353   1
  -9   5   9 905.877 41.3577   2
  -9   9   5 939.109 41.9920   1
  -9   9   5 874.162 41.0394   4
  -5  -9   9 995.811 41.7719   2
  -5  -9   9 865.040 42.2627   4
  -5   9   9 938.741 42.0289   1
  -5   9   9 932.792 41.3666   2
   5   9   9 987.460 41.6995   1
   5   9   9 901.464 41.6263   2
   9   5   9 1008.69 41.8277   2
  -9  -9   7 91.5776 5.24523   2
  -9  -7   9 95.5879 5.35263   2
  -9   7   9 94.3466 5.55434   1
  -9   7   9 89.8759 4.87923   2
  -9   9   7 95.8705 5.57901   1
  -9   9   7 92.6846 4.63451   2
  -7  -9   9 94.3771 5.26379   2
  -7   9   9 95.6252 5.55377   1
  -7   9   9 93.3741 4.89185   2
   7   9   9 98.7377 5.15580   1
   7   9   9 92.0902 5.27490   2
   9   7   9 97.4871 5.34770   2
   9   9   7 97.0825 5.15248   1
  -9  -9   9 925.359 41.5264   2
  -9   9   9 905.532 41.8730   1
  -9   9   9 885.644 40.7168   2
   9   9   9 987.529 41.2037   1
   9   9   9 900.782 41.4627   2
   0  10   0 1.20774 0.68247   4
 -10   0  -2 41.2070 2.39251   2
 -10   0   2 42.9865 2.47397   2
 -10   0   2 46.6431 2.83991   4
  -2  10   0 45.8553 2.77625   1
   0  -2  10 44.1348 2.67924   2
   0  -2  10 48.1379 2.82246   3
   0   2  10 43.9948 2.55005   1
   0   2  10 43.2504 2.61205   2
   2  10   0 47.3595 2.96753   4
  10   0   2 48.2395 2.85065   4
  10   2   0 45.8925 2.93828   4
 -10   2   0 42.8978 2.33131   2
  -2   0  10 43.2846 2.54558   1
  -2   0  10 44.1091 2.65023   2
  -2   0  10 47.6588 2.82510   3
   0  10   2 45.1220 2.79772   1
   0  10   2 48.0977 2.85437   4
   2   0  10 40.9139 2.57019   2
 -10   2   0 48.5005 2.66599   1
 -10  -2   0 45.8823 2.57900   2
  -2   2  10 1580.93 70.8767   2
  -2   2  10 1729.02 71.2904   1
 -10   2   2 1742.33 72.4982   1
 -10   2   2 1571.36 70.6133   2
 -10   2   2 1665.44 73.6424   4
  -2  -2  10 1585.83 70.9060   2
   2  10   2 1591.49 73.1252   4
  10  -2   2 1672.12 73.3649   4
  10   2   2 1664.17 74.3254   4
  -2  10  -2 1618.01 71.4269   1
 -10  -2  -2 1635.58 71.6240   2
   2   2  10 1486.72 70.7868   2
  -2  10   2 1577.98 72.4576   4
  -2  10   2 1471.94 70.4035   2
 -10  -2   2 1649.68 71.8072   2
 -10  -2   2 1626.74 73.6032   4
  -2  10   2 1629.59 72.6371   1
   0   4  10 0.25335 0.41142   2
   0   4  10 0.06322 0.47218   1
  10   4   0 0.89132 0.60262   4
  10   0   4 0.07883 0.49207   4
 -10   0   4 -0.1277 0.36503   2
 -10   0   4 -0.0807 0.50069   4
  -4  10   0 -0.3221 0.43038   1
 -10   4   0 0.39037 0.48798   1
  -4   0  10 0.28538 0.46191   1
  -4   0  10 -0.1517 0.41054   2
   0  10   4 -0.1485 0.38456   1
   0  10   4 0.17142 0.34056   2
   0  10   4 -0.0859 0.68629   4
 -10  -4   2 12.9607 1.14390   2
 -10  -4   2 11.3457 1.26905   4
 -10   4  -2 12.6871 1.06159   1
  -2   4  10 13.6435 1.16283   2
 -10   2   4 12.8401 0.99542   2
  -4  -2  10 12.8409 1.19137   2
   2  -4  10 16.5325 1.28697   3
  -4  10   2 13.8422 1.00369   2
  -2  10  -4 14.2655 1.22612   1
  -2   4  10 14.4945 1.23178   1
 -10   2   4 15.6625 1.32042   1
   2  10   4 15.3767 1.53524   4
 -10   2   4 13.3408 1.19501   4
  -4 -10  -2 12.3403 1.23547   2
  10   4   2 15.5220 1.46328   4
  -4  10   2 13.6315 1.23940   1
   4  10  -2 14.9286 1.59942   4
  -4  10   2 16.0485 1.02748   4
   2  10   4 13.6963 1.25915   1
   4   2  10 12.3317 1.13738   2
  10  -2   4 15.8502 1.24351   4
  -4   2  10 14.8799 1.26639   1
   2   4  10 11.7730 1.09088   2
 -10  -4  -2 11.9643 1.05619   2
   4  10   2 15.7327 1.56392   4
 -10  -2   4 11.8182 1.27443   4
 -10   2  -4 13.6868 0.89875   3
  -2  -4  10 12.7718 1.25562   2
 -10   4   2 11.7710 0.88101   2
 -10   4   2 14.4383 1.24213   1
  -4  10  -2 15.2884 1.26262   1
  -2  10   4 12.3435 0.99388   2
  -2  10   4 13.4933 1.28401   1
 -10  -2   4 12.8849 1.10554   2
  -4   2  10 12.2910 1.11839   2
  -4   2  10 16.3644 1.38969   3
  10   2   4 14.6856 1.35233   4
 -10  -4   4 10.9727 1.26277   4
 -10  -4   4 12.0383 1.11265   2
 -10  -4  -4 12.8702 1.09459   2
  10   4   4 11.9023 1.29068   4
  -4  -4  10 9.84204 1.11224   2
  -4   4  10 11.8720 1.20981   1
  -4   4  10 10.8590 1.02276   2
  -4  10  -4 12.1575 1.03452   1
  -4  10   4 11.9255 0.86216   2
   4   4  10 9.97396 1.09616   2
   4  10   4 14.3995 1.54008   4
 -10   4   4 12.4744 0.92823   2
 -10   4   4 12.1804 1.00428   4
  -4 -10   4 9.52304 1.26836   2
  -4 -10   4 13.8393 1.54950   4
 -10   4   4 12.2344 1.22285   1
  -6  10   0 183.625 8.74676   1
  10   0   6 166.633 8.73402   4
   0   6  10 189.667 8.69629   1
   0   6  10 168.440 8.52947   2
   6  10   0 183.173 9.21664   4
 -10   0   6 164.684 8.89107   4
  -6 -10   0 170.813 8.55890   2
   0 -10  -6 176.240 8.56609   3
   0  10   6 180.232 9.22367   1
   0  10   6 169.956 8.39669   2
  10   6   0 176.355 9.19157   4
 -10   6   0 180.453 8.56935   1
 -10   0   6 180.455 8.54668   2
  -6   0  10 195.208 8.93495   1
  -6   0  10 170.973 8.57571   2
 -10  -6   0 181.045 8.65052   2
   0 -10   6 174.459 8.69231   4
   2  10   6 973.784 45.5572   2
 -10   6  -2 1080.66 45.5360   1
 -10   2   6 1042.99 45.5393   2
  -6  -2  10 985.314 45.7130   2
 -10   2   6 1081.66 46.1488   1
  -2   6  10 1085.76 45.9323   1
 -10  -6   2 1044.32 45.8099   2
 -10   2   6 1023.98 45.9926   4
  -2 -10   6 1017.03 46.0692   4
  10   6   2 1011.35 46.3493   4
  -6 -10  -2 1061.76 45.7676   2
   6   2  10 1011.05 45.6613   2
  10  -2   6 1014.83 45.6443   4
  -2   6  10 999.180 45.6380   2
   6  10  -2 1022.27 46.3236   4
   2  -6  10 1071.54 45.7150   3
 -10   6   2 1074.81 45.8890   1
   6  10   2 1026.96 46.3141   4
  -6   2  10 996.419 45.6590   2
  -6   2  10 1009.09 45.7857   3
   2 -10   6 972.763 45.4932   4
  -2  -6  10 1106.75 45.8338   2
  -2  -6  10 1100.60 46.4974   4
 -10  -6  -2 1030.46 45.7559   2
  -2  10   6 1029.41 46.0257   1
  10   2   6 1022.31 46.1442   4
   2   6  10 1128.41 45.7341   1
   2   6  10 978.877 45.6574   2
  -6  10  -2 1108.01 45.8067   1
  -6 -10   2 1037.13 45.7346   2
 -10  -2   6 960.913 46.1781   4
 -10  -2   6 1022.78 45.7128   2
  -2  10   6 944.191 45.3606   2
  -6  10   4 173.671 7.85051   2
  -4   6  10 148.470 8.88553   2
   6   4  10 182.409 8.58027   2
 -10   4   6 174.980 8.77916   1
 -10   4   6 172.648 8.20212   2
 -10   4   6 160.444 8.21986   3
 -10   4   6 169.187 8.55556   4
  10   6   4 160.156 8.94853   4
  -6  -4  10 169.523 8.54828   2
  -6  10   4 177.214 8.78452   1
  10  -4   6 171.446 8.07863   4
  -4 -10   6 153.972 8.32859   2
  -4 -10   6 176.137 9.01206   4
  -4   6  10 182.481 8.76107   1
  -4  10  -6 180.639 8.31672   1
  -6  -4  10 164.761 9.02648   4
   4  10   6 174.417 9.09249   4
 -10  -6   4 188.536 8.73217   2
 -10  -6   4 164.994 9.10445   4
   4  10   6 175.827 8.66946   1
 -10   6   4 175.758 7.92455   2
   4   6  10 168.255 8.49074   2
  -6  10  -4 184.301 8.39432   1
   4   6  10 187.340 8.39187   1
 -10   6   4 176.627 8.14162   4
  -4  -6  10 181.787 8.61404   2
  -4  -6  10 182.314 9.22555   4
   6  10   4 179.350 9.19089   4
  -4  10   6 189.240 8.89657   1
  -6 -10   4 172.911 8.52421   2
  10   4   6 179.046 9.09536   4
 -10  -4   6 157.515 8.96664   4
  -6   4  10 180.240 8.79736   1
 -10  -4   6 156.126 9.21333   2
 -10   6   4 178.506 8.74541   1
  -6  10   6 754.991 32.9194   2
   6  10   6 741.732 33.5965   1
   6  10   6 719.840 34.1683   4
  -6 -10   6 766.323 33.5254   2
  -6 -10   6 767.653 34.2867   4
  -6  10   6 727.920 33.8060   1
  -6  -6  10 744.201 34.2827   4
 -10   6   6 746.495 32.9591   2
  -6   6  10 790.587 33.9339   1
  -6   6  10 720.116 33.2951   2
 -10  -6   6 732.680 33.5720   2
 -10   6   6 755.939 33.8343   1
  -6  -6  10 755.620 33.5899   2
 -10   6   6 725.456 33.2968   4
 -10   8   0 -0.1272 0.56705   1
   0  10   8 0.14579 0.48357   1
 -10   0   8 0.28425 0.38627   2
  -8   0  10 0.60969 0.52542   1
  -8 -10   0 0.35473 0.59240   2
  -8  10   0 -0.7547 0.84533   1
   0  10   8 -0.0597 0.37760   2
 -10  -8   0 0.36265 0.50127   2
   0   8  10 0.06472 0.51398   1
   0   8  10 0.50849 0.40132   2
  10   8   0 0.90424 0.97749   4
   2  -8  10 14.5544 1.37216   4
 -10   2   8 13.8551 1.34023   1
   2  10   8 12.6630 1.18403   2
  -2   8  10 16.5548 1.30708   2
  -8 -10  -2 13.6600 1.26543   2
 -10  -8   2 14.7619 1.35552   2
  -8  10   2 13.9972 1.40068   1
   2  10   8 15.0197 1.38480   1
  10  -2   8 15.7606 1.36277   4
  -2   8  10 13.8857 1.34047   1
  -2 -10   8 15.5963 1.47246   4
 -10   2   8 13.2324 1.18801   2
  10   8   2 12.9031 1.36335   4
  -2  10   8 12.4700 1.35959   1
  -2  -8  10 14.6154 1.49328   4
   8  10   2 16.3035 1.75609   4
 -10  -2   8 14.1946 1.22961   2
  -2  10   8 13.5430 1.15651   2
  10   2   8 11.9384 1.35577   4
  -8   2  10 15.5759 1.51589   3
   2   8  10 13.3664 1.19071   2
  -8   2  10 15.9329 1.49372   1
  -8   2  10 13.1358 1.16944   2
  -8 -10   2 14.5112 1.37881   2
  -8  10  -2 14.3077 1.28281   1
 -10   8   2 13.4253 1.29812   1
   2 -10   8 15.7482 1.27234   4
 -10  -8  -2 15.9617 1.36132   2
   8   4  10 31.6038 2.23935   2
 -10   4   8 31.3787 2.33856   1
 -10   4   8 29.9737 2.19386   3
  -8  10   4 30.3363 2.36812   1
   4  10   8 27.1024 2.06627   2
  -4   8  10 30.0663 2.07469   2
 -10  -8   4 32.1859 2.29583   2
  -4   8  10 31.3049 2.34889   1
  -8  -4  10 29.5756 2.18087   2
  10  -4   8 31.0314 1.97382   4
 -10   4   8 30.9505 2.04140   2
   4  10   8 32.1587 2.25200   1
  -4 -10   8 35.5547 2.59247   4
   4   8  10 27.5488 2.11827   2
  10   4   8 33.0891 2.22770   2
  -4  -8  10 28.9616 2.44415   4
  -4  10   8 32.2022 2.41274   1
 -10  -8  -4 31.1516 2.16359   2
 -10  -4   8 31.4112 2.22395   2
  -8   4  10 29.5184 2.08380   2
  -4  10   8 29.9267 1.99899   2
   4 -10   8 30.6349 1.84948   3
  -8 -10   4 30.2777 2.37837   2
  -8  10  -4 29.0910 2.08338   1
  -8   4  10 34.2375 2.33739   3
  -4  -8  10 30.5533 2.24711   2
  -8   4  10 30.9995 2.35188   1
   8  10   4 31.2300 2.60144   4
 -10   8   4 31.1357 2.36447   1
   4   8  10 31.9746 2.13982   1
 -10   6   8 58.2593 3.32816   2
 -10   6   8 62.7457 3.98734   1
   6  10   8 61.2718 3.66817   1
 -10  -8   6 62.7780 3.76082   2
  -6   8  10 59.1350 3.45766   2
  -6   8  10 61.8586 3.92561   1
   6  10   8 57.5845 3.65661   2
  -6 -10   8 54.6837 3.99813   4
  -8  10   6 61.2726 3.89819   1
  -8  10   6 60.7828 3.06756   2
  -6 -10   8 63.2698 3.92409   2
  -8  -6  10 58.2505 3.65336   2
   8   6  10 64.2556 3.77359   2
   6   8  10 61.4807 3.73105   2
 -10   8   6 57.9879 3.92348   1
   6   8  10 62.9331 3.68583   1
 -10   8   6 60.4945 3.29048   4
   8  10   6 63.0948 3.72738   1
  -8   6  10 62.9113 3.95856   1
  -8   6  10 59.8233 3.47937   2
 -10  -6   8 60.6898 3.75070   2
  -8 -10   6 65.9449 3.75564   2
  -6  10   8 62.7756 3.98111   1
  -6  10   8 62.2275 3.33493   2
  -6  -8  10 64.1756 3.78065   2
  10   6   8 62.4414 3.71714   2
 -10   8   6 60.8391 3.08387   2
 -10  -8   8 81.2759 4.78371   2
 -10   8   8 88.3074 5.18599   1
 -10   8   8 81.4117 4.24323   2
  -8 -10   8 86.3822 4.86317   2
  -8  -8  10 82.4339 4.79536   2
  -8   8  10 87.6829 5.21603   1
  -8   8  10 84.2472 4.47339   2
  -8  10   8 84.8344 5.09482   1
  -8  10   8 84.3766 4.24515   2
   8   8  10 75.6271 4.71148   2
   8  10   8 86.0712 4.73697   1
   8  10   8 79.5318 4.74399   2
  10   8   8 78.9093 4.49331   1
  10   8   8 79.5012 4.71521   2
 -10 -10   0 330.972 15.6535   2
 -10   0  10 324.802 15.4811   2
 -10  10   0 347.345 15.5939   1
   0  10  10 338.816 15.7590   1
   0  10  10 308.470 15.3520   2
 -10 -10  -2 500.093 22.4796   2
 -10 -10   2 495.732 22.4753   2
 -10  -2  10 450.256 22.2664   2
 -10   2  10 502.804 22.8606   1
 -10   2  10 483.739 22.2391   2
 -10   2  10 476.361 22.2907   3
 -10  10  -2 523.855 22.2257   1
 -10  10   2 504.826 22.5654   1
  -2  10  10 486.313 22.6152   1
  -2  10  10 448.141 22.0784   2
   2  10  10 516.878 22.5694   1
   2  10  10 447.918 22.2070   2
 -10 -10   4 244.755 11.7908   2
 -10  -4  10 231.624 11.6611   2
 -10   4  10 241.825 12.0719   1
 -10   4  10 230.244 11.4131   2
 -10  10   4 240.721 11.9200   1
  -4 -10  10 244.406 11.6463   2
  -4  10  10 240.662 11.9875   1
  -4  10  10 237.179 11.4057   2
   4  10  10 252.500 11.7503   1
   4  10  10 228.130 11.5937   2
 -10 -10   6 392.160 18.0791   2
 -10  -6  10 374.804 17.9818   2
 -10   6  10 380.634 18.3285   1
 -10   6  10 368.019 17.5330   2
 -10  10   6 384.281 18.3341   1
  -6 -10  10 408.718 18.0902   2
  -6  10  10 372.671 18.2514   1
  -6  10  10 363.744 17.4773   2
   6  10  10 400.227 17.8801   1
   6  10  10 366.944 17.9108   2
  10   6  10 377.025 17.9663   2
 -10 -10   8 164.746 8.56679   2
 -10  -8  10 156.585 8.46473   2
 -10   8  10 158.829 8.83966   1
 -10   8  10 155.183 7.91017   2
 -10  10   8 165.736 8.92962   1
 -10  10   8 163.088 7.55724   2
  -8 -10  10 169.350 8.58317   2
  -8  10  10 168.673 8.98134   1
  -8  10  10 159.387 7.91688   2
   8  10  10 169.282 8.24292   1
   8  10  10 154.527 8.42870   2
  10   8  10 165.147 8.56238   2
  10  10   8 162.003 8.24757   1
  10  10   8 158.483 8.49001   2
 -10 -10  10 213.268 10.7322   2
 -10  10  10 202.360 11.0069   1
 -10  10  10 205.229 9.81527   2
  10  10  10 213.923 10.7739   2
 -11  -1  -1 169.655 7.87573   2
 -11  -1   1 163.333 7.87516   2
 -11   1  -1 164.303 7.69338   2
 -11   1   1 170.567 7.76510   2
  -1  -1  11 166.391 8.07137   2
  -1  -1  11 148.032 8.41834   3
  -1   1  11 164.114 7.86128   1
  -1   1  11 169.312 8.07663   2
  -1  11  -1 168.930 8.22787   1
  -1  11   1 162.340 8.22306   1
  -1  11   1 164.693 8.00972   4
   1  -1  11 167.765 8.05780   2
   1   1  11 154.326 7.96007   2
   1  11  -1 169.639 8.22991   4
   1  11   1 164.066 8.27636   1
   1  11   1 170.890 8.27054   4
  11   1   1 169.898 8.35932   4
 -11  -1  -3 409.028 18.4864   2
   3   1  11 403.425 18.6715   2
  -1  11  -3 414.836 18.8807   1
 -11   1   3 429.868 18.9714   1
 -11   1   3 421.263 18.4971   2
 -11   1   3 396.586 18.8706   4
   1  11   3 410.871 18.9889   4
  -3  11   1 406.223 18.9517   1
  -3  11   1 393.575 18.0805   2
  -3  11   1 390.765 18.3003   4
   3  11  -1 419.660 19.1245   4
 -11  -3   1 418.107 18.6889   2
  -1   3  11 433.365 18.7036   1
  -1   3  11 393.715 18.6901   2
   1  -3  11 418.321 18.7380   2
   1  -3  11 409.526 18.8331   3
  -3  -1  11 403.090 18.7369   2
 -11   3  -1 429.917 18.6168   1
  11  -1   3 417.732 18.7897   4
  11   3   1 397.299 19.1633   4
  -1  -3  11 420.144 18.7671   2
  11   1   3 405.178 18.9904   4
  -1  11   3 394.854 18.3352   2
   1   3  11 401.323 18.6935   2
  -3  11  -1 414.366 18.8981   1
   3  -1  11 401.296 18.6496   2
 -11  -1   3 416.128 18.6197   2
   3  11   1 393.112 19.0382   4
 -11   3   1 431.175 18.8004   1
 -11   3   1 399.583 18.1936   2
   1   3  11 426.266 18.5277   1
  -3   1  11 439.502 18.7949   1
  -3   1  11 391.122 18.6947   2
  -3   1  11 410.776 18.8882   3
 -11  -1   3 408.295 19.1101   4
  -1  -3  11 418.555 18.9519   3
  -1  11   3 394.337 18.7410   4
 -11  -3  -1 402.299 18.6194   2
  -3  11   3 606.216 27.2469   1
   3  11   3 587.074 27.3169   4
  11   3   3 557.037 27.3028   4
 -11   3   3 602.809 26.5055   2
  -3  11   3 571.322 26.3708   2
  -3  -3  11 616.580 27.0174   2
  -3   3  11 646.792 27.0978   1
  -3  11   3 584.506 26.7028   4
   3 -11  -3 588.999 26.5457   3
   3   3  11 557.201 26.8485   2
   3  11   3 594.189 27.2069   1
  -3   3  11 585.510 26.9218   2
  -3  11  -3 634.577 27.0900   1
 -11  -3  -3 605.106 26.8293   2
 -11  -3   3 610.735 26.9377   2
 -11  -3   3 614.407 27.5541   4
 -11   3   3 626.437 27.1536   1
 -11   3   3 587.661 26.8459   4
 -11  -5   1 50.0464 3.00056   2
  11  -1   5 52.6156 3.06824   4
  11   5   1 45.7828 3.25377   4
  -5  11   1 50.7559 3.21503   1
  -5  -1  11 46.7378 2.93752   2
  -1   5  11 47.8873 2.90739   2
   1  -5  11 54.5511 3.12091   3
 -11   1   5 47.1209 3.13525   4
 -11   1   5 52.2031 3.19761   1
   1  11   5 44.6559 2.76262   2
   5   1  11 42.1884 2.81211   2
 -11   5  -1 51.7401 2.88944   1
   1 -11  -5 54.1678 2.93847   3
   1  11   5 50.2981 3.16507   1
   5  11  -1 49.2741 3.39010   4
   1  11   5 53.1735 3.41375   4
 -11   1   5 48.3420 2.83454   2
  -1   5  11 53.5902 3.00904   1
  -5 -11  -1 49.5179 2.91523   2
  -1  11   5 51.4512 3.25025   4
 -11  -1   5 47.0033 2.87991   2
  -1  11   5 47.3250 2.72366   2
  -5   1  11 54.6513 3.29696   1
  -5   1  11 50.3722 3.18012   3
  -1  11   5 49.2361 3.14978   1
 -11   5   1 49.1626 2.95192   1
  -5 -11   1 47.0478 2.87232   2
   1   5  11 47.4531 2.94175   2
  -5  11  -1 53.0258 3.12129   1
 -11  -5  -1 49.0230 2.97000   2
  11   1   5 48.3593 3.14318   4
   1   5  11 51.0343 2.88311   1
   5  11   1 58.2588 3.62866   4
  -5   1  11 46.5854 2.95335   2
 -11  -1   5 42.6142 3.12114   4
  -5  -3  11 115.104 5.96508   2
   3  11   5 123.404 6.54297   4
   5   3  11 113.550 5.90598   2
   3  11   5 115.753 6.14746   1
  -3  11  -5 121.723 5.94913   1
  -5  11   3 118.948 5.40544   4
 -11  -5   3 108.456 6.65010   2
  -5  11   3 117.682 5.26008   2
  11  -3   5 116.077 5.67479   4
  11   5   3 110.005 6.35600   4
  -3 -11   5 121.729 6.35426   4
  -3   5  11 97.3837 6.54903   2
  -5  11   3 119.843 6.24837   1
 -11   3   5 116.270 6.00597   4
  -5 -11  -3 116.569 5.89580   2
  -3   5  11 109.545 6.89001   1
 -11   3   5 116.820 6.16971   1
 -11   3   5 117.820 5.65960   2
 -11  -3   5 108.349 6.36205   4
 -11  -5  -3 116.159 6.60245   2
  -3  -5  11 116.121 5.96003   2
  -5   3  11 128.444 6.23570   1
  -5   3  11 103.872 6.38897   2
   3   5  11 110.050 5.69076   1
   3   5  11 104.759 5.83621   2
   5  11   3 114.311 6.42608   4
  -3  11   5 118.019 6.23885   1
  -3  11   5 114.528 5.55062   2
 -11  -3   5 114.118 6.33408   2
  -5 -11   3 106.626 5.84248   2
  -5  11  -3 122.249 5.95655   1
  -5   3  11 118.405 6.11329   3
 -11   5   3 118.007 6.07078   1
  11   3   5 102.323 6.15730   4
 -11   5   3 115.641 5.35034   2
  -5 -11   5 2.57118 1.00552   2
  -5   5  11 2.78393 0.61455   1
  -5   5  11 3.26667 0.64349   2
  -5  11  -5 3.55547 0.81027   1
  11   5   5 2.87754 1.00886   4
 -11  -5   5 2.41184 0.61365   2
  -5  11   5 2.22535 0.66518   1
  -5  11   5 2.36583 0.57284   2
  -5  -5  11 2.95678 1.04466   4
 -11   5   5 2.40735 0.54225   2
 -11   7  -1 486.886 20.8316   1
  11  -1   7 425.232 20.9152   4
  -7  -1  11 449.054 20.9317   2
  -7 -11  -1 464.159 20.9554   2
  -1   7  11 495.612 21.1420   1
 -11   1   7 484.484 21.4291   1
 -11   1   7 442.052 20.7563   2
 -11  -7   1 473.797 21.0528   2
   7   1  11 440.038 20.7820   2
  -7  11   1 478.155 21.1573   1
   1  11   7 425.412 20.7008   2
   1  -7  11 484.469 21.4946   4
  -1 -11   7 465.094 21.1814   4
  -1   7  11 425.187 20.7950   2
   1  11   7 469.993 21.2459   1
  -7   1  11 444.487 21.0486   3
   7  11   1 466.101 21.6607   4
  -1 -11  -7 414.849 20.8331   3
  -1  11   7 438.693 20.6396   2
  -7   1  11 424.172 20.8346   2
 -11   7   1 472.393 20.9814   1
  -1  11   7 455.994 21.2372   1
  -7   1  11 496.591 21.3536   1
   1   7  11 436.613 20.8536   2
  -1  -7  11 502.815 21.7364   4
 -11  -1   7 462.955 20.8914   2
  11   1   7 435.451 21.1784   4
 -11  -7  -1 442.849 20.9682   2
   1   7  11 478.657 21.4146   1
  -7 -11   1 450.026 20.9119   2
  -7  11  -1 480.773 21.0331   1
  11   7  -1 456.158 21.6912   4
   1 -11   7 408.587 21.2258   4
 -11  -7   3 718.586 32.7530   2
  -3   7  11 702.657 32.5501   2
  -7  -3  11 656.440 32.5996   2
  -7 -11  -3 792.499 32.9412   2
   3  11   7 689.475 33.2329   4
  -3 -11   7 736.874 33.1880   4
   7   3  11 729.352 32.6460   2
  -7  11   3 728.323 32.9508   1
  -3  11  -7 777.466 32.5187   1
 -11   3   7 726.103 33.0483   1
  -3   7  11 741.364 32.8887   1
   3  11   7 732.812 32.9131   1
   3  -7  11 697.694 32.4339   3
   3  11   7 692.979 32.5284   2
  11  -3   7 671.331 32.2590   4
 -11   3   7 728.062 32.3908   2
  -3  -7  11 784.959 32.8080   2
 -11   7   3 725.863 32.8249   1
  -7   3  11 673.354 32.5228   2
 -11  -3   7 744.255 32.7472   2
  -3  -7  11 794.119 33.6487   4
   7  11   3 694.827 33.2903   4
  -7   3  11 760.761 33.0474   1
 -11  -7  -3 723.550 32.6962   2
   3   7  11 687.860 32.6002   2
  11   3   7 725.302 33.8336   2
  -7  11  -3 752.116 32.5661   1
  -7 -11   3 734.419 32.6906   2
   3   7  11 804.206 32.6404   1
  -3  11   7 719.487 33.0070   1
  -3  11   7 676.829 32.2104   2
  -5 -11   7 195.942 10.7660   4
  -7  11   5 211.478 10.5796   1
   5  11   7 190.119 10.0932   2
 -11   5   7 210.641 9.82204   2
 -11  -7   5 211.347 10.3371   2
   5  11   7 219.051 11.0842   4
   7   5  11 218.007 10.3395   2
 -11   5   7 209.061 10.5426   1
  -7  -5  11 205.027 10.2682   2
   5  11   7 211.175 10.3994   1
  -5   7  11 218.517 10.5866   1
  -5 -11   7 206.543 10.1263   2
  -5   7  11 210.162 10.1283   2
  -5  11   7 217.631 9.78959   2
  -7 -11   5 221.575 10.5074   2
 -11   7   5 210.409 10.4863   1
  -5  -7  11 174.558 10.5494   4
  -7   5  11 204.474 10.0992   2
 -11   7   5 204.197 9.74028   4
   5   7  11 221.893 10.0943   1
   5   7  11 205.348 10.2514   2
   7  11   5 189.528 10.7593   4
 -11   7   5 211.620 9.45007   2
  -7   5  11 221.053 10.6370   1
  -5  11   7 217.234 10.6404   1
 -11  -5   7 210.812 10.3245   2
  -7  11   7 689.215 30.5479   2
  -7  11   7 682.791 31.7247   1
 -11   7   7 692.191 30.6052   2
  -7   7  11 706.691 31.7511   1
  -7   7  11 684.562 31.0703   2
 -11  -7   7 703.398 31.4425   2
 -11   7   7 695.166 31.7006   1
   7   7  11 683.844 31.3645   2
  -7 -11   7 725.196 31.3931   2
  -7  -7  11 693.252 31.4129   2
   7  11   7 627.464 31.1638   2
   7  11   7 706.324 31.4236   1
   1  11   9 1.08343 0.51279   2
  -1   9  11 0.37660 0.55952   1
 -11  -9   1 1.11168 0.60787   2
  -1   9  11 0.95636 0.46371   2
   1  11   9 0.71048 0.59428   1
  -9  11   1 1.01163 0.63095   1
 -11   1   9 0.50242 0.46082   2
  -9  -1  11 1.41213 0.52952   2
   1   9  11 1.11770 0.68663   1
  -1  11   9 0.96578 0.47451   2
 -11  -1   9 0.36294 0.52047   2
  -1  11   9 1.37828 0.59900   1
  -9   1  11 0.70848 0.50288   2
 -11  -9  -1 0.86640 0.55485   2
  -9  11  -1 0.19828 0.64571   1
  -3   9  11 14.9725 1.34072   2
   9   3  11 13.4151 1.50991   2
 -11   3   9 12.5821 1.17677   2
  -9 -11  -3 14.6367 1.38677   2
 -11   3   9 15.4852 1.59799   1
 -11  -9   3 15.5460 1.42104   2
  -9  11   3 16.2242 1.52886   1
  -9  -3  11 15.3220 1.41339   2
  -3   9  11 16.1568 1.49415   1
  11  -3   9 15.6226 1.63736   4
   3  -9  11 15.6422 1.28360   3
   3  11   9 14.7227 1.37519   2
   3  11   9 14.8591 1.46847   1
  -9   3  11 12.7542 1.26101   2
 -11  -3   9 14.5160 1.38030   2
  -9 -11   3 13.7443 1.41775   2
   3   9  11 13.8764 1.35511   2
   3   9  11 14.9587 1.40239   1
  -3  11   9 14.0796 1.45211   1
 -11   9   3 11.6197 1.36535   1
  -3  11   9 14.2518 1.18482   2
 -11  -9  -3 13.2933 1.32668   2
  -9   3  11 15.0103 1.48573   1
   5  11   9 2.38658 0.78892   1
  -5   9  11 2.26030 0.68348   1
  -9  -5  11 2.63350 0.76791   2
  -5 -11   9 2.32324 1.21457   2
 -11   5   9 2.14697 0.61911   2
   5  11   9 1.65124 0.63417   2
   9   5  11 1.35641 0.90811   2
  -9  11   5 2.86886 0.72229   1
   5   9  11 3.13909 0.76491   2
  -9   5  11 2.82253 0.65584   2
  -5  11   9 2.07135 0.73531   1
 -11   9   5 2.11913 0.73630   1
   5   9  11 3.14845 0.94015   1
  11   5   9 2.26312 0.86524   2
  11   9   7 22.1514 1.68126   1
   7  11   9 22.4547 1.85567   1
 -11   7   9 18.9079 1.48077   2
   7  11   9 19.1827 1.82803   2
  -9  11   7 23.1272 2.13820   1
  -9  -7  11 23.0750 1.88314   2
  -7   9  11 19.1654 1.97390   1
  -7   9  11 20.8090 1.61541   2
  -7 -11   9 20.5194 1.88288   2
   9   7  11 22.2823 1.88284   2
 -11  -9   7 20.8170 1.87263   2
 -11   7   9 22.9632 2.12321   1
   9  11   7 20.1413 1.72288   1
 -11   9   7 17.8765 1.84013   1
 -11   9   7 22.9148 1.47317   2
  -7  -9  11 20.7561 1.88561   2
  -9   7  11 24.6882 2.10948   1
  -9   7  11 21.8197 1.64004   2
   7   9  11 18.2865 2.23352   1
  -7  11   9 24.9956 2.20358   1
  -7  11   9 21.0348 1.54086   2
  11   7   9 22.0453 1.94985   2
  -9 -11   7 22.6609 1.85166   2
   7   9  11 20.6296 1.90694   2
 -11  -7   9 21.7255 1.91813   2
 -11  -9   9 14.3293 1.46984   2
 -11   9   9 15.7840 1.73797   1
 -11   9   9 13.6169 1.13246   2
  -9 -11   9 14.1729 1.57552   2
  -9  -9  11 13.2993 1.58352   2
  -9   9  11 13.4517 1.68722   1
  -9   9  11 13.7244 1.24253   2
  -9  11   9 13.5202 1.66025   1
   9  11   9 11.8084 1.33948   1
   9  11   9 14.0004 1.46570   2
  11   9   9 15.7696 1.57977   2
 -11 -11  -1 435.502 20.4620   2
 -11 -11   1 448.358 20.5356   2
 -11  -1  11 418.814 20.2734   2
 -11   1  11 424.406 20.2240   2
 -11  11  -1 471.990 20.3446   1
 -11  11   1 459.246 20.5200   1
  -1  11  11 442.248 20.6141   1
  -1  11  11 410.823 20.1118   2
   1  11  11 458.540 20.5816   1
   1  11  11 396.607 20.1311   2
 -11 -11  -3 564.875 25.5153   2
 -11 -11   3 560.458 25.5293   2
 -11  -3  11 531.616 25.3609   2
 -11   3  11 561.689 25.8983   1
 -11   3  11 545.079 25.1804   2
 -11  11   3 592.289 25.7742   1
  -3  11  11 574.163 25.7959   1
  -3  11  11 540.365 25.1195   2
   3 -11  11 494.438 24.6878   3
   3  11  11 598.518 25.5844   1
   3  11  11 504.090 25.2187   2
 -11 -11   5 180.050 9.27579   2
 -11  -5  11 172.519 9.18390   2
 -11   5  11 177.908 9.60585   1
 -11   5  11 172.052 8.85610   2
 -11  11   5 186.716 9.61044   1
  -5 -11  11 185.165 9.19552   2
  -5  11  11 178.471 9.52517   1
  -5  11  11 176.014 8.83798   2
   5  11  11 194.348 9.25313   1
   5  11  11 166.833 9.11887   2
  11   5  11 178.950 9.16287   2
 -11 -11   7 601.812 28.0518   2
 -11  -7  11 573.791 27.9422   2
 -11   7  11 588.609 28.3376   1
 -11   7  11 585.862 27.3794   2
 -11  11   7 602.012 28.4094   1
  -7 -11  11 619.772 28.0403   2
  -7  11  11 604.233 28.4194   1
  -7  11  11 588.830 27.3466   2
   7  11  11 660.521 27.8709   1
   7  11  11 571.162 27.9106   2
  11   7  11 655.331 28.2186   2
  11  11   7 631.032 27.8778   1
 -11 -11   9 35.0875 2.71475   2
 -11  -9  11 35.0892 2.69068   2
 -11   9  11 34.9811 2.89306   1
 -11   9  11 34.5975 2.17160   2
 -11  11   9 35.4297 2.98214   1
  -9 -11  11 36.2273 2.71774   2
  -9  11  11 33.2530 2.83227   1
  -9  11  11 33.8802 2.17070   2
   9  11  11 34.0625 2.67392   2
  11   9  11 37.2498 2.79666   2
  11  11   9 31.1035 2.62583   2
 -11 -11  11 451.939 21.6692   2
 -11  11  11 448.877 22.0524   1
  11  11  11 470.499 21.7815   2
 -12   0   0 2467.74 108.645   2
   0   0  12 2460.31 107.119   2
   0  12   0 2377.65 110.034   1
   0  12   0 2468.45 109.004   4
 -12   0  -2 0.16020 0.39002   2
 -12   0   2 0.44187 0.36403   2
  -2  12   0 0.85219 0.40851   2
   0  -2  12 0.03851 0.61889   2
   0   2  12 0.65518 0.62405   1
   0   2  12 0.02974 0.48519   2
   2  12   0 0.14218 1.11228   4
  12   0   2 0.06060 0.68421   4
 -12   2   0 0.24451 0.38474   2
  -2   0  12 0.60765 0.54901   2
   0  12   2 0.19900 0.44494   1
   0  12   2 0.73241 0.97128   4
 -12  -2   0 0.81103 0.41856   2
  -2  12   2 0.42744 0.38277   2
  -2  12   2 0.46021 0.45552   1
  -2   2  12 1.16029 0.59151   1
 -12  -2  -2 0.42110 0.39915   2
 -12  -2   2 0.31642 0.41680   2
 -12   2   2 0.70697 0.36257   2
  -2   2  12 0.35615 0.49723   2
  -2  12  -2 0.31604 0.51060   1
  12   2   2 0.95177 0.73989   4
   2  12   2 0.38793 0.44601   1
   2  12   2 2.04717 1.15935   4
   2   2  12 1.30812 0.59867   2
  -2  -2  12 0.92380 0.64202   2
 -12   4   0 2474.95 101.561   1
   0  -4  12 2366.70 100.499   2
   0  -4  12 2420.97 101.988   3
  -4 -12   0 2243.71 100.338   2
  -4  12   0 2375.54 103.076   1
 -12   0   4 2146.44 100.703   4
  -4   0  12 2385.10 101.618   1
  -4   0  12 1947.40 103.004   2
   0  12   4 2280.30 101.232   4
   4   0  12 2250.87 100.364   2
  12   4   0 2114.78 100.945   4
  -4   0  12 2263.40 100.909   3
   0  12   4 2314.41 104.168   1
   0  12   4 2159.16 100.833   2
   0   4  12 2566.90 100.607   1
  12   0   4 2332.06 101.267   4
 -12  -4   0 2354.71 102.612   2
  -2   4  12 55.5881 3.18615   1
 -12   2   4 51.4776 2.90624   2
 -12   2   4 48.3278 3.17297   4
  -4  -2  12 48.8164 3.12444   2
  12   4   2 51.7083 3.54235   4
  -4  12   2 53.5997 3.41927   1
  -4  12   2 52.7408 2.55712   2
   2  12   4 54.0977 3.42034   1
 -12   2   4 56.5835 3.40090   1
   4   2  12 46.0196 3.01503   2
  12  -2   4 54.1219 3.10211   4
  -4 -12  -2 49.1786 3.11294   2
  -2   4  12 51.1431 3.14669   2
   2  12   4 52.1193 3.53314   4
 -12  -4   2 51.8819 3.13309   2
  -4  12   2 57.8604 2.75372   4
  -4   2  12 54.8822 3.34416   3
 -12  -4  -2 50.8327 3.09773   2
  -4  12  -2 55.4718 3.29412   1
  -2  -4  12 50.9194 3.14689   2
   4  12   2 58.4266 3.74093   4
 -12   4   2 52.0749 2.64898   2
  12   2   4 50.1124 3.37785   4
  -2  12   4 52.3407 3.35698   1
  -2  12   4 50.3084 2.81241   2
  -2  12   4 51.6382 3.23163   4
 -12   2  -4 51.7747 2.65923   3
  -4   2  12 51.9002 3.17639   2
 -12   4   2 52.8288 3.18710   1
  -4   2  12 58.3221 3.57836   1
 -12  -2   4 52.2069 3.10464   2
   2   4  12 48.9006 3.18008   2
 -12   4   4 1903.57 83.2389   1
 -12   4   4 1898.15 82.0338   2
 -12   4   4 1820.32 81.9849   4
  -4  -4  12 1869.98 82.3877   2
  -4   4  12 2036.06 83.5274   1
 -12  -4   4 1822.93 82.2413   2
 -12  -4  -4 1825.74 82.1217   2
  -4   4  12 1831.20 82.5604   2
  -4  12   4 1870.66 83.1463   1
  -4  12   4 1841.82 81.5067   2
   4   4  12 1928.71 84.0345   2
   4  12   4 1901.56 84.4805   1
   4  12   4 1777.63 82.6793   4
   6   0  12 0.75028 0.88989   2
  -6   0  12 1.62994 1.09317   3
 -12  -6   0 0.83588 0.43929   2
  -6 -12   0 0.86124 0.84270   2
   0  -6  12 1.86430 0.99532   3
   0  12   6 1.68870 1.48979   4
   0  12   6 0.27982 0.53902   1
  -6   0  12 0.59313 0.45700   2
   6   2  12 3.12597 0.92615   2
 -12   6  -2 1.71320 0.71950   1
  -6 -12  -2 3.13762 0.93632   2
 -12   2   6 1.83934 0.57291   2
  -6  -2  12 1.68626 0.52273   2
   2  12   6 2.35289 0.54133   2
 -12   2   6 2.20116 0.68352   1
  -6  12   2 2.62571 0.69747   1
  -2  12  -6 1.57231 0.91785   1
  -2   6  12 2.09598 0.62903   1
   2  12   6 2.18813 0.58451   1
 -12  -6   2 2.09445 0.53832   2
  -2   6  12 2.43845 0.57624   2
  -6 -12   2 2.65904 0.87786   2
  -6   2  12 2.07005 0.62724   1
  -6   2  12 2.01066 0.61348   2
  -2  -6  12 2.68488 1.30056   4
 -12  -6  -2 2.76230 0.66181   2
   2   6  12 2.03092 0.53940   2
  -6  12  -2 3.19924 0.78307   1
  -2  -6  12 1.56623 0.93538   2
 -12  -2   6 1.96450 0.56144   2
  -2  12   6 2.03995 0.51396   2
  -2  12   6 2.56465 0.67682   1
   4  12   6 50.4497 3.28339   1
   6   4  12 43.3721 2.91838   2
  -4  12  -6 48.6674 2.92752   1
  -4   6  12 49.3104 3.25585   1
   4  12   6 46.6019 2.92720   2
  -4   6  12 46.0674 2.92415   2
 -12   4   6 47.4502 2.71783   2
  -6  12   4 45.8996 3.18321   1
 -12   4   6 47.8293 3.25241   1
  -6  -4  12 45.4608 3.04540   2
   4  12   6 54.7009 3.73916   4
 -12  -6   4 47.6942 3.07371   2
 -12   6   4 46.5811 3.11920   1
 -12  -6  -4 46.1357 3.01244   2
  -6  12  -4 47.4456 3.17114   1
 -12  -4   6 47.8424 3.06846   2
  -4  12   6 47.3624 3.28784   1
  -6 -12   4 41.1769 2.85456   2
   4   6  12 45.5369 2.99819   2
   6  12   4 50.5646 3.58342   4
 -12   6   4 46.4005 2.37773   2
  -6   4  12 51.5823 3.27836   1
  -6   4  12 45.3780 2.94162   2
  -4  12   6 46.4598 2.61917   2
   4 -12   6 46.3136 2.31468   3
  -6  12   6 5.29516 0.69460   2
  -6 -12   6 7.42759 1.96908   2
  -6   6  12 5.84373 0.88491   1
  -6   6  12 4.66956 0.77711   2
  -6  12   6 6.47260 0.95232   1
 -12  -6   6 6.51805 0.87912   2
 -12   6   6 6.21272 0.93465   1
 -12   6   6 4.40841 0.67990   2
   6   6  12 5.45570 0.97505   2
   6  12   6 5.50005 0.92603   1
  -8 -12   0 1495.30 64.3093   2
  -8  12   0 1536.76 64.4448   1
   0   8  12 1359.71 64.1053   2
 -12  -8   0 1439.97 64.3594   2
   0  12   8 1466.67 64.6325   1
   0  12   8 1402.07 63.9706   2
  -8   0  12 1372.88 64.1842   2
 -12   0   8 1438.34 64.1175   2
 -12   8   0 1559.77 64.2335   1
 -12   2   8 174.759 8.70390   2
  -2  12  -8 190.678 8.87346   1
 -12   2   8 179.998 9.33980   1
   8   2  12 176.438 8.84853   2
 -12  -8   2 181.871 9.07092   2
  -8  -2  12 171.297 8.93895   2
  -2   8  12 190.839 9.16886   1
  -2   8  12 172.980 8.86563   2
   2  -8  12 185.427 8.86008   3
  -8  12   2 186.208 9.22889   1
   2  12   8 172.846 8.79259   2
  -8 -12  -2 175.118 8.90990   2
   2  12   8 175.060 9.14966   1
 -12  -2   8 179.177 8.94368   2
  -2  12   8 169.635 8.58249   2
 -12  -8  -2 172.297 8.95505   2
   2   8  12 166.101 8.85617   2
 -12   8   2 176.574 8.97769   1
  -2  -8  12 175.960 8.93323   2
  -8   2  12 163.755 8.81053   2
  -8   2  12 162.325 8.88352   3
   2   8  12 196.706 8.99296   1
  -8 -12   2 170.310 8.88165   2
  -8   2  12 188.915 9.34612   1
  -8  12  -2 186.916 8.92756   1
  -2  12   8 177.126 9.25913   1
 -12   4   8 1394.83 61.5290   2
   8   4  12 1405.84 61.9604   2
   4  12   8 1399.60 62.1925   1
  -8  12   4 1429.77 62.3754   1
 -12   4   8 1395.21 62.3824   1
  -4   8  12 1443.79 62.2942   1
  -8  -4  12 1353.39 61.9613   2
   4  12   8 1328.26 61.8130   2
  -4   8  12 1344.16 61.7839   2
 -12  -8   4 1381.15 62.0667   2
   4   8  12 1280.05 61.8227   2
  -8  12  -4 1484.09 61.6904   1
  12   4   8 1467.67 62.1123   2
  -8 -12   4 1400.70 61.9648   2
 -12  -8  -4 1405.39 62.0255   2
  -4  -8  12 1461.22 62.0547   2
 -12   8   4 1383.66 62.1550   1
  -8   4  12 1448.02 62.3944   1
 -12  -4   8 1338.16 61.9382   2
  -4  12   8 1336.59 62.2913   1
  -4  12   8 1371.75 61.4219   2
  -8   4  12 1323.21 61.7692   2
   4   8  12 1563.57 61.8502   1
 -12   6   8 153.329 7.40609   2
 -12  -8   6 152.536 8.05192   2
 -12   6   8 147.979 8.23818   1
  -6   8  12 160.002 8.37975   1
   6  12   8 145.672 7.90289   2
   8   6  12 153.797 8.00707   2
   6  12   8 156.192 8.10652   1
  -8  12   6 150.367 8.30409   1
  -8  -6  12 141.766 7.92414   2
  -6 -12   8 153.322 7.86122   2
  -6   8  12 149.810 7.75143   2
  12   6   8 162.404 8.07738   2
 -12  -6   8 151.431 8.02559   2
  -6  12   8 155.235 7.37305   2
   8  12   6 156.316 8.13673   1
  -8   6  12 158.120 8.34582   1
  -6  12   8 148.716 8.32288   1
 -12   8   6 153.255 8.24408   1
  -8 -12   6 150.872 7.90837   2
   6   8  12 151.391 8.00524   2
  -6  -8  12 158.531 8.08357   2
  -8   6  12 148.785 7.75848   2
  -8 -12   8 924.294 40.2382   2
 -12  -8   8 850.195 40.1612   2
  -8   8  12 888.786 40.5504   1
 -12   8   8 923.083 39.1900   2
  12   8   8 931.218 40.3048   2
 -12   8   8 853.275 40.4750   1
  -8   8  12 848.741 39.7264   2
  -8  12   8 859.529 40.5395   1
  -8  12   8 915.144 39.0968   2
   8   8  12 886.744 40.2292   2
   8  12   8 925.312 40.2392   1
   8  12   8 862.028 40.1230   2
  -8  -8  12 890.677 40.2331   2
 -12 -10   0 0.76898 0.64553   2
 -10   0  12 0.93451 0.51557   2
   0  12  10 1.00728 0.58340   2
 -12  10   0 0.59533 0.73897   1
 -10  12   0 1.36880 0.75685   1
   0  10  12 0.76509 0.71220   1
 -10 -12   0 1.81144 0.72500   2
 -10  12   2 2.99640 0.78948   1
 -12  10  -2 2.28529 0.88383   1
   2  12  10 2.47602 0.70396   2
   2  12  10 2.32068 0.88653   1
  -2  10  12 1.75980 0.72054   1
 -10 -12  -2 1.76728 0.77167   2
 -12 -10   2 2.62974 0.80568   2
 -12   2  10 2.32256 0.68673   2
 -10   2  12 2.52512 0.82926   1
   2  10  12 2.86398 0.75669   2
 -10   2  12 1.50017 0.58142   2
  -2  12  10 2.56149 0.80140   1
   2  10  12 3.60413 0.90107   1
 -10  -4  12 33.7831 2.55210   2
 -12   4  10 39.1428 2.99191   1
 -12   4  10 34.9299 2.34196   2
   4  12  10 33.8236 2.60918   1
  -4  10  12 33.0992 2.72564   1
 -12 -10   4 37.9181 2.67689   2
 -10  12   4 37.6956 2.73749   1
  10   4  12 34.8622 2.59857   2
   4  12  10 33.7928 2.50805   2
  -4  10  12 33.9053 2.45929   2
   4  10  12 35.4612 2.46137   1
  -4  12  10 35.6731 2.90430   1
 -12  -4  10 34.4728 2.58643   2
 -10   4  12 36.1724 2.81006   1
 -10   4  12 32.9458 2.39276   2
  -4  12  10 35.8640 2.35969   2
 -12  10   4 33.9481 2.62847   1
  12   4  10 29.8222 2.43092   2
  -4 -10  12 29.8133 2.53593   2
 -10 -12   4 37.7693 2.61562   2
   4  10  12 33.8341 2.51464   2
  10   6  12 32.5314 2.57070   2
 -12 -10   6 32.3674 2.48560   2
  -6  10  12 29.7275 2.70654   1
  -6  10  12 30.1042 2.17860   2
 -10  12   6 32.4927 2.66732   1
   6  12  10 28.9734 2.33929   1
  -6 -12  10 29.3766 2.42046   2
 -10  -6  12 34.3801 2.51291   2
 -12   6  10 29.2144 2.04848   2
 -12   6  10 33.4353 2.66244   1
   6  12  10 29.7553 2.44678   2
  10  12   6 31.1691 2.42141   1
   6  10  12 31.7130 2.47301   2
 -10   6  12 31.6584 2.77095   1
 -10   6  12 29.8204 2.16373   2
  -6  12  10 33.1332 2.09667   2
 -10 -12   6 33.2981 2.43766   2
 -12  10   6 29.9541 2.50364   1
  12   6  10 31.8188 2.46932   2
 -12  -6  10 28.6072 2.34486   2
  -6  12  10 33.1835 2.71481   1
  -6 -10  12 28.5959 2.41761   2
   6  10  12 28.9487 2.20482   1
  -8 -12  10 110.019 6.07911   2
   8  12  10 111.788 5.99481   1
  -8  10  12 108.733 6.50543   1
  -8  10  12 106.600 5.68020   2
 -10  -8  12 112.733 6.26782   2
  12  10   8 111.486 6.22399   2
 -12 -10   8 103.536 6.10451   2
 -12   8  10 109.638 6.50127   1
 -12   8  10 114.222 5.47078   2
  12  10   8 98.7710 5.78604   1
 -10  12   8 104.733 6.47551   1
  10   8  12 115.647 6.29024   2
   8  12  10 103.369 6.12057   2
  10  12   8 103.110 6.14222   2
   8  10  12 104.678 6.12171   2
 -10   8  12 103.268 6.42440   1
 -10   8  12 104.703 5.68632   2
  12   8  10 115.414 6.31152   2
  -8  12  10 104.327 6.49482   1
  -8  12  10 105.462 5.37583   2
 -12  -8  10 101.655 6.07743   2
 -12  10   8 104.905 6.40525   1
  -8 -10  12 106.028 6.08069   2
 -10 -12   8 112.586 6.20599   2
  10  12   8 103.933 5.93961   1
 -12 -10  10 54.7843 3.64118   2
 -10 -12  10 57.8930 3.76354   2
 -10 -10  12 54.3097 3.63486   2
 -10  10  12 50.6662 4.63818   1
 -10  10  12 53.1374 3.11904   2
 -10  12  10 50.2687 4.55070   1
  10  10  12 56.6528 3.80283   2
  10  12  10 45.6354 3.26328   1
  10  12  10 54.0728 3.74242   2
  12  10  10 58.4090 3.83980   2
 -12 -12   0 875.885 39.5532   2
 -12   0  12 843.307 39.2755   2
 -12  12   0 928.930 39.4325   1
   0  12  12 883.638 39.6408   1
   0  12  12 826.867 39.1639   2
 -12 -12  -2 291.175 14.0759   2
 -12 -12   2 283.778 14.0332   2
 -12  -2  12 276.161 13.8545   2
 -12   2  12 280.615 13.7358   2
 -12  12   2 297.863 14.1120   1
  -2  12  12 290.922 14.2250   1
  -2  12  12 275.354 13.6765   2
   2  12  12 299.599 14.0784   1
   2  12  12 269.927 13.7680   2
 -12 -12   4 689.032 32.0798   2
 -12  -4  12 681.078 31.9816   2
 -12   4  12 687.018 32.4433   1
 -12   4  12 676.483 31.6240   2
 -12  12   4 737.945 32.3891   1
  -4  12  12 691.835 32.3110   1
  -4  12  12 694.196 31.6268   2
   4  12  12 743.492 32.0386   1
   4  12  12 641.236 31.8165   2
  12   4  12 751.221 32.1352   2
 -12 -12   6 238.896 12.0492   2
 -12  -6  12 223.124 11.9134   2
 -12   6  12 230.114 12.3484   1
 -12   6  12 233.189 11.4659   2
 -12  12   6 226.143 12.2076   1
  -6 -12  12 243.883 11.9385   2
  -6  12  12 234.382 12.3063   1
  -6  12  12 234.066 11.4526   2
   6  12  12 251.075 11.8145   1
   6  12  12 233.066 11.9443   2
  12   6  12 262.106 12.1759   2
  12  12   6 246.570 11.9501   1
 -12 -12   8 508.523 23.8691   2
 -12  -8  12 479.919 23.7572   2
 -12   8  12 502.331 23.0096   2
  -8 -12  12 539.592 23.9195   2
  -8  12  12 498.379 22.9689   2
   8  12  12 483.310 23.7570   2
  12   8  12 545.771 24.0558   2
  12  12   8 517.066 23.5423   1
  12  12   8 491.255 23.8203   2
 -12 -12  10 181.462 10.7735   2
 -12 -10  12 172.549 9.63339   2
 -12  10  12 140.976 8.67249   1
 -12  12  10 145.986 8.74229   1
 -10 -12  12 132.302 8.97790   2
 -10  12  12 162.275 8.94797   1
  10  12  12 175.899 9.14630   2
  12  10  12 151.480 9.42012   2
  12  12  10 155.421 9.01243   2
 -12 -12  12 234.759 11.6235   2
 -12  12  12 203.538 11.6793   1
  12  12  12 240.650 11.7278   2
 -13  -1  -1 567.168 25.4045   2
 -13  -1   1 566.295 25.4565   2
 -13   1  -1 562.364 25.2024   2
 -13   1   1 557.734 25.3273   2
  -1  -1  13 566.649 25.7321   2
  -1  -1  13 585.851 25.9505   3
  -1   1  13 565.693 25.3702   1
  -1  13  -1 573.047 26.0238   1
  -1  13   1 573.968 26.0907   1
  -1  13   1 546.724 25.0937   2
   1  -1  13 572.146 25.7209   2
   1   1  13 564.541 25.7167   2
   1  13  -1 569.102 26.0712   1
   1  13   1 564.208 26.0789   1
   1  13   1 559.774 25.8721   4
  -1  13  -3 314.050 14.7658   1
 -13   1   3 303.471 14.1504   2
   1  13   3 301.358 14.8477   1
  -3  13   1 313.667 14.8529   1
  -3  13   1 297.885 13.6605   2
  -3  -1  13 311.322 14.5589   2
 -13  -3   1 309.139 14.4066   2
  -1   3  13 310.231 14.2892   1
  -1   3  13 303.185 14.5173   2
   1  -3  13 314.246 14.4932   2
  -3  -1  13 306.449 14.6846   3
   3   1  13 309.726 14.4820   2
   1   3  13 301.426 14.4920   2
  -3  13  -1 315.826 14.7864   1
   3  -1  13 311.498 14.4653   2
  -1  -3  13 326.401 14.6056   2
  -3   1  13 308.680 14.5509   2
   3  13   1 309.474 14.9419   4
  -1  13   3 300.395 14.8452   1
 -13  -3  -1 302.903 14.3453   2
  -1  -3  13 306.166 14.6807   3
 -13   3   1 297.823 13.8253   2
 -13  -1   3 306.541 14.3261   2
  13   1   3 301.699 14.7224   4
 -13  -3  -3 221.504 11.0522   2
 -13  -3   3 226.150 11.1849   2
 -13   3   3 225.358 11.3307   1
   3   3  13 226.932 11.2462   2
   3  13   3 229.567 11.6233   1
   3  13   3 227.560 11.7132   4
  -3  -3  13 227.592 11.4434   3
  -3   3  13 237.446 11.2519   1
  -3   3  13 218.000 11.2091   2
  -3  13  -3 240.434 11.4619   1
  -3  13   3 246.264 11.6995   1
  -3  13   3 232.622 10.5822   2
   3  -3  13 263.070 12.2997   2
  -3  -3  13 237.786 11.4311   2
 -13   1   5 604.650 27.1157   2
  -5 -13  -1 601.888 27.2927   2
  -1  13  -5 642.114 27.6947   1
 -13   5  -1 635.135 27.3534   1
  13  -1   5 572.830 27.2687   4
  -5  -1  13 591.822 27.4257   2
   1  13   5 568.510 27.0488   2
  -1   5  13 658.509 27.4464   1
  -1   5  13 564.801 27.3299   2
  -5  -1  13 574.697 27.5170   3
   1  -5  13 620.507 27.5491   3
   5   1  13 602.782 27.3307   2
   5  13  -1 588.218 28.0342   4
   1  13   5 606.640 27.8333   1
  -5  13   1 607.946 27.7183   1
 -13  -5   1 597.837 27.4009   2
   5  -1  13 590.551 27.2628   2
  -5   1  13 629.929 27.5271   1
  -1  13   5 578.239 26.9295   2
  -1  -5  13 641.716 27.5031   2
  -1  -5  13 620.517 27.6653   3
   5  13   1 598.400 27.9576   4
  -5   1  13 569.087 27.3568   2
  -5   1  13 594.950 27.5247   3
   1   5  13 665.200 27.2727   1
   1   5  13 580.770 27.3660   2
 -13  -5  -1 610.526 27.3942   2
  -5 -13   1 572.369 27.2127   2
  -1  13   5 580.459 27.7524   1
 -13   5   1 611.834 27.3715   1
 -13  -1   5 595.819 27.2460   2
  -5  13  -1 620.306 27.6434   1
  -5  -3  13 347.231 16.9475   2
  -3   5  13 360.317 16.9600   2
  -3   5  13 381.824 17.0849   1
 -13  -5   3 364.801 16.9902   2
 -13   3   5 359.352 17.1747   1
 -13   3   5 355.814 16.4519   2
   3  13   5 362.397 17.3358   1
   3  13   5 344.602 16.6967   2
   5   3  13 359.335 16.9102   2
  -3  13  -5 388.516 17.0888   1
  -5  13   3 364.829 17.3185   1
 -13  -3   5 357.451 16.9010   2
 -13  -5  -3 361.047 16.8868   2
 -13   5   3 359.456 16.0337   2
 -13   5   3 359.774 17.0365   1
  -3  -5  13 377.746 17.0727   2
  -5   3  13 350.492 16.9206   2
   5  13   3 361.855 17.5739   4
  -3  13   5 361.892 17.3688   1
  -3  13   5 343.246 16.2951   2
  -5 -13   3 358.887 16.9205   2
  -5  13  -3 381.531 17.0610   1
   3   5  13 345.671 16.8826   2
   5  13   3 353.603 17.2924   1
  -5   3  13 375.419 17.1160   1
  -5  13   5 839.193 35.6648   2
  -5  13  -5 869.921 36.3839   1
  -5  13   5 782.299 36.8028   1
 -13  -5   5 826.435 36.5429   2
  -5   5  13 833.031 36.6881   1
  -5   5  13 776.375 36.3469   2
   5  13   5 804.022 36.7784   1
 -13   5   5 786.885 36.6301   1
 -13   5   5 806.570 35.6525   2
   5   5  13 774.150 36.3967   2
  -5  -5  13 798.440 36.5015   2
   1  13   7 119.860 6.68091   1
 -13   7  -1 120.667 6.11321   1
  -1   7  13 115.937 6.32302   2
   1  -7  13 118.839 6.35493   3
   1  13   7 111.349 6.08672   2
   7   1  13 111.506 6.17201   2
 -13  -7   1 119.415 6.42803   2
  -7  13   1 122.865 6.56709   1
  -7  -1  13 115.698 6.44039   3
 -13   1   7 123.509 6.21386   2
  -1  13  -7 131.537 6.50762   1
  -7 -13  -1 114.602 6.21007   2
  -1   7  13 130.104 6.45943   1
  -7  -1  13 107.752 6.24449   2
  -1  -7  13 121.597 6.46926   2
  -1  13   7 122.647 6.73032   1
 -13   7   1 120.588 6.28958   1
   1   7  13 114.121 6.28299   2
   1   7  13 126.478 6.27704   1
  -1  13   7 111.838 5.98155   2
 -13  -1   7 117.205 6.24751   2
  -7 -13   1 114.498 6.27283   2
  -7  13  -1 120.192 6.41461   1
  -7   1  13 116.528 6.34813   2
 -13  -7  -1 121.893 6.43011   2
   7  13   1 109.173 7.27084   4
  -3  13  -7 75.9935 4.22178   1
 -13   3   7 72.6397 3.98811   2
   7   3  13 72.4543 4.27185   2
  -7  13   3 73.4240 4.51968   1
  -7  -3  13 68.0055 4.23606   2
  -3   7  13 70.6688 4.23229   2
   3  13   7 75.5326 4.57528   1
   3  13   7 70.9214 4.17782   2
 -13  -7   3 76.6207 4.42961   2
  -3   7  13 74.0678 4.44894   1
 -13   3   7 73.3692 4.58765   1
  -7   3  13 70.4680 4.23074   2
  -7  13  -3 73.3849 4.19507   1
  -7 -13   3 72.9243 4.25192   2
 -13  -3   7 70.3848 4.25285   2
 -13   7   3 71.8339 4.29737   1
  -7   3  13 78.3274 4.61769   1
   3   7  13 73.8990 4.09261   1
   3   7  13 67.3521 4.20810   2
  -3  13   7 70.0655 3.85790   2
 -13  -7  -3 71.2092 4.30667   2
  -3  -7  13 72.4173 4.33927   2
  -3  13   7 73.0347 4.63249   1
  -7  13   5 110.119 6.30874   1
 -13   5   7 106.227 6.20001   1
 -13   5   7 108.330 5.39193   2
  -5   7  13 108.649 6.11955   1
   5  13   7 106.101 6.11300   1
   5  13   7 100.776 5.80103   2
   7   5  13 105.085 5.90169   2
  -7  -5  13 111.698 6.02682   2
 -13  -7   5 106.505 5.97535   2
  -5   7  13 102.190 5.77454   2
   7  13   5 108.331 6.13197   1
 -13  -5   7 105.921 5.94772   2
  -7 -13   5 107.592 5.78835   2
   5   7  13 99.3171 5.83044   2
  -7   5  13 102.843 5.78335   2
  -5  13   7 108.396 6.30669   1
  -5  -7  13 111.190 6.02716   2
  -5  13   7 109.375 5.31170   2
  -7  13  -5 111.537 5.75993   1
  -7   5  13 112.170 6.18098   1
 -13   7   5 103.339 6.01564   1
  -7  13   7 43.2267 2.42716   2
 -13   7   7 40.9100 3.09525   1
  -7  13   7 44.6062 3.31348   1
  -7 -13   7 43.6183 2.96586   2
   7  13   7 39.8431 2.95065   1
   7  13   7 43.7670 2.99556   2
  -7   7  13 41.5755 2.80354   2
 -13  -7   7 40.8179 2.97832   2
   7   7  13 40.5727 2.91446   2
  -7  -7  13 39.0946 2.90182   2
 -13   7   7 43.0359 2.31168   2
  -7   7  13 43.6520 3.16175   1
 -13  -9   1 550.368 25.8395   2
 -13   9  -1 589.089 25.4629   1
  -1  13  -9 626.505 25.7819   1
  -9 -13  -1 557.028 25.7206   2
 -13   1   9 547.470 25.4888   2
  -1   9  13 589.607 25.8945   1
  -9  -1  13 542.018 25.6963   2
  -9  13   1 597.656 26.0090   1
  -1   9  13 532.942 25.5891   2
   1  13   9 562.070 26.0676   1
   1  13   9 524.602 25.4216   2
  -9  13  -1 596.936 25.8070   1
  -1  13   9 510.419 25.2773   2
  -9 -13   1 544.227 25.6943   2
 -13  -9  -1 559.002 25.8223   2
 -13   9   1 563.898 25.6535   1
  -1  13   9 542.589 26.0389   1
 -13  -1   9 554.135 25.6415   2
  -9   1  13 533.451 25.6465   2
   1   9  13 505.472 25.5291   2
   1   9  13 608.098 25.8204   1
  -9  -3  13 253.614 13.4347   2
   9   3  13 284.409 13.4688   2
  -3   9  13 290.924 13.8080   1
 -13   3   9 276.315 13.9544   1
  -3   9  13 265.818 13.3808   2
   3  13   9 281.727 13.7946   1
 -13  -9   3 286.618 13.7080   2
 -13   3   9 277.335 13.1893   2
   3  13   9 262.992 13.3768   2
  -9  13   3 287.233 13.8888   1
 -13  -9  -3 278.677 13.6174   2
  -3  13   9 272.147 13.8760   1
 -13   9   3 284.854 13.6651   1
  -9  13  -3 303.087 13.3962   1
  -3  13   9 276.267 13.0975   2
 -13  -3   9 267.291 13.4789   2
  -9   3  13 268.723 13.4189   2
  -9   3  13 291.604 13.9798   1
   3   9  13 318.032 13.5505   1
  -3  -9  13 254.238 13.3460   2
  -9 -13   3 281.758 13.5680   2
   3   9  13 263.036 13.4558   2
   5  13   9 666.955 31.7245   2
 -13   5   9 674.059 32.2048   1
 -13  -9   5 722.418 32.0313   2
  -9  13   5 702.595 32.2335   1
   5  13   9 719.512 32.0455   1
  -5   9  13 676.152 31.5790   2
 -13   5   9 687.723 31.2294   2
   9   5  13 730.902 31.9384   2
  -9  -5  13 666.043 31.8229   2
  -5   9  13 730.385 32.2601   1
  -9   5  13 696.241 32.2155   1
  -9 -13   5 724.599 31.8997   2
  -9   5  13 653.023 31.5483   2
  -5  13   9 684.985 32.2630   1
  -5  13   9 698.484 31.1707   2
 -13  -5   9 663.767 31.8047   2
   5   9  13 662.962 31.7653   2
  13   5   9 713.889 31.8422   2
 -13   9   5 707.097 32.1024   1
   9  13   5 708.219 32.0683   1
  -5  -9  13 755.170 32.0130   2
 -13  -9   7 114.183 6.29541   2
  13   9   7 106.701 6.37877   1
  -9  13   7 109.811 6.54230   1
 -13   7   9 104.445 6.44330   1
  -7   9  13 113.650 6.55267   1
  -7   9  13 107.072 5.88155   2
   9   7  13 113.149 6.22239   2
  -9  -7  13 104.112 6.09809   2
  -7 -13   9 106.369 6.05006   2
   7  13   9 106.263 6.16513   2
 -13   7   9 109.361 5.46922   2
   7  13   9 110.758 6.17910   1
 -13  -7   9 105.798 6.14250   2
  -9   7  13 108.433 5.90961   2
  -9   7  13 107.941 6.45078   1
   9  13   7 104.057 6.09686   2
 -13   9   7 110.260 6.46038   1
  -7  -9  13 116.817 6.32272   2
  -7  13   9 112.327 5.39882   2
  -9 -13   7 112.935 6.14027   2
   7   9  13 110.918 6.24489   2
   9  13   7 106.936 6.15999   1
  -7  13   9 107.640 6.52732   1
  13   7   9 104.791 6.08769   2
   9   9  13 746.722 33.1327   2
  -9   9  13 690.702 32.3805   2
  -9  13   9 681.471 33.3691   1
 -13  -9   9 704.956 33.0242   2
   9  13   9 690.862 32.9384   2
 -13   9   9 705.438 33.3317   1
  -9 -13   9 755.672 33.0761   2
  -9  -9  13 737.801 33.1147   2
  -9   9  13 716.837 33.3533   1
   9  13   9 729.949 32.8924   1
  13   9   9 752.617 33.1935   2
   1  13  11 11.5278 1.30288   2
  -1  11  13 12.5259 1.27955   2
 -11  13   1 10.3351 1.25079   1
 -13  11  -1 10.6390 1.27696   1
 -13 -11   1 11.1318 1.25786   2
 -13   1  11 11.9235 1.22213   2
   1  13  11 9.75410 1.32639   1
  -1  11  13 13.4242 1.35409   1
 -11 -13  -1 12.1506 1.35940   2
 -11   1  13 13.6266 1.28042   2
   1  11  13 9.51435 1.33727   1
  -1  13  11 13.3162 1.55695   1
 -11 -13   1 12.4109 1.34910   2
 -13 -11  -1 12.9551 1.35922   2
   1  11  13 12.3333 1.32998   2
 -13  -1  11 11.8077 1.23545   2
  -1  13  11 13.2439 1.33863   2
   3  13  11 16.1895 1.50388   2
 -13   3  11 14.8393 1.32888   2
 -13 -11   3 13.6875 1.48761   2
 -11  13   3 14.2786 1.56604   1
  -3  11  13 14.2611 1.48337   1
  -3  11  13 15.0813 1.41057   2
 -11  -3  13 14.3403 1.41261   2
   3  13  11 12.2945 1.45618   1
   3  11  13 13.4467 1.47893   2
 -11 -13   3 12.0551 1.39181   2
   3  11  13 11.4605 1.39661   1
 -13  -3  11 13.1501 1.44671   2
  -3  13  11 12.1021 1.27084   2
 -11   3  13 14.3712 1.38489   2
  -3  13  11 15.2582 1.66519   1
 -13  11   3 11.1710 1.33881   1
 -11  -5  13 19.3355 1.79241   2
 -13   5  11 19.3910 1.92656   1
  -5  11  13 15.4689 1.81982   1
 -11  13   5 16.9535 1.86337   1
   5  13  11 20.5357 1.82490   2
  11   5  13 19.3724 1.86144   2
   5  13  11 16.5633 1.65177   1
 -13   5  11 17.8350 1.47157   2
  -5  11  13 19.3158 1.57601   2
 -11   5  13 17.9026 1.58571   2
 -11 -13   5 17.9331 1.75235   2
  -5 -11  13 15.4634 2.03388   2
  11  13   5 17.2866 1.60157   1
 -13  -5  11 17.1469 1.72596   2
 -11   5  13 19.3656 1.96579   1
  -5  13  11 19.5578 1.99135   1
  -5  13  11 18.2897 1.47814   2
 -13  11   5 18.4702 1.92351   1
   5  11  13 17.3708 1.74924   2
 -13   7  11 7.14070 0.91879   2
 -11  -7  13 7.87790 1.17285   2
  -7  11  13 7.44015 0.98520   2
  11   7  13 6.29179 1.44629   2
  13  11   7 8.01177 1.23500   1
  -7  11  13 5.14322 1.01425   1
 -13   7  11 6.89615 1.01958   1
  -7 -13  11 5.75045 1.65422   2
 -11  13   7 4.98919 1.32894   1
   7  13  11 7.66878 1.17550   2
  -7  13  11 7.71437 1.14570   1
  11  13   7 5.55080 1.07260   1
 -13  -7  11 7.38959 1.06162   2
  -7  13  11 6.96450 0.87967   2
  11  13   7 7.52765 1.13864   2
  -7 -11  13 4.99410 1.45275   2
 -11   7  13 6.81760 1.17394   1
  13   7  11 5.35768 1.34964   2
   7  11  13 6.63088 1.13187   2
 -13  11   7 6.41821 1.04893   1
 -11  -9  13 13.7724 1.46651   2
 -13   9  11 13.9462 1.69690   1
   9  13  11 14.7729 1.67686   2
 -11  13   9 15.0512 1.75243   1
  13  11   9 13.2323 1.58993   2
  -9  11  13 14.0596 1.70144   1
  -9  11  13 13.9245 1.26162   2
  11   9  13 10.0601 1.57866   2
  11  13   9 10.6260 1.38713   2
   9  11  13 13.5210 1.62562   2
  13   9  11 12.2889 1.62564   2
 -11   9  13 14.8788 1.81697   1
 -13  -9  11 11.1904 1.33832   2
  -9  13  11 13.5916 1.76797   1
 -11 -13   9 13.5567 1.57897   2
 -13  11   9 15.2005 1.63439   1
  -9 -11  13 15.6560 1.60137   2
 -13 -11  11 8.22745 1.21262   2
 -13  11  11 7.94538 1.28623   1
 -11 -13  11 4.26261 1.30764   2
 -11 -11  13 5.26831 1.24597   2
 -11  11  13 6.29077 1.24222   1
 -11  13  11 6.43445 1.21433   1
  11  11  13 7.46037 1.29505   2
  11  13  11 6.88990 1.28595   2
  13  11  11 5.45667 1.32588   2
 -13 -13  -1 380.701 17.7535   2
 -13 -13   1 366.843 17.6594   2
 -13  -1  13 344.887 17.3823   2
 -13   1  13 357.508 17.3603   2
 -13  13   1 379.992 17.5174   1
  -1  13  13 368.181 17.7675   1
  -1  13  13 360.119 17.3299   2
   1  13  13 377.016 17.7210   1
   1  13  13 355.648 17.3854   2
 -13 -13   3 222.325 11.2129   2
 -13  -3  13 214.371 11.0943   2
 -13   3  13 216.252 10.8164   2
 -13  13   3 230.220 11.2763   1
  -3  13  13 197.520 12.0645   1
  -3  13  13 219.360 10.8089   2
   3  13  13 226.796 11.1048   1
   3  13  13 215.010 11.0220   2
 -13 -13   5 504.264 23.5729   2
 -13  -5  13 509.734 23.4952   2
 -13   5  13 510.001 22.9939   2
 -13  13   5 459.824 24.5807   1
  -5  13  13 491.147 23.9732   1
  -5  13  13 509.401 22.9479   2
   5  13  13 480.710 23.3570   2
  13   5  13 531.838 23.4328   2
 -13  -7  13 72.7698 4.87054   2
 -13   7  13 70.2829 4.78501   1
 -13  13   7 72.0496 4.71494   1
  -7  13  13 71.2770 4.72530   1
  13  13   7 59.2612 4.14787   1
  13  13   7 72.0213 5.29792   2
 -13 -13   9 482.979 22.8193   2
 -13  -9  13 488.373 22.8357   2
 -13   9  13 453.362 23.0703   1
 -13   9  13 514.507 21.7695   2
 -13  13   9 440.420 22.9661   1
  -9 -13  13 500.721 22.8643   2
  -9  13  13 450.221 23.0350   1
  -9  13  13 505.909 21.6729   2
   9  13  13 475.738 22.8086   2
  13   9  13 518.101 22.9892   2
  13  13   9 487.945 22.9159   2
 -13 -11  13 14.0250 1.50549   2
 -13  11  13 14.2109 1.61628   1
 -13  13  11 11.8377 1.49205   1
 -11  13  13 16.1662 1.67915   1
  11  13  13 17.0723 1.70516   2
  13  11  13 15.3725 1.70414   2
  13  13  11 13.0387 1.56334   2
 -13 -13  13 379.527 17.5135   2
 -13  13  13 332.438 17.5751   1
  13  13  13 382.330 17.5499   2
 -14   0   0 0.90086 0.45679   2
   0   0  14 0.61053 0.60627   2
   0  14   0 0.84850 0.57962   1
 -14   0   2 14.5478 1.21151   2
  -2  14   0 15.6285 1.46426   1
  -2  14   0 13.0794 0.98298   2
   0  -2  14 13.1382 1.41437   2
   0   2  14 14.1488 1.37605   2
   2  14   0 16.1277 1.57067   1
 -14  -2   0 14.9869 1.25252   2
 -14   2   0 15.3639 1.05901   2
  -2   0  14 14.4497 1.38674   2
   0  14  -2 14.8462 1.44164   1
   0  14   2 13.7997 1.50775   1
   0  14   2 14.8827 1.16101   2
   2   0  14 15.6513 1.46687   2
  -2  14   2 543.532 25.7527   1
  -2  14   2 530.199 24.6050   2
   2  -2  14 576.860 25.3719   2
  -2   2  14 577.034 25.1556   1
  -2   2  14 554.040 25.4111   2
  -2  14  -2 563.128 25.7017   1
 -14  -2  -2 547.326 25.0539   2
 -14  -2   2 561.124 25.1888   2
 -14   2   2 546.811 24.7582   2
  -2  -2  14 556.567 25.4043   2
  -2  -2  14 556.713 25.5772   3
   2  14   2 544.979 25.7879   1
   2   2  14 554.411 25.3691   2
   0  14  -4 1.02683 0.66400   1
   4   0  14 1.06619 1.37018   2
  -4  14   0 0.25870 0.64059   1
  -4   0  14 1.02760 0.56368   2
   0  -4  14 0.01392 1.25032   2
   0  -4  14 2.01201 1.35979   3
   0   4  14 0.47662 0.56142   2
   4   2  14 20.5928 1.79125   2
   2  14   4 23.5277 1.69599   2
  -2  14  -4 23.3384 2.01004   1
  -2   4  14 25.0580 1.85159   1
 -14  -4   2 23.0500 1.82074   2
  -4  -2  14 22.1708 1.94470   3
  -4  14   2 22.4953 1.95585   1
  -4  -2  14 20.6252 1.83116   2
 -14   2   4 23.1129 1.57520   2
  -2   4  14 24.2617 1.88925   2
   2  14   4 22.8944 2.12565   1
  -4  14  -2 23.8216 1.92419   1
  -2  -4  14 21.5500 1.83993   2
  -4   2  14 22.8750 1.77323   1
  -4   2  14 21.6043 1.87441   2
 -14  -2   4 24.9548 1.82851   2
 -14  -4  -2 24.5512 1.81577   2
  -2  -4  14 18.6532 1.82914   3
  -2  14   4 23.9764 2.11506   1
  -2  14   4 21.8651 1.49303   2
   4  -2  14 20.0683 1.85784   2
   2   4  14 21.8033 1.81082   2
   4  14   2 24.8355 2.14252   1
   4   4  14 8.52985 1.04400   2
 -14   4   4 8.00446 0.78790   2
 -14  -4   4 8.28203 0.94532   2
 -14   4   4 8.73929 1.03201   1
  -4  -4  14 7.10509 1.68260   3
  -4   4  14 9.70508 1.04190   1
  -4   4  14 9.10054 1.02810   2
  -4  14   4 7.15188 1.13985   1
  -4  14   4 7.31321 0.81745   2
   4  14   4 9.70260 1.07848   1
   0  14  -6 180.674 8.97426   1
   0  14   6 169.137 9.04589   1
   0  14   6 168.837 8.31626   2
   6   0  14 176.545 8.95921   2
 -14  -6   0 174.410 8.73369   2
 -14   6   0 180.395 8.52807   1
   0   6  14 181.032 8.56246   1
   0   6  14 157.350 8.57841   2
  -6  14   0 175.768 8.94056   1
   0  -6  14 146.455 9.64879   2
  -6   0  14 168.965 8.76602   3
 -14   0   6 172.337 8.45702   2
  -6   0  14 159.567 8.61477   2
  -6 -14   0 158.008 8.48966   2
  -2  14  -6 396.701 17.2829   1
  -2   6  14 349.800 17.0142   2
  -6  14   2 358.783 17.3579   1
   6   2  14 362.595 16.9739   2
 -14   2   6 361.478 16.6192   2
   2  14   6 334.177 16.7022   2
  -6  -2  14 344.960 17.0269   2
  -2   6  14 396.316 17.1683   1
 -14  -6   2 374.090 17.1389   2
  -6  -2  14 345.657 17.2404   3
   2  14   6 363.664 17.4929   1
 -14   6   2 370.386 17.0594   1
 -14  -2   6 364.117 16.9493   2
 -14  -6  -2 367.299 17.0422   2
  -6   2  14 382.161 17.2362   1
  -2  14   6 359.955 17.5086   1
  -2  -6  14 355.717 17.0194   2
  -2  14   6 342.744 16.4278   2
  -6   2  14 334.486 16.9485   2
  -6 -14   2 340.578 16.8507   2
  -6  14  -2 382.895 17.2298   1
   2   6  14 339.533 16.9665   2
  -4   6  14 115.143 6.52849   2
  -6  -4  14 118.672 6.62136   2
 -14  -6   4 122.249 6.67022   2
 -14   4   6 122.037 6.84253   1
 -14   4   6 123.830 6.05923   2
  -4   6  14 130.127 6.79748   1
   4  14   6 124.271 6.95855   1
  -6  14   4 123.128 6.98272   1
   4  14   6 115.019 6.43170   2
   6   4  14 122.415 6.61361   2
  -4  14  -6 133.709 6.62521   1
  -6  14  -4 133.189 6.64722   1
   6  14   4 123.518 6.98205   1
   4   6  14 117.530 6.56071   2
  -6   4  14 119.768 6.59504   2
 -14   6   4 118.335 6.67593   1
  -4  14   6 120.777 6.98955   1
  -4  14   6 124.942 5.95433   2
 -14  -4   6 124.761 6.66071   2
  -6 -14   4 102.806 6.30068   2
  -6   4  14 124.694 6.77151   1
  -4  -6  14 130.016 6.76185   2
  -6  -6  14 251.344 12.6843   2
  -6   6  14 251.366 12.5703   2
  -6  14   6 256.006 13.1054   1
   6   6  14 249.957 12.6894   2
  -6   6  14 265.012 12.9291   1
 -14   6   6 267.022 11.7057   2
 -14  -6   6 259.037 12.7539   2
 -14   6   6 249.529 12.8770   1
   6  14   6 260.615 13.0355   1
  -6 -14   6 281.954 13.9429   2
   6  14   6 246.255 12.5344   2
   0   8  14 0.83738 0.85758   1
   0  14  -8 1.29911 0.92425   1
   0  14   8 1.63361 0.74599   1
   0  14   8 2.55260 0.66603   2
  -8 -14   0 2.15361 1.02997   2
  -8  14   0 0.51731 0.80530   1
  -8   0  14 0.62966 0.65604   2
  -2  14  -8 8.29395 1.29527   1
   2  14   8 8.64569 1.06301   2
  -2   8  14 8.34068 1.22824   1
  -8  -2  14 10.6327 1.15402   2
 -14  -8   2 11.2581 1.18283   2
  -8  14   2 8.43578 1.21462   1
 -14   2   8 11.2429 1.04520   2
   2  14   8 11.9055 1.37830   1
   2   8  14 8.57679 1.21989   1
 -14   8   2 8.47091 1.09999   1
  -2  -8  14 7.05473 1.48954   2
 -14  -2   8 9.72695 1.11018   2
   2   8  14 11.2128 1.18793   2
  -8  -4  14 22.9649 1.90098   2
  -8  14   4 19.3359 1.99677   1
 -14  -8   4 21.8004 1.91957   2
  -4   8  14 20.9458 1.90462   1
   4  14   8 17.7765 1.88253   1
 -14   4   8 21.2116 2.05793   1
 -14   4   8 19.0665 1.46598   2
   4  14   8 18.8978 1.76697   2
  -4   8  14 17.6352 1.67660   2
   8  14   4 19.8538 1.95226   1
 -14  -4   8 21.6154 1.84497   2
  -8 -14   4 17.8322 1.72977   2
 -14   8   4 19.2403 1.75868   1
  -8   4  14 17.9444 1.70002   2
  -4  14   8 21.7420 2.07608   1
  -4  14   8 18.8281 1.44610   2
  -8   4  14 20.3897 1.92713   1
   6  14   8 100.947 5.90507   1
   8   6  14 102.301 5.69250   2
 -14   6   8 97.6488 5.93999   1
 -14   6   8 103.843 4.96280   2
  -6   8  14 100.469 5.55291   2
  -8  14   6 95.6467 5.97511   1
 -14  -8   6 95.5191 5.65955   2
  -6   8  14 105.627 5.99159   1
   6  14   8 93.5033 5.57703   2
  -8  -6  14 93.0498 5.60394   2
  -8 -14   6 102.358 5.61662   2
   8  14   6 92.0416 5.54867   2
  14   6   8 101.148 5.59261   2
  -8   6  14 94.3891 5.48672   2
   8  14   6 99.8651 5.83857   1
 -14  -6   8 96.8442 5.65303   2
  -6  -8  14 92.6065 5.56688   2
   6   8  14 98.6065 5.71432   2
  -6  14   8 100.627 4.83807   2
  -6  14   8 93.2005 5.98648   1
  -8   6  14 97.7866 5.90842   1
 -14   8   6 94.0735 5.77617   1
  -8  14   8 51.0311 3.75342   1
 -14  -8   8 48.8778 3.36251   2
   8  14   8 45.2179 3.26798   1
  -8  -8  14 52.4542 3.45436   2
  14   8   8 48.3078 3.43683   2
  -8   8  14 47.9110 3.17115   2
   8  14   8 47.4431 3.41543   2
   8   8  14 47.8908 3.31441   2
  -8   8  14 50.0245 3.55071   1
 -14   8   8 47.6474 3.54005   1
  -8 -14   8 44.5327 3.25790   2
 -10 -14   0 282.432 14.0797   2
   0  14  10 277.728 13.7861   2
 -10   0  14 270.956 14.0083   2
 -10  14   0 297.204 14.1668   1
   0  14  10 278.713 14.3881   1
 -14 -10   0 281.027 14.1939   2
   0  14 -10 320.496 14.2095   1
 -14   0  10 284.021 13.9413   2
 -14  10   0 303.986 13.9218   1
   0  10  14 276.077 14.0136   2
   0  10  14 307.791 14.2238   1
 -10  -2  14 146.398 8.18923   2
 -14 -10   2 158.634 8.46937   2
  -2  10  14 164.671 8.49864   1
 -10  14   2 160.617 8.51047   1
   2  14  10 159.698 8.56027   1
 -14   2  10 159.877 8.04668   2
  -2  10  14 151.435 8.18230   2
   2  14  10 144.014 8.03822   2
 -14 -10  -2 157.233 8.35751   2
   2  10  14 151.085 8.24537   2
 -14  -2  10 152.585 8.18374   2
 -10  14  -2 167.591 8.12610   1
 -10 -14   2 153.822 8.27543   2
 -14  10   2 163.646 8.27463   1
  -2  14  10 152.549 7.89333   2
   2  10  14 174.386 8.27643   1
  -2  14  10 153.071 8.60882   1
 -10   2  14 146.124 8.13940   2
 -14   4  10 284.298 13.2938   2
 -10  14   4 286.043 14.1037   1
   4  14  10 261.898 13.5898   2
   4  14  10 281.872 13.9462   1
 -14 -10   4 285.381 13.9413   2
  -4  10  14 265.238 13.5091   2
  10   4  14 295.974 13.8061   2
 -10  -4  14 266.708 13.7295   2
  -4  10  14 290.353 14.0776   1
 -10 -14   4 283.442 13.8210   2
  10  14   4 281.001 14.0235   1
  -4  14  10 284.064 13.1966   2
 -10   4  14 271.219 14.0507   1
 -10   4  14 271.861 13.5825   2
  -4  14  10 277.077 14.1912   1
   4  10  14 296.127 14.0420   1
 -14  -4  10 269.407 13.6923   2
 -14  10   4 283.421 13.8952   1
  -4 -10  14 288.635 13.7369   2
   4  10  14 268.273 13.7026   2
 -14   6  10 123.087 6.15698   2
 -10  -6  14 113.954 6.70190   2
  -6  10  14 123.128 7.05623   1
 -14   6  10 116.843 7.10486   1
   6  14  10 118.158 6.77154   2
 -14 -10   6 124.701 6.92344   2
   6  14  10 122.702 6.81007   1
  -6  10  14 122.419 6.57324   2
  10   6  14 131.102 6.94577   2
 -10  14   6 124.744 7.19402   1
  -6  14  10 123.331 6.07088   2
 -14  10   6 121.904 6.97616   1
 -10   6  14 120.908 6.56174   2
 -10 -14   6 118.809 6.69639   2
   6  10  14 119.105 6.80129   2
  14   6  10 131.508 6.89281   2
 -10   6  14 122.043 7.10932   1
  10  14   6 119.422 6.83176   1
  -6  14  10 117.734 7.14320   1
  -6 -10  14 122.340 6.81219   2
 -14  -6  10 119.107 6.77927   2
  -8  10  14 160.075 8.13451   2
  -8 -14  10 170.721 8.54169   2
 -10  -8  14 164.115 8.66171   2
 -10  14   8 149.373 9.37070   1
 -14   8  10 151.125 9.13260   1
  10   8  14 171.313 8.75945   2
  -8  10  14 138.111 9.51406   1
   8  14  10 155.964 8.56532   2
  14  10   8 174.657 8.76258   2
 -14 -10   8 166.166 8.71612   2
 -14  10   8 150.129 9.20880   1
 -10 -14   8 166.977 8.64989   2
 -10   8  14 141.013 9.09425   1
   8  10  14 161.919 8.61805   2
  14   8  10 175.523 8.79430   2
  -8 -10  14 177.729 8.80577   2
 -14  -8  10 159.578 8.58139   2
  -8  14  10 158.591 9.05855   1
 -10   8  14 155.174 8.12498   2
  10  14   8 154.346 8.55714   2
  10  14  10 55.3275 3.91819   1
  10  10  14 70.2872 4.41072   2
  10  14  10 72.8330 4.47543   2
 -10  10  14 66.1656 3.79511   2
 -14 -10  10 72.4816 4.45726   2
 -14  10  10 65.9519 4.57272   1
 -10 -14  10 59.4982 4.15693   2
 -10 -10  14 65.4468 4.26214   2
 -10  14  10 61.7179 4.57642   1
  14  10  10 72.8582 4.45229   2
 -10  10  14 68.2007 4.59409   1
   0  12  14 3.79029 0.98921   1
 -14 -12   0 3.21907 0.98669   2
 -12   0  14 4.07077 0.87254   2
 -12 -14   0 4.88047 1.13777   2
   0  12  14 4.86702 0.97505   2
 -14   0  12 3.85131 0.90069   2
   0  14  12 3.41830 0.89479   2
 -14   2  12 9.80350 1.12000   2
  -2  12  14 7.84499 1.15614   1
 -14 -12   2 9.60066 1.26989   2
  -2  12  14 10.8618 1.18515   2
 -12   2  14 10.4084 1.18358   2
 -12 -14   2 7.29928 1.22292   2
  -2  14  12 8.30820 1.08131   2
 -14  12   2 7.29732 1.18975   1
 -14  -2  12 9.83450 1.23574   2
   2  12  14 9.60695 1.28337   1
  -2  14  12 8.06883 1.21487   1
   4  14  12 22.8403 1.98529   2
 -14 -12   4 15.7950 1.63833   2
 -14   4  12 19.8929 1.63295   2
  -4  12  14 20.7444 1.71090   2
  -4  14  12 18.7723 1.56573   2
 -14  -4  12 20.9671 1.82399   2
 -12   4  14 20.8476 1.76637   2
  -4  14  12 24.5291 3.22037   1
 -12 -14   4 18.1692 1.84393   2
   4  12  14 17.4177 1.77093   2
  -6  12  14 37.2970 3.10810   1
   6  14  12 34.4480 3.29088   2
  12   6  14 36.5210 2.90956   2
 -12  14   6 36.1860 3.04903   1
  -6  12  14 37.7066 2.74460   2
 -14   6  12 35.9294 3.10033   1
 -14   6  12 35.6564 2.63799   2
 -12  -6  14 40.1802 3.57545   2
   6  12  14 36.4812 3.20721   2
 -14  12   6 37.7621 2.96499   1
 -12   6  14 42.7335 3.25801   1
 -12   6  14 40.7356 3.08481   2
  -6  14  12 37.3733 2.56012   2
  12  14   6 36.3456 2.75821   1
  12  14   6 39.4742 3.42605   2
 -14  -6  12 37.8312 3.36926   2
 -12 -14   6 39.5324 3.01504   2
 -14 -12   8 53.5176 3.65912   2
   8  14  12 56.0409 3.79989   2
  12   8  14 51.6133 3.66148   2
  14  12   8 58.6570 3.80244   2
 -14   8  12 47.6395 2.87029   2
 -12  -8  14 57.0786 3.73772   2
 -12  14   8 54.8591 3.89574   1
 -14   8  12 54.7196 3.98847   1
  -8  12  14 52.4926 3.13255   2
  -8  12  14 52.7856 3.83094   1
 -12   8  14 51.9107 3.14628   2
 -12 -14   8 46.4861 3.42457   2
 -12   8  14 55.6029 4.00343   1
 -14  -8  12 54.5191 3.68924   2
  -8  14  12 47.7784 3.84992   1
   8  12  14 54.6240 3.76060   2
  12  14   8 54.1295 3.71813   2
 -14  12   8 49.9970 3.73663   1
  14  12  10 97.7961 5.54758   2
 -14  10  12 89.3123 5.64979   1
 -14 -12  10 87.8406 5.31221   2
 -12  14  10 84.4785 5.55999   1
  12  10  14 96.7719 5.51603   2
 -10  12  14 89.9075 5.67602   1
 -10  12  14 86.8676 4.50662   2
 -12 -10  14 96.4803 5.50703   2
  10  14  12 93.7621 5.49553   2
 -12 -14  10 89.7845 5.38030   2
 -14  12  10 87.1918 5.59690   1
  12  14  10 101.512 5.64990   2
 -12  10  14 86.1041 5.57433   1
 -12  10  14 89.6632 4.54426   2
  10  12  14 88.5349 5.35613   2
 -10  14  12 81.6472 5.53967   1
  14  10  12 92.0184 5.48922   2
 -10 -12  14 78.9009 5.14240   2
 -14 -10  12 87.0716 5.31970   2
 -14 -12  12 62.6577 3.93425   2
 -14  12  12 61.2969 4.13011   1
 -12 -14  12 56.1321 3.91605   2
 -12 -12  14 58.3389 3.86512   2
 -12  12  14 60.5732 4.13769   1
 -12  14  12 61.8867 4.16392   1
  12  12  14 65.7068 4.04798   2
  12  14  12 66.2654 4.06788   2
  14  12  12 64.4131 4.12672   2
 -14 -14   0 385.231 18.9601   2
 -14   0  14 398.612 18.4909   2
   0  14  14 367.874 18.3071   1
   0  14  14 373.603 18.1485   2
 -14 -14   2 49.8610 3.35345   2
 -14  -2  14 46.2442 3.24677   2
 -14   2  14 49.1996 3.18221   2
  -2  14  14 44.5301 3.31387   1
  -2  14  14 47.5617 3.14769   2
   2  14  14 42.0173 3.07123   1
   2  14  14 53.0287 3.43484   2
 -14 -14   4 300.347 14.3934   2
 -14  -4  14 287.001 14.2303   2
 -14   4  14 287.916 13.8239   2
 -14  14   4 287.316 14.3146   1
  -4  14  14 295.409 14.5950   1
  -4  14  14 294.793 13.8045   2
   4  14  14 285.466 14.0342   1
   4  14  14 289.071 14.1916   2
  14  14   4 268.968 14.1701   1
 -14  -6  14 38.1234 2.79497   2
 -14   6  14 33.1201 2.25394   2
 -14  14   6 33.3450 2.71968   1
  -6  14  14 33.8894 2.77830   1
  -6  14  14 36.0735 2.24997   2
 -14 -14   8 216.010 10.8415   2
 -14  -8  14 223.531 10.8803   2
 -14   8  14 223.109 9.89406   2
 -14  14   8 219.933 11.1047   1
  -8 -14  14 176.929 10.4493   2
  -8  14  14 204.619 11.0170   1
  -8  14  14 210.382 9.75996   2
   8  14  14 213.762 10.8223   2
  14   8  14 188.626 10.6090   2
  14  14   8 232.928 11.0584   2
 -14 -14  10 16.2734 1.65744   2
 -14 -10  14 18.3989 1.64546   2
 -14  10  14 16.0712 1.62921   1
 -10  14  14 16.9271 1.71722   1
  14  14  10 18.1896 1.77071   2
 -14 -14  12 76.2371 4.66427   2
 -14 -12  14 80.8642 4.69475   2
 -14  12  14 81.9594 4.98397   1
 -14  14  12 82.1286 4.95364   1
 -12 -14  14 68.3430 4.59919   2
 -12  14  14 78.1190 4.88927   1
  12  14  14 91.5391 4.93616   2
  14  12  14 79.8123 4.74292   2
  14  14  12 88.2578 4.88214   2
 -14  14  14 10.6642 1.22836   1
  14  14  14 14.0561 1.39574   2
 -15  -1  -1 226.638 10.8641   2
 -15  -1   1 225.877 10.9317   2
 -15   1   1 228.651 10.7246   2
  -1  -1  15 230.151 11.3019   2
  -1   1  15 223.374 11.2713   2
  -1  15  -1 239.735 11.7786   1
  -1  15   1 229.190 11.7105   1
  -1  15   1 221.661 10.5325   2
   1  -1  15 233.517 11.2833   2
   1   1  15 219.653 11.2342   2
   1  15  -1 236.069 11.7810   1
   1  15   1 233.530 11.7805   1
  -3  -1  15 286.200 14.2007   2
 -15   1   3 289.898 13.6859   2
  -1  15  -3 308.650 14.6325   1
  -3  15   1 298.661 14.6241   1
 -15  -3   1 296.827 14.0422   2
  -1   3  15 294.174 13.8049   1
  -1   3  15 296.342 14.2727   2
   1  -3  15 302.732 14.2066   2
   3   1  15 290.295 14.1573   2
   3  15  -1 293.968 14.6791   1
   1  15   3 286.923 13.7223   2
   1  15   3 293.049 14.6893   1
   3  15   1 293.417 14.6960   1
   3  -1  15 296.498 14.1429   2
   1   3  15 296.294 14.2589   2
  -1  15   3 285.577 13.5191   2
   1  15  -3 304.557 14.6918   1
 -15  -3  -1 287.348 13.9376   2
  -1  -3  15 303.163 14.2501   2
 -15  -1   3 292.077 13.8977   2
  -3   1  15 289.259 14.2166   2
  -3  15  -1 302.139 14.6018   1
  -1  15   3 299.055 14.7131   1
 -15  -3   3 447.705 20.4553   2
 -15   3   3 435.370 19.7617   2
   3  15   3 427.531 21.0275   1
   3   3  15 439.944 20.5962   2
  -3  -3  15 446.647 20.6379   2
  -3   3  15 463.197 20.4493   1
  -3   3  15 415.957 20.5159   2
  -3  15  -3 470.711 20.9564   1
  -3  15   3 448.836 21.0785   1
  -3  15   3 434.747 19.5439   2
   3  -3  15 415.299 20.3326   2
 -15   1   5 100.641 5.38469   2
   1  -5  15 97.1119 5.70307   2
  -5  15   1 108.907 6.15592   1
   1  15   5 104.940 6.21511   1
   1  15   5 105.305 5.46897   2
  -5  -1  15 100.685 5.80545   2
   5   1  15 101.186 5.70877   2
  -1   5  15 102.080 5.78223   2
  -1   5  15 111.368 5.62206   1
  -1  15  -5 110.294 6.06441   1
 -15  -5   1 99.3339 5.67802   2
   5  -1  15 86.5251 5.42981   2
  -1  15   5 99.7811 5.24711   2
   1   5  15 102.578 5.77399   2
  -5   1  15 98.8939 5.72812   2
 -15  -1   5 104.029 5.58429   2
   1  15  -5 108.542 6.12338   1
 -15  -5  -1 103.193 5.69130   2
  -1  -5  15 105.792 5.75566   2
  -1  15   5 103.457 6.17980   1
  -5  15  -1 109.012 6.01957   1
   5  15   1 104.166 6.19602   1
  -5  -3  15 174.463 9.09495   2
   3  15   5 166.784 8.76421   2
  -3  15  -5 189.172 9.26794   1
 -15   3   5 173.404 8.39931   2
   3  15   5 175.278 9.49149   1
   5   3  15 175.444 9.00879   2
  -5  15   3 173.943 9.38851   1
  -3   5  15 187.715 9.04172   1
 -15  -5   3 173.676 9.01403   2
  -3   5  15 163.699 8.94931   2
   5  15   3 174.796 9.45969   1
  -5   3  15 185.864 9.10442   1
   3   5  15 169.876 8.99902   2
 -15  -3   5 175.071 8.94791   2
  -3  -5  15 177.189 9.09674   2
  -5  15  -3 185.268 9.20653   1
  -3  15   5 173.870 8.24369   2
  -3  15   5 173.281 9.49309   1
  -5   3  15 166.078 8.96736   2
 -15  -5   5 63.2334 3.92499   2
  -5  15  -5 63.2601 3.84733   1
   5   5  15 63.6256 3.95647   2
   5  15   5 65.1627 4.35308   1
 -15   5   5 61.6047 4.03785   1
 -15   5   5 58.9063 3.10050   2
  -5  -5  15 55.3041 3.78310   2
  -5   5  15 64.6796 3.99747   1
  -5   5  15 60.6056 3.90284   2
   5  15   5 59.7604 3.79373   2
  -5  15   5 60.5476 4.22966   1
  -1   7  15 332.238 16.6313   2
  -7 -15  -1 345.915 16.5211   2
 -15  -7   1 350.680 16.7508   2
  -7  15   1 352.029 16.9408   1
  -7  -1  15 323.458 16.6019   2
  -1   7  15 383.406 16.6779   1
  -1  15  -7 388.916 17.0258   1
 -15   1   7 339.762 16.2660   2
   1  15   7 361.075 17.2122   1
   1  15   7 335.236 16.2889   2
   7   1  15 334.785 16.4766   2
   1  15  -7 377.204 17.1720   1
  -1  -7  15 356.367 16.6735   2
 -15  -7  -1 347.092 16.7010   2
  -1  15   7 334.480 16.0972   2
   1   7  15 380.429 16.4592   1
  -7  15  -1 353.496 16.7951   1
 -15  -1   7 350.468 16.4697   2
  -7 -15   1 333.866 16.4422   2
   1   7  15 330.647 16.6271   2
  -1  15   7 335.709 17.1129   1
  -7   1  15 317.593 16.5564   2
 -15   7   1 353.615 16.4999   1
  -7  15   3 421.000 20.7962   1
   3  15   7 412.059 20.2021   2
 -15  -7   3 445.585 20.6103   2
  -3  15  -7 490.915 20.6027   1
   3  15   7 435.102 20.9365   1
 -15   3   7 438.165 19.8976   2
  -7  -3  15 421.404 20.5110   2
   7   3  15 434.733 20.4408   2
  -3   7  15 463.308 20.6260   1
  -3   7  15 430.946 20.4620   2
 -15   7   3 428.265 20.4664   1
   7  15   3 419.256 20.8750   1
  -3  -7  15 445.800 20.5082   2
  -7 -15   3 410.403 20.2384   2
   3   7  15 420.104 20.4628   2
  -7  15  -3 450.916 20.4524   1
  -3  15   7 428.883 20.9696   1
  -7   3  15 420.763 20.4346   2
  -7   3  15 449.656 20.6990   1
 -15  -3   7 440.319 20.4402   2
  -3  15   7 441.479 19.7510   2
   7   5  15 165.129 8.43616   2
 -15   5   7 149.133 8.52406   1
  -5   7  15 167.733 8.56529   1
  -5   7  15 153.328 8.25273   2
  -7  -5  15 152.035 8.32056   2
  -7  15   5 158.707 8.76019   1
   5  15   7 159.896 8.70667   1
 -15  -7   5 164.946 8.49903   2
   5  15   7 152.323 8.22129   2
 -15   5   7 161.496 7.54975   2
  -5  -7  15 159.453 8.34654   2
  -7 -15   5 139.508 7.99844   2
 -15   7   5 156.632 8.47649   1
  -7   5  15 149.726 8.22650   2
  -5  15   7 157.387 8.78383   1
   7  15   5 159.387 8.73413   1
  -5  15   7 168.080 7.40810   2
   5   7  15 155.385 8.36603   2
  -7   5  15 165.056 8.63198   1
 -15  -5   7 158.185 8.37164   2
   7  15   7 475.761 22.5130   1
 -15   7   7 457.303 22.4214   1
 -15  -7   7 469.590 22.2454   2
  -7   7  15 445.135 21.9493   2
   7  15   7 455.413 22.1119   2
  15   7   7 526.097 22.4054   2
  -7  -7  15 491.999 22.3768   2
  -7   7  15 479.338 22.4626   1
   7   7  15 463.090 22.2206   2
  -7  15   7 461.270 22.6637   1
  -1   9  15 34.3523 2.78847   1
  -1   9  15 42.3296 2.95494   2
 -15  -9   1 39.1263 2.92275   2
  -9  15   1 39.6476 2.96612   1
 -15   1   9 40.1374 2.73705   2
  -9  -1  15 41.0210 2.91409   2
  -9 -15  -1 40.5901 2.81399   2
  -1  15  -9 34.2310 2.71998   1
   1  15   9 41.2335 2.75999   2
   1  15   9 42.5857 3.28150   1
  -9  15  -1 40.0881 2.84512   1
 -15   9   1 40.0317 2.75940   1
  -9   1  15 41.0706 2.94617   2
  -9 -15   1 40.4552 2.84996   2
   1   9  15 41.4285 2.94877   2
 -15  -9  -1 40.2812 2.91449   2
  -1  15   9 39.5750 2.60267   2
 -15  -1   9 41.4424 2.83444   2
  -1  15   9 41.0294 3.19448   1
   1  15  -9 43.1779 3.06192   1
  -9  15   3 45.8575 3.30365   1
   3  15   9 45.9345 3.09141   2
  -3   9  15 42.3034 3.03243   2
 -15  -9   3 45.0092 3.21402   2
   9   3  15 47.6691 3.09835   2
 -15   3   9 42.5113 2.76237   2
  -3   9  15 42.2912 3.09423   1
   3  15   9 41.4991 3.31084   1
  -9  -3  15 46.1081 3.23304   2
  -9  15  -3 42.3171 2.91500   1
  -9 -15   3 41.9002 3.00592   2
   9  15   3 45.6627 3.41310   1
 -15  -3   9 44.5858 3.07504   2
  -3  15   9 43.5448 2.71438   2
 -15   9   3 42.9966 3.03150   1
  -3  15   9 45.6436 3.53457   1
   3   9  15 45.5120 3.22736   2
  -9   3  15 44.2817 3.09710   2
 -15  -9   5 16.8489 1.66178   2
  -5   9  15 15.1246 1.71082   1
   9   5  15 16.8843 1.73106   2
  -5   9  15 18.2555 1.64867   2
   5  15   9 15.6212 1.61518   2
  -9  15   5 16.4208 1.79887   1
   5  15   9 16.1066 1.76968   1
  -9  -5  15 15.6877 1.54792   2
 -15   5   9 15.0006 1.28344   2
  -5  15   9 18.1572 1.93701   1
   9  15   5 17.4054 1.77734   1
  -9   5  15 16.5779 1.58811   2
  -5  15   9 15.6887 1.29093   2
 -15   9   5 14.1238 1.61216   1
  -9   5  15 15.8208 1.70957   1
 -15  -5   9 16.0823 1.57784   2
  -5  -9  15 13.8135 1.77938   2
   5   9  15 16.7583 1.64945   2
  -9 -15   5 15.2226 1.69154   2
 -15  -9   7 46.7146 3.25701   2
   9   7  15 44.5730 3.17843   2
  -9  -7  15 46.0246 3.24341   2
  -7   9  15 43.8794 2.97726   2
   7  15   9 44.3245 3.23419   2
  15   9   7 45.4733 3.30507   2
   9  15   7 46.3505 3.31000   2
   7   9  15 47.5479 3.29783   2
  -7  -9  15 48.5398 3.30984   2
  -7  15   9 40.6517 4.77385   1
  -9 -15   7 43.0719 3.11211   2
  -9   7  15 46.4019 3.05333   2
  15   7   9 43.7573 3.25807   2
 -15  -7   9 47.2150 3.25335   2
  -9   9  15 11.0209 1.38875   1
  -9  15   9 8.10410 1.38149   1
   9   9  15 10.5411 1.80507   2
   9  15   9 7.52888 1.22960   1
 -15   9   9 8.82022 1.27923   1
  -9  -9  15 11.0027 2.19133   2
  -9   9  15 9.27664 1.53582   2
 -15   1  11 258.109 12.4626   2
 -11  -1  15 247.131 12.6675   2
   1  15  11 249.441 12.4266   2
  -1  11  15 264.781 12.8400   1
  -1  11  15 249.585 12.6253   2
 -11  15   1 266.262 12.8390   1
   1  15  11 244.254 13.8846   1
 -15 -11   1 261.195 12.9216   2
 -11  15  -1 270.439 12.6459   1
 -15  -1  11 254.344 12.5828   2
 -11   1  15 251.946 12.6484   2
 -15 -11  -1 246.334 12.7747   2
  -1  15  11 252.153 12.3339   2
 -11 -15   1 260.103 12.7252   2
   1  11  15 276.563 12.7241   1
  -1  15  11 219.167 14.4623   1
 -15  11   1 264.587 12.5212   1
   1  11  15 245.660 12.6387   2
 -11  -3  15 375.052 18.2146   2
   3  15  11 378.052 18.0496   2
  -3  11  15 378.653 18.0409   2
 -15 -11   3 379.871 18.3790   2
 -15   3  11 387.902 17.7762   2
 -11   3  15 358.201 17.9833   2
  -3  15  11 387.175 17.6736   2
 -11 -15   3 392.274 18.2869   2
 -15  -3  11 366.313 18.0819   2
   3  11  15 403.620 18.0099   1
   3  11  15 373.309 18.1950   2
 -15   5  11 132.777 6.58379   2
 -11  15   5 130.051 7.53533   1
 -11  -5  15 136.288 7.53351   2
   5  15  11 132.236 7.28143   2
  11   5  15 131.152 7.18253   2
   5  15  11 138.543 7.45850   1
  -5  11  15 132.044 7.39491   1
  -5  11  15 121.328 7.06164   2
 -15 -11   5 135.644 7.45789   2
  -5  15  11 132.040 6.48403   2
  11  15   5 127.748 7.28146   1
 -11 -15   5 120.942 7.04836   2
  -5 -11  15 114.110 6.89961   2
   5  11  15 129.985 7.36787   2
 -15  11   5 126.959 7.26131   1
  -5  15  11 128.192 7.55891   1
 -15  -5  11 132.238 7.31449   2
 -11   5  15 123.902 6.95162   2
  11   7  15 401.220 18.2780   2
 -11  -7  15 376.586 17.9835   2
 -15   7  11 386.091 17.0805   2
  -7  11  15 352.671 18.0455   1
 -15   7  11 339.931 18.1072   1
 -15 -11   7 373.957 18.0058   2
   7  15  11 365.785 17.8715   2
  -7  11  15 365.038 17.4187   2
   7  15  11 365.660 17.7348   1
 -11  15   7 365.765 18.3067   1
  15  11   7 405.334 18.1929   2
  11  15   7 363.406 17.8579   1
  11  15   7 375.317 17.9685   2
 -11   7  15 365.191 17.4481   2
 -11 -15   7 403.873 18.2563   2
 -15  11   7 358.369 18.0543   1
  -7 -11  15 355.558 17.9016   2
 -15  -7  11 367.608 17.8947   2
   7  11  15 368.011 17.9894   2
  -7  15  11 353.817 18.2559   1
 -11   7  15 359.825 18.1403   1
  15   7  11 391.348 18.1093   2
 -15   9  11 22.3782 2.13538   1
 -11  -9  15 20.3229 1.93422   2
 -15 -11   9 22.9664 2.12076   2
  -9  11  15 20.9947 2.04126   1
  -9  11  15 23.0283 1.67987   2
 -11  15   9 23.0099 2.08984   1
  11   9  15 21.2388 2.06025   2
  15  11   9 21.6361 2.01176   2
   9  15  11 24.1270 2.17873   2
  -9  15  11 21.9568 2.26823   1
 -15  -9  11 22.1940 2.00957   2
 -15  11   9 22.7104 2.16198   1
  -9 -11  15 19.5520 1.92960   2
 -11   9  15 23.1852 2.21141   1
 -11   9  15 22.0253 1.65552   2
   9  11  15 25.8927 2.20061   2
  11  15   9 26.9219 2.17209   2
 -11  11  15 295.418 13.4042   2
  15  11  11 306.320 14.5524   2
 -15 -11  11 305.334 14.4585   2
 -15  11  11 284.469 14.6731   1
  11  15  11 295.186 14.4467   2
 -11  15  11 292.822 14.7790   1
  11  11  15 317.555 14.6060   2
 -11 -15  11 279.287 14.2903   2
 -11 -11  15 289.885 14.3627   2
 -11  11  15 263.218 14.4779   1
   1  15  13 3.81132 1.06899   1
  -1  13  15 5.45001 1.17199   1
 -15 -13   1 6.66619 1.13055   2
 -13 -15   1 4.88526 1.16499   2
 -13   1  15 6.87683 1.04539   2
  -1  15  13 4.62610 1.03144   1
   1  13  15 6.68673 1.11482   2
  -1  15  13 5.46500 0.96965   2
 -15   3  13 10.0373 1.06068   2
   3  15  13 9.16898 1.22097   2
 -13  -3  15 8.11160 1.17163   2
  -3  13  15 10.5681 1.18983   2
   3  13  15 8.19588 1.33083   2
 -13   3  15 8.31929 1.06965   2
  -3  15  13 7.18245 1.19989   1
 -13 -15   3 6.61876 1.24265   2
 -15  -3  13 8.70187 1.14780   2
 -15 -13   5 5.39650 1.08132   2
 -13  15   5 4.04636 1.03403   1
  -5  13  15 4.27275 0.98905   1
  13  15   5 3.69586 1.06538   1
  -5  15  13 4.45050 0.94432   2
 -13 -15   5 5.68745 1.23323   2
  -5  15  13 4.18255 1.05386   1
 -15  13   5 3.24272 1.03368   1
  13   7  15 0.48157 1.51650   2
   7  15  13 -0.5464 1.69201   1
  -7  13  15 1.41226 0.76129   2
 -15   7  13 0.03849 0.85161   2
  15  13   7 2.66170 1.16745   2
  -7 -13  15 -0.4421 1.60763   2
  15   7  13 -0.4884 1.73738   2
 -15  13   7 1.08944 0.88977   1
 -13 -15   7 1.48137 1.04070   2
  13  15   7 -0.1454 1.13613   1
 -15 -13   9 3.57749 1.03166   2
  15  13   9 1.94817 1.14388   2
 -13  15   9 2.77107 0.95887   1
  -9  13  15 1.60122 0.93956   2
  -9  13  15 3.06295 0.94539   1
 -13 -15   9 1.94824 1.06040   2
 -13   9  15 3.06999 0.95127   1
  -9  15  13 4.05860 0.99352   1
  13  15   9 3.00394 1.01314   2
 -11 -15  13 -0.4223 1.28209   2
  11  15  13 1.14928 0.86426   2
 -13  15  11 0.62816 0.79517   1
  15  13  11 0.30187 1.06096   2
 -11  13  15 0.65218 0.81190   1
  13  11  15 0.84787 1.07156   2
 -15 -13  11 0.73872 0.91580   2
 -13 -11  15 0.68854 0.95029   2
 -15  11  13 1.98739 0.87595   1
  13  15  11 1.28456 0.89695   2
 -15  13  11 1.47594 0.85778   1
  15  11  13 0.92449 1.22971   2
 -13  11  15 0.97594 0.81329   1
 -15 -11  13 1.51458 0.86644   2
 -11  15  13 1.08675 0.82558   1
 -13 -15  11 0.08520 1.06321   2
  11  13  15 1.53151 0.94937   2
 -11 -13  15 -0.4052 1.28422   2
 -15 -13  13 0.18425 0.92296   2
 -13 -15  13 0.03225 1.19874   2
  13  13  15 0.03798 0.98549   2
  13  15  13 1.51274 0.89961   2
  15  13  13 1.42117 1.05494   2
 -15 -15   1 154.131 8.52939   2
 -15  -1  15 168.814 8.51750   2
 -15   1  15 167.873 8.36866   2
  -1  15  15 152.909 8.51737   1
  -1  15  15 171.617 8.38283   2
   1  15  15 144.185 8.32914   1
   1  15  15 167.573 8.46321   2
 -15 -15   3 219.743 10.9521   2
 -15  -3  15 222.955 10.8841   2
 -15   3  15 227.160 10.5521   2
 -15  15   3 205.548 10.6925   1
  -3  15  15 197.428 10.8957   1
  -3  15  15 222.527 10.4832   2
   3  15  15 191.136 10.5344   1
   3  15  15 226.989 10.8916   2
  15  15   3 206.944 10.9089   1
 -15 -15   5 53.2299 3.54966   2
 -15  -5  15 60.6520 3.74442   2
 -15   5  15 58.1248 3.28436   2
 -15  15   5 47.0587 3.50392   1
  -5  15  15 50.5843 3.65584   1
  -5  15  15 58.1620 3.21658   2
   5  15  15 61.9681 3.76517   2
  15  15   5 59.6149 3.78924   2
 -15 -15   7 242.589 11.4685   2
 -15  -7  15 229.458 11.3586   2
 -15   7  15 233.309 10.4626   2
 -15  15   7 223.951 11.4947   1
  -7  15  15 207.644 11.4329   1
  -7  15  15 194.745 10.2790   2
   7  15  15 247.370 11.4587   2
  15  15   7 231.447 11.4936   2
 -15  -9  15 8.73465 1.06211   2
 -15  15   9 6.87118 1.08450   1
  -9  15  15 9.48651 1.20012   1
 -15 -15  11 149.356 7.93505   2
 -15 -11  15 153.894 7.96259   2
 -15  15  11 143.215 8.11111   1
 -11  15  15 158.280 8.23681   1
  11  15  15 166.293 8.08715   2
  15  15  11 166.094 8.14210   2
 -15 -15  13 1.20061 1.06237   2
 -15 -13  15 0.52432 0.89481   2
 -15  15  13 0.85056 0.80976   1
 -13  15  15 0.54587 0.80849   1
  13  15  15 0.60904 0.85116   2
  15  13  15 -0.0686 0.92806   2
  15  15  13 0.11072 0.84853   2
 -16   0   0 812.164 36.5984   2
   0   0  16 841.317 37.3049   2
   0  16   0 821.013 37.8053   1
   0  16   0 818.607 36.4071   2
 -16   0   2 0.74362 0.51973   2
  -2  16   0 0.41809 0.70021   1
   0  -2  16 1.06397 0.94765   2
   2   0  16 0.95597 0.84702   2
 -16  -2   0 1.31936 0.56291   2
  -2   0  16 0.66895 0.72430   2
   2  16   2 2.61713 0.69344   2
   2  16  -2 2.48385 0.87844   1
   2  16   2 2.60178 0.84440   1
  -2  16   2 2.86524 0.88609   1
  -2  16   2 3.81145 0.72990   2
   2  -2  16 1.96787 1.09066   2
  -2   2  16 2.99880 0.88784   2
   4  16   0 683.681 32.5648   1
   0  16   4 686.662 32.5832   1
   0  16   4 684.363 31.3578   2
   4   0  16 703.803 31.9655   2
   0   4  16 699.522 32.0901   2
 -16  -4   0 692.676 31.8213   2
  -4   0  16 702.098 32.0977   2
   0  16  -4 747.519 32.6284   1
  -4  16   0 719.847 32.5056   1
   0  -4  16 713.842 31.9929   2
 -16   0   4 687.874 31.5337   2
  -4  16   2 68.8808 4.69677   1
   2  16   4 76.0597 4.97735   1
  -2   4  16 69.1484 4.11138   1
 -16  -4   2 75.2206 4.33127   2
  -2   4  16 70.8851 4.43092   2
   2  16   4 70.3453 4.07779   2
  -4  -2  16 70.4158 4.37202   2
   4   2  16 68.1570 4.29725   2
 -16   2   4 68.4281 3.83675   2
  -2  16  -4 74.6305 4.66107   1
   2  16  -4 74.4267 4.82009   1
  -4   2  16 72.8400 4.46419   2
   2   4  16 67.7770 4.35022   2
  -2  16   4 75.2984 4.91651   1
  -2  16   4 72.0411 3.70577   2
   4  16   2 72.5364 4.85811   1
 -16  -2   4 72.6428 4.22778   2
  -2  -4  16 70.7211 4.30923   2
 -16  -4  -2 71.2141 4.20174   2
  -4  16  -2 74.2067 4.68670   1
  -4   4  16 728.745 32.0390   1
 -16   4   4 723.990 30.9889   2
  -4  -4  16 706.718 32.1977   2
   4  16   4 663.494 31.7201   2
  -4  16  -4 749.326 32.3927   1
  -4  16   4 686.349 32.5952   1
   4   4  16 690.104 32.1250   2
  -4   4  16 669.968 32.0678   2
 -16  -4   4 704.737 31.9981   2
   4  16   4 702.024 32.7063   1
 -16   0   6 1.30937 0.57888   2
   0  -6  16 0.58103 1.34521   2
   0   6  16 1.49481 0.77577   2
   0  16   6 1.39814 0.61949   2
   6   0  16 0.98364 1.34749   2
  -6  16   0 0.57022 0.82690   1
   0  16  -6 1.10804 0.91835   1
   2  16   6 1.02140 0.79388   1
  -2  16  -6 0.88005 0.99923   1
   2  16   6 0.75293 0.65002   2
  -6  -2  16 0.96174 0.81870   2
   6   2  16 -0.0856 1.03526   2
  -6  16   2 0.49487 0.79987   1
   6  16   2 0.81635 0.76848   1
 -16  -6  -2 0.77179 0.65234   2
 -16  -2   6 0.97157 0.61022   2
   2   6  16 1.66755 0.73363   2
  -2  -6  16 1.13128 1.17376   2
  -2  16   6 1.57638 0.82141   1
  -6  16  -2 0.84888 0.89623   1
  -6  16   4 49.3273 3.77606   1
  -4   6  16 52.4827 3.55547   2
 -16  -6   4 54.8663 3.60986   2
  -6  -4  16 54.5921 3.61740   2
   4  16   6 51.7314 3.79926   1
  -4   6  16 56.4544 3.54579   1
  -4  16  -6 54.4138 3.50164   1
   6   4  16 48.8528 3.42709   2
 -16   4   6 52.4940 2.88323   2
   4  16   6 52.7575 3.44118   2
  -4  -6  16 53.5359 3.57816   2
   4   6  16 50.5764 3.51590   2
  -6   4  16 52.9145 3.55119   1
 -16  -4   6 55.1357 3.52565   2
   6  16   4 50.2094 3.74051   1
  -6   4  16 50.3612 3.48099   2
  -4  16   6 48.9772 3.87226   1
  -6  16  -4 53.7427 3.52140   1
   6  16   6 4.52725 1.01357   1
  -6   6  16 4.23925 1.02711   1
  -6  -6  16 4.38123 1.16066   2
  -6  16   6 4.37233 1.02688   1
   6  16   6 5.49457 0.97284   2
   0   8  16 635.056 26.8421   1
 -16  -8   0 596.600 27.0993   2
   0  16   8 572.008 27.4932   1
   0  16   8 542.562 26.3886   2
  -8 -16   0 575.843 26.8356   2
  -8  16   0 589.557 27.1955   1
 -16   0   8 569.214 26.6212   2
   0   8  16 563.894 26.9741   2
  -8   0  16 534.627 26.9025   2
   0  16  -8 651.221 27.4501   1
  -8  16   2 210.942 11.1174   1
   2  16   8 218.811 11.3327   1
 -16  -8   2 216.983 10.9572   2
  -2   8  16 210.133 10.8320   2
   8   2  16 204.152 10.6336   2
 -16   2   8 217.684 10.3622   2
  -2   8  16 230.125 10.8422   1
  -8  -2  16 197.645 10.7752   2
   2  16   8 210.649 10.5379   2
  -2  16  -8 186.453 10.5883   1
 -16  -8  -2 219.950 10.9419   2
   2  16  -8 238.969 11.4074   1
  -8   2  16 207.902 10.8291   2
  -2  16   8 217.852 10.2111   2
   2   8  16 205.175 10.8236   2
 -16  -2   8 212.626 10.6849   2
 -16   8   2 211.354 10.6631   1
  -8 -16   2 203.492 10.6276   2
  -8  16  -2 221.016 10.8399   1
  -2  -8  16 220.401 10.8261   2
  -2  16   8 207.571 11.2720   1
   8  16   2 207.106 11.2488   1
   4  16   8 465.653 22.4332   1
  -8  -4  16 469.008 22.1296   2
   8   4  16 473.052 22.0753   2
  -8  16   4 477.827 22.5320   1
 -16   4   8 483.942 21.2561   2
  -4   8  16 487.124 22.1641   1
  -4   8  16 461.147 21.9651   2
 -16  -8   4 481.259 22.1959   2
   4  16   8 470.403 21.8846   2
 -16  -4   8 460.180 21.9637   2
  -4  -8  16 463.985 22.0043   2
   4   8  16 444.076 22.0288   2
  -8 -16   4 465.219 21.8698   2
  -4  16   8 501.993 21.0980   2
  -8   4  16 452.413 21.9540   2
  -4  16   8 453.022 22.5150   1
   8  16   4 466.809 22.4915   1
 -16   8   4 459.035 22.0366   1
   6  16   8 160.963 8.36727   2
  -8  -6  16 161.358 8.52055   2
 -16  -8   6 160.087 8.47698   2
  -6   8  16 161.601 8.29753   2
   8   6  16 162.966 8.47727   2
   8  16   6 155.289 8.34462   2
  -8 -16   6 134.896 8.07113   2
   6   8  16 162.069 8.48483   2
  -6  -8  16 158.684 8.38285   2
  -6  16   8 146.030 10.9353   1
  -8   6  16 155.501 8.25502   2
 -16  -6   8 157.384 8.39971   2
 -16   8   8 336.883 16.9999   1
   8  16   8 357.682 17.0119   1
  -8   8  16 347.323 17.0089   1
  -8  16   8 342.196 17.2405   1
   0  10  16 5.16664 1.02147   2
 -10   0  16 5.47210 0.95357   2
   0  16  10 4.85399 0.86125   2
 -16 -10   0 4.54788 0.96748   2
 -16   0  10 3.32409 0.85105   2
   2  16  10 4.27957 0.88677   2
  -2  10  16 6.24803 1.03074   2
 -16   2  10 3.99447 0.84287   2
 -16 -10   2 4.27191 0.98830   2
   2  10  16 5.55567 1.03815   2
  10  16   2 5.15074 1.26287   1
 -16  -2  10 4.46754 0.91036   2
   2  16 -10 2.97853 1.65383   1
 -10   2  16 6.00113 0.96192   2
 -10 -16   2 2.78642 1.22165   2
   4  16  10 30.6797 2.56531   1
  -4  10  16 34.5183 2.58205   2
   4  16  10 34.1303 2.59778   2
  10   4  16 30.7852 2.44666   2
  -4  10  16 30.9934 2.49458   1
 -10  -4  16 25.6776 2.36298   2
 -16   4  10 29.3570 2.03164   2
 -16 -10   4 29.2982 2.59327   2
 -10  16   4 31.0121 2.67263   1
  10  16   4 31.4388 2.70586   1
  -4  16  10 30.3405 2.84257   1
   4  10  16 31.6570 2.56190   2
 -10   4  16 30.0690 2.45309   2
  -4  16  10 27.4458 1.95225   2
 -16  -4  10 29.9965 2.44364   2
 -16  10   4 29.4256 2.37712   1
  10   6  16 6.38532 1.91604   2
  -6  10  16 6.11696 1.07931   1
   6  16  10 8.00526 1.17689   1
 -10  16   6 6.54676 1.13664   1
 -10   6  16 6.94833 1.19625   1
 -16  -6  10 7.83747 1.14057   2
  -6 -10  16 6.45909 1.84923   2
 -16  10   6 6.18906 1.07941   1
  10  16   6 8.87908 1.23376   2
  10  16   6 6.18201 1.09941   1
 -10 -16   6 6.47828 1.89564   2
 -10   6  16 8.30900 1.02343   2
  16  10   8 82.1715 5.21346   2
 -10  16   8 83.6513 5.61705   1
  -8  10  16 83.9813 5.36198   1
   8  16  10 95.3503 5.45974   2
 -16 -10   8 90.7801 5.34693   2
  10   8  16 93.2825 5.41208   2
 -10  -8  16 95.9841 5.45072   2
  -8  10  16 90.4932 4.99234   2
   8  16  10 82.2349 5.19735   1
  -8  16  10 91.6471 5.81625   1
  10  16   8 93.2118 5.43609   2
   8  10  16 92.9197 5.44724   2
  16   8  10 87.3012 5.29853   2
  10  16   8 81.7290 5.19500   1
 -10   8  16 88.8026 5.47345   1
 -10   8  16 89.9736 4.98488   2
 -16  -8  10 85.1013 5.27101   2
 -16  10   8 84.3859 5.37979   1
  -8 -10  16 82.6630 5.13187   2
 -10  10  16 25.6065 2.16340   1
 -16 -10  10 22.6852 1.94678   2
 -10  16  10 24.1437 2.23161   1
 -10 -10  16 19.7318 1.99491   2
 -16  10  10 20.4795 2.06708   1
  10  10  16 27.8207 2.07278   2
 -10  10  16 27.5994 1.76980   2
 -12   0  16 306.413 15.2204   2
 -16 -12   0 324.736 15.5311   2
   0  16  12 311.747 15.5812   1
   0  12  16 298.921 15.1161   1
   0  16  12 315.701 14.9589   2
 -12  16   0 313.317 15.1368   1
   0  12  16 304.491 15.2108   2
 -16   0  12 326.551 15.0928   2
 -16 -12   2 308.744 15.0610   2
 -12  -2  16 291.119 14.7973   2
  -2  12  16 310.477 14.7661   2
 -16   2  12 306.940 14.4416   2
   2  16  12 304.072 15.0420   1
 -12  16   2 307.166 14.9637   1
  -2  12  16 315.054 14.9486   1
   2  16  12 303.056 14.6299   2
 -12 -16   2 314.690 14.9293   2
  -2  16  12 303.026 15.2454   1
 -16  -2  12 301.770 14.7027   2
 -16  12   2 300.078 14.5925   1
   2  12  16 306.232 14.8949   2
   2  12  16 269.686 14.4938   1
 -12   2  16 303.617 14.7541   2
  -2  16  12 313.220 14.3908   2
  12  16   2 291.352 15.1565   1
   4  16  12 280.878 14.2409   1
   4  16  12 292.042 14.1674   2
  -4  12  16 291.171 14.0208   2
  -4  12  16 284.565 14.3319   1
 -16 -12   4 301.508 14.4616   2
 -12  16   4 291.929 14.5408   1
 -12  -4  16 287.328 14.3034   2
 -16   4  12 295.832 13.6253   2
 -12 -16   4 287.834 14.2318   2
 -12   4  16 293.425 14.0457   2
  -4  16  12 282.483 14.6113   1
 -16  12   4 279.891 14.1786   1
 -16  -4  12 287.603 14.1841   2
  12  16   4 281.467 14.4519   1
  -4  16  12 293.364 13.5058   2
   4  12  16 299.182 14.3899   2
   6  16  12 240.949 11.7472   2
  12   6  16 224.145 11.6219   2
   6  16  12 211.173 11.4790   1
 -16   6  12 237.215 10.7653   2
  -6  12  16 231.287 11.9019   1
 -12  16   6 222.048 11.9484   1
  -6  12  16 245.737 11.3819   2
 -12  -6  16 221.668 11.7106   2
 -16 -12   6 242.251 11.9395   2
  16  12   6 239.428 11.8706   2
   6  12  16 240.028 11.8400   2
 -12 -16   6 230.258 11.6978   2
 -12   6  16 237.289 11.3619   2
 -16  12   6 223.213 11.7802   1
  -6  16  12 236.248 12.2295   1
 -16  -6  12 228.188 11.7118   2
  12  16   6 223.270 11.7209   1
  12  16   6 228.527 11.7603   2
  -6 -12  16 243.962 13.2705   2
   8  16  12 169.482 8.67523   2
  12   8  16 149.997 8.53954   2
  -8  12  16 157.401 8.73631   1
 -16 -12   8 178.378 8.82816   2
  -8  12  16 169.326 8.06709   2
 -12  16   8 151.542 8.81487   1
 -12  -8  16 168.812 8.70530   2
  16  12   8 171.134 8.77260   2
   8  12  16 169.693 8.73139   2
  -8  16  12 168.310 9.12012   1
 -12   8  16 169.717 8.10602   2
 -16  -8  12 163.385 8.61312   2
  12  16   8 165.538 8.70890   2
 -16  12   8 148.137 8.66780   1
 -12 -16   8 144.504 8.44713   2
 -10  12  16 128.695 6.03240   2
 -16 -12  10 126.368 6.84831   2
 -10  12  16 112.743 6.85999   1
  12  10  16 133.504 7.01506   2
  10  16  12 132.772 6.92934   2
 -12  16  10 120.658 7.09464   1
  16  12  10 134.910 7.09971   2
 -12 -10  16 120.063 6.77037   2
 -10 -12  16 119.296 6.81695   2
  16  10  12 108.271 6.79238   2
 -12  10  16 124.307 7.03186   1
 -12  10  16 124.835 6.02210   2
 -16 -10  12 132.647 6.91465   2
 -10  16  12 118.200 7.07173   1
  12  16  10 133.024 6.96352   2
 -16  12  10 125.075 7.04824   1
  10  12  16 133.117 6.98805   2
 -12 -12  16 76.1515 4.46620   2
 -16 -12  12 81.3656 4.48002   2
  16  12  12 75.3965 4.55904   2
  12  12  16 74.1693 4.41932   2
 -12  16  12 76.8053 4.71068   1
 -12  12  16 64.9144 4.36594   1
 -16   0  14 3.56017 0.85462   2
 -14   0  16 2.94883 0.91581   2
   0  14  16 1.67854 1.14755   1
 -16 -14   2 4.27237 1.03618   2
  -2  14  16 6.94708 1.03862   2
 -14  -2  16 6.90236 1.04206   2
   2  16  14 6.33179 1.01140   2
 -16   2  14 5.49197 0.93904   2
  -2  16  14 5.12906 0.97231   2
   2  14  16 5.69025 1.06973   2
 -16  -2  14 6.85349 1.01933   2
 -14   2  16 4.14534 0.92865   2
  -4  14  16 5.67874 1.11449   1
 -14  16   4 6.75237 1.20719   1
  -4  16  14 7.70800 1.20060   1
  14  16   4 6.44276 1.20523   1
 -14 -16   4 7.67204 1.29082   2
 -16  14   4 6.62532 1.19537   1
  16  14   6 12.9003 1.43610   2
 -16 -14   6 14.0255 1.47321   2
 -14  16   6 10.4180 1.36696   1
  -6  14  16 14.0990 1.25867   2
  -6  14  16 11.2319 1.34638   1
 -14   6  16 12.5379 1.17846   2
 -16  14   6 11.2395 1.36772   1
 -16  -6  14 14.8958 1.45884   2
  -6  16  14 12.6061 1.42165   1
  -8  14  16 28.8546 2.39850   1
 -14  -8  16 32.6055 2.36556   2
  16  14   8 30.0068 2.32333   2
   8  16  14 35.9090 2.43105   2
 -16 -14   8 30.2116 2.36776   2
 -14  16   8 30.0166 2.39689   1
 -16  14   8 27.3530 2.28228   1
  -8  16  14 35.1419 2.59611   1
 -16  -8  14 33.6106 2.38834   2
 -14 -16   8 26.2695 2.29817   2
 -14  16  10 18.1686 1.71229   1
  10  16  14 20.5515 1.71752   2
  16  14  10 17.8002 1.77989   2
 -16 -14  10 19.0734 1.68879   2
 -14 -10  16 18.8810 1.62236   2
 -16 -10  14 20.2997 1.64679   2
 -10  16  14 18.8936 1.76804   1
 -16  14  10 18.2674 1.71460   1
  10  14  16 19.1609 1.70813   2
  14  16  10 19.8031 1.70913   2
  16  14  12 46.4741 3.27692   2
  12  16  14 44.0996 2.79828   2
 -14  16  12 48.7164 3.95618   1
 -12  14  16 37.1024 3.00746   1
  14  12  16 37.6546 2.87744   2
 -16 -14  12 44.5741 3.02390   2
  14  16  12 49.0772 3.00757   2
  12  14  16 44.4013 3.04194   2
 -16 -12  14 41.3158 2.74347   2
 -16   0  16 139.592 7.29782   2
   0  16  16 144.225 7.30549   2
 -16  -2  16 276.313 13.4443   2
 -16   2  16 281.526 13.2285   2
  -2  16  16 265.079 13.5471   1
  -2  16  16 292.850 13.2247   2
   2  16  16 301.105 13.5605   2
  16  16   2 259.518 13.6378   1
 -16 -16   4 94.6708 5.66388   2
 -16  -4  16 103.977 5.68851   2
 -16   4  16 103.567 5.27126   2
  -4  16  16 100.339 5.16343   2
   4  16  16 111.311 5.78651   2
  16  16   4 108.432 5.95606   2
 -16 -16   6 212.177 10.6554   2
 -16  -6  16 219.266 10.6326   2
 -16   6  16 189.555 9.96157   2
  -6  16  16 209.943 10.7411   1
   6  16  16 229.731 10.6992   2
  16  16   6 226.106 10.8222   2
 -16 -16   8 54.8370 3.72281   2
 -16  -8  16 66.1291 3.85311   2
   8  16  16 72.4486 3.95084   2
  16  16   8 68.6228 3.98961   2
 -16  16  10 81.4687 4.42513   1
  16  10  16 71.2984 5.44980   2
 -17  -1   1 416.811 19.4862   2
 -17   1   1 430.753 19.2401   2
  -1  -1  17 409.056 19.9965   2
  -1   1  17 436.707 20.1427   2
  -1  17  -1 428.063 20.6149   1
  -1  17   1 425.425 20.6307   1
  -1  17   1 430.505 18.9676   2
   1  -1  17 432.313 20.0332   2
   1   1  17 415.333 20.0175   2
   1  17  -1 425.073 20.6544   1
   1  17   1 422.740 20.6601   1
   1  17   1 419.597 19.3046   2
  -1  17  -3 320.793 15.4857   1
 -17   1   3 303.059 14.1992   2
 -17  -3   1 302.607 14.5935   2
  -3  17   1 307.176 15.4195   1
   3   1  17 310.836 14.9207   2
  -1   3  17 303.931 14.9582   2
   1  -3  17 308.934 14.8428   2
  -3  -1  17 309.192 14.9889   2
   3  17  -1 295.812 15.4309   1
   1  17   3 306.183 15.5401   1
   1  17   3 302.731 14.2667   2
   1   3  17 298.273 14.9102   2
  -1  -3  17 313.180 14.9275   2
  -1  17   3 309.054 13.9776   2
   1  17  -3 313.323 15.4839   1
 -17  -3  -1 301.252 14.5392   2
  -3  17  -1 319.891 15.4280   1
   3  -1  17 313.397 14.8714   2
  -3   1  17 295.878 14.8958   2
 -17  -1   3 298.083 14.4409   2
  -1  17   3 298.207 15.4317   1
   3  17   1 307.924 15.5414   1
  -3  -3  17 224.259 11.0921   2
 -17  -3   3 212.602 10.7262   2
   3  17   3 210.946 10.5438   2
  -3   3  17 217.716 11.0815   2
  -3  17  -3 235.511 11.4858   1
  -3  17   3 212.832 11.4883   1
   3  -3  17 205.516 10.7571   2
   3   3  17 222.210 11.0402   2
   3  17  -3 219.181 11.5588   1
   3  17   3 204.921 11.4855   1
   1  17   5 469.455 21.7837   2
  -5  -1  17 475.447 22.4633   2
   5   1  17 495.303 22.4036   2
  -1  17  -5 519.755 22.9985   1
 -17   1   5 469.551 21.7298   2
  -1   5  17 472.815 22.4401   2
   1  -5  17 477.650 22.2790   2
   1  17   5 469.960 22.9819   1
 -17  -5   1 480.197 22.2605   2
  -5  17   1 473.332 22.8101   1
   5  17  -1 456.403 22.9138   1
   5  17   1 461.581 22.9408   1
  -1  17   5 475.607 23.0109   1
 -17  -5  -1 456.554 22.1430   2
 -17  -1   5 473.132 21.9652   2
  -1  -5  17 496.972 22.4176   2
  -1  17   5 471.013 21.5176   2
   1   5  17 471.716 22.4539   2
  -5  17  -1 502.083 22.8374   1
  -5   1  17 482.351 22.4751   2
   5  -1  17 446.467 22.1196   2
   1  17  -5 500.008 23.0334   1
   5   3  17 273.810 13.6472   2
   3  17   5 276.014 14.2712   1
 -17   3   5 287.598 12.7703   2
  -3   5  17 295.465 13.4685   1
  -3  17  -5 307.299 14.0576   1
 -17  -5   3 274.304 13.5826   2
   3  17   5 265.962 13.2419   2
  -3   5  17 273.285 13.6939   2
  -5  17   3 264.568 14.0418   1
  -5  -3  17 270.434 13.6834   2
  -5   3  17 257.334 13.5816   2
   5  17   3 264.323 13.2936   2
 -17  -3   5 276.074 13.4479   2
   3  17  -5 276.840 14.2043   1
  -5  17  -3 298.548 13.9695   1
   3   5  17 271.268 13.7024   2
  -3  -5  17 284.643 13.7229   2
   5  17   3 268.339 14.1805   1
  -3  17   5 271.549 14.2059   1
   5  17   5 505.653 23.9157   2
  -5   5  17 500.384 24.1418   2
  -5  17  -5 561.981 24.3039   1
  -5  17   5 484.826 24.6989   1
   5   5  17 516.223 24.2865   2
   5  17   5 505.820 24.7444   1
 -17  -5   5 516.461 24.1221   2
  -5  -5  17 524.691 24.2889   2
  -5   5  17 543.621 24.1923   1
  -1   7  17 125.435 6.94882   1
  -1  17  -7 142.508 7.40980   1
 -17   1   7 124.578 6.48622   2
   1  17   7 123.597 6.51709   2
  -7  17   1 125.934 7.19954   1
   1  17   7 122.478 7.36930   1
  -7  -1  17 116.183 6.91105   2
  -1   7  17 122.299 6.97343   2
   7   1  17 118.879 6.73188   2
 -17  -7   1 127.851 7.01802   2
   1   7  17 124.460 7.03431   2
  -7   1  17 121.670 6.96351   2
 -17  -7  -1 128.549 6.99788   2
  -1  17   7 117.016 7.52853   1
  -1  17   7 126.580 6.34356   2
   1  17  -7 137.583 7.44220   1
  -1  -7  17 125.369 7.02852   2
  -7  17  -1 130.805 7.11650   1
 -17  -1   7 128.784 6.71418   2
   7  17   1 120.402 7.43714   1
  -7  -3  17 136.245 7.44612   2
  -7  17   3 123.726 8.49688   1
   7   3  17 132.825 7.36024   2
  -3   7  17 137.607 7.22501   1
  -3   7  17 134.911 7.39696   2
   3  17   7 131.541 7.08958   2
 -17  -7   3 126.696 7.33087   2
 -17   3   7 133.115 6.63632   2
  -7  17  -3 143.675 7.42384   1
 -17  -3   7 134.219 7.20817   2
  -3  17   7 143.770 6.50229   2
   3  17  -7 140.094 8.07037   1
  -7   3  17 130.049 7.34022   2
   3   7  17 134.203 7.45185   2
  -3  -7  17 130.461 7.28806   2
  -5   7  17 117.193 6.64645   2
 -17  -7   5 119.227 6.70845   2
   5  17   7 120.697 6.60813   2
  -7  -5  17 120.038 6.73042   2
   7   5  17 126.039 6.82103   2
   5  17   7 115.567 7.27025   1
  -7  17   5 116.203 7.18297   1
  -7   5  17 122.075 6.74915   2
  -5  17   7 117.843 7.21825   1
   7  17   5 114.802 7.10115   1
  -5  -7  17 123.425 6.76564   2
 -17  -5   7 122.013 6.68567   2
   7  17   5 123.212 6.66778   2
   5   7  17 118.158 6.75510   2
 -17  -7   7 86.4082 5.69776   2
  -7  17   7 88.6243 5.75342   1
   7  17   7 84.3958 5.54108   1
   7  17   7 89.0496 5.72672   2
   7   7  17 99.6404 7.38129   2
  -7   7  17 88.2199 5.47120   1
  -7  -7  17 88.2431 6.90017   2
  -7   7  17 94.3460 6.17277   2
 -17   1   9 345.457 16.6805   2
   1  17   9 336.498 16.7089   2
  -1   9  17 359.909 17.2437   2
  -9  17   1 365.924 17.3982   1
 -17  -9   1 334.939 17.3276   2
   1  17   9 352.497 17.6173   1
  -9  -1  17 391.754 17.6658   2
 -17  -1   9 324.556 16.9239   2
  -1  17   9 351.039 17.6437   1
  -9 -17   1 338.877 16.8868   2
   9  17   1 333.746 17.5728   1
  -1  17   9 353.183 16.4918   2
  -9   1  17 363.252 17.4647   2
  -9  17  -1 348.846 17.5488   1
 -17  -9  -1 372.990 17.4475   2
   1  17  -9 393.127 19.3525   1
   1   9  17 374.312 17.5894   2
   9   3  17 227.607 11.8257   2
  -9  17   3 219.604 11.6994   1
   3  17   9 226.828 11.8695   1
 -17   3   9 197.120 11.1021   2
  -3   9  17 221.677 11.3186   1
  -3  17   9 237.772 10.8835   2
   9  17   3 218.332 11.8450   1
  -3  17   9 225.696 11.9662   1
  -3  -9  17 234.976 11.9957   2
   3  17  -9 251.582 12.0133   1
  -9 -17   3 217.689 11.7429   2
  -9  17   5 424.594 21.4066   1
   5  17   9 443.220 20.9521   2
 -17  -9   5 462.109 21.2788   2
   5  17   9 434.530 21.3580   1
  -5   9  17 455.536 21.1661   1
  -5   9  17 416.698 20.8916   2
   9   5  17 493.683 22.1265   2
  -9  -5  17 433.989 21.1221   2
  -9   5  17 450.549 21.0204   2
  -9 -17   5 435.504 21.0298   2
   9  17   5 432.989 21.4369   1
  -5  -9  17 480.575 21.3485   2
  -5  17   9 437.952 21.6256   1
   9  17   5 427.956 20.9405   2
   5   9  17 456.918 21.2578   2
 -17  -5   9 437.785 20.9928   2
   7  17   9 72.9118 4.72531   1
   9   7  17 77.6765 4.75912   2
  -7   9  17 72.4672 4.70444   1
  -7   9  17 78.2737 4.57671   2
 -17  -9   7 75.8996 4.74397   2
  -9  17   7 77.8814 5.03556   1
   7  17   9 83.8871 4.85279   2
  -9  -7  17 79.2449 4.75103   2
  -9   7  17 79.6170 4.59803   2
   9  17   7 77.8239 4.93368   1
   9  17   7 76.8940 4.77532   2
 -17  -7   9 75.3029 4.71870   2
  -9   7  17 71.4793 4.74253   1
  -7  -9  17 68.1036 4.62230   2
  -7  17   9 76.4247 5.10682   1
   7   9  17 77.6957 4.83028   2
  -9  -9  17 386.424 17.7251   2
   9   9  17 376.248 17.7546   2
 -17  -9   9 365.619 17.6092   2
  17   9   9 361.798 17.5833   2
   9  17   9 349.986 17.5577   1
   9  17   9 362.580 17.5695   2
  -9   9  17 365.439 17.7671   1
  -9   9  17 372.622 17.2167   2
  -9  17   9 356.174 18.0660   1
 -17   1  11 41.1636 2.75813   2
 -17 -11   1 42.4286 3.15985   2
 -11  -1  17 42.8000 3.06600   2
   1  17  11 40.0321 3.18036   1
  -1  11  17 45.7400 3.15272   2
 -11  17   1 43.9409 3.11348   1
   1  17  11 42.0618 2.85622   2
 -17  -1  11 44.0573 2.92570   2
 -11   1  17 46.2316 3.16293   2
   1  11  17 47.3682 3.27233   2
  11  17   1 41.5770 3.28501   1
  -1  17  11 39.2691 3.24741   1
  -1  17  11 42.6748 2.73096   2
  -3  11  17 51.2597 3.30644   2
 -17 -11   3 46.8052 3.32241   2
   3  17  11 47.3274 3.13077   2
 -17   3  11 40.9189 2.70893   2
   3  17  11 42.1493 3.27403   1
 -11  -3  17 48.9420 3.32625   2
 -11  17   3 42.0718 3.31916   1
 -11   3  17 49.7429 3.28845   2
   3  11  17 44.8713 3.26964   2
 -17  -3  11 47.5466 3.17073   2
  -3  17  11 46.5062 2.68510   2
   3  17 -11 40.4498 3.17094   1
  11  17   3 43.2152 3.39976   1
  -3  17  11 44.3406 3.50326   1
 -17 -11   5 24.0475 2.06918   2
 -11  17   5 20.0334 2.05544   1
   5  17  11 28.2361 2.22277   2
 -17   5  11 21.7029 1.55428   2
 -17  -5  11 25.1660 1.98193   2
 -17  11   5 25.9610 2.06012   1
  11  17   5 22.6940 2.00196   1
  -7  11  17 53.4613 3.15392   2
  -7  11  17 44.6203 3.35460   1
 -17 -11   7 49.5226 3.36152   2
 -11  17   7 49.3344 3.64998   1
 -11  -7  17 52.4521 3.37351   2
   7  11  17 50.5122 3.45074   2
  11  17   7 52.2648 3.45505   2
 -17  11   7 41.4487 3.20660   1
 -17  -7  11 49.7849 3.36589   2
  11  17   7 44.2032 3.30361   1
  -7  17  11 48.8865 3.62460   1
 -11   7  17 51.8143 3.11174   2
  -9  11  17 13.8085 1.24916   2
  -9  11  17 11.3892 1.40165   1
 -17 -11   9 16.6184 1.49036   2
  11   9  17 12.1861 1.68593   2
 -11  -9  17 14.4730 1.53106   2
 -11  17   9 13.1528 1.48697   1
   9  11  17 12.5333 1.53216   2
  -9  17  11 15.1379 1.55597   1
  11  17   9 16.6636 1.48787   2
 -11   9  17 12.9185 1.21556   2
  11  11  17 27.9610 2.33334   2
 -17 -11  11 37.3231 2.48407   2
 -11  11  17 30.6853 2.39719   1
  11  17  11 36.8856 2.47198   2
 -17   1  13 224.465 10.6137   2
 -17 -13   1 222.927 11.1270   2
 -13  -1  17 225.615 11.0150   2
  -1  13  17 183.739 10.5909   1
   1  17  13 207.738 11.0509   1
 -13  17   1 201.428 10.6898   1
  -1  13  17 221.263 10.8763   2
   1  17  13 228.204 10.7290   2
  -1  17  13 230.944 10.5659   2
  13  17   1 203.672 11.2284   1
 -17  -1  13 225.646 10.7727   2
   1  13  17 222.188 10.9864   2
  -1  17  13 204.980 11.0863   1
 -13   1  17 220.578 10.8873   2
 -17   3  13 117.286 5.89839   2
 -13  17   3 111.266 6.39568   1
  -3  13  17 100.291 6.19935   1
  -3  13  17 119.559 6.24771   2
 -17 -13   3 122.071 6.60618   2
 -13  -3  17 120.932 6.52594   2
   3  17  13 124.031 6.33313   2
   3  17  13 102.093 6.24586   1
 -17  -3  13 122.230 6.40387   2
  -3  17  13 114.975 6.71391   1
 -13 -17   3 102.935 6.23573   2
  13  17   3 104.237 6.45434   1
   3  13  17 121.356 6.51180   2
 -13   3  17 120.819 6.25915   2
  -3  17  13 112.190 5.75857   2
 -13  17   5 252.520 12.6860   1
  -5  13  17 259.782 12.1323   2
 -17   5  13 256.059 11.5711   2
  -5  13  17 228.986 12.3846   1
   5  17  13 264.322 12.4470   2
 -13  -5  17 265.344 12.6107   2
 -17 -13   5 263.615 12.6729   2
   5  17  13 227.706 12.2795   1
  17  13   5 262.480 12.6798   2
 -17  -5  13 259.516 12.4831   2
   5  13  17 259.392 12.6066   2
  13  17   5 256.742 12.5920   2
 -13   5  17 260.983 12.1647   2
  13  17   5 242.194 12.5530   1
  -5  17  13 247.775 12.8878   1
 -13 -17   5 246.492 12.4529   2
 -17  13   5 230.769 12.3153   1
  17  13   7 38.7609 3.03681   2
 -13  17   7 44.1517 3.17728   1
  -7  13  17 38.3883 2.90915   1
  -7  13  17 44.7873 2.62296   2
 -13  -7  17 47.7102 3.09804   2
 -17 -13   7 49.6055 3.15884   2
 -17  -7  13 44.5128 2.97215   2
 -13   7  17 44.1939 2.63409   2
  -7  17  13 36.9929 2.97936   1
   7  13  17 49.2392 3.11849   2
  13  17   7 49.0470 3.20025   2
 -17  13   7 39.1061 2.93633   1
 -13  -9  17 265.804 12.3511   2
  -9  13  17 239.801 12.3113   1
   9  17  13 260.095 12.2734   2
  17  13   9 266.032 12.4429   2
 -17 -13   9 246.392 12.2402   2
  -9  13  17 241.912 11.4039   2
 -13  17   9 242.488 12.4698   1
  13   9  17 232.387 12.2194   2
   9  13  17 274.035 12.4553   2
 -13 -17   9 210.387 12.0263   2
 -13   9  17 248.997 11.3481   2
  13  17   9 269.212 12.3898   2
 -17  -9  13 247.760 12.1939   2
 -17 -13  11 3.16017 0.92683   2
  13  11  17 2.70240 1.66354   2
  11  17  13 3.79403 0.88185   2
 -17 -11  13 3.80492 0.89493   2
  13  17  11 3.29504 0.94948   2
 -11  17  13 3.90093 1.00431   1
  11  13  17 4.34016 1.08965   2
 -13  17  13 167.041 8.07267   1
  17  13  13 129.929 7.71868   2
  13  17  13 169.029 7.88233   2
  13  13  17 155.133 7.87558   2
 -17 -13  13 161.802 7.82577   2
 -17   1  15 2.74632 0.81624   2
   1  17  15 1.14854 1.07400   1
 -17  -1  15 2.60426 0.80414   2
  15  17   1 2.54465 0.96903   1
  -1  17  15 1.27958 0.96132   1
 -17   3  15 7.41191 0.98954   2
  -3  17  15 8.23606 1.04644   2
 -17  -3  15 8.72070 1.04063   2
  17  15   5 0.97810 1.02585   2
 -17   5  15 -0.0362 1.04651   2
 -17 -15   5 1.92060 0.88149   2
   5  17  15 1.81916 0.77164   2
 -15  17   5 0.25034 1.02283   1
  -5  15  17 1.40871 0.85197   2
 -17  15   5 0.57047 1.38382   1
 -17  -5  15 1.26429 0.72760   2
 -15   5  17 1.12874 0.78734   2
 -15 -17   5 0.27681 1.04312   2
  15  17   5 0.69713 0.87977   2
  15  17   5 -0.3549 1.38560   1
  17  15   7 7.16198 1.26161   2
 -17 -15   7 6.73175 1.05690   2
 -15  17   7 7.40948 1.66129   1
 -17  -7  15 8.28504 0.99812   2
  -7  17  15 5.49860 0.99379   1
 -15 -17   7 5.26665 1.21258   2
 -15   7  17 7.41335 1.64256   2
 -17  15   7 5.13968 1.28151   1
  17  15   9 0.26428 1.58273   2
  -9  15  17 -0.2024 0.87612   1
 -17 -15   9 0.02848 0.92183   2
   9  17  15 0.04920 0.74638   2
 -15  17   9 0.16882 0.90319   1
 -15  -9  17 -0.1097 0.81893   2
   9  15  17 0.41935 0.81153   2
 -17  -9  15 0.62177 0.79903   2
  -9  17  15 -0.0607 0.94966   1
 -15 -17   9 -0.3591 1.07374   2
  15  17   9 0.41710 0.84446   2
 -17  -1  17 87.1261 4.64290   2
 -17   1  17 86.3755 4.51703   2
  -1  17  17 83.4925 4.44799   2
   1  17  17 89.7333 4.62326   2
 -17  -3  17 50.5453 3.02053   2
   3  17  17 52.1065 3.07656   2
  17  17   3 50.0009 3.18788   2
 -17  -5  17 130.544 6.56603   2
   5  17  17 126.151 6.53503   2
  17  17   5 128.849 7.29713   2
 -17 -17   7 6.70407 1.17582   2
 -17  -7  17 9.36654 1.02866   2
  17  17   7 8.82135 1.14806   2
   0   0  18 1.61225 0.94099   2
   0  18   0 1.09601 0.91895   1
   0  18   0 0.38087 0.69973   2
 -18   0   2 17.6788 1.33553   2
  -2  18   0 18.3033 1.93582   1
   0  -2  18 16.1118 1.66431   2
   0   2  18 17.5123 1.65953   2
   2  18   0 16.7740 1.80408   1
   2  18   0 17.4953 1.36282   2
   2   0  18 14.2655 1.68146   2
 -18  -2   0 19.2281 1.49044   2
  -2   0  18 16.1023 1.64869   2
   0  18  -2 16.1918 1.70875   1
   0  18   2 15.3572 1.81439   1
   0  18   2 14.3821 1.24264   2
  -2  -2  18 89.7009 5.43679   2
   2  18   2 96.2129 6.07949   1
   2  18   2 91.7722 4.94681   2
  -2  18   2 97.2955 6.05131   1
   2  -2  18 87.9025 5.27030   2
   2   2  18 92.3557 5.47871   2
   2  18  -2 92.5215 5.92226   1
 -18  -2   2 94.6792 5.13614   2
  -2  18  -2 96.2972 5.87181   1
  -2   2  18 95.3125 5.59623   2
   0  18   4 4.42192 1.07559   1
   0   4  18 3.80816 1.02829   2
   4  18   0 3.70144 0.95141   1
  -2   4  18 9.59497 1.29264   2
 -18   2   4 10.8435 0.97237   2
  -2  18  -4 9.25036 1.40992   1
   2  18   4 10.4486 1.79620   1
   4   2  18 8.24839 1.37822   2
 -18  -4   2 10.1906 1.15987   2
  -4  -2  18 8.70846 1.28705   2
   4  18  -2 10.2279 1.72967   1
  -4  18   2 8.14138 1.41142   1
  -4  18  -2 10.1207 1.43438   1
   4  18   2 10.1765 1.13084   2
   2  18  -4 9.53762 1.41027   1
 -18  -2   4 10.5204 1.08136   2
  -4   2  18 10.5354 1.34520   2
  -2  -4  18 10.5851 1.39220   2
   4  18   2 9.73308 2.07965   1
   4   4  18 2.35698 1.06473   2
  -4  18  -4 5.44031 1.82098   1
 -18  -4   4 3.83821 0.88477   2
  -4  -4  18 3.32797 1.16007   2
   4  18   4 4.06669 0.88022   2
   0  18   6 96.4933 4.87951   2
  -6   0  18 91.9637 5.53481   2
   6  18   0 85.7938 6.01858   1
   0  18   6 88.0737 6.12481   1
 -18   0   6 91.1152 4.99660   2
   0  -6  18 94.2076 6.66433   2
   0   6  18 94.4535 5.50471   2
 -18  -6   0 95.5681 5.40941   2
   2  18   6 61.7041 4.43113   1
 -18   2   6 57.0539 3.21169   2
  -2   6  18 61.7647 3.93123   2
   2  18   6 56.2769 3.42225   2
 -18  -6   2 61.2667 3.77382   2
  -6  -2  18 57.5755 3.87588   2
  -6  18   2 60.2977 4.50104   1
   6  18  -2 59.1375 4.28722   1
   6   2  18 50.7515 3.69048   2
  -2  -6  18 52.0377 3.66757   2
   6  18   2 56.8182 4.25207   1
 -18  -2   6 57.5995 3.57348   2
   2   6  18 53.8426 3.75807   2
   2  18  -6 54.6546 4.74710   1
  -6   2  18 58.9518 3.80064   2
  -2  18   6 60.5474 4.36545   1
  -4   6  18 121.892 8.10856   2
  -6  18   4 107.187 6.75872   1
   6  18  -4 108.419 6.85713   1
   4  18   6 104.336 6.72583   1
   6   4  18 129.232 7.04999   2
 -18  -6   4 105.261 7.03087   2
  -6  -4  18 109.973 6.80877   2
   4  18   6 101.116 6.53125   2
   6  18   4 109.821 6.83069   1
  -6   4  18 124.951 8.25200   2
   4  18  -6 112.634 6.88769   1
  -4  18   6 105.480 6.81740   1
   6  18   4 115.316 7.03801   2
  -6  18  -4 105.067 6.32201   1
 -18  -4   6 122.293 7.21965   2
   4   6  18 107.380 6.74520   2
  -4  -6  18 110.351 6.44903   2
 -18  -6   6 41.5649 2.98799   2
  -6  -6  18 39.7391 2.97259   2
   6  18   6 35.8983 3.11591   1
   6   6  18 39.4127 3.00687   2
   6  18   6 41.9345 2.85895   2
  -6   6  18 42.7334 2.98481   2
  -6  18   6 41.5944 3.28038   1
  -8   0  18 5.77580 1.49307   2
   0  18   8 3.87404 1.08250   1
   2  18   8 14.2474 1.50371   2
 -18  -8   2 14.0521 1.52135   2
  -8  18   2 13.2476 1.57929   1
   2  18   8 14.1309 1.67420   1
   8  18  -2 14.4864 1.75037   1
 -18   2   8 12.1960 1.27621   2
 -18  -2   8 13.0156 1.37063   2
  -2  18   8 13.7784 1.69277   1
  -2  18   8 12.3391 1.83746   2
   2  18  -8 11.7249 1.58640   1
   2   8  18 15.0830 1.68790   2
   8  18   2 15.3474 1.69672   1
  -8  18   4 8.22576 1.24946   1
  -8  -4  18 8.35350 1.17943   2
   4  18   8 6.58257 1.29243   1
   4  18   8 7.57610 1.14819   2
 -18  -8   4 8.78339 1.16295   2
   8  18   4 9.23354 1.18391   2
 -18  -4   8 8.67249 1.13899   2
   8  18   4 6.56679 1.22959   1
  -6   8  18 70.8431 4.33365   2
   6  18   8 72.2184 4.27685   2
   6  18   8 64.2122 4.41142   1
 -18  -8   6 70.5621 4.36075   2
  -8  -6  18 62.2908 4.13715   2
  -6   8  18 58.4554 4.09754   1
  -8  18   6 68.9926 4.59671   1
   8   6  18 66.7866 4.32214   2
  -8   6  18 71.1106 4.32763   2
  -6  -8  18 58.1502 4.09890   2
   8  18   6 69.1634 4.30265   2
 -18  -6   8 70.3407 4.30141   2
   6   8  18 71.0500 4.45755   2
   8  18   6 65.6193 4.49324   1
  -6  18   8 67.2149 4.62666   1
   8  18   8 12.1062 1.45263   1
 -18  -8   8 14.8399 1.51721   2
  -8   8  18 15.2705 1.39935   2
  -8  18   8 13.7597 1.66604   1
  -8  -8  18 11.6570 1.55696   2
   8   8  18 11.1566 1.54050   2
  10  18   0 233.563 12.2636   1
   0  18  10 233.690 11.1215   2
 -18 -10   0 236.852 11.8341   2
 -10   0  18 220.409 11.6533   2
   0  10  18 227.602 11.7269   2
 -18   0  10 228.390 11.2388   2
 -10  18   0 236.835 11.7414   1
   0  18  10 233.421 12.1475   1
   2  18  10 23.5705 1.79000   2
 -10  18   2 17.9898 1.91777   1
   2  18  10 19.6984 1.86124   1
 -18 -10   2 23.3268 1.97291   2
 -18   2  10 18.6751 1.49475   2
 -18  -2  10 21.9279 1.72290   2
   2  10  18 24.7058 2.08310   2
  10  18   2 20.5171 1.92697   1
  -2  18  10 19.2778 1.55459   2
 -10   2  18 22.2184 1.89723   2
  -2  18  10 19.6161 2.05442   1
 -18 -10   4 198.205 9.77626   2
  10   4  18 153.348 9.31731   2
  -4  10  18 192.945 9.51851   2
   4  18  10 197.912 9.38075   2
 -10  -4  18 193.608 9.67845   2
   4  18  10 175.075 9.66334   1
  -4  10  18 170.129 9.32190   1
 -18   4  10 154.099 8.44637   2
 -10  18   4 181.979 9.81254   1
  10  18   4 183.940 9.88892   1
 -18  -4  10 183.460 9.38208   2
   4  18 -10 201.650 9.91962   1
  10  18   4 182.575 9.47625   2
 -10   4  18 181.313 9.44094   2
  -4  18  10 185.939 10.0478   1
   4  10  18 189.047 9.66949   2
  -6  10  18 17.5329 1.52220   2
 -10  18   6 14.6499 1.67630   1
 -18 -10   6 19.0510 1.68945   2
 -10  -6  18 19.8880 1.72753   2
 -18  -6  10 18.8812 1.63854   2
 -10   6  18 18.8285 1.55511   2
  10  18   6 20.7262 1.81912   2
  -6  18  10 14.8077 1.72727   1
  -8  10  18 148.808 7.31913   2
   8  18  10 150.997 7.63232   2
  -8  10  18 131.731 7.56311   1
 -10  18   8 131.421 7.89174   1
  10   8  18 149.594 7.80477   2
 -18 -10   8 148.407 7.70662   2
 -10  -8  18 140.951 7.59008   2
   8  18  10 122.391 7.41105   1
  10  18   8 129.198 7.55129   1
  -8  18  10 144.514 8.05968   1
 -18  -8  10 142.251 7.56776   2
   8  10  18 158.660 7.90103   2
  10  18   8 151.219 7.68151   2
 -10   8  18 149.816 7.33272   2
  -8 -10  18 131.511 7.54443   2
 -18 -10  10 9.92916 1.04596   2
  10  18  10 9.23596 1.12744   2
 -10  10  18 8.05575 0.94691   2
   0  18  12 3.23638 0.93717   2
 -18   0  12 3.17031 0.87170   2
   2  18  12 7.24356 1.01106   2
 -18 -12   2 6.31005 1.02619   2
  -2  18  12 6.39455 1.10022   1
 -12   2  18 7.30433 1.02413   2
  -2  18  12 4.63502 1.07507   2
 -18  -2  12 6.20717 0.96674   2
   4  18  12 7.55895 1.11652   2
  -4  12  18 8.98528 1.09654   2
 -12  -4  18 6.50078 1.05866   2
 -18 -12   4 6.75734 1.06572   2
 -12   4  18 8.53901 1.05562   2
 -18  -4  12 7.95704 1.02535   2
  12  18   4 8.97006 1.15543   2
   6  18  12 45.3821 2.87014   2
 -12  18   6 37.6786 2.93956   1
 -18 -12   6 40.7339 2.86303   2
  -6  12  18 41.3613 2.60152   2
  -6  18  12 39.2904 3.10065   1
 -12   6  18 42.4124 2.66638   2
 -18  -6  12 43.9931 2.85722   2
  12  18   6 35.1873 2.81575   1
  12  18   6 43.3008 2.94382   2
   6  12  18 43.3120 2.94325   2
   8  18  12 14.4253 1.30181   2
 -18 -12   8 13.3319 1.30137   2
 -12  -8  18 12.6126 1.30004   2
 -12  18   8 11.2918 1.36965   1
  -8  12  18 12.0949 1.12319   2
 -18  -8  12 12.5099 1.29778   2
   8  12  18 11.9671 1.35084   2
  12  18   8 14.6549 1.40360   2
 -12   8  18 13.0448 1.18034   2
  -8  18  12 11.2483 1.36684   1
  12  10  18 54.1001 3.68461   2
  10  18  12 65.7594 3.67932   2
 -18 -12  10 57.1913 3.56824   2
 -12  18  10 57.9488 3.76041   1
 -12 -10  18 57.4016 3.57059   2
  12  18  10 66.6574 3.71177   2
 -10  18  12 48.8780 3.58315   1
 -18 -10  12 63.3691 3.62636   2
  10  12  18 58.7830 3.68183   2
  18  12  12 7.32380 1.61199   2
 -12 -12  18 4.18659 1.29886   2
 -12  18  12 5.22992 0.90726   1
 -18   0  14 264.159 12.4924   2
  14  18   0 259.189 13.2678   1
 -14   0  18 261.901 12.7857   2
   0  18  14 271.342 12.4210   2
   0  14  18 275.522 12.8267   2
   0  18  14 248.963 12.9040   1
  -2  14  18 4.57392 0.91715   2
 -18   2  14 3.48314 0.86715   2
 -18  -2  14 3.48299 0.85097   2
 -14   2  18 5.12974 0.90465   2
 -14  -4  18 243.549 11.7261   2
  -4  14  18 256.998 11.3886   2
  -4  14  18 208.742 11.6738   1
  18  14   4 260.463 11.9505   2
 -18   4  14 210.721 10.7796   2
 -14  18   4 207.431 11.5067   1
 -18 -14   4 236.436 11.7487   2
   4  18  14 254.307 11.5798   2
   4  18  14 229.098 12.2491   1
  -4  18  14 224.669 11.9095   1
   4  14  18 257.554 11.8173   2
 -18  -4  14 241.546 11.5595   2
  14  18   4 228.435 11.7690   1
  14  18   4 250.881 11.8206   2
 -14   4  18 252.048 11.4151   2
  -6  14  18 3.15441 0.91226   2
  18  14   6 1.57853 1.22803   2
 -14  -6  18 3.22851 0.89460   2
 -18 -14   6 3.22467 0.86975   2
  14  18   6 4.54923 0.92915   2
 -14   6  18 2.77231 0.84958   2
 -18  -6  14 3.28595 0.78679   2
  -8  14  18 124.428 7.11262   1
 -14  18   8 137.499 7.73877   1
 -18 -14   8 138.045 7.20647   2
 -14  -8  18 138.116 7.23097   2
   8  18  14 147.817 7.21660   2
 -18  -8  14 139.509 7.16926   2
  14  18   8 147.717 7.36898   2
   8  14  18 149.828 7.38817   2
 -18 -14  10 0.28904 0.68882   2
 -14  18  10 0.08810 0.84325   1
  10  18  14 -0.0650 0.91890   2
  18  14  10 0.18159 1.06825   2
 -14 -10  18 -0.1689 0.84618   2
  14  10  18 0.41998 1.43219   2
 -14 -18  10 0.73908 1.32018   2
  10  14  18 0.36093 0.83720   2
 -10  18  14 0.44317 0.81116   1
  14  18  10 0.76891 0.98181   2
 -18 -10  14 0.01046 1.03903   2
  10  18 -14 -0.3702 1.90344   1
  16  18   0 -0.0662 1.28675   1
   0  18  16 -0.5403 1.16415   1
   0  18  16 0.80181 0.95175   2
  18  16   0 -0.3028 1.02786   1
 -18   0  16 0.71266 0.69369   2
  18  16   2 1.78842 0.93677   2
 -18   2  16 0.99578 0.99126   2
 -16  -2  18 2.05794 0.74376   2
   2  18  16 2.89073 0.90802   2
  -2  16  18 2.01807 0.77781   2
  -2  18  16 2.70094 1.12107   2
  16  18   2 2.13538 0.90644   2
 -18  -2  16 1.66540 0.72812   2
   2  16  18 2.83287 0.87119   2
 -16   2  18 2.47314 0.77917   2
  -4  16  18 1.52341 0.92385   2
   4  18  16 2.24502 0.82172   2
  18  16   4 1.90988 1.10808   2
  16  18   4 2.08920 0.86153   2
 -16   4  18 1.21415 1.01783   2
 -18  -4  16 1.57745 0.72228   2
  18  16   6 3.64600 1.02165   2
  -6  16  18 2.96938 1.08030   1
 -16  18   6 4.82804 1.17851   1
  -6  18  16 2.91865 0.92263   1
  16  18   6 3.48102 1.12476   2
  -1  -1  19 194.781 9.75960   2
  -1   1  19 185.553 9.66383   2
  -1  19  -1 182.319 10.4541   1
  -1  19   1 189.325 10.4992   1
   1  -1  19 181.575 9.53835   2
   1   1  19 190.445 9.70844   2
   1  19  -1 187.156 10.4400   1
   1  19  -1 156.821 8.52971   2
   1  19   1 188.901 10.3836   1
   1  19   1 188.414 8.71064   2
   3   1  19 214.553 11.2121   2
   3  19  -1 222.713 11.9707   1
  -3  19   1 230.187 11.9501   1
   1  19   3 221.820 10.4196   2
  -1   3  19 224.566 11.4453   2
   1  -3  19 207.006 11.0343   2
 -19  -3   1 216.979 10.8724   2
  -1  19  -3 234.231 11.9306   1
   3  19  -1 214.126 10.5176   2
   1  19   3 220.542 11.9639   1
  -3  -1  19 224.677 11.4570   2
   1   3  19 228.119 11.4515   2
   3  19   1 220.464 11.9749   1
  -3  19  -1 236.296 11.9191   1
  -1  19   3 220.629 11.9280   1
   1  19  -3 236.263 12.0664   1
  -3   1  19 223.879 11.4243   2
  -1  -3  19 224.227 11.3122   2
   3  -1  19 201.178 11.0210   2
 -19  -1   3 213.418 10.6555   2
   3  19   1 217.116 10.6390   2
  -3  19  -3 258.081 13.2090   1
  -3  19   3 248.143 13.3425   1
   3   3  19 295.423 15.0590   2
   3  19   3 240.796 13.4190   2
   3  19   3 239.941 13.3630   1
   3  19  -3 248.557 13.3788   1
  -3  -3  19 260.746 13.8267   2
  -1   5  19 155.790 9.00634   2
   1  19   5 145.543 8.58834   1
   5  19  -1 142.593 8.53242   1
  -5  19   1 150.503 8.46428   1
  -1  19  -5 154.050 8.43938   1
  -5  -1  19 137.533 8.88792   2
 -19  -5   1 136.008 8.49631   2
  -1  19   5 137.113 8.46795   1
   1   5  19 166.313 10.2823   2
   1  19  -5 156.370 8.57579   1
   5  19   1 136.730 8.46211   1
  -5  19  -1 157.379 8.46831   1
   3  19   5 131.688 6.90432   2
   5   3  19 143.656 7.52696   2
   5  19  -3 134.867 7.90575   1
  -5  19   3 128.943 7.71633   1
  -3  19  -5 139.336 7.58641   1
  -3   5  19 142.069 7.55022   2
 -19  -5   3 128.967 7.15712   2
   3  19   5 129.780 7.87861   1
  -5  -3  19 132.445 7.39834   2
   5  19   3 125.338 7.83495   1
  -3  -5  19 121.475 7.21298   2
   5  19   3 130.378 6.98203   2
  -5   3  19 131.683 7.41858   2
 -19  -3   5 127.524 7.01150   2
   3   5  19 135.809 7.51206   2
   3  19  -5 137.043 7.87052   1
  -5  19  -3 146.177 7.67711   1
  -3  19   5 126.950 7.79188   1
  -5  -5  19 96.2033 5.62338   2
  -5  19   5 98.2513 6.20129   1
   5  19   5 95.7926 6.15099   1
   5  19   5 100.337 5.47362   2
 -19  -5   5 97.9608 5.57614   2
   5   5  19 91.4814 5.66022   2
   5  19  -5 100.903 6.19305   1
  -5   5  19 98.7435 5.76959   2
 -19   1   7 173.709 8.48029   2
  -1  19  -7 184.607 9.47596   1
   1  19   7 171.581 9.74143   1
   1  19   7 176.509 8.53880   2
  -7  -1  19 179.900 9.35035   2
  -1   7  19 177.496 9.34172   2
   7  19  -1 170.803 9.76274   1
 -19  -7   1 173.663 9.11560   2
  -7  19   1 177.243 9.54144   1
  -1  19   7 172.409 8.24449   2
 -19  -1   7 172.609 8.71597   2
   1   7  19 174.026 9.31691   2
  -7  19  -1 181.760 9.42979   1
   1  19  -7 189.406 9.72098   1
  -7   1  19 173.479 9.27382   2
  -1  19   7 167.736 9.72920   1
   7  19   1 160.007 9.65422   1
   7  19  -3 247.398 12.8161   1
  -7  19   3 248.559 12.6637   1
 -19  -7   3 239.823 12.0612   2
  -3   7  19 242.483 12.1871   2
   3  19   7 236.570 12.6478   1
   3  19   7 242.008 11.6529   2
  -7  -3  19 243.965 12.2377   2
   7   3  19 237.392 12.1003   2
   3  19  -7 258.985 12.7703   1
  -3  -7  19 212.260 11.8156   2
  -7  19  -3 249.761 12.1658   1
  -3  19   7 228.797 12.6368   1
   7  19   3 239.996 11.8857   2
  -7   3  19 240.456 12.1786   2
   7  19   3 240.313 12.7398   1
   3   7  19 247.316 12.3327   2
 -19  -3   7 246.154 11.8502   2
   5  19   7 100.216 6.36666   1
   7  19  -5 110.134 6.62676   1
   5  19   7 106.271 5.85721   2
   7   5  19 105.096 6.08185   2
  -7  -5  19 107.812 6.07466   2
  -7  19   5 108.711 6.56929   1
 -19  -7   5 111.995 6.13476   2
  -5   7  19 104.505 6.08149   2
   7  19   5 104.708 5.90127   2
  -5  19   7 109.267 6.66515   1
  -7   5  19 110.319 6.17587   2
   5   7  19 111.262 6.29633   2
 -19  -5   7 108.017 5.95856   2
   7  19   5 105.334 6.51069   1
   5  19  -7 109.479 6.54082   1
  -5  -7  19 90.9434 5.86638   2
  -7  19   7 233.717 12.2937   1
   7  19  -7 240.711 12.4358   1
  -7  -7  19 239.786 11.8803   2
   7   7  19 249.425 12.0859   2
 -19  -7   7 232.892 11.7744   2
   7  19   7 235.570 11.6611   2
   7  19   7 226.818 12.0967   1
  -7   7  19 227.838 11.6845   2
 -19   1   9 59.4616 3.43856   2
  -9  -1  19 64.9278 4.07083   2
   1  19   9 64.6232 3.58845   2
  -9  19   1 60.7851 4.11178   1
 -19  -9   1 66.6095 4.10179   2
   9  19  -1 66.2301 4.53680   1
  -1   9  19 66.9502 4.17724   2
   1  19   9 62.7898 4.32368   1
 -19  -1   9 59.7237 3.62857   2
  -1  19   9 58.7115 3.30296   2
  -9  19  -1 55.0246 3.84838   1
   1   9  19 66.4567 4.14619   2
  -9   1  19 65.6013 4.10351   2
  -1  19   9 60.2627 4.31721   1
   9  19   1 59.2559 4.31461   1
   9  19  -3 67.8020 4.61432   1
  -3   9  19 72.2273 4.26340   2
 -19  -9   3 68.6348 4.23305   2
   3  19   9 59.9866 4.28391   1
   3  19   9 63.6969 3.82345   2
  -9  -3  19 67.9256 4.24513   2
  -9  19   3 58.7574 4.21980   1
   9  19   3 66.9677 4.08281   2
  -9   3  19 65.9954 4.16065   2
   3   9  19 63.9666 4.15962   2
   9  19   3 63.5744 4.47470   1
 -19  -3   9 72.0769 3.99500   2
  -3  19   9 61.2413 4.42011   1
  -5   9  19 59.6965 3.60723   2
  -9  19   5 49.0016 3.71322   1
   9  19  -5 58.7239 4.13721   1
 -19  -9   5 57.3422 3.68894   2
  -9  -5  19 56.5817 3.61887   2
   5  19   9 48.3355 3.60432   1
   5  19   9 57.3032 3.43856   2
   5  19  -9 50.5549 3.76213   1
   9  19   5 59.2782 3.62930   2
   5   9  19 57.0804 3.70885   2
  -9   5  19 56.6927 3.56333   2
   9  19   5 49.6760 3.77219   1
 -19  -5   9 54.8840 3.46205   2
  -5  19   9 52.9797 3.91099   1
   7  19   9 33.7494 2.35419   2
  -9  -7  19 26.6774 2.23711   2
   9  19  -7 25.8800 2.36524   1
  -9  19   7 28.2125 2.43829   1
  -7   9  19 32.7739 2.25858   2
 -19  -9   7 32.8178 2.36136   2
  -9   7  19 32.7628 2.22977   2
 -19  -7   9 34.9333 2.39421   2
   7   9  19 29.3246 2.41149   2
   9  19   7 34.2444 2.38503   2
   9  19   7 24.8529 2.33081   1
   7  19  -9 26.8730 2.36780   1
  -7  19   9 32.7041 2.62316   1
  -9  19   9 22.3063 2.10205   1
   9  19  -9 27.6352 2.20431   1
   9   9  19 20.7474 1.98971   2
 -11  -1  19 119.934 6.64645   2
 -19   1  11 116.588 6.02705   2
  11  19  -1 116.695 7.04975   1
  -1  11  19 127.523 6.71167   2
   1  19  11 112.785 6.78076   1
   1  19  11 126.730 6.18293   2
 -11  19   1 104.095 6.49150   1
  -1  19  11 125.120 7.07913   1
 -19  -1  11 122.306 6.27350   2
   1  11  19 127.213 6.74792   2
  -1  19  11 120.162 5.88852   2
  11  19   1 125.705 7.09359   1
 -11   1  19 122.736 6.64737   2
  11  19  -3 154.687 9.03329   1
  -3  11  19 166.865 8.51101   2
 -11  -3  19 169.229 8.65749   2
   3  19  11 148.078 8.63075   1
 -11  19   3 158.742 8.73900   1
 -19 -11   3 166.976 8.67433   2
   3  19  11 169.323 8.27638   2
 -19  -3  11 165.779 8.35767   2
   3  11  19 175.223 8.78866   2
  -3  19  11 161.834 8.99447   1
  11  19   3 161.506 8.96272   1
  11  19   3 171.636 8.60959   2
 -11   3  19 172.697 8.58243   2
 -11  19   5 41.7867 3.25215   1
 -19 -11   5 48.0007 3.17964   2
  -5  11  19 51.5160 3.10786   2
 -11  -5  19 48.0402 3.24703   2
   5  19  11 50.7473 3.07287   2
  -5  19  11 44.9853 3.40638   1
  11  19   5 53.8819 3.32996   2
   5  11  19 51.9799 3.34326   2
 -19  -5  11 50.9846 3.15677   2
  11  19   5 40.2350 3.19236   1
 -11   5  19 51.4850 3.12602   2
   7  19  11 184.884 8.84043   2
  11   7  19 165.720 8.97607   2
  19  11   7 145.573 8.80677   2
 -11  19   7 172.441 9.22873   1
 -11  -7  19 180.701 8.99416   2
 -19 -11   7 180.786 8.98055   2
  -7  11  19 184.437 8.62752   2
   7  19  11 152.641 8.72616   1
   7  11  19 186.656 9.10738   2
 -11   7  19 190.162 8.67606   2
  11  19   7 152.323 8.80773   1
  -7  19  11 162.252 9.23338   1
  11  19   7 185.850 8.95378   2
 -19  -7  11 184.993 8.90759   2
   7  19 -11 185.649 9.16057   1
 -11  19   9 7.29739 1.10275   1
  11   9  19 6.58159 1.60551   2
  -9  11  19 9.63303 1.01603   2
 -19 -11   9 7.98966 0.99787   2
   9  19  11 10.0061 1.09950   2
   9  11  19 8.49717 1.28295   2
 -11   9  19 8.52284 0.97428   2
  -9  19  11 7.01666 1.10641   1
   9  19 -11 5.79970 1.71483   1
  11  11  19 122.256 6.57802   2
 -11  19  11 123.642 6.92944   1
  11  19  11 130.615 6.46271   2
  11  19 -11 127.149 6.65941   1
 -19 -11  11 120.511 6.38885   2
   1  19  13 12.0496 1.43315   1
 -19   1  13 13.1440 1.21202   2
  13  19  -1 13.5317 1.55876   1
   1  19  13 17.0550 1.30371   2
  -1  19  13 12.5769 1.46196   1
  13  19   1 13.0227 1.53847   1
 -19  -1  13 15.6528 1.24738   2
  -1  19  13 11.8955 1.27209   2
 -13  -3  19 9.91251 1.14578   2
 -19 -13   3 10.9188 1.13781   2
  -3  13  19 10.5511 1.10431   2
  13  19  -3 9.24221 1.23008   1
 -19  -3  13 8.09872 0.99870   2
  13  19   3 8.56336 1.09024   2
   3  13  19 11.6589 1.25575   2
 -13   3  19 9.29426 1.05318   2
 -13  -5  19 13.7162 1.29377   2
  -5  13  19 15.3024 1.28560   2
 -19 -13   5 12.6216 1.25626   2
  13  19  -5 11.5844 1.47453   1
   5  19  13 14.6872 1.28589   2
 -13   5  19 13.9210 1.23317   2
  -5  19  13 12.0688 1.44767   1
   5  13  19 15.7985 1.46349   2
 -19  -5  13 12.8443 1.19592   2
  13  19   5 13.3737 1.34738   2
 -13  -7  19 2.57573 0.92099   2
 -19 -13   7 2.71026 0.82503   2
  19  13   7 0.13915 1.45907   2
  -7  13  19 2.05880 1.01037   2
 -13  19   7 0.85426 1.13507   1
 -13 -19   7 1.20817 1.56397   2
 -19  -7  13 1.98327 0.71207   2
  13  19   7 3.33213 0.84111   2
  -7  19  13 1.75079 0.81216   1
  13  19   7 0.51398 1.26562   1
 -13   7  19 3.10817 0.87104   2
 -13  19   9 8.81712 1.21937   1
  13  19  -9 7.93699 1.22055   1
 -13  -9  19 8.03294 1.20139   2
 -19 -13   9 9.22796 1.16996   2
 -19  -9  13 10.9494 1.14936   2
  13  19   9 10.9392 1.26229   2
   1  19  15 46.0904 3.04724   2
  -1  15  19 49.5920 2.91179   2
 -15  -1  19 48.0551 2.94140   2
   1  15  19 49.7422 2.95520   2
 -19  -1  15 47.4873 2.80234   2
  15  19   1 50.6557 3.04094   2
 -15   1  19 51.2697 2.93306   2
  -3  15  19 99.9411 5.29294   2
 -15  -3  19 97.2024 5.08465   2
  15  19  -3 83.5263 5.90326   1
   3  19  15 85.4010 4.96534   2
   3  15  19 98.0935 5.07935   2
 -15   3  19 96.9037 4.91869   2
 -19  -3  15 91.2257 4.86596   2
  15  19   3 103.240 5.23176   2
  -5  15  19 8.52013 1.02748   2
  19  15   5 9.69072 1.30924   2
  15  19   5 6.01344 1.45725   1
 -15   5  19 9.51614 0.96476   2
  -5  19  15 6.36911 1.08801   1
   0   0  20 179.558 9.31783   2
   0  20   0 172.381 9.81083   1
   0   2  20 4.99151 1.14352   2
   2  20   0 3.76451 1.10693   1
   0  20   2 2.87306 1.00909   1
  -2   0  20 4.45609 1.13304   2
   2  20   2 1.92605 1.04618   1
   2  -2  20 1.47685 1.21051   2
   2   2  20 1.29324 1.04615   2
   2  20  -2 1.43397 0.99424   1
   2  20  -2 1.50102 1.36498   2
  -2  -2  20 1.92109 1.05125   2
   0  20  -4 176.503 9.48672   1
   0  20   4 164.752 9.53781   1
   4   0  20 154.984 8.76696   2
   4  20   0 170.054 8.26563   2
  -4   0  20 177.528 9.09943   2
   4  20   0 172.002 9.62547   1
   0  -4  20 155.766 8.73215   2
   0   4  20 170.117 9.02187   2
  -4  20   0 179.004 9.46790   1
   4  20  -2 58.0630 4.23875   1
   2  20   4 55.6227 3.16730   2
  -2   4  20 63.9712 4.01910   2
   2  20   4 61.1478 4.41147   1
  -2  20  -4 55.4049 3.96756   1
  -4  20   2 58.9415 4.24729   1
   4  20  -2 52.9356 3.17649   2
 -20  -4   2 57.1843 3.45992   2
  -4  -2  20 56.4221 3.74664   2
 -20  -2   4 55.0008 3.31485   2
  -4  20  -2 58.1302 4.04987   1
  -2  20   4 57.2315 4.23145   1
   4  20   2 54.4332 3.29819   2
  -4   2  20 56.2485 3.79833   2
   4  20   2 58.3976 4.28437   1
   2   4  20 57.4166 3.87595   2
   2  20  -4 58.7008 4.19452   1
   4  20  -4 145.788 8.29288   1
   4  20   4 138.472 8.14382   1
   4  20   4 140.380 7.10803   2
  -4  -4  20 136.628 7.61898   2
 -20  -4   4 142.516 7.29617   2
   4   4  20 143.015 7.73673   2
  -4   4  20 137.921 7.62019   2
  -4  20  -4 137.008 7.73844   1
  -4  20   4 138.792 8.12804   1
  -6  20   0 2.12904 1.15974   1
 -20   0   6 2.85241 0.89395   2
   6  20   0 3.13882 0.90395   2
  -2  20  -6 0.20807 1.35179   1
  -6  20   2 0.46256 1.04631   1
   2  20   6 2.29429 0.83266   2
   6  20   2 2.29123 0.97499   1
  -6  20  -2 1.50513 1.23023   1
  -2  -6  20 1.08059 1.41524   2
   2  20  -6 1.46948 1.21234   1
 -20  -2   6 0.86904 0.74252   2
   2   6  20 1.23893 0.86158   2
   4  20   6 38.5741 2.44552   2
  -6  -4  20 34.9728 2.64110   2
   6  20  -4 33.6351 2.85423   1
 -20  -6   4 36.5026 2.58070   2
   4  20   6 36.3964 3.01357   1
  -4   6  20 41.0988 2.81294   2
  -6  20   4 31.7381 2.86322   1
   6  20   4 36.3659 3.00070   1
   4  20  -6 34.9540 2.88652   1
  -4  20   6 35.7384 2.98442   1
   4   6  20 37.3232 2.81067   2
  -6   4  20 40.5105 2.84825   2
   6  20   4 41.4677 2.60112   2
 -20  -4   6 35.0892 2.44397   2
 -20  -6   6 2.84807 0.85781   2
  -6  -6  20 1.50069 0.92294   2
   6  20   6 3.04801 0.87960   2
   8  20   0 110.828 6.68149   1
   0  20  -8 96.8626 6.09963   1
   8  20   0 111.239 5.88917   2
 -20   0   8 115.149 5.56850   2
  -8  20   0 111.199 6.30438   1
   0   8  20 112.259 6.26532   2
   0  20   8 105.732 6.53876   1
  -8   0  20 111.211 6.22544   2
 -20  -8   2 169.734 8.56812   2
   8  20  -2 162.749 9.13406   1
  -2   8  20 176.620 8.76936   2
   2  20   8 165.688 7.96940   2
   2  20   8 155.042 8.95319   1
  -8  20   2 153.605 8.76486   1
  -8  -2  20 174.291 8.75198   2
   2   8  20 162.248 8.67890   2
  -8   2  20 164.201 8.64806   2
   8  20   2 167.408 8.37556   2
  -8  20  -2 160.600 8.52863   1
 -20  -2   8 162.539 8.15943   2
  -2  20   8 158.287 9.04370   1
   8  20   2 152.430 8.98552   1
   2  20  -8 167.301 8.93543   1
  -8  20   4 109.003 6.59264   1
   4  20   8 101.090 6.43794   1
 -20  -8   4 114.637 6.21946   2
  -8  -4  20 115.375 6.37137   2
   4  20   8 111.146 5.86364   2
  -4   8  20 115.680 6.30445   2
   8  20  -4 116.008 6.87211   1
  -4  20   8 115.151 6.82100   1
   4   8  20 114.439 6.38903   2
   4  20  -8 111.192 6.57200   1
   8  20   4 115.318 6.08241   2
  -8   4  20 120.105 6.37382   2
 -20  -4   8 112.763 6.02684   2
   8  20   4 104.551 6.53994   1
  -8  20   6 107.547 6.56933   1
  -8  -6  20 112.073 6.23530   2
   6  20   8 115.544 5.97146   2
 -20  -8   6 110.520 6.12131   2
  -6   8  20 115.725 6.19937   2
   6  20   8 108.584 6.42658   1
   8   6  20 100.502 6.19306   2
   8  20  -6 113.756 6.67314   1
 -20  -6   8 115.709 6.10904   2
   8  20   6 114.268 6.06055   2
   8  20   6 103.020 6.41353   1
   6  20  -8 120.826 6.67138   1
   6   8  20 119.706 6.47385   2
  -6  20   8 113.512 6.70518   1
  -8   6  20 116.826 6.19227   2
 -20  -8   8 68.4915 4.01704   2
  -8  20   8 69.8726 4.42733   1
   8  20   8 70.7984 3.96181   2
  -8  -8  20 59.3453 3.98539   2
   8  20  -8 70.8980 4.38566   1
  -8   8  20 74.0438 4.00918   2
   8   8  20 62.7170 4.11432   2
 -10  20   0 1.29649 1.30181   1
  10  20   0 0.50153 0.85597   1
   0  20  10 0.55496 0.92428   2
 -20   0  10 0.37819 0.75465   2
   0  20  10 0.57281 0.86776   1
  10  20  -2 1.91987 0.87461   1
   2  20  10 0.50939 0.76801   2
 -10  20   2 0.45442 1.12463   1
   2  20  10 0.61606 0.87858   1
   2  10  20 1.24138 0.79458   2
 -20  -2  10 1.26528 0.75544   2
  -2  20  10 1.14467 0.85578   1
  10  20   2 1.21323 0.74765   2
  10  20   2 0.25951 0.85933   1
 -20 -10   4 16.6497 1.49089   2
  -4  10  20 17.7215 1.47166   2
   4  20  10 15.5611 1.37703   2
  10  20  -4 12.5481 1.57586   1
 -10  -4  20 16.1218 1.51464   2
   4  10  20 15.4574 1.52021   2
  10  20   4 17.0464 1.46121   2
 -20  -4  10 16.0435 1.31159   2
 -10   4  20 18.1027 1.50461   2
  -4  20  10 12.8535 1.47131   1
  10  20   4 13.1345 1.55161   1
   6  20  10 2.63779 0.82566   2
  10   6  20 -0.3027 1.50597   2
  -6  10  20 2.84146 0.85511   2
  10  20  -6 2.06404 0.93218   1
 -10  20   6 1.25040 0.95720   1
  -6  20  10 1.48780 0.84214   1
   6  10  20 1.82572 0.98192   2
 -20  -6  10 2.73183 0.81349   2
  -6 -10  20 0.24978 1.52365   2
   6  20 -10 1.63051 1.33227   1
   8  20  10 51.6351 3.05398   2
  -8  10  20 53.7760 2.95003   2
 -20 -10   8 50.7774 3.09526   2
 -10  -8  20 40.2687 3.01465   2
 -10  20   8 46.5896 3.28746   1
  10  20  -8 47.4543 3.32862   1
 -10   8  20 55.2156 2.96410   2
  10  20   8 52.3451 3.09245   2
   8  10  20 51.8191 3.38379   2
 -20  -8  10 50.5309 3.06898   2
 -10  20  10 0.42866 0.90929   1
 -10 -10  20 -0.1565 1.05654   2
 -20 -10  10 1.19870 0.59680   2
  10  10  20 0.23393 1.01184   2
  10  20 -10 1.00890 1.05850   1
  10  20  10 1.41550 0.71602   2
 -10  10  20 1.27028 0.85218   2
   0  20  12 61.2211 4.20282   1
  12  20   0 66.6770 4.44682   1
  12  20   0 74.5484 4.08746   2
 -20   0  12 65.7803 3.59082   2
 -12   0  20 74.8490 4.16017   2
   0  12  20 75.6042 4.17654   2
   2  20  12 195.677 10.5617   1
  12  20  -2 188.949 10.8021   1
  -2  12  20 221.559 10.4314   2
 -12  -2  20 220.601 10.5645   2
   2  20  12 220.367 9.95481   2
 -12  20   2 195.619 11.2165   1
 -20  -2  12 216.185 10.0869   2
   2  12  20 226.554 10.5912   2
 -12   2  20 212.146 10.3819   2
  12  20   2 222.999 10.4944   2
  -2  20  12 202.923 10.7345   1
  12  20   2 212.186 10.8915   1
  -4  12  20 52.7343 3.02616   2
 -20 -12   4 48.9476 3.11401   2
   4  20  12 55.3602 2.95561   2
   4  20  12 42.4858 3.79736   1
  12  20  -4 49.6252 3.51783   1
 -12  -4  20 53.1575 3.23457   2
  12  20   4 52.8783 3.17266   2
 -20  -4  12 51.8728 2.97461   2
   4  12  20 54.1937 3.29529   2
  12  20   4 41.7771 3.18523   1
  -4  20  12 42.1971 3.24864   1
 -12   4  20 53.9443 3.08045   2
  12  20  -6 163.115 8.62934   1
   6  20  12 163.879 7.77606   2
  -6  12  20 165.848 7.68490   2
 -12  20   6 139.902 8.52439   1
 -20 -12   6 152.728 7.92879   2
 -12  -6  20 153.181 8.02290   2
 -20  -6  12 155.282 7.80043   2
  12  20   6 157.143 7.92549   2
   6  12  20 164.972 8.10846   2
 -12   6  20 157.102 7.64813   2
 -12  20   8 33.4068 2.34828   1
  -8  12  20 28.0721 1.78232   2
 -20 -12   8 33.8576 2.13812   2
  12  20  -8 25.6999 2.19957   1
   8  20  12 32.3169 2.10497   2
 -12  -8  20 32.3315 2.25018   2
  12  20   8 35.4576 2.18483   2
 -12   8  20 26.0124 1.76945   2
   0  14  20 0.39407 0.76113   2
 -14   0  20 1.04508 0.72180   2
 -20   0  14 1.03936 0.80576   2
  20  14   0 -0.2859 1.23427   1
  14  20   0 0.12214 0.94917   1
   0  20  14 0.66102 0.90648   1
  14  20   0 -0.5485 0.69218   2
  -2  14  20 1.06175 0.74928   2
  20  14   2 0.23314 1.20294   2
  14  20  -2 0.04798 0.91020   1
   2  20  14 0.34381 0.94619   1
   2  20  14 0.56561 0.95614   2
 -14  -2  20 0.78529 0.73097   2
  -2  20  14 1.31764 0.89010   1
 -14   2  20 0.66368 0.73650   2
 -20  -2  14 0.98541 1.02968   2
  14  20   2 0.00188 0.99631   1
  14  20   2 0.86095 0.76658   2
   2  14  20 -0.0118 0.76345   2
  -4  14  20 3.05210 0.81938   2
 -14  -4  20 3.79747 0.92603   2
  14  20  -4 3.44200 0.99808   1
   4  20  14 3.23853 0.91383   2
 -14   4  20 3.37955 0.96905   2
  14  20   4 3.44151 0.90529   2
  -1  -1  21 257.798 12.7902   2
  -1   1  21 267.694 12.8764   2
  -1  21  -1 263.554 13.4232   1
  -1  21   1 265.302 13.4553   1
   1  -1  21 233.054 12.5385   2
   1   1  21 255.932 12.7598   2
   1  21  -1 263.068 13.4691   1
   1  21   1 240.942 13.2673   1
   1  21   3 183.238 10.0046   1
  -3  21   1 178.181 9.81865   1
   3   1  21 171.546 9.22806   2
  -1   3  21 182.272 9.42111   2
   1  -3  21 153.097 9.02569   2
  -1  21  -3 192.227 9.95174   1
   3  21  -1 174.686 9.92448   1
  -3  -1  21 184.599 9.40427   2
   3  21   1 170.798 9.85168   1
  -3   1  21 188.936 9.49980   2
   1   3  21 185.519 9.42859   2
  -1  21   3 190.494 10.0414   1
   1  21  -3 188.958 10.0257   1
  -3  21  -1 192.019 9.90855   1
   3  -1  21 166.982 9.18397   2
  -1  -3  21 164.976 9.17592   2
   3  21   1 175.654 8.37014   2
  -3   3  21 168.463 8.92388   2
  -3  -3  21 164.369 8.79436   2
  -3  21   3 176.778 9.47024   1
   3   3  21 168.303 8.89760   2
   3  21  -3 173.022 9.48453   1
   3  21   3 164.172 9.39063   1
   3  21   3 166.469 8.00261   2
  -3  21  -3 171.862 9.23133   1
   5  21  -1 239.419 11.1534   2
   5  21  -1 236.951 12.5226   1
   1  21   5 232.948 12.5047   1
  -5  21   1 237.946 12.3366   1
   5   1  21 200.918 11.6408   2
  -1   5  21 241.574 12.0121   2
  -5  -1  21 243.900 12.0136   2
  -1  21  -5 254.739 12.4075   1
  -5   1  21 240.249 11.9861   2
  -1  21   5 229.331 12.4222   1
   1  21  -5 245.830 12.4696   1
   1   5  21 244.382 12.0689   2
   5  21   1 242.402 11.2408   2
  -5  21  -1 239.702 12.2791   1
   5  21   1 239.176 12.5551   1
   5  21  -3 178.988 8.34682   2
  -5  -3  21 171.316 9.07517   2
   3  21   5 174.888 8.33614   2
   5  21  -3 180.189 9.78498   1
   3  21   5 178.649 9.69129   1
 -21  -5   3 180.024 8.78642   2
   5   3  21 156.056 9.02106   2
  -5  21   3 176.430 9.63501   1
  -3   5  21 180.234 9.23407   2
  -3  21  -5 171.617 9.22539   1
   5  21   3 180.355 8.56206   2
  -5   3  21 176.792 9.17378   2
   3   5  21 177.383 9.20334   2
   3  21  -5 187.897 9.78541   1
   5  21   3 165.829 9.56919   1
 -21  -3   5 174.529 8.59030   2
  -5  21  -3 177.343 9.28367   1
  -3  21   5 172.198 9.64380   1
   5  21   5 236.527 12.8421   1
   5  21   5 253.759 11.8787   2
   5  21  -5 250.536 11.4904   2
  -5   5  21 252.705 12.4753   2
  -5  21   5 251.785 13.0140   1
   5   5  21 269.667 12.6740   2
   5  21  -5 259.432 13.0740   1
 -21  -5   5 250.841 12.0773   2
  -5  -5  21 239.935 12.3431   2
  -1   7  21 113.278 6.17228   2
  -7  -1  21 117.032 6.23184   2
   7  21  -1 104.639 6.49013   1
   7  21  -1 112.377 5.65694   2
  -1  21  -7 100.843 6.07218   1
  -7  21   1 106.891 6.32978   1
   1  21   7 105.119 6.42954   1
 -21  -1   7 104.476 5.36489   2
   7  21   1 107.300 6.56396   1
  -7  21  -1 102.392 6.14702   1
   7  21   1 111.920 5.68826   2
  -1  21   7 114.921 6.61858   1
   1   7  21 115.253 6.23139   2
  -7   1  21 113.686 6.14638   2
   1  21  -7 97.7231 6.12989   1
   3  21   7 101.730 5.28273   2
   7  21  -3 107.536 6.50995   1
  -7  21   3 105.874 6.28917   1
 -21  -7   3 107.203 5.75696   2
  -7  -3  21 107.796 6.02519   2
   3  21   7 106.964 6.34699   1
  -3   7  21 111.235 6.02126   2
  -3  21   7 102.579 6.38344   1
 -21  -3   7 102.476 5.48763   2
   7  21   3 112.487 5.65444   2
   3   7  21 109.266 6.04332   2
  -7   3  21 113.702 6.06813   2
   3  21  -7 105.944 6.25168   1
   7  21   3 97.3396 6.24896   1
   7  21  -5 76.1592 4.82704   1
   5  21   7 72.8260 3.97716   2
  -7  21   5 71.7261 4.68608   1
 -21  -7   5 74.8105 4.22561   2
  -7  -5  21 64.7256 4.21486   2
  -5   7  21 76.7455 4.38912   2
   5  21   7 63.3021 4.47260   1
   7  21   5 77.4659 4.73919   1
 -21  -5   7 73.3849 4.10316   2
   5   7  21 75.8656 4.51209   2
  -5  21   7 64.7045 4.58376   1
   5  21  -7 77.8620 4.72076   1
  -7   5  21 82.0856 4.50124   2
   7  21   5 76.1321 4.10778   2
  -7  21   7 89.5927 5.54618   1
  -7  -7  21 81.0606 5.11940   2
  -7   7  21 97.9655 5.20488   2
 -21  -7   7 94.8156 5.07833   2
   7  21   7 99.6466 5.00683   2
   7   7  21 92.2616 5.34452   2
   7  21  -7 98.2520 5.64001   1
   9  21  -1 181.788 8.65662   2
  -1   9  21 180.799 9.00819   2
  -9  -1  21 178.381 9.02526   2
   9  21  -1 172.071 9.44411   1
  -9  21   1 164.425 9.00698   1
   1  21   9 168.287 9.29076   1
 -21  -1   9 173.713 8.26010   2
   1   9  21 177.175 9.02094   2
  -9   1  21 173.370 8.96129   2
  -1  21   9 180.013 9.44452   1
   9  21   1 176.352 9.48175   1
   9  21   1 186.919 8.74017   2
  -9  21  -1 159.245 9.28897   1
   3  21   9 96.8635 6.01052   1
   3  21   9 102.763 5.21026   2
  -9  21   3 100.553 6.02302   1
  -3   9  21 107.437 5.79703   2
  -9  -3  21 108.425 5.89106   2
   9  21  -3 108.938 6.38251   1
  -9   3  21 113.162 5.87052   2
  -3  21   9 108.427 6.23498   1
   9  21   3 113.316 5.65693   2
   3   9  21 114.253 6.00221   2
   9  21   3 101.444 6.18168   1
   3  21  -9 90.7587 5.91548   1
 -21  -3   9 104.542 5.38955   2
 -21  -9   5 179.252 8.63273   2
   9  21  -5 176.844 9.27189   1
  -5   9  21 177.479 8.64233   2
  -9  21   5 168.581 9.01351   1
   5  21   9 151.524 8.73816   1
   5  21   9 177.809 8.26101   2
   9   5  21 147.829 8.68154   2
  -9  -5  21 170.598 8.72824   2
  -5  21   9 160.083 9.03430   1
 -21  -5   9 175.668 8.41151   2
   5   9  21 180.482 8.86380   2
  -9   5  21 175.979 8.62530   2
   9  21   5 160.661 8.91895   1
   9  21   5 186.930 8.56679   2
  -9  -7  21 39.1267 2.78636   2
  -9  21   7 39.9402 2.99541   1
   7  21   9 45.5224 2.65220   2
  -7   9  21 48.3117 2.75913   2
   9  21  -7 44.6128 3.16927   1
 -21  -9   7 42.5454 2.70244   2
   7   9  21 41.5450 2.89156   2
  -9   7  21 46.2784 2.71341   2
   7  21  -9 46.1052 4.12734   1
   9  21   7 46.6403 2.71089   2
 -21  -7   9 45.9712 2.72432   2
  -7  21   9 42.4628 3.08724   1
   9  21   9 147.558 7.12580   2
   9  21  -9 144.637 7.40329   1
 -21  -9   9 138.362 7.02351   2
  -9  21   9 125.168 7.31376   1
   9   9  21 145.913 7.26725   2
  11  21  -1 39.5864 2.86375   1
  11  21  -1 37.3043 2.43902   2
 -11  -1  21 38.3642 2.57132   2
  -1  11  21 39.8645 2.55727   2
  11  21   1 39.3376 2.48467   2
  11  21   1 31.4440 2.69172   1
 -11   1  21 40.3074 2.55266   2
   1  11  21 38.1039 2.57741   2
  -1  21  11 34.2348 2.70278   1
  -3  11  21 58.8277 3.26879   2
 -11  -3  21 56.7561 3.33154   2
  11  21  -3 47.5533 3.47156   1
   3  21  11 56.3681 3.80019   1
   3  21  11 44.9060 2.92961   2
 -11   3  21 58.7461 3.26377   2
  11  21   3 51.0940 3.48280   1
  11  21   3 62.0095 3.28944   2
 -21  -3  11 52.6144 2.95483   2
  -3  21  11 45.8095 3.39872   1
  -5  11  21 21.5618 1.49096   2
 -11  21   5 17.9305 1.71382   1
 -11  -5  21 17.5035 1.51888   2
   5  21  11 17.1223 1.44946   2
 -21 -11   5 18.6934 1.51300   2
 -11   5  21 21.2759 1.49859   2
   5  11  21 21.1635 1.67579   2
 -21  -5  11 18.3737 1.38909   2
  11  21   5 19.4242 1.49069   2
  -5  21  11 15.0867 1.91655   1
 -21 -11   7 54.2159 3.09201   2
 -11  -7  21 42.3851 2.82561   2
 -11  21   7 39.0914 2.91801   1
   7  21  11 45.3469 3.01847   2
   7  11  21 52.1597 3.18470   2
 -11   7  21 52.0533 2.77589   2
  -7  21  11 40.4791 2.98406   1
  11  21   7 46.1662 2.86314   2
 -13  -1  21 82.8438 4.30477   2
  -1  13  21 73.1194 4.28744   2
  13  21  -1 79.8181 4.39577   2
  13  21  -1 75.4358 4.54308   1
 -13   1  21 77.1035 4.28329   2
  13  21   1 63.3877 4.35046   1
  13  21   1 84.7912 4.46538   2
   1  13  21 79.2197 4.44843   2
   3  21  13 31.7496 1.94617   2
  -3  21  13 34.0832 2.40680   1
  13  21   3 36.7118 2.54517   2
  13  21   3 31.2547 2.32282   1
   0   0  22 1.43385 1.07622   2
   0  22   0 1.76919 1.06054   1
  -2  22   0 5.57735 1.20112   1
   0   2  22 5.03587 1.17752   2
   0  22  -2 3.31771 1.19353   1
   0  22   2 5.13801 1.12684   1
  -2   0  22 4.93491 1.19503   2
   2  22  -2 1.71307 1.01967   1
  -2  22  -2 2.16184 1.15824   1
   2  -2  22 0.21195 1.46500   2
  -2  -2  22 2.43142 1.13355   2
  -2   2  22 1.67683 0.94733   2
   2  22   2 1.16487 0.92825   1
  -2  22   2 2.41035 0.97449   1
   0   4  22 1.69928 0.89108   2
   0  -4  22 -0.4959 1.55992   2
   4   0  22 -0.9413 1.48105   2
  -4   0  22 1.49543 0.92024   2
   0  22  -4 -0.3662 1.18612   1
  -4  22   0 -0.3329 1.07810   1
  -2   4  22 5.28369 1.05217   2
   4  22  -2 6.84913 1.15851   1
  -4  -2  22 6.34490 1.21129   2
  -2  22   4 5.49692 1.04107   1
  -4   2  22 7.36433 1.05068   2
   2   4  22 6.32220 1.17919   2
  -4  22  -2 4.63446 1.35147   1
   4  22   2 4.50073 1.33782   2
   4  22   2 6.74493 1.12590   1
  -4  22  -4 -1.0779 1.44888   1
  -4   4  22 0.76354 0.83091   2
  -4  -4  22 0.23284 1.00985   2
   4  22   4 0.79563 0.90080   1
   4  22   4 0.67800 0.89906   2
   4  22  -4 0.44839 1.01206   1
  -4  22   4 0.34488 0.90986   1
   4   4  22 0.26162 1.12711   2
   0  22   6 53.9610 3.82005   1
   6  22   0 59.6208 3.97508   1
   6  22   0 52.4513 2.91889   2
  -6   0  22 59.9247 3.53361   2
   0  22  -6 49.3199 3.49758   1
   0   6  22 58.7774 3.58339   2
  -6  22   0 51.8125 3.60222   1
   6   2  22 0.08200 1.54436   2
   6  22  -2 1.27866 0.87230   2
  -2  22  -6 1.17568 2.16250   1
   6  22  -2 2.18558 0.91427   1
  -6  22   2 0.61917 1.07296   1
  -2   6  22 1.39118 0.82539   2
   6  22   2 0.80645 0.75755   2
  -6  22  -2 0.08051 1.44283   1
   2  22  -6 -0.1270 1.26291   1
  -2  -6  22 -0.8917 1.49074   2
  -2  22   6 1.88413 0.90864   1
   2   6  22 0.51206 0.93086   2
   6  22   2 1.51825 0.92750   1
  -6  -4  22 34.7828 2.62812   2
  -4   6  22 44.7455 2.91107   2
   4  22   6 40.8784 2.98849   1
  -6  22   4 42.4788 3.07648   1
   4  22   6 35.9636 2.27365   2
   6  22  -4 48.0755 3.23595   1
 -22  -4   6 42.5040 2.44966   2
   4   6  22 42.5336 2.91651   2
  -4  22   6 39.4337 3.11728   1
  -6   4  22 46.0359 2.91668   2
   4  22  -6 39.7238 3.00552   1
   6  22   4 40.8107 2.39550   2
   6  22   4 42.4024 3.05542   1
   6  22   6 1.93145 0.77108   2
   6  22   6 1.77319 0.87569   1
   6   6  22 1.08634 1.04006   2
   6  22  -6 2.59165 1.04670   1
  -6  22   6 0.73888 0.88252   1
 -22  -6   6 1.88138 0.72775   2
   0  22   8 0.01694 0.91433   1
   8  22   0 0.80790 0.78510   2
   8  22   0 0.11604 0.88898   1
  -8  22   0 0.00940 1.49696   1
  -8   0  22 0.59162 0.76023   2
   0   8  22 1.41789 0.83887   2
   8  22  -2 2.21412 0.80982   2
   2  22   8 1.78544 0.86654   1
   8  22  -2 3.17393 0.97606   1
  -8  -2  22 3.39932 0.93079   2
   8  22   2 2.52259 0.89130   1
   2   8  22 3.87747 0.97625   2
   8  22   2 3.13050 0.86191   2
   8   4  22 -1.0289 1.65576   2
   8  22  -4 0.09063 0.85174   2
  -8  -4  22 0.44076 0.96308   2
   8  22  -4 0.01033 0.96639   1
  -8  22   4 0.33108 1.05644   1
   4  22   8 0.23196 0.90720   1
  -4   8  22 0.91468 0.74601   2
   8  22   4 -0.1638 0.77851   2
  -4  22   8 -0.3145 0.83470   1
   4  22  -8 0.56546 1.62405   1
 -22  -4   8 0.37854 0.72885   2
   4   8  22 0.54207 0.96334   2
   8  22   4 0.15114 0.86552   1
  -8   4  22 1.16559 0.77587   2
  -8  -6  22 33.5796 2.81152   2
   6  22   8 38.2651 3.14764   1
   6  22   8 29.2587 2.40059   2
 -22  -8   6 37.6858 2.24558   2
  -6   8  22 38.9036 2.34474   2
   8  22   6 37.3127 2.16612   2
  -8   6  22 38.0837 2.28938   2
 -22  -6   8 35.1897 2.14141   2
   6  22  -8 31.0438 2.51673   1
  -6  22   8 32.0852 2.88666   1
   6   8  22 31.0704 2.53927   2
   8  22   8 0.41006 1.01185   1
   8   8  22 -0.6102 1.15939   2
   8  22  -8 0.20171 1.09733   1
  -8  -8  22 0.48282 1.06915   2
  -8  22   8 0.94488 0.85552   1
   8  22   8 0.27753 0.80310   2
  -8   8  22 0.96577 0.93632   2
   0  22  10 126.802 7.05392   1
 -10   0  22 107.865 5.93962   2
  10  22   0 117.524 5.73546   2
  10  22   0 105.139 6.53615   1
   0  10  22 111.097 5.99740   2
  10  22  -2 0.78647 0.80930   2
  10  22  -2 0.81834 1.07570   1
 -10  -2  22 1.43889 0.79838   2
 -10  22   2 0.02295 1.27811   1
   2  22  10 0.10087 1.09688   1
  -2  10  22 1.93248 0.78190   2
   2  10  22 1.78149 0.81029   2
 -10   2  22 1.04820 0.72046   2
  10  22   2 1.27625 0.77174   2
  -2  22  10 0.38243 1.15376   1
 -10  -4  22 98.1698 5.54013   2
   4  22  10 85.0340 4.86616   2
   4  22  10 86.0429 5.41129   1
  10  22  -4 106.640 6.37441   1
  -4  10  22 108.480 5.38206   2
  -4  22  10 111.046 6.29662   1
   4  10  22 107.568 5.55793   2
 -10   4  22 111.536 5.39686   2
 -22  -4  10 101.661 5.11161   2
  10  22   4 101.825 5.36643   2
  10  22  -6 1.05806 0.96460   1
  10  22  -6 0.25938 0.92397   2
  -6  10  22 1.30878 0.80604   2
   6  22  10 0.24285 1.06581   1
 -10  -6  22 0.59116 0.84336   2
   6  22  10 0.47201 0.84123   2
 -22  -6  10 0.61991 0.67484   2
   6  10  22 -0.0236 1.02929   2
  10  22   6 0.39608 0.93716   1
 -10   6  22 0.53753 0.80259   2
  10  22   6 0.68774 0.70374   2
   6  22 -10 1.13571 1.93733   1
  -6  22  10 1.18914 0.79217   1
  12  22   0 0.50054 0.77100   2
  12  22   0 -0.1588 0.90769   1
   0  12  22 1.27826 0.76122   2
 -12   0  22 -0.6203 0.95072   2
   0  22  12 -0.1252 0.87241   1
  22  12   0 0.40511 2.10710   2
  -1  -1  23 111.251 6.15594   2
  -1   1  23 115.309 6.23256   2
  -1  23  -1 120.653 6.74112   1
  -1  23   1 116.857 6.72184   1
   1   1  23 110.496 6.18764   2
   1  23  -1 114.156 6.66337   1
   1  23   1 113.033 6.63230   1
   3  23  -1 95.7898 5.73336   1
  -3  23   1 97.2645 5.68936   1
  -3  -1  23 94.4915 5.36884   2
  -1   3  23 101.756 5.41793   2
  -1  23  -3 85.5340 5.41597   1
   1  23   3 84.9601 5.53999   1
   1   3  23 94.7613 5.36287   2
  -3  23  -1 97.4852 5.64012   1
  -1  23   3 93.4783 5.70762   1
   1  23  -3 96.4503 5.64005   1
   3  23   1 91.2476 5.68163   1
  -3   1  23 102.463 5.39838   2
   3  23  -3 113.937 6.12341   1
  -3  23  -3 89.2048 6.54885   1
  -3  23   3 98.1029 5.86729   1
   3  23   3 101.947 5.99755   1
   3   3  23 101.894 5.62668   2
  -3  -3  23 87.1610 5.34868   2
  -3   3  23 114.114 5.73497   2
   1  23   5 90.3457 5.27720   1
  -5  23   1 80.1021 5.08696   1
   5  23  -1 81.2939 5.22484   1
  -1   5  23 91.5441 4.96692   2
  -5  -1  23 87.1181 4.87017   2
   1   5  23 91.1398 4.94842   2
   5  23   1 77.5065 5.08986   1
  -5   1  23 84.1344 4.83580   2
  -1  23   5 90.3110 5.28823   1
  -5  -3  23 65.6121 4.06317   2
   3  23   5 71.1937 4.50845   1
  -3   5  23 74.5511 4.25709   2
   5  23  -3 72.9212 4.57033   1
  -5  23   3 73.2455 4.52359   1
   3  23  -5 75.6476 5.19423   1
  -5   3  23 76.0904 4.25980   2
  -3  23   5 66.4234 4.47355   1
   3   5  23 72.5588 4.23411   2
   5  23   3 70.8348 4.49969   1
   5  23  -5 62.3526 4.75168   1
   5  23   5 78.7924 4.73782   1
   5   5  23 67.1086 4.62203   2
  -5   5  23 83.9522 4.40189   2
  -5  23   5 82.9699 5.17536   1
   7  23  -1 65.5513 4.20889   1
  -1   7  23 64.8213 3.80415   2
   1  23   7 63.1188 4.09167   1
  -7  -1  23 66.0860 3.84025   2
  -7   1  23 66.3427 3.80275   2
   7  23   1 57.1293 3.50672   2
  -1  23   7 66.2910 4.14669   1
   7  23   1 68.9180 4.19451   1
  -3   7  23 77.4817 4.26208   2
  -7  23   3 78.6768 4.52998   1
  -7  -3  23 71.3670 4.24748   2
   3  23   7 72.4871 5.04297   1
   3   7  23 79.8320 4.36316   2
   7  23   3 70.3513 4.81688   1
  -7   3  23 77.3834 4.27629   2
   7  23  -5 23.8377 1.95335   1
  -7  23   5 24.5780 1.96794   1
   5  23   7 23.9792 1.91869   1
  -7  -5  23 20.3101 1.77286   2
   7  23   5 22.1249 1.84237   1
   7  23   5 20.3561 1.44776   2
   5  23  -7 22.5702 1.96272   1
  -5  23   7 19.7197 1.75520   1
   7  23   7 54.5125 2.94929   2
   7  23   7 58.4910 3.48920   1
   7  23  -7 67.6965 3.64885   1
   7   7  23 48.8217 3.25125   2
   9  23  -1 37.3470 2.31195   2
   9  23  -1 36.1103 2.77421   1
  -9  -1  23 48.9640 3.07918   2
   1  23   9 41.0933 2.91196   1
  -9   1  23 46.8555 2.89703   2
   9  23   1 41.3597 2.35713   2
  -1  23   9 48.5053 3.03823   1
   1   9  23 50.2609 3.09120   2
   3  23   9 23.9800 1.86851   1
  -9  -3  23 20.1094 1.66719   2
   3   9  23 25.5859 1.84514   2
   9  23   3 18.6092 1.73922   1
  -3  23   9 23.7906 1.91501   1
   9  23   3 22.3970 1.48964   2
   0  24   0 8.08577 1.48151   1
  -2  24   0 0.10956 1.30695   1
   0  -2  24 -0.6101 1.31827   2
   0   2  24 -0.0933 1.19578   2
   2  24   0 0.25907 1.27513   1
   0  24   2 -0.3689 0.95944   1
   2   0  24 0.34525 1.29981   2
  -2   0  24 0.44559 1.14312   2
   0  24  -2 0.26373 1.29648   1
  -2  24  -2 -1.1497 1.18799   1
  -2  24   2 0.29986 1.21295   1
   2  24   2 0.89761 0.97068   1
   2   2  24 -0.4501 1.14927   2
   2  24  -2 0.20638 1.23861   1
  -2  -2  24 0.44433 1.15676   2
  -4  24   0 2.31688 1.22700   1
  -4   0  24 3.83772 1.14241   2
   4  24   0 3.14340 0.99170   1
   2  24   4 12.2801 1.88812   1
  -4  24   2 12.2753 1.46538   1
  -2  24  -4 12.3151 1.75126   1
  -2   4  24 16.6558 1.38657   2
   4  24  -2 14.4011 1.59451   1
   4  24   2 13.5223 1.66388   1
   2  24  -4 16.9555 1.66056   1
  -2  24   4 16.6646 1.97479   1
  -4   2  24 14.9644 1.40636   2
   2   4  24 14.7049 1.62063   2
  -4  -4  24 3.34512 1.19996   2
   4   4  24 2.96087 1.10735   2
   4  24  -4 3.79754 1.14720   1
  -4   4  24 5.99463 1.03204   2
  -4  24   4 4.59999 1.02141   1
   4  24   4 5.38479 0.96646   1
  -6  24   0 -0.6432 1.41114   1
   0   6  24 0.31997 0.81730   2
   6  24   0 0.02877 0.84017   1
  -6   0  24 -0.0721 0.90475   2
   0  24   6 0.67810 0.89465   1
   6  24  -2 -0.5274 0.89281   1
   2  24   6 -0.5738 0.77873   1
  -6  24   2 -0.6501 1.15551   1
  -6  -2  24 0.05293 0.80625   2
  -2   6  24 -0.2559 0.87652   2
   6  24   2 0.17710 0.85174   1
  -6   2  24 -0.1890 0.94270   2
   2  24  -6 1.23005 1.41249   1
   2   6  24 0.33650 0.79990   2
  -2  24   6 -0.5598 0.86396   1
  -6  -4  24 6.43936 1.21505   2
   6  24  -4 6.27960 1.18281   1
  -6  24   4 6.27623 1.15649   1
   6   4  24 5.26598 1.59600   2
   6  24   4 7.08930 1.07541   1
   4  24  -6 6.48484 1.33146   1
   4   6  24 8.71994 1.35106   2
  -1   1  25 71.1212 4.08250   2
  -1  25  -1 80.6363 4.34075   1
  -1  25   1 59.8269 4.10575   1
   1  25  -1 79.1581 4.35224   1
   1  25   1 80.1521 4.40281   1
   0   0   0    0.00    0.00   0
;
_shelx_hkl_checksum              45589
loop_
_space_group_symop_operation_xyz
'x, y, z'
'-x+3/4, -y+1/4, z+1/2'
'-x+1/4, y+1/2, -z+3/4'
'x+1/2, -y+3/4, -z+1/4'
'z, x, y'
'z+1/2, -x+3/4, -y+1/4'
'-z+3/4, -x+1/4, y+1/2'
'-z+1/4, x+1/2, -y+3/4'
'y, z, x'
'-y+1/4, z+1/2, -x+3/4'
'y+1/2, -z+3/4, -x+1/4'
'-y+3/4, -z+1/4, x+1/2'
'y+3/4, x+1/4, -z+1/2'
'-y, -x, -z'
'y+1/4, -x+1/2, z+3/4'
'-y+1/2, x+3/4, z+1/4'
'x+3/4, z+1/4, -y+1/2'
'-x+1/2, z+3/4, y+1/4'
'-x, -z, -y'
'x+1/4, -z+1/2, y+3/4'
'z+3/4, y+1/4, -x+1/2'
'z+1/4, -y+1/2, x+3/4'
'-z+1/2, y+3/4, x+1/4'
'-z, -y, -x'
'x, y+1/2, z+1/2'
'-x+3/4, -y+3/4, z+1'
'-x+1/4, y+1, -z+5/4'
'x+1/2, -y+5/4, -z+3/4'
'z, x+1/2, y+1/2'
'z+1/2, -x+5/4, -y+3/4'
'-z+3/4, -x+3/4, y+1'
'-z+1/4, x+1, -y+5/4'
'y, z+1/2, x+1/2'
'-y+1/4, z+1, -x+5/4'
'y+1/2, -z+5/4, -x+3/4'
'-y+3/4, -z+3/4, x+1'
'y+3/4, x+3/4, -z+1'
'-y, -x+1/2, -z+1/2'
'y+1/4, -x+1, z+5/4'
'-y+1/2, x+5/4, z+3/4'
'x+3/4, z+3/4, -y+1'
'-x+1/2, z+5/4, y+3/4'
'-x, -z+1/2, -y+1/2'
'x+1/4, -z+1, y+5/4'
'z+3/4, y+3/4, -x+1'
'z+1/4, -y+1, x+5/4'
'-z+1/2, y+5/4, x+3/4'
'-z, -y+1/2, -x+1/2'
'x+1/2, y, z+1/2'
'-x+5/4, -y+1/4, z+1'
'-x+3/4, y+1/2, -z+5/4'
'x+1, -y+3/4, -z+3/4'
'z+1/2, x, y+1/2'
'z+1, -x+3/4, -y+3/4'
'-z+5/4, -x+1/4, y+1'
'-z+3/4, x+1/2, -y+5/4'
'y+1/2, z, x+1/2'
'-y+3/4, z+1/2, -x+5/4'
'y+1, -z+3/4, -x+3/4'
'-y+5/4, -z+1/4, x+1'
'y+5/4, x+1/4, -z+1'
'-y+1/2, -x, -z+1/2'
'y+3/4, -x+1/2, z+5/4'
'-y+1, x+3/4, z+3/4'
'x+5/4, z+1/4, -y+1'
'-x+1, z+3/4, y+3/4'
'-x+1/2, -z, -y+1/2'
'x+3/4, -z+1/2, y+5/4'
'z+5/4, y+1/4, -x+1'
'z+3/4, -y+1/2, x+5/4'
'-z+1, y+3/4, x+3/4'
'-z+1/2, -y, -x+1/2'
'x+1/2, y+1/2, z'
'-x+5/4, -y+3/4, z+1/2'
'-x+3/4, y+1, -z+3/4'
'x+1, -y+5/4, -z+1/4'
'z+1/2, x+1/2, y'
'z+1, -x+5/4, -y+1/4'
'-z+5/4, -x+3/4, y+1/2'
'-z+3/4, x+1, -y+3/4'
'y+1/2, z+1/2, x'
'-y+3/4, z+1, -x+3/4'
'y+1, -z+5/4, -x+1/4'
'-y+5/4, -z+3/4, x+1/2'
'y+5/4, x+3/4, -z+1/2'
'-y+1/2, -x+1/2, -z'
'y+3/4, -x+1, z+3/4'
'-y+1, x+5/4, z+1/4'
'x+5/4, z+3/4, -y+1/2'
'-x+1, z+5/4, y+1/4'
'-x+1/2, -z+1/2, -y'
'x+3/4, -z+1, y+3/4'
'z+5/4, y+3/4, -x+1/2'
'z+3/4, -y+1, x+3/4'
'-z+1, y+5/4, x+1/4'
'-z+1/2, -y+1/2, -x'
'-x, -y, -z'
'x-3/4, y-1/4, -z-1/2'
'x-1/4, -y-1/2, z-3/4'
'-x-1/2, y-3/4, z-1/4'
'-z, -x, -y'
'-z-1/2, x-3/4, y-1/4'
'z-3/4, x-1/4, -y-1/2'
'z-1/4, -x-1/2, y-3/4'
'-y, -z, -x'
'y-1/4, -z-1/2, x-3/4'
'-y-1/2, z-3/4, x-1/4'
'y-3/4, z-1/4, -x-1/2'
'-y-3/4, -x-1/4, z-1/2'
'y, x, z'
'-y-1/4, x-1/2, -z-3/4'
'y-1/2, -x-3/4, -z-1/4'
'-x-3/4, -z-1/4, y-1/2'
'x-1/2, -z-3/4, -y-1/4'
'x, z, y'
'-x-1/4, z-1/2, -y-3/4'
'-z-3/4, -y-1/4, x-1/2'
'-z-1/4, y-1/2, -x-3/4'
'z-1/2, -y-3/4, -x-1/4'
'z, y, x'
'-x, -y+1/2, -z+1/2'
'x-3/4, y+1/4, -z'
'x-1/4, -y, z-1/4'
'-x-1/2, y-1/4, z+1/4'
'-z, -x+1/2, -y+1/2'
'-z-1/2, x-1/4, y+1/4'
'z-3/4, x+1/4, -y'
'z-1/4, -x, y-1/4'
'-y, -z+1/2, -x+1/2'
'y-1/4, -z, x-1/4'
'-y-1/2, z-1/4, x+1/4'
'y-3/4, z+1/4, -x'
'-y-3/4, -x+1/4, z'
'y, x+1/2, z+1/2'
'-y-1/4, x, -z-1/4'
'y-1/2, -x-1/4, -z+1/4'
'-x-3/4, -z+1/4, y'
'x-1/2, -z-1/4, -y+1/4'
'x, z+1/2, y+1/2'
'-x-1/4, z, -y-1/4'
'-z-3/4, -y+1/4, x'
'-z-1/4, y, -x-1/4'
'z-1/2, -y-1/4, -x+1/4'
'z, y+1/2, x+1/2'
'-x+1/2, -y, -z+1/2'
'x-1/4, y-1/4, -z'
'x+1/4, -y-1/2, z-1/4'
'-x, y-3/4, z+1/4'
'-z+1/2, -x, -y+1/2'
'-z, x-3/4, y+1/4'
'z-1/4, x-1/4, -y'
'z+1/4, -x-1/2, y-1/4'
'-y+1/2, -z, -x+1/2'
'y+1/4, -z-1/2, x-1/4'
'-y, z-3/4, x+1/4'
'y-1/4, z-1/4, -x'
'-y-1/4, -x-1/4, z'
'y+1/2, x, z+1/2'
'-y+1/4, x-1/2, -z-1/4'
'y, -x-3/4, -z+1/4'
'-x-1/4, -z-1/4, y'
'x, -z-3/4, -y+1/4'
'x+1/2, z, y+1/2'
'-x+1/4, z-1/2, -y-1/4'
'-z-1/4, -y-1/4, x'
'-z+1/4, y-1/2, -x-1/4'
'z, -y-3/4, -x+1/4'
'z+1/2, y, x+1/2'
'-x+1/2, -y+1/2, -z'
'x-1/4, y+1/4, -z-1/2'
'x+1/4, -y, z-3/4'
'-x, y-1/4, z-1/4'
'-z+1/2, -x+1/2, -y'
'-z, x-1/4, y-1/4'
'z-1/4, x+1/4, -y-1/2'
'z+1/4, -x, y-3/4'
'-y+1/2, -z+1/2, -x'
'y+1/4, -z, x-3/4'
'-y, z-1/4, x-1/4'
'y-1/4, z+1/4, -x-1/2'
'-y-1/4, -x+1/4, z-1/2'
'y+1/2, x+1/2, z'
'-y+1/4, x, -z-3/4'
'y, -x-1/4, -z-1/4'
'-x-1/4, -z+1/4, y-1/2'
'x, -z-1/4, -y-1/4'
'x+1/2, z+1/2, y'
'-x+1/4, z, -y-3/4'
'-z-1/4, -y+1/4, x-1/2'
'-z+1/4, y, -x-3/4'
'z, -y-1/4, -x-1/4'
'z+1/2, y+1/2, x'
loop_
_atom_site_label
_atom_site_type_symbol
_atom_site_fract_x
_atom_site_fract_y
_atom_site_fract_z
_atom_site_U_iso_or_equiv
_atom_site_adp_type
_atom_site_occupancy
_atom_site_site_symmetry_order
_atom_site_calc_flag
_atom_site_refinement_flags_posn
_atom_site_refinement_flags_adp
_atom_site_refinement_flags_occupancy
_atom_site_disorder_assembly
_atom_site_disorder_group
F1 F 0.2500 0.7500 0.5000 0.0120(5) Uani 0.61769(19) 12 d S T P . .
F1B F 0.2831(5) 0.7831(5) 0.4669(5) 0.0111(8) Uani 0.21315(8) 6 d S T P . .
F2 F 0.3750 0.8750 0.3750 0.0074(14) Uani 0.21317(8) 24 d S T P . .
N1 N 0.5000 0.5000 0.5000 0.0058(2) Uani 0.92469(7) 12 d S T P . .
F3 F 0.5000 0.5000 0.5000 0.0058(2) Uani 0.07529(12) 12 d S T P . .
Ca Ca 0.50990(2) 0.74010(2) 0.50990(2) 0.00511(9) Uani 1 6 d S T P . .
loop_
_atom_site_aniso_label
_atom_site_aniso_U_11
_atom_site_aniso_U_22
_atom_site_aniso_U_33
_atom_site_aniso_U_23
_atom_site_aniso_U_13
_atom_site_aniso_U_12
F1 0.0120(5) 0.0120(5) 0.0120(5) 0.0007(6) 0.0007(6) -0.0007(6)
F1B 0.0111(8) 0.0111(8) 0.0111(8) -0.0026(12) -0.0026(12) 0.0026(12)
F2 0.0074(14) 0.0074(14) 0.0074(14) 0.000 0.000 0.000
N1 0.0058(2) 0.0058(2) 0.0058(2) 0.0001(3) 0.0001(3) 0.0001(3)
F3 0.0058(2) 0.0058(2) 0.0058(2) 0.0001(3) 0.0001(3) 0.0001(3)
Ca 0.00511(9) 0.00511(9) 0.00511(9) 0.00029(4) -0.00029(4) 0.00029(4)
loop_
_atom_type_symbol
_atom_type_description
_atom_type_scat_dispersion_real
_atom_type_scat_dispersion_imag
_atom_type_scat_source
Ca Ca 0.2262 0.3064 'International Tables Vol C Tables 4.2.6.8 and 6.1.1.4'
F F 0.0171 0.0103 'International Tables Vol C Tables 4.2.6.8 and 6.1.1.4'
N N 0.0061 0.0033 'International Tables Vol C Tables 4.2.6.8 and 6.1.1.4'
loop_
_geom_angle_atom_site_label_1
_geom_angle_atom_site_label_2
_geom_angle_atom_site_label_3
_geom_angle
_geom_angle_site_symmetry_1
_geom_angle_site_symmetry_3
F1B F1 F1B 180.0(8) . 169_566
F1B F1 Ca 122.180(6) . 99_576
F1B F1 Ca 57.820(6) 169_566 99_576
F1B F1 Ca 57.820(6) . 75_545
F1B F1 Ca 122.180(6) 169_566 75_545
Ca F1 Ca 180.0 99_576 75_545
F1B F1 Ca 122.180(6) . 169_566
F1B F1 Ca 57.820(6) 169_566 169_566
Ca F1 Ca 94.274(8) 99_576 169_566
Ca F1 Ca 85.726(8) 75_545 169_566
F1B F1 Ca 57.820(6) . 26_564
F1B F1 Ca 122.180(6) 169_566 26_564
Ca F1 Ca 85.726(8) 99_576 26_564
Ca F1 Ca 94.274(8) 75_545 26_564
Ca F1 Ca 85.726(8) 169_566 26_564
F1B F1 Ca 122.180(6) . 146_556
F1B F1 Ca 57.820(6) 169_566 146_556
Ca F1 Ca 94.274(8) 99_576 146_556
Ca F1 Ca 85.726(8) 75_545 146_556
Ca F1 Ca 94.274(8) 169_566 146_556
Ca F1 Ca 180.0 26_564 146_556
F1B F1 Ca 57.820(6) . .
F1B F1 Ca 122.180(6) 169_566 .
Ca F1 Ca 85.725(8) 99_576 .
Ca F1 Ca 94.275(8) 75_545 .
Ca F1 Ca 180.0 169_566 .
Ca F1 Ca 94.275(8) 26_564 .
Ca F1 Ca 85.725(8) 146_556 .
F1 F1B F1B 0.0(8) . 169_566
F1 F1B F2 180.0(15) . .
F1B F1B F2 180.0(12) 169_566 .
F1 F1B Ca 110.25(18) . 75_545
F1B F1B Ca 110.25(18) 169_566 75_545
F2 F1B Ca 69.75(18) . 75_545
F1 F1B Ca 110.25(18) . 26_564
F1B F1B Ca 110.25(18) 169_566 26_564
F2 F1B Ca 69.75(18) . 26_564
Ca F1B Ca 108.68(19) 75_545 26_564
F1 F1B Ca 110.25(18) . .
F1B F1B Ca 110.25(18) 169_566 .
F2 F1B Ca 69.75(18) . .
Ca F1B Ca 108.68(19) 75_545 .
Ca F1B Ca 108.68(19) 26_564 .
F1 F1B Ca 48.34(12) . 169_566
F1B F1B Ca 48.34(12) 169_566 169_566
F2 F1B Ca 131.66(12) . 169_566
Ca F1B Ca 83.08(7) 75_545 169_566
Ca F1B Ca 83.08(7) 26_564 169_566
Ca F1B Ca 158.6(3) . 169_566
F1 F1B Ca 48.34(12) . 146_556
F1B F1B Ca 48.34(12) 169_566 146_556
F2 F1B Ca 131.66(12) . 146_556
Ca F1B Ca 83.08(7) 75_545 146_556
Ca F1B Ca 158.6(3) 26_564 146_556
Ca F1B Ca 83.08(7) . 146_556
Ca F1B Ca 80.64(18) 169_566 146_556
F1 F1B Ca 48.34(12) . 99_576
F1B F1B Ca 48.34(11) 169_566 99_576
F2 F1B Ca 131.66(12) . 99_576
Ca F1B Ca 158.6(3) 75_545 99_576
Ca F1B Ca 83.08(7) 26_564 99_576
Ca F1B Ca 83.08(7) . 99_576
Ca F1B Ca 80.64(18) 169_566 99_576
Ca F1B Ca 80.64(18) 146_556 99_576
F1B F2 F1B 109.471(1) 26_564 52_465
F1B F2 F1B 109.471(2) 26_564 75_545
F1B F2 F1B 109.471(1) 52_465 75_545
F1B F2 F1B 109.5 26_564 .
F1B F2 F1B 109.471(1) 52_465 .
F1B F2 F1B 109.471(1) 75_545 .
F1B F2 Ca 180.00(14) 26_564 75_545
F1B F2 Ca 70.529(1) 52_465 75_545
F1B F2 Ca 70.529(1) 75_545 75_545
F1B F2 Ca 70.529(1) . 75_545
F1B F2 Ca 70.529(1) 26_564 26_564
F1B F2 Ca 70.5 52_465 26_564
F1B F2 Ca 180.00(14) 75_545 26_564
F1B F2 Ca 70.5 . 26_564
Ca F2 Ca 109.5 75_545 26_564
F1B F2 Ca 70.5 26_564 52_465
F1B F2 Ca 70.529(1) 52_465 52_465
F1B F2 Ca 70.5 75_545 52_465
F1B F2 Ca 180.00(14) . 52_465
Ca F2 Ca 109.5 75_545 52_465
Ca F2 Ca 109.5 26_564 52_465
F1B F2 Ca 70.5 26_564 .
F1B F2 Ca 180.00(14) 52_465 .
F1B F2 Ca 70.5 75_545 .
F1B F2 Ca 70.529(1) . .
Ca F2 Ca 109.5 75_545 .
Ca F2 Ca 109.5 26_564 .
Ca F2 Ca 109.5 52_465 .
Ca N1 Ca 94.813(10) . 172_655
Ca N1 Ca 85.187(10) . 76_456
Ca N1 Ca 180.0 172_655 76_456
Ca N1 Ca 85.187(10) . 50_564
Ca N1 Ca 94.813(10) 172_655 50_564
Ca N1 Ca 85.187(10) 76_456 50_564
Ca N1 Ca 94.813(10) . 146_556
Ca N1 Ca 85.187(10) 172_655 146_556
Ca N1 Ca 94.813(10) 76_456 146_556
Ca N1 Ca 180.0 50_564 146_556
Ca N1 Ca 180.0 . 97_666
Ca N1 Ca 85.187(10) 172_655 97_666
Ca N1 Ca 94.813(10) 76_456 97_666
Ca N1 Ca 94.813(10) 50_564 97_666
Ca N1 Ca 85.187(10) 146_556 97_666
F2 Ca F1B 39.72(18) . 75_545
F2 Ca F1B 39.72(18) . 26_564
F1B Ca F1B 67.2(3) 75_545 26_564
F2 Ca F1B 39.72(18) . .
F1B Ca F1B 67.2(3) 75_545 .
F1B Ca F1B 67.2(3) 26_564 .
F2 Ca F3 121.926(7) . 50_564
F1B Ca F3 97.79(12) 75_545 50_564
F1B Ca F3 97.79(12) 26_564 50_564
F1B Ca F3 161.64(19) . 50_564
F2 Ca N1 121.926(7) . 50_564
F1B Ca N1 97.79(12) 75_545 50_564
F1B Ca N1 97.79(12) 26_564 50_564
F1B Ca N1 161.64(19) . 50_564
F3 Ca N1 0.0 50_564 50_564
F2 Ca N1 121.926(7) . .
F1B Ca N1 97.79(12) 75_545 .
F1B Ca N1 161.64(19) 26_564 .
F1B Ca N1 97.79(12) . .
F3 Ca N1 94.619(9) 50_564 .
N1 Ca N1 94.619(9) 50_564 .
F2 Ca F3 121.926(7) . 76_456
F1B Ca F3 161.64(18) 75_545 76_456
F1B Ca F3 97.79(12) 26_564 76_456
F1B Ca F3 97.79(12) . 76_456
F3 Ca F3 94.619(9) 50_564 76_456
N1 Ca F3 94.619(9) 50_564 76_456
N1 Ca F3 94.619(9) . 76_456
F2 Ca N1 121.926(7) . 76_456
F1B Ca N1 161.64(18) 75_545 76_456
F1B Ca N1 97.79(12) 26_564 76_456
F1B Ca N1 97.79(12) . 76_456
F3 Ca N1 94.619(9) 50_564 76_456
N1 Ca N1 94.619(9) 50_564 76_456
N1 Ca N1 94.619(9) . 76_456
F3 Ca N1 0.0 76_456 76_456
F2 Ca F1 51.651(6) . .
F1B Ca F1 76.90(13) 75_545 .
F1B Ca F1 76.90(13) 26_564 .
F1B Ca F1 11.93(18) . .
F3 Ca F1 173.576(12) 50_564 .
N1 Ca F1 173.576(12) 50_564 .
N1 Ca F1 89.731(1) . .
F3 Ca F1 89.731(1) 76_456 .
N1 Ca F1 89.731(1) 76_456 .
F2 Ca F1 51.651(6) . 75_545
F1B Ca F1 11.93(18) 75_545 75_545
F1B Ca F1 76.90(13) 26_564 75_545
F1B Ca F1 76.90(13) . 75_545
F3 Ca F1 89.731(1) 50_564 75_545
N1 Ca F1 89.731(1) 50_564 75_545
N1 Ca F1 89.731(1) . 75_545
F3 Ca F1 173.576(12) 76_456 75_545
N1 Ca F1 173.576(12) 76_456 75_545
F1 Ca F1 85.558(8) . 75_545
loop_
_geom_bond_atom_site_label_1
_geom_bond_atom_site_label_2
_geom_bond_distance
_geom_bond_site_symmetry_2
F1 F1B 0.575(8) .
F1 F1B 0.575(8) 169_566
F1 Ca 2.6106(2) 99_576
F1 Ca 2.6106(2) 75_545
F1 Ca 2.6106(2) 169_566
F1 Ca 2.6106(2) 26_564
F1 Ca 2.6106(2) 146_556
F1 Ca 2.6107(2) .
F1B F1B 1.151(16) 169_566
F1B F2 1.596(8) .
F1B Ca 2.355(3) 75_545
F1B Ca 2.355(3) 26_564
F1B Ca 2.355(3) .
F1B Ca 2.957(5) 169_566
F1B Ca 2.957(5) 146_556
F1B Ca 2.957(5) 99_576
F2 F1B 1.596(8) 26_564
F2 F1B 1.596(8) 52_465
F2 F1B 1.596(8) 75_545
F2 Ca 2.3436(3) 75_545
F2 Ca 2.3436(3) 26_564
F2 Ca 2.3436(3) 52_465
F2 Ca 2.3436(3) .
N1 Ca 2.4123(2) .
N1 Ca 2.4123(2) 172_655
N1 Ca 2.4123(2) 76_456
N1 Ca 2.4123(2) 50_564
N1 Ca 2.4123(2) 146_556
N1 Ca 2.4123(2) 97_666
Ca F1B 2.355(3) 75_545
Ca F1B 2.355(3) 26_564
Ca F3 2.4123(2) 50_564
Ca N1 2.4123(2) 50_564
Ca F3 2.4123(2) 76_456
Ca N1 2.4123(2) 76_456
Ca F1 2.6107(2) 75_545
