#------------------------------------------------------------------------------
#$Date: 2021-02-18 11:53:46 +0200 (Thu, 18 Feb 2021) $
#$Revision: 262058 $
#$URL: file:///home/coder/svn-repositories/cod/cif/1/56/04/1560463.cif $
#------------------------------------------------------------------------------
#
# This file is available in the Crystallography Open Database (COD),
# http://www.crystallography.net/
#
# All data on this site have been placed in the public domain by the
# contributors.
#
data_1560463
loop_
_publ_author_name
'Iyer, Abishek K.'
'Yin, Wenlong'
'Lee, Emma J.'
'Lin, Xinsong'
'Mar, Arthur'
_publ_section_title
;
 Quaternary rare-earth sulfides RE 3 M 0.5 GeS 7 (RE=La--Nd, Sm; M=Co, Ni)
 and Y 3 Pd 0.5 SiS 7
;
_journal_name_full               'Journal of Solid State Chemistry'
_journal_page_first              14
_journal_page_last               23
_journal_paper_doi               10.1016/j.jssc.2017.03.009
_journal_volume                  250
_journal_year                    2017
_chemical_absolute_configuration ad
_chemical_formula_structural     'Ce3 Co0.50 Ge S7'
_chemical_formula_sum            'Ce3 Co0.5 Ge S7'
_chemical_formula_weight         746.83
_chemical_name_common
'cerium cobalt germanium sulphide (3/0.5/1/7)'
_chemical_name_systematic
'cerium cobalt germanium sulphide (3/0.5/1/7)'
_space_group_crystal_system      hexagonal
_space_group_IT_number           173
_space_group_name_Hall           'P 6c'
_space_group_name_H-M_alt        'P 63'
_atom_sites_solution_hydrogens   .
_cell_angle_alpha                90
_cell_angle_beta                 90
_cell_angle_gamma                120
_cell_formula_units_Z            2
_cell_length_a                   10.206(3)
_cell_length_b                   10.206(3)
_cell_length_c                   5.7906(17)
_cell_measurement_reflns_used    1238
_cell_measurement_temperature    296(2)
_cell_measurement_theta_max      24.00
_cell_measurement_theta_min      4.21
_cell_volume                     522.4(3)
_computing_cell_refinement       'Bruker SAINT 8.34A (Bruker, 2013)'
_computing_data_collection       'Bruker APEX 2 (Bruker, 2008)'
_computing_data_reduction        'Bruker SAINT 8.34A'
_computing_molecular_graphics    'ATOMS 5.1 (Dowty, 1999)'
_computing_publication_material  'SHELXL-2014/7 (Sheldrick, 2014)'
_computing_structure_refinement  'SHELXL-2014/7 (Sheldrick, 2014)'
_computing_structure_solution    'SHELXS-97 (Sheldrick, 2008)'
_diffrn_ambient_temperature      296(2)
_diffrn_measured_fraction_theta_full 1.000
_diffrn_measured_fraction_theta_max 0.999
_diffrn_measurement_device_type  'Bruker PLATFORM/SMART APEX II CCD'
_diffrn_measurement_method       '\w and \f scans'
_diffrn_radiation_type           MoK\a
_diffrn_radiation_wavelength     0.71073
_diffrn_reflns_av_R_equivalents  0.0996
_diffrn_reflns_av_unetI/netI     0.0631
_diffrn_reflns_Laue_measured_fraction_full 1.000
_diffrn_reflns_Laue_measured_fraction_max 0.999
_diffrn_reflns_limit_h_max       15
_diffrn_reflns_limit_h_min       -15
_diffrn_reflns_limit_k_max       15
_diffrn_reflns_limit_k_min       -15
_diffrn_reflns_limit_l_max       8
_diffrn_reflns_limit_l_min       -8
_diffrn_reflns_number            7595
_diffrn_reflns_point_group_measured_fraction_full 1.000
_diffrn_reflns_point_group_measured_fraction_max 0.999
_diffrn_reflns_theta_full        25.242
_diffrn_reflns_theta_max         33.183
_diffrn_reflns_theta_min         2.304
_diffrn_source                   'fine-focus sealed tube'
_exptl_absorpt_coefficient_mu    17.767
_exptl_absorpt_correction_T_max  0.610
_exptl_absorpt_correction_T_min  0.542
_exptl_absorpt_correction_type   numerical
_exptl_absorpt_process_details   'SHELXL-2014/7 (Sheldrick, 2014)'
_exptl_crystal_colour            grey
_exptl_crystal_density_diffrn    4.748
_exptl_crystal_description       irregular
_exptl_crystal_F_000             663
_exptl_crystal_size_max          0.047
_exptl_crystal_size_mid          0.045
_exptl_crystal_size_min          0.043
_refine_diff_density_max         3.201
_refine_diff_density_min         -2.087
_refine_diff_density_rms         0.424
_refine_ls_abs_structure_details
;
 Refined as an inversion twin.
;
_refine_ls_abs_structure_Flack   0.01(6)
_refine_ls_extinction_coef       .
_refine_ls_extinction_method     none
_refine_ls_goodness_of_fit_ref   1.084
_refine_ls_hydrogen_treatment    undef
_refine_ls_matrix_type           full
_refine_ls_number_parameters     38
_refine_ls_number_reflns         1335
_refine_ls_number_restraints     1
_refine_ls_restrained_S_all      1.084
_refine_ls_R_factor_all          0.0623
_refine_ls_R_factor_gt           0.0431
_refine_ls_shift/su_max          0.000
_refine_ls_shift/su_mean         0.000
_refine_ls_structure_factor_coef Fsqd
_refine_ls_weighting_details
'w=1/[\s^2^(Fo^2^)+(0.0365P)^2^+1.4792P] where P=(Fo^2^+2Fc^2^)/3'
_refine_ls_weighting_scheme      calc
_refine_ls_wR_factor_gt          0.0843
_refine_ls_wR_factor_ref         0.0922
_reflns_Friedel_coverage         0.846
_reflns_Friedel_fraction_full    1.000
_reflns_Friedel_fraction_max     0.998
_reflns_number_gt                1064
_reflns_number_total             1335
_reflns_threshold_expression     'I > 2\s(I)'
_cod_data_source_file            mmc13.cif
_cod_data_source_block           2
_cod_original_formula_sum        'Ce3 Co0.50 Ge S7'
_cod_database_code               1560463
_shelx_space_group_comment
;
The symmetry employed for this shelxl refinement is uniquely defined
by the following loop, which should always be used as a source of
symmetry information in preference to the above space-group names.
They are only intended as comments.
;
_shelx_estimated_absorpt_t_min   0.489
_shelx_estimated_absorpt_t_max   0.515
_shelx_res_file
;

    p63.res created by SHELXL-2014/7

TITL Ce3Co0.5GeS7 P6(3) lsf final refinement
CELL 0.71073  10.20650  10.20650   5.79060  90.0000  90.0000 120.0000
ZERR    2.00   0.00300   0.00300   0.00170   0.0000   0.0000   0.0000
LATT -1
SYMM -Y, X-Y, Z
SYMM -X+Y, -X, Z
SYMM -X, -Y, 0.5+Z
SYMM Y, -X+Y, 0.5+Z
SYMM X-Y, X, 0.5+Z
SFAC S CO GE CE
UNIT 14 1 2 6
TEMP 23
SIZE 0.043 0.045 0.047

L.S. 4
ACTA

TWIN

WGHT    0.036500    1.479200
BASF   0.00796
FVAR       0.11066
CE    4    0.128215    0.357081    0.016027    11.00000    0.01300    0.01173 =
         0.01277    0.00105    0.00094    0.00643
CO    2    0.000000    0.000000    0.249868    10.16667    0.00669    0.00669 =
         0.01612    0.00000    0.00000    0.00335
GE    3    0.333333    0.666667    0.597602    10.33333    0.01409    0.01409 =
         0.00938    0.00000    0.00000    0.00705
S1    1    0.242139    0.155126    0.000000    11.00000    0.01666    0.01402 =
         0.02031    0.00291    0.00045    0.00958
S2    1    0.519973    0.104055    0.246654    11.00000    0.01417    0.01224 =
         0.01270    0.00104   -0.00104    0.00543
S3    1    0.333333    0.666667    0.222538    10.33333    0.01574    0.01574 =
         0.00995    0.00000    0.00000    0.00787
HKLF 4

REM  Ce3Co0.5GeS7 P6(3) lsf final refinement
REM R1 =  0.0431 for    1064 Fo > 4sig(Fo)  and  0.0623 for all    1335 data
REM     38 parameters refined using      1 restraints

END

WGHT      0.0365      1.4934

REM Highest difference peak  3.201,  deepest hole -2.087,  1-sigma level  0.424
Q1    1   0.4596  0.7494  0.5149  11.00000  0.05    3.20
Q2    1   0.0000  0.0000  0.0152  10.33333  0.05    2.69
Q3    1   0.3333  0.6667  0.4488  10.33333  0.05    1.78
Q4    1   0.2221  0.2297  0.1394  11.00000  0.05    1.59
Q5    1   0.5178  0.1516  0.0183  11.00000  0.05    1.56
Q6    1   0.0380  0.0009  0.1594  11.00000  0.05    1.49
Q7    1   0.2155  0.4770  0.0124  11.00000  0.05    1.49
Q8    1   0.0911  0.0868 -0.0487  11.00000  0.05    1.48
Q9    1   0.5914  0.1047  0.0206  11.00000  0.05    1.47
Q10   1  -0.0562 -0.0070  0.4042  11.00000  0.05    1.46
Q11   1   0.4713 -0.1075  0.2716  11.00000  0.05    1.46
Q12   1   0.3249  0.3860  0.0127  11.00000  0.05    1.46
Q13   1   0.2057  0.3058  0.0913  11.00000  0.05    1.45
Q14   1   0.4573  0.0168  0.1049  11.00000  0.05    1.44
Q15   1   0.4364  0.1692 -0.0144  11.00000  0.05    1.44
Q16   1   0.5970 -0.0203  0.2783  11.00000  0.05    1.43
Q17   1   0.2171  0.4413  0.3006  11.00000  0.05    1.42
Q18   1   0.0971  0.4437  0.0957  11.00000  0.05    1.37
Q19   1  -0.0828  0.0043  0.0724  11.00000  0.05    1.35
Q20   1   0.0077  0.2265 -0.0200  11.00000  0.05    1.34
;
_shelx_res_checksum              28044
_shelx_hkl_file
;
   2  -6  -8    5.67    8.06
   3  -6  -8   19.82    8.09
   4  -6  -8    3.48    6.67
   5  -6  -8    2.58    7.47
  -1  -5  -8   -0.84    5.87
   0  -5  -8    4.49    6.10
   1  -5  -8    5.75    5.86
   2  -5  -8    8.58    6.69
   3  -5  -8    0.59    4.81
   4  -5  -8   25.06    8.17
   5  -5  -8    2.23    5.74
   6  -5  -8   98.09   18.39
  -2  -4  -8   -0.25    7.03
  -1  -4  -8   34.37    9.03
   0  -4  -8    8.52    6.43
   1  -4  -8   16.89    6.79
   2  -4  -8   33.24    8.48
   3  -4  -8   57.28   10.46
   4  -4  -8   -0.22    5.13
   5  -4  -8    8.16    5.43
   6  -4  -8    4.08    8.18
  -3  -3  -8   27.19   11.56
  -2  -3  -8    6.08    5.73
  -1  -3  -8   94.14   13.54
   0  -3  -8    8.77    6.10
   1  -3  -8   -0.24    4.67
   2  -3  -8   57.81   10.49
   3  -3  -8    2.37    4.97
   4  -3  -8   17.41    6.65
   5  -3  -8   11.57    6.05
   6  -3  -8   23.30    7.29
  -4  -2  -8    2.21    8.15
  -3  -2  -8   20.90   10.19
  -2  -2  -8   16.60   10.60
  -1  -2  -8   59.89   10.69
   0  -2  -8    6.08    5.01
   1  -2  -8   33.22    7.96
   2  -2  -8    6.51    5.80
   3  -2  -8   -1.44    4.17
   4  -2  -8   22.72    7.46
   5  -2  -8   -2.36    3.94
   6  -2  -8   -3.80    4.30
  -5  -1  -8   93.94   19.05
  -4  -1  -8    1.55    7.01
  -3  -1  -8   16.74    9.93
  -2  -1  -8    5.62    8.66
  -1  -1  -8   32.12   12.00
   0  -1  -8   -0.30    4.61
   1  -1  -8    1.71    4.48
   2  -1  -8   30.13    8.07
   3  -1  -8   52.06   10.19
   4  -1  -8   68.10   10.93
   5  -1  -8   40.16    9.46
   6  -1  -8    3.86    6.67
  -6   0  -8    6.23    8.58
  -5   0  -8   12.90    9.40
  -4   0  -8   26.94   11.86
  -3   0  -8   -0.87    6.26
  -2   0  -8   -0.03    6.83
  -1   0  -8    3.13    6.29
   0   0  -8  200.42   25.43
   1   0  -8    8.39    5.34
   2   0  -8    7.84    4.88
   3   0  -8    5.99    4.73
   4   0  -8    6.80    5.40
   5   0  -8    0.70    5.00
  -6   1  -8    8.26   12.86
  -5   1  -8   18.75    9.90
  -4   1  -8   64.84   15.17
  -3   1  -8   31.40   12.28
  -2   1  -8   23.41   10.46
  -1   1  -8    6.08    7.15
   0   1  -8   -0.56    7.23
   1   1  -8    7.46    7.92
   2   1  -8   -1.50    3.60
   3   1  -8    6.21    5.15
   4   1  -8    8.16    5.91
   5   1  -8   96.72   18.42
  -5   2  -8   -1.28    6.44
  -4   2  -8   43.77   13.48
  -3   2  -8   -0.15    6.02
  -2   2  -8   12.06    8.84
  -1   2  -8   42.65   13.00
   0   2  -8    8.31    8.16
   1   2  -8   68.77   16.06
   2   2  -8   18.89   10.25
   3   2  -8    4.65    7.71
   4   2  -8   -2.68    4.57
  -5   3  -8   -4.79    6.97
  -4   3  -8    4.10    7.99
  -3   3  -8   17.57    9.49
  -2   3  -8   43.83   12.73
  -1   3  -8    4.72    7.19
   0   3  -8   15.32    9.23
   1   3  -8   72.90   15.41
   2   3  -8   -1.33    5.94
  -5   4  -8    3.32    5.03
  -4   4  -8    2.35    7.00
  -3   4  -8   78.62   16.78
  -2   4  -8   19.90    9.12
  -1   4  -8    5.52    7.05
   0   4  -8    2.95    6.46
   1   4  -8   36.13   12.25
  -5   5  -8    3.22    5.07
  -4   5  -8   22.70    9.60
  -3   5  -8    1.89    6.91
  -2   5  -8    3.36    6.92
  -1   5  -8    7.02    8.52
   0   5  -8    3.07    8.44
  -5   6  -8   -5.57    5.85
  -4   6  -8    3.14    7.80
  -3   6  -8   18.89   10.53
  -2   6  -8   -3.03    7.33
   3  -9  -7   -1.33    8.85
   4  -9  -7    1.48    7.89
   5  -9  -7   37.96   10.44
   6  -9  -7    8.85    8.27
   1  -8  -7   69.15   11.80
   2  -8  -7   15.51    6.80
   3  -8  -7   54.10   10.04
   4  -8  -7   12.71    6.14
   5  -8  -7    2.70    5.03
   6  -8  -7   13.49    6.37
   7  -8  -7    6.24    5.72
  -1  -7  -7    3.65    5.14
   0  -7  -7    9.69    6.13
   1  -7  -7    5.93    5.75
   2  -7  -7   -5.26    4.13
   3  -7  -7   12.17    5.86
   4  -7  -7   -0.11    4.19
   5  -7  -7   -1.51    4.41
   6  -7  -7   72.29   11.12
   7  -7  -7   17.39    6.51
   8  -7  -7   59.56   15.81
  -3  -6  -7   15.07    6.51
  -2  -6  -7    1.75    5.43
  -1  -6  -7   58.56   10.70
   0  -6  -7   18.88    7.00
   1  -6  -7    6.45    5.64
   2  -6  -7    6.56    5.37
   3  -6  -7   72.34   11.48
   4  -6  -7    0.45    4.43
   5  -6  -7   11.16    5.94
   6  -6  -7    8.67    4.76
   7  -6  -7    9.90    5.34
   8  -6  -7   16.11    9.64
  -4  -5  -7   38.63    9.03
  -3  -5  -7    3.42    5.34
  -2  -5  -7    0.95    4.01
  -1  -5  -7   17.17    6.37
   0  -5  -7   11.10    5.65
   1  -5  -7   12.07    5.64
   2  -5  -7   57.66   10.24
   3  -5  -7   10.38    4.43
   4  -5  -7   77.80   11.13
   5  -5  -7   28.48    7.46
   6  -5  -7    1.95    4.00
   7  -5  -7    3.45    4.32
   8  -5  -7   43.94   13.46
  -5  -4  -7    7.70    6.32
  -4  -4  -7   13.42    6.53
  -3  -4  -7   -2.96    3.48
  -2  -4  -7    1.87    4.04
  -1  -4  -7   95.21   12.36
   0  -4  -7   19.41    6.32
   1  -4  -7  141.91   14.61
   2  -4  -7   -2.06    3.42
   3  -4  -7    2.30    4.12
   4  -4  -7   22.65    6.38
   5  -4  -7    5.67    4.69
   6  -4  -7   12.48    5.46
   7  -4  -7   18.39    6.13
   8  -4  -7   11.85    8.72
  -6  -3  -7    1.88    6.74
  -5  -3  -7   73.23   16.47
  -4  -3  -7   12.68    5.99
  -3  -3  -7  105.02   12.45
  -2  -3  -7    7.27    4.72
  -1  -3  -7   -0.42    3.83
   0  -3  -7   21.90    6.68
   1  -3  -7    4.33    4.31
   2  -3  -7    0.46    3.57
   3  -3  -7    8.14    4.49
   4  -3  -7  105.71   12.73
   5  -3  -7   53.96    9.13
   6  -3  -7   68.27    9.65
   7  -3  -7   -0.45    3.66
   8  -3  -7    0.30    6.21
  -6  -2  -7   22.95   11.21
  -5  -2  -7    6.31    8.16
  -4  -2  -7   15.55    8.10
  -3  -2  -7   57.32    9.31
  -2  -2  -7    2.29    3.68
  -1  -2  -7    2.47    3.58
   0  -2  -7   54.77    9.15
   1  -2  -7   19.96    6.01
   2  -2  -7   32.96    7.23
   3  -2  -7    4.70    4.21
   4  -2  -7   11.58    5.20
   5  -2  -7    8.83    4.73
   6  -2  -7    5.54    4.46
   7  -2  -7    5.08    4.84
   8  -2  -7   10.67    8.90
  -6  -1  -7    7.74    7.46
  -5  -1  -7   13.20    8.29
  -4  -1  -7   11.59    8.59
  -3  -1  -7  113.66   18.62
  -2  -1  -7    5.26    4.16
  -1  -1  -7   19.68    6.31
   0  -1  -7   39.66    7.64
   1  -1  -7   27.70    6.57
   2  -1  -7   14.72    5.45
   3  -1  -7    0.52    3.10
   4  -1  -7    0.39    3.59
   5  -1  -7   68.61    9.87
   6  -1  -7   11.03    5.40
   7  -1  -7   93.49   12.16
   8  -1  -7   18.64    9.78
  -6   0  -7   24.47    9.85
  -5   0  -7   17.63    9.08
  -4   0  -7    5.33    6.88
  -3   0  -7   32.40   11.45
  -2   0  -7   54.45   13.46
  -1   0  -7   43.48    8.02
   0   0  -7   -1.99    3.06
   1   0  -7   36.23    7.01
   2   0  -7   58.49    8.94
   3   0  -7   17.64    5.86
   4   0  -7   13.51    5.32
   5   0  -7   18.60    5.89
   6   0  -7   12.13    5.92
   7   0  -7   13.79    5.93
  -8   1  -7    3.53    6.82
  -7   1  -7   90.79   17.14
  -6   1  -7   10.12    5.35
  -5   1  -7   80.57   16.63
  -4   1  -7    4.15    6.35
  -3   1  -7    0.08    4.90
  -2   1  -7   15.16    8.41
  -1   1  -7   15.74    7.02
   0   1  -7   35.02    6.98
   1   1  -7    8.71    4.47
   2   1  -7    1.01    3.63
   3   1  -7  137.69   13.87
   4   1  -7    2.73    3.89
   5   1  -7    9.52    5.06
   6   1  -7    9.37    5.33
   7   1  -7   67.38   10.46
  -9   2  -7   41.42   13.27
  -8   2  -7    3.13    6.41
  -7   2  -7    3.26    5.62
  -6   2  -7   -2.78    4.10
  -5   2  -7    9.65    5.06
  -4   2  -7    6.31    4.22
  -3   2  -7   -0.77    4.55
  -2   2  -7   78.46   15.98
  -1   2  -7   30.28   10.51
   0   2  -7   57.47   12.82
   1   2  -7    0.34    3.58
   2   2  -7    1.14    3.33
   3   2  -7   59.82    9.46
   4   2  -7    5.51    4.26
   5   2  -7    7.46    4.33
   6   2  -7   16.27    6.33
   7   2  -7    8.41    7.38
  -9   3  -7    6.25    7.67
  -8   3  -7    1.73    6.31
  -7   3  -7   -0.03    5.72
  -6   3  -7   83.66   10.88
  -5   3  -7   58.95    9.41
  -4   3  -7  146.54   14.72
  -3   3  -7   10.67    4.79
  -2   3  -7   -0.02    5.23
  -1   3  -7    9.85    7.00
   0   3  -7    8.95    6.84
   1   3  -7    0.52    5.00
   2   3  -7   -1.52    3.66
   3   3  -7   85.53   11.43
   4   3  -7   14.14    5.95
   5   3  -7   81.93   12.19
   6   3  -7    1.89    4.95
  -9   4  -7   63.16   16.39
  -8   4  -7    0.84    6.35
  -7   4  -7   19.63    9.95
  -6   4  -7    9.88    4.92
  -5   4  -7    4.20    4.26
  -4   4  -7   18.01    5.91
  -3   4  -7   -3.06    3.16
  -2   4  -7   10.07    7.35
  -1   4  -7  148.22   20.75
   0   4  -7    9.92    6.72
   1   4  -7   65.48   14.74
   2   4  -7    6.27    7.58
   3   4  -7    2.42    4.52
   4   4  -7   21.95    7.28
   5   4  -7    4.28    5.34
  -9   5  -7    0.95    8.06
  -8   5  -7   45.80   12.66
  -7   5  -7    9.89    7.95
  -6   5  -7    6.91    4.89
  -5   5  -7   18.58    6.10
  -4   5  -7   63.42    9.47
  -3   5  -7    3.60    3.96
  -2   5  -7   46.59   12.72
  -1   5  -7    1.13    5.20
   0   5  -7   19.72    9.19
   1   5  -7   18.35    8.82
   2   5  -7    2.27    6.45
   3   5  -7    3.36    6.69
   4   5  -7   48.69   15.48
  -8   6  -7    7.45    6.94
  -7   6  -7    3.20    6.49
  -6   6  -7   12.44    7.56
  -5   6  -7   10.47    5.17
  -4   6  -7    4.52    4.23
  -3   6  -7   50.85    8.37
  -2   6  -7    5.64    6.78
  -1   6  -7    2.76    5.94
   0   6  -7    1.71    6.13
   1   6  -7   79.73   16.83
   2   6  -7   -2.87    6.24
  -8   7  -7   59.24   14.98
  -7   7  -7   -0.67    5.91
  -6   7  -7   72.80   15.11
  -5   7  -7    3.76    4.49
  -4   7  -7   -2.25    3.87
  -3   7  -7   13.12    5.62
  -2   7  -7   -2.69    6.06
  -1   7  -7   17.52    9.45
   0   7  -7    8.77    7.56
   1   7  -7    5.31    8.61
  -7   8  -7    4.65    6.48
  -6   8  -7    5.57    7.48
  -5   8  -7   -0.67    4.16
  -4   8  -7   16.05    5.97
  -3   8  -7   79.47   16.42
  -2   8  -7    3.24    7.20
  -1   8  -7   81.49   17.05
  -6   9  -7    3.85    6.94
  -5   9  -7   58.57    9.77
  -4   9  -7   11.71    9.07
  -3   9  -7   -1.46    6.32
   3 -11  -6   -3.35   10.23
   4 -11  -6   41.75   13.16
   5 -11  -6    3.32    5.31
   6 -11  -6   -5.61    4.14
   7 -11  -6   79.78   12.76
   8 -11  -6   20.91   13.76
   1 -10  -6   13.06    9.14
   2 -10  -6   23.70    7.09
   3 -10  -6   31.75    7.70
   4 -10  -6   51.34    7.93
   5 -10  -6   31.65    6.56
   6 -10  -6    7.78    4.80
   7 -10  -6   11.88    6.38
   8 -10  -6   46.23    8.86
   9 -10  -6    5.67    5.72
  -1  -9  -6    3.73    5.72
   0  -9  -6   10.52    5.97
   1  -9  -6    5.32    4.50
   2  -9  -6   -1.14    3.49
   3  -9  -6   26.75    5.83
   4  -9  -6    8.56    4.07
   5  -9  -6    8.48    3.93
   6  -9  -6   50.18    7.42
   7  -9  -6   16.15    5.43
   8  -9  -6   43.37    9.09
   9  -9  -6   13.17    6.41
  10  -9  -6    6.72    6.07
  -3  -8  -6   10.45    8.94
  -2  -8  -6   49.72    9.63
  -1  -8  -6   48.96    9.09
   0  -8  -6   75.49    8.86
   1  -8  -6   18.43    4.57
   2  -8  -6    4.03    3.33
   3  -8  -6   21.40    5.25
   4  -8  -6   17.82    4.88
   5  -8  -6   25.39    5.37
   6  -8  -6    0.39    3.13
   7  -8  -6   36.85    6.42
   8  -8  -6   78.86   11.35
   9  -8  -6    7.38    5.07
  10  -8  -6   29.41    8.25
  11  -8  -6    6.48    7.87
  -4  -7  -6   92.90   12.54
  -3  -7  -6   18.52    6.66
  -2  -7  -6   13.02    4.64
  -1  -7  -6   22.20    5.28
   0  -7  -6   10.72    4.16
   1  -7  -6    3.32    3.24
   2  -7  -6   12.16    4.10
   3  -7  -6   17.81    4.51
   4  -7  -6   74.61    8.20
   5  -7  -6   44.69    6.47
   6  -7  -6   11.19    4.08
   7  -7  -6   15.69    4.75
   8  -7  -6   11.50    5.47
   9  -7  -6   -2.16    3.99
  10  -7  -6   30.78    7.81
  11  -7  -6   13.72    6.43
  -5  -6  -6   -4.61    6.91
  -4  -6  -6   10.63    5.53
  -3  -6  -6   30.57    6.07
  -2  -6  -6    6.41    3.44
  -1  -6  -6   18.10    4.80
   0  -6  -6    7.48    3.62
   1  -6  -6  163.00   11.47
   2  -6  -6    5.09    3.26
   3  -6  -6   86.46    8.60
   4  -6  -6    6.54    3.54
   5  -6  -6   41.97    6.14
   6  -6  -6    3.60    3.25
   7  -6  -6    5.23    3.22
   8  -6  -6    3.96    4.25
   9  -6  -6   28.33    7.27
  10  -6  -6   34.62    8.10
  11  -6  -6   10.89    5.73
  -6  -5  -6    9.43    8.98
  -5  -5  -6   46.67   13.92
  -4  -5  -6    6.84    4.89
  -3  -5  -6   19.82    6.10
  -2  -5  -6   34.57    5.92
  -1  -5  -6   27.65    4.89
   0  -5  -6    5.57    3.10
   1  -5  -6   22.77    4.54
   2  -5  -6    8.51    3.18
   3  -5  -6    3.79    2.81
   4  -5  -6   50.27    6.35
   5  -5  -6    1.73    2.48
   6  -5  -6  156.01   11.15
   7  -5  -6   11.10    4.09
   8  -5  -6   18.42    5.26
   9  -5  -6    0.23    4.11
  10  -5  -6   29.80   10.80
  11  -5  -6    3.56    7.49
  -6  -4  -6   36.79   11.83
  -5  -4  -6    7.69    4.47
  -4  -4  -6   41.62    8.42
  -3  -4  -6   66.36    9.17
  -2  -4  -6   18.22    5.23
  -1  -4  -6   49.42    8.01
   0  -4  -6   17.95    5.74
   1  -4  -6   43.02    7.73
   2  -4  -6   23.15    5.77
   3  -4  -6   72.91   10.03
   4  -4  -6   16.01    5.01
   5  -4  -6   32.28    6.77
   6  -4  -6    1.29    3.28
   7  -4  -6   17.64    5.85
   8  -4  -6   12.82    8.07
   9  -4  -6   16.41    8.54
  10  -4  -6   -0.39    5.45
  -6  -3  -6   27.69    7.14
  -5  -3  -6   16.05    5.49
  -4  -3  -6   25.79    6.30
  -3  -3  -6   63.27    9.26
  -2  -3  -6    1.53    3.11
  -1  -3  -6   62.07    8.09
   0  -3  -6   27.73    6.52
   1  -3  -6    2.95    3.50
   2  -3  -6   94.54   10.58
   3  -3  -6   10.43    4.44
   4  -3  -6   45.11    7.57
   5  -3  -6   -0.11    3.20
   6  -3  -6   93.80   10.85
   7  -3  -6   64.84    9.38
   8  -3  -6    7.92    7.42
   9  -3  -6   32.74   10.58
  10  -3  -6    6.46    7.50
  -6  -2  -6    7.52    6.82
  -5  -2  -6   21.20    6.35
  -4  -2  -6   10.08    4.29
  -3  -2  -6   13.17    4.76
  -2  -2  -6   29.34    6.33
  -1  -2  -6  109.75   11.52
   0  -2  -6   63.31    9.02
   1  -2  -6   76.12    9.65
   2  -2  -6   67.19    8.75
   3  -2  -6    3.35    3.21
   4  -2  -6   34.67    6.86
   5  -2  -6    8.11    4.19
   6  -2  -6    9.52    4.46
   7  -2  -6   34.03    7.01
   8  -2  -6    6.49    6.37
   9  -2  -6   14.77    8.20
  10  -2  -6   55.07   15.30
  -6  -1  -6   -1.96    5.02
  -5  -1  -6  139.05   19.16
  -4  -1  -6   25.58    5.65
  -3  -1  -6   45.55    7.39
  -2  -1  -6    3.89    2.78
  -1  -1  -6   96.76   10.39
   0  -1  -6   17.51    4.74
   1  -1  -6   18.44    5.11
   2  -1  -6   93.05   10.16
   3  -1  -6  103.14   10.97
   4  -1  -6   62.42    8.98
   5  -1  -6   44.56    7.70
   6  -1  -6   25.37    6.17
   7  -1  -6   27.35    6.19
   8  -1  -6   36.19    8.12
   9  -1  -6   46.85   13.47
  10  -1  -6    4.63   10.07
  -8   0  -6   60.05   13.21
  -7   0  -6   19.82    8.59
  -6   0  -6    7.62    4.30
  -5   0  -6    3.01    3.60
  -4   0  -6   20.32    4.40
  -3   0  -6   27.93    5.64
  -2   0  -6   82.02    9.52
  -1   0  -6   19.77    4.98
   0   0  -6  147.70   12.37
   1   0  -6   11.31    3.71
   2   0  -6   72.00    9.09
   3   0  -6   23.98    5.86
   4   0  -6    8.26    4.40
   5   0  -6    1.70    3.32
   6   0  -6   14.06    5.20
   7   0  -6   14.24    5.52
   8   0  -6   63.73    9.96
   9   0  -6   22.70    9.08
  -9   1  -6   35.47   11.19
  -8   1  -6   36.70   10.94
  -7   1  -6    7.41    6.55
  -6   1  -6   30.02    6.60
  -5   1  -6   43.66    7.62
  -4   1  -6   62.48    8.86
  -3   1  -6  110.58    9.22
  -2   1  -6  101.83   10.40
  -1   1  -6   22.37    5.41
   0   1  -6   23.72    5.32
   1   1  -6   89.18    9.86
   2   1  -6   10.35    3.95
   3   1  -6   45.65    7.38
   4   1  -6   28.09    6.05
   5   1  -6  129.13   12.83
   6   1  -6   -1.26    2.99
   7   1  -6   28.33    7.03
   8   1  -6   -1.55    4.20
   9   1  -6   13.43    9.77
 -10   2  -6   56.81    9.72
  -9   2  -6    7.34    6.41
  -8   2  -6   -0.58    4.85
  -7   2  -6   70.16   13.72
  -6   2  -6    6.59    4.17
  -5   2  -6    4.34    3.66
  -4   2  -6   25.39    5.73
  -3   2  -6    1.82    2.93
  -2   2  -6   70.81    7.96
  -1   2  -6   91.25    9.40
   0   2  -6   64.77    8.11
   1   2  -6  107.32   10.58
   2   2  -6   29.28    6.12
   3   2  -6    8.01    4.08
   4   2  -6    8.08    4.28
   5   2  -6   15.25    5.23
   6   2  -6    4.33    4.37
   7   2  -6    1.07    3.59
   8   2  -6   17.68    7.00
 -11   3  -6    6.45    5.68
 -10   3  -6    7.49    5.18
  -9   3  -6   39.29   11.52
  -8   3  -6   25.52    9.52
  -7   3  -6   38.01   10.67
  -6   3  -6   61.17    8.73
  -5   3  -6    9.35    4.13
  -4   3  -6   50.47    7.76
  -3   3  -6   15.10    4.60
  -2   3  -6  101.02   10.70
  -1   3  -6    7.39    5.26
   0   3  -6   18.32    4.37
   1   3  -6   70.63    8.70
   2   3  -6    3.41    3.24
   3   3  -6   88.60   10.85
   4   3  -6   12.85    4.92
   5   3  -6   19.97    6.11
   6   3  -6   31.99    7.74
   7   3  -6   39.32    8.84
 -11   4  -6   80.05   12.65
 -10   4  -6   -1.28    4.37
  -9   4  -6   14.33    7.47
  -8   4  -6   23.24    8.95
  -7   4  -6   16.66    8.08
  -6   4  -6    3.89    3.87
  -5   4  -6   21.59    5.32
  -4   4  -6   13.46    4.66
  -3   4  -6   67.62    9.10
  -2   4  -6   36.75    6.48
  -1   4  -6   51.97    7.73
   0   4  -6    9.95    6.28
   1   4  -6   36.42    6.87
   2   4  -6   17.94    5.50
   3   4  -6   83.34   10.95
   4   4  -6   20.79    5.84
   5   4  -6    1.93    4.13
   6   4  -6   57.61    9.92
   7   4  -6   37.47    8.28
 -11   5  -6   -1.28    5.02
 -10   5  -6   25.86    7.19
  -9   5  -6    5.82    7.02
  -8   5  -6   26.04    9.61
  -7   5  -6    0.99    4.85
  -6   5  -6  165.22   14.30
  -5   5  -6    2.63    3.28
  -4   5  -6   36.47    6.47
  -3   5  -6    2.63    3.30
  -2   5  -6   10.07    4.39
  -1   5  -6   22.43    5.43
   0   5  -6    8.64    6.48
   1   5  -6   25.91    8.83
   2   5  -6   32.42    7.09
   3   5  -6   29.61    6.87
   4   5  -6   20.77    6.44
   5   5  -6   40.09    8.26
   6   5  -6   11.48    6.02
 -11   6  -6   14.14    7.18
 -10   6  -6   44.45   13.62
  -9   6  -6   47.17   13.29
  -8   6  -6    3.37    5.92
  -7   6  -6    1.38    4.95
  -6   6  -6    6.71    3.94
  -5   6  -6   36.64    6.96
  -4   6  -6    4.57    3.50
  -3   6  -6   80.01   10.00
  -2   6  -6   10.25    4.24
  -1   6  -6  164.29   14.27
   0   6  -6   17.63    7.61
   1   6  -6    6.07    5.68
   2   6  -6    3.33    5.77
   3   6  -6   44.00    8.68
   4   6  -6    7.30    5.33
   5   6  -6   -1.70    4.46
 -10   7  -6   32.95   12.27
  -9   7  -6   -1.07    5.55
  -8   7  -6   19.83    8.28
  -7   7  -6   21.10    9.19
  -6   7  -6   21.75    5.78
  -5   7  -6   37.69    7.35
  -4   7  -6   67.61    9.41
  -3   7  -6   19.03    5.52
  -2   7  -6   24.91    6.26
  -1   7  -6    5.53    5.95
   0   7  -6   15.41    7.92
   1   7  -6   25.23   10.45
   2   7  -6    2.08    6.77
   3   7  -6    8.25    7.94
 -10   8  -6   34.00   12.92
  -9   8  -6    0.97    6.40
  -8   8  -6   55.70   13.82
  -7   8  -6   45.81   12.13
  -6   8  -6    2.42    4.54
  -5   8  -6   24.56    6.05
  -4   8  -6   20.88    5.65
  -3   8  -6   20.31    5.70
  -2   8  -6    5.19    6.18
  -1   8  -6   13.22    7.33
   0   8  -6   84.90   16.76
   1   8  -6   44.53   12.76
   2   8  -6   68.36   15.16
 -10   9  -6    8.77    9.41
  -9   9  -6   13.07    9.48
  -8   9  -6   33.67   11.40
  -7   9  -6   27.54   10.33
  -6   9  -6   38.23   11.01
  -5   9  -6    7.66    5.03
  -4   9  -6    5.29    4.39
  -3   9  -6   37.72   11.61
  -2   9  -6   -1.12    5.76
  -1   9  -6    3.15    6.66
   0   9  -6    2.55    6.48
   1   9  -6    7.20   12.31
  -9  10  -6   -2.44    6.70
  -8  10  -6   41.02   12.58
  -7  10  -6   17.51    9.16
  -6  10  -6    3.63    6.58
  -5  10  -6   27.05   10.18
  -4  10  -6   42.13   12.03
  -3  10  -6   39.81   11.84
  -2  10  -6   27.72   11.33
  -1  10  -6   20.59   10.83
  -8  11  -6    0.51    6.41
  -7  11  -6   94.50   17.43
  -5  11  -6    5.02    7.41
  -4  11  -6   30.48   12.07
  -3  11  -6    7.06    9.09
   3 -12  -5   -2.69    5.17
   4 -12  -5   97.38   13.51
   5 -12  -5   -1.24    4.64
   6 -12  -5   11.62    6.04
   7 -12  -5   24.68    7.83
   8 -12  -5   20.25    7.35
   9 -12  -5    5.00    5.93
  10 -12  -5   -8.01    6.44
   1 -11  -5    6.51    5.19
   2 -11  -5    3.17    4.81
   3 -11  -5    4.61    4.87
   4 -11  -5   20.71    6.47
   5 -11  -5   42.84    8.88
   6 -11  -5   27.03    7.91
   7 -11  -5   -1.34    4.36
   8 -11  -5   24.81    7.15
   9 -11  -5    9.04    5.54
  10 -11  -5    8.72    6.22
  11 -11  -5   -9.37    6.34
  -1 -10  -5    2.43    4.60
   0 -10  -5  102.43   12.90
   1 -10  -5   25.96    7.10
   2 -10  -5   71.60   11.01
   3 -10  -5    3.62    3.66
   4 -10  -5   11.26    5.11
   5 -10  -5    9.73    4.08
   6 -10  -5   43.09    6.96
   7 -10  -5   12.21    5.27
   8 -10  -5    7.73    4.97
   9 -10  -5    2.81    4.39
  10 -10  -5  122.91   14.48
  11 -10  -5    8.75    5.92
  12 -10  -5    9.00    8.65
  -3  -9  -5    5.48    5.50
  -2  -9  -5   13.30    6.15
  -1  -9  -5    0.34    4.01
   0  -9  -5    0.87    3.75
   1  -9  -5    0.03    3.28
   2  -9  -5   -0.88    2.51
   3  -9  -5   -1.05    2.39
   4  -9  -5    9.64    3.70
   5  -9  -5   28.08    5.35
   6  -9  -5    8.08    3.69
   7  -9  -5   50.70    6.78
   8  -9  -5    3.79    4.03
   9  -9  -5    3.14    4.49
  10  -9  -5   37.85    8.06
  11  -9  -5    3.69    5.17
  12  -9  -5    4.88    4.90
  -4  -8  -5   16.24    6.76
  -3  -8  -5   21.59    6.87
  -2  -8  -5   12.16    5.27
  -1  -8  -5    6.84    4.78
   0  -8  -5    6.67    3.89
   1  -8  -5   66.40    7.93
   2  -8  -5   89.45    8.77
   3  -8  -5  198.47   13.06
   4  -8  -5   23.81    5.02
   5  -8  -5    9.09    3.54
   6  -8  -5   18.50    4.34
   7  -8  -5   11.27    3.68
   8  -8  -5    1.73    3.70
   9  -8  -5    1.83    3.30
  10  -8  -5   84.39   11.40
  11  -8  -5    8.98    5.47
  12  -8  -5   69.65   10.97
  -5  -7  -5   26.99    7.66
  -4  -7  -5    0.17    3.89
  -3  -7  -5    7.51    4.29
  -2  -7  -5   53.48    8.64
  -1  -7  -5    8.30    3.48
   0  -7  -5    9.32    3.51
   1  -7  -5    5.48    2.79
   2  -7  -5    9.28    3.15
   3  -7  -5   29.22    5.16
   4  -7  -5   12.97    3.75
   5  -7  -5   -0.97    2.33
   6  -7  -5  285.55   12.81
   7  -7  -5    5.23    2.91
   8  -7  -5   59.63    8.82
   9  -7  -5   -1.45    3.09
  10  -7  -5    2.45    4.05
  11  -7  -5   24.93    6.96
  12  -7  -5    2.41    4.59
  -6  -6  -5    8.84    5.32
  -5  -6  -5   27.77    7.23
  -4  -6  -5   31.26    7.06
  -3  -6  -5   15.80    5.08
  -2  -6  -5   14.65    3.81
  -1  -6  -5  266.29   12.58
   0  -6  -5   16.43    3.92
   1  -6  -5   23.36    4.45
   2  -6  -5   18.27    3.82
   3  -6  -5  116.54    8.94
   4  -6  -5   -0.62    2.01
   5  -6  -5   61.88    6.91
   6  -6  -5   12.11    3.50
   7  -6  -5    8.46    3.22
   8  -6  -5   68.71    9.46
   9  -6  -5    1.85    3.30
  10  -6  -5   -0.37    3.60
  11  -6  -5   22.26    6.36
  12  -6  -5   14.94    6.00
  -7  -5  -5   -0.76    6.39
  -6  -5  -5   35.70    7.78
  -5  -5  -5   17.38    5.51
  -4  -5  -5   18.72    4.46
  -3  -5  -5   13.62    4.03
  -2  -5  -5   -0.61    2.23
  -1  -5  -5   60.44    6.48
   0  -5  -5    5.02    2.52
   1  -5  -5    8.81    2.91
   2  -5  -5   81.93    7.37
   3  -5  -5    2.39    2.28
   4  -5  -5  173.13    9.61
   5  -5  -5    4.67    2.62
   6  -5  -5   36.39    5.31
   7  -5  -5   11.71    3.49
   8  -5  -5  181.09   14.89
   9  -5  -5   14.25    5.10
  10  -5  -5   10.41    4.47
  11  -5  -5   22.65    6.29
  12  -5  -5   28.88    7.86
  -8  -4  -5   68.36   14.38
  -7  -4  -5   11.23    7.25
  -6  -4  -5    1.05    3.62
  -5  -4  -5   10.76    3.85
  -4  -4  -5   14.45    3.81
  -3  -4  -5    7.96    2.87
  -2  -4  -5    1.17    2.12
  -1  -4  -5  168.43    9.30
   0  -4  -5    0.88    2.03
   1  -4  -5  294.32   10.78
   2  -4  -5    2.08    2.05
   3  -4  -5   10.30    2.95
   4  -4  -5    3.80    2.26
   5  -4  -5    6.75    2.52
   6  -4  -5   23.71    4.05
   7  -4  -5   27.28    4.60
   8  -4  -5   25.56    5.77
   9  -4  -5   28.98    6.82
  10  -4  -5   33.12    7.11
  11  -4  -5    1.31    4.04
  12  -4  -5   28.40    7.79
  -8  -3  -5   16.07    7.70
  -7  -3  -5    5.34    4.05
  -6  -3  -5   -1.98    2.66
  -5  -3  -5  194.39   12.08
  -4  -3  -5   27.99    4.68
  -3  -3  -5  133.81    9.12
  -2  -3  -5    1.15    2.05
  -1  -3  -5   17.65    3.42
   0  -3  -5   72.13    6.26
   1  -3  -5   30.56    4.27
   2  -3  -5   32.43    4.26
   3  -3  -5   75.80    6.47
   4  -3  -5  301.49   10.84
   5  -3  -5   89.88    7.35
   6  -3  -5  120.72    8.82
   7  -3  -5   13.37    3.26
   8  -3  -5    9.96    4.33
   9  -3  -5    8.42    4.34
  10  -3  -5   30.92    6.89
  11  -3  -5   17.57    6.15
  12  -3  -5   10.32    5.68
  -8  -2  -5  110.05   16.38
  -7  -2  -5    1.55    3.49
  -6  -2  -5   90.42    7.93
  -5  -2  -5   11.25    3.32
  -4  -2  -5   26.27    4.14
  -3  -2  -5   91.01    7.14
  -2  -2  -5   -0.91    1.64
  -1  -2  -5   32.82    4.15
   0  -2  -5   73.53    6.03
   1  -2  -5   48.51    5.06
   2  -2  -5   63.18    5.61
   3  -2  -5   26.10    3.97
   4  -2  -5    6.65    2.36
   5  -2  -5    1.20    1.89
   6  -2  -5   -0.37    1.82
   7  -2  -5    5.44    2.62
   8  -2  -5   18.32    4.12
   9  -2  -5   68.95    9.73
  10  -2  -5   17.52    5.82
  11  -2  -5   28.68    7.43
  -8  -1  -5   -1.39    4.54
  -7  -1  -5   75.05    7.43
  -6  -1  -5    8.16    3.07
  -5  -1  -5   30.98    4.66
  -4  -1  -5   11.35    3.07
  -3  -1  -5  303.96   13.26
  -2  -1  -5   23.18    4.97
  -1  -1  -5   45.73    6.38
   0  -1  -5   66.89    7.87
   1  -1  -5   73.66    8.14
   2  -1  -5   58.12    7.36
   3  -1  -5   36.65    5.04
   4  -1  -5   10.52    2.88
   5  -1  -5  181.11    9.26
   6  -1  -5   63.65    6.53
   7  -1  -5  238.64   11.06
   8  -1  -5    6.30    3.12
   9  -1  -5    9.76    7.23
  10  -1  -5    7.42    6.95
  11  -1  -5    1.43    5.93
 -11   0  -5   -3.42    7.56
 -10   0  -5  110.94   20.15
  -9   0  -5   -0.18    4.06
  -8   0  -5    6.24    4.10
  -7   0  -5    5.30    2.98
  -6   0  -5    7.75    3.18
  -5   0  -5    8.23    2.65
  -4   0  -5    5.69    2.36
  -3   0  -5   76.16    6.80
  -2   0  -5   75.98    6.50
  -1   0  -5   68.45    7.78
   0   0  -5   -1.55    1.74
   1   0  -5   81.83    8.21
   2   0  -5   61.97    7.53
   3   0  -5   63.41    7.97
   4   0  -5    6.96    3.39
   5   0  -5   12.99    4.23
   6   0  -5   19.30    4.95
   7   0  -5   10.90    4.25
   8   0  -5    1.81    3.55
   9   0  -5    1.83    5.73
  10   0  -5  106.88   18.88
 -11   1  -5    8.78    8.27
 -10   1  -5   11.27    7.64
  -9   1  -5   13.10    5.00
  -8   1  -5    9.82    4.35
  -7   1  -5  234.68   10.94
  -6   1  -5   66.17    6.89
  -5   1  -5  176.49   12.97
  -4   1  -5   11.47    2.91
  -3   1  -5   36.49    4.49
  -2   1  -5   47.31    5.09
  -1   1  -5   77.99    6.69
   0   1  -5   69.57    7.61
   1   1  -5   37.35    5.96
   2   1  -5   17.92    4.55
   3   1  -5  311.44   14.14
   4   1  -5    6.39    3.44
   5   1  -5   44.12    7.02
   6   1  -5    4.23    3.61
   7   1  -5   57.84    8.54
   8   1  -5    0.03    3.56
   9   1  -5   38.64   11.72
  10   1  -5   27.67   10.98
 -12   2  -5    4.62    8.47
 -11   2  -5   14.98    9.12
 -10   2  -5    9.23    5.01
  -9   2  -5   72.24    9.91
  -8   2  -5   21.34    5.70
  -7   2  -5    0.56    2.14
  -6   2  -5    1.05    2.03
  -5   2  -5    3.53    2.59
  -4   2  -5    3.45    2.74
  -3   2  -5   29.94    4.14
  -2   2  -5   83.37    6.40
  -1   2  -5   50.13    5.02
   0   2  -5   62.83    7.41
   1   2  -5   33.87    5.73
   2   2  -5   -2.06    2.15
   3   2  -5   80.37    9.00
   4   2  -5   27.52    5.63
   5   2  -5    6.03    3.53
   6   2  -5   82.72    9.79
   7   2  -5   -0.94    3.14
   8   2  -5   69.47   10.00
   9   2  -5    1.34    5.89
 -12   3  -5   22.25   11.31
 -11   3  -5   20.87    6.75
 -10   3  -5   18.13    6.00
  -9   3  -5   11.89    5.21
  -8   3  -5    5.00    3.85
  -7   3  -5    9.32    4.22
  -6   3  -5  135.80   11.59
  -5   3  -5   84.98    9.04
  -4   3  -5  286.71   13.27
  -3   3  -5   62.06    7.49
  -2   3  -5   35.67    4.48
  -1   3  -5   33.58    4.16
   0   3  -5   86.24    8.78
   1   3  -5   12.80    4.17
   2   3  -5    2.62    2.67
   3   3  -5  133.18   11.93
   4   3  -5   20.37    5.35
   5   3  -5  183.68   14.79
   6   3  -5   -2.28    2.89
   7   3  -5    3.11    4.28
   8   3  -5    1.87    4.57
   9   3  -5   -4.91    7.33
 -12   4  -5   10.10    6.22
 -11   4  -5   -1.55    3.96
 -10   4  -5   41.41    8.49
  -9   4  -5   31.75    6.85
  -8   4  -5   13.70    5.14
  -7   4  -5   43.53    6.77
  -6   4  -5   26.48    5.53
  -5   4  -5   10.95    4.03
  -4   4  -5    2.75    2.89
  -3   4  -5   11.40    3.79
  -2   4  -5    6.34    3.11
  -1   4  -5  292.23   10.05
   0   4  -5    4.18    2.18
   1   4  -5  166.90   10.97
   2   4  -5    1.89    2.87
   3   4  -5   14.77    4.70
   4   4  -5   12.76    4.41
   5   4  -5   16.55    5.86
   6   4  -5    3.94    4.02
   7   4  -5   12.25    5.40
   8   4  -5   84.32   11.58
 -12   5  -5   32.48    7.78
 -11   5  -5   38.47    8.29
 -10   5  -5   10.27    5.02
  -9   5  -5    9.85    4.81
  -8   5  -5  181.53   15.12
  -7   5  -5   12.95    4.22
  -6   5  -5   38.75    6.65
  -5   5  -5    9.04    3.62
  -4   5  -5  168.36   12.69
  -3   5  -5    4.00    2.98
  -2   5  -5   64.32    7.75
  -1   5  -5    7.25    3.46
   0   5  -5    9.45    2.89
   1   5  -5   72.94    8.62
   2   5  -5    2.59    2.89
   3   5  -5   11.92    4.63
   4   5  -5   46.41    8.22
   5   5  -5   10.28    5.36
   6   5  -5   32.66    7.75
   7   5  -5   -1.23    4.55
 -12   6  -5   11.92    6.33
 -11   6  -5   33.63    8.00
 -10   6  -5   -2.11    3.33
  -9   6  -5   -0.01    3.20
  -8   6  -5   82.70   10.18
  -7   6  -5    7.33    5.45
  -6   6  -5   12.07    4.17
  -5   6  -5   58.10    7.83
  -4   6  -5   -0.73    2.42
  -3   6  -5  112.85   10.30
  -2   6  -5   18.01    4.38
  -1   6  -5   35.80    5.97
   0   6  -5    8.57    3.85
   1   6  -5  272.32   15.15
   2   6  -5   28.28    6.41
   3   6  -5    7.27    4.41
   4   6  -5   33.25    7.26
   5   6  -5   35.10    7.79
   6   6  -5    2.32    4.54
 -12   7  -5   -2.66    3.84
 -11   7  -5   17.64    6.48
 -10   7  -5   -2.53    3.24
  -9   7  -5   -2.93    2.97
  -8   7  -5   69.94    9.81
  -7   7  -5    9.00    5.79
  -6   7  -5  249.02   13.07
  -5   7  -5   -0.51    2.55
  -4   7  -5   10.85    4.02
  -3   7  -5   31.36    5.69
  -2   7  -5   11.28    4.21
  -1   7  -5    9.76    6.39
   0   7  -5    9.03    6.13
   1   7  -5   24.57    8.68
   2   7  -5   57.22    8.75
   3   7  -5   30.49    6.86
   4   7  -5   -5.40    3.49
   5   7  -5   31.94    8.12
 -12   8  -5   82.35   12.52
 -11   8  -5    1.09    4.90
 -10   8  -5  109.53   12.97
  -9   8  -5   -2.25    2.90
  -8   8  -5    8.68    6.37
  -7   8  -5    5.10    5.20
  -6   8  -5   10.72    4.05
  -5   8  -5    1.74    3.03
  -4   8  -5   24.23    5.41
  -3   8  -5  189.47   14.33
  -2   8  -5   90.82   15.30
  -1   8  -5   87.67   15.44
   0   8  -5    8.61    6.94
   1   8  -5   12.32    7.20
   2   8  -5   34.60   11.25
   3   8  -5   22.05   10.24
   4   8  -5   12.91    5.87
 -12   9  -5   11.25    9.28
 -11   9  -5   -1.25    4.03
 -10   9  -5   36.75    8.01
  -9   9  -5    3.38    5.28
  -8   9  -5    2.78    5.17
  -7   9  -5   34.66    9.83
  -6   9  -5   14.46    4.93
  -5   9  -5   28.66    6.34
  -4   9  -5   21.21    5.53
  -3   9  -5    4.25    5.36
  -2   9  -5    2.46    5.05
  -1   9  -5   -4.43    4.07
   0   9  -5   -2.51    5.27
   1   9  -5   18.87    9.44
   2   9  -5   28.37   11.28
   3   9  -5   14.62   15.69
 -11  10  -5   12.38    6.48
 -10  10  -5  157.64   22.66
  -9  10  -5    7.63    6.86
  -8  10  -5   19.33    8.36
  -7  10  -5   16.15    7.80
  -6  10  -5   16.29    7.64
  -5  10  -5    8.40    4.65
  -4  10  -5    2.44    4.73
  -3  10  -5    4.91    6.37
  -2  10  -5  100.43   17.12
  -1  10  -5   29.07    9.95
   0  10  -5  121.08   20.65
   1  10  -5   21.03    9.63
 -10  11  -5    1.47    6.28
  -9  11  -5    7.11    7.11
  -8  11  -5   18.35    9.09
  -7  11  -5    4.12    6.11
  -6  11  -5   38.94   10.20
  -5  11  -5   38.05   11.34
  -4  11  -5   27.99    9.94
  -3  11  -5   12.69    8.12
  -2  11  -5   10.00    8.35
  -1  11  -5   19.06   10.13
  -9  12  -5   15.69    8.44
  -8  12  -5   19.72    9.71
  -5  12  -5   -0.73    5.91
  -4  12  -5   70.35   15.07
  -3  12  -5    1.40    7.43
   6 -14  -4   28.71   12.31
   3 -13  -4    6.17    8.06
   4 -13  -4    2.90    5.07
   5 -13  -4   70.82   11.33
   6 -13  -4   74.53   11.72
   7 -13  -4    5.50    5.84
   8 -13  -4   18.90   10.84
   9 -13  -4    6.64    8.42
   1 -12  -4    0.55    4.36
   2 -12  -4   94.31   12.94
   3 -12  -4   -2.96    4.12
   4 -12  -4   28.56    7.21
   5 -12  -4    1.67    4.04
   6 -12  -4    5.69    4.90
   7 -12  -4    1.55    4.42
   8 -12  -4   15.18    6.59
   9 -12  -4   22.53    7.42
  10 -12  -4   81.30   18.55
  11 -12  -4   74.85   17.76
  -1 -11  -4   61.14   10.59
   0 -11  -4    1.09    4.44
   1 -11  -4   -0.48    4.15
   2 -11  -4   11.70    5.37
   3 -11  -4   21.04    6.34
   4 -11  -4   -2.03    3.31
   5 -11  -4   19.82    5.95
   6 -11  -4    5.53    3.83
   7 -11  -4  196.13   17.01
   8 -11  -4    9.72    4.75
   9 -11  -4   17.77    6.35
  10 -11  -4    7.29    4.72
  11 -11  -4   13.88    9.44
  12 -11  -4   -0.63    6.59
  -2 -10  -4   66.28   10.43
  -1 -10  -4   -0.02    4.24
   0 -10  -4   13.71    5.44
   1 -10  -4   14.87    5.61
   2 -10  -4   16.30    5.39
   3 -10  -4   51.62    8.78
   4 -10  -4   50.12    8.44
   5 -10  -4   35.58    7.46
   6 -10  -4   37.38    6.77
   7 -10  -4   25.49    7.01
   8 -10  -4    5.58    3.64
   9 -10  -4    2.73    4.19
  10 -10  -4   12.11    5.55
  11 -10  -4    9.30    5.21
  12 -10  -4  104.62   19.20
  -4  -9  -4   10.81    7.43
  -3  -9  -4   20.64    6.33
  -2  -9  -4   28.49    6.12
  -1  -9  -4    6.45    3.99
   0  -9  -4   74.36   10.18
   1  -9  -4    3.00    3.53
   2  -9  -4   15.27    4.80
   3  -9  -4   79.92   10.00
   4  -9  -4    1.72    2.66
   5  -9  -4   49.90    6.49
   6  -9  -4   14.67    3.92
   7  -9  -4   33.36    5.28
   8  -9  -4   23.43    6.36
   9  -9  -4   65.04    9.48
  10  -9  -4   14.61    5.37
  11  -9  -4    9.10    5.16
  12  -9  -4   -1.28    3.86
  13  -9  -4    6.51    8.48
  -6  -8  -4   -2.86   12.98
  -5  -8  -4   13.92    7.36
  -4  -8  -4   15.05    5.24
  -3  -8  -4    8.07    4.27
  -2  -8  -4    0.35    2.90
  -1  -8  -4   37.07    6.32
   0  -8  -4  155.13   12.61
   1  -8  -4   15.75    4.58
   2  -8  -4   11.85    3.41
   3  -8  -4   23.50    4.23
   4  -8  -4   21.52    4.26
   5  -8  -4  114.75    8.69
   6  -8  -4    2.72    2.39
   7  -8  -4    0.12    2.15
   8  -8  -4  159.31   13.82
   9  -8  -4    8.05    4.23
  10  -8  -4   25.37    6.54
  11  -8  -4   27.66    6.82
  12  -8  -4   17.31    5.94
  13  -8  -4   42.68    8.85
  -7  -7  -4    3.16   13.57
  -6  -7  -4   17.81    7.38
  -5  -7  -4    1.25    3.55
  -4  -7  -4  190.55   14.43
  -3  -7  -4   15.62    4.50
  -2  -7  -4   39.61    6.22
  -1  -7  -4    3.28    2.74
   0  -7  -4   19.44    3.75
   1  -7  -4   11.29    3.12
   2  -7  -4    2.14    2.23
   3  -7  -4   32.27    4.79
   4  -7  -4  145.15   10.07
   5  -7  -4   92.97    7.74
   6  -7  -4   55.79    6.07
   7  -7  -4   15.98    3.46
   8  -7  -4   17.93    5.35
   9  -7  -4   25.71    6.10
  10  -7  -4   48.59    7.87
  11  -7  -4   -0.63    3.20
  12  -7  -4    5.58    4.79
  13  -7  -4   57.37    9.93
  -8  -6  -4   49.00   27.82
  -7  -6  -4   62.28   12.22
  -6  -6  -4   22.81    6.96
  -5  -6  -4   18.49    5.23
  -4  -6  -4   30.06    5.89
  -3  -6  -4   20.30    4.92
  -2  -6  -4    1.33    2.48
  -1  -6  -4   64.59    6.14
   0  -6  -4    9.67    2.69
   1  -6  -4  270.64   10.52
   2  -6  -4    1.46    2.04
   3  -6  -4    5.38    2.18
   4  -6  -4    6.34    2.47
   5  -6  -4    6.48    2.69
   6  -6  -4    8.05    2.85
   7  -6  -4   10.00    3.12
   8  -6  -4   14.23    4.66
   9  -6  -4   98.93   10.99
  10  -6  -4   53.05    8.62
  11  -6  -4   19.15    5.81
  12  -6  -4   15.16    5.57
  13  -6  -4    6.54    5.13
  14  -6  -4   -9.60    5.69
  -8  -5  -4   44.69   10.78
  -7  -5  -4    3.88    5.13
  -6  -5  -4   37.68    6.70
  -5  -5  -4   16.59    4.65
  -4  -5  -4   55.33    7.10
  -3  -5  -4  111.01    8.02
  -2  -5  -4  107.00    7.65
  -1  -5  -4    6.54    2.43
   0  -5  -4    0.21    1.53
   1  -5  -4   12.78    2.99
   2  -5  -4   34.37    4.44
   3  -5  -4   12.75    3.02
   4  -5  -4   39.18    4.71
   5  -5  -4    1.63    1.97
   6  -5  -4  288.20   10.62
   7  -5  -4    1.82    2.08
   8  -5  -4   27.15    5.58
   9  -5  -4    5.42    3.45
  10  -5  -4   23.42    5.95
  11  -5  -4    8.91    4.52
  12  -5  -4    3.36    4.51
  13  -5  -4   14.30    5.93
  -9  -4  -4    1.20   11.77
  -8  -4  -4   31.17    9.10
  -7  -4  -4   -1.04    3.98
  -6  -4  -4   64.91    8.08
  -5  -4  -4    5.09    2.88
  -4  -4  -4   30.88    4.44
  -3  -4  -4  149.33    8.58
  -2  -4  -4    3.00    1.91
  -1  -4  -4   45.88    4.48
   0  -4  -4   37.95    3.92
   1  -4  -4   69.60    6.09
   2  -4  -4  174.31    8.39
   3  -4  -4  340.00   10.74
   4  -4  -4   34.71    4.44
   5  -4  -4    8.61    2.56
   6  -4  -4    1.79    1.76
   7  -4  -4   26.84    4.18
   8  -4  -4   31.36    5.97
   9  -4  -4   53.37    8.19
  10  -4  -4   20.24    5.81
  11  -4  -4  207.36   16.87
  12  -4  -4   15.70    5.62
  13  -4  -4    9.20    5.60
 -10  -3  -4   -2.63   12.05
  -9  -3  -4   -4.55   11.12
  -8  -3  -4   34.91    8.26
  -7  -3  -4   53.96    7.18
  -6  -3  -4  106.18    8.09
  -5  -3  -4   34.71    3.91
  -4  -3  -4   33.02    3.68
  -3  -3  -4    7.72    1.94
  -2  -3  -4   16.58    2.88
  -1  -3  -4  335.70    9.23
   0  -3  -4   31.17    3.48
   1  -3  -4    1.06    1.35
   2  -3  -4  137.73    7.12
   3  -3  -4   27.89    3.79
   4  -3  -4   57.70    5.33
   5  -3  -4   40.32    4.52
   6  -3  -4    5.23    2.27
   7  -3  -4  158.59    8.79
   8  -3  -4   94.55   10.44
   9  -3  -4   18.50    5.30
  10  -3  -4   12.61    4.76
  11  -3  -4   11.91    4.78
  12  -3  -4   23.41    5.93
  13  -3  -4   11.10    5.67
 -11  -2  -4   14.85    9.82
 -10  -2  -4   80.46   14.05
  -9  -2  -4   14.90    7.34
  -8  -2  -4   26.27    5.68
  -7  -2  -4   38.23    5.66
  -6  -2  -4   20.75    2.71
  -5  -2  -4    1.95    1.27
  -4  -2  -4    1.74    1.24
  -3  -2  -4   34.15    4.42
  -2  -2  -4  166.12    6.27
  -1  -2  -4  154.68    5.96
   0  -2  -4   40.85    4.18
   1  -2  -4   60.35    4.88
   2  -2  -4   34.53    3.91
   3  -2  -4    4.13    1.86
   4  -2  -4  154.37    7.18
   5  -2  -4   14.38    3.05
   6  -2  -4    6.01    2.18
   7  -2  -4  108.77    8.13
   8  -2  -4    3.09    2.86
   9  -2  -4   43.92    7.00
  10  -2  -4    4.49    3.60
  11  -2  -4   26.33    6.92
  12  -2  -4   85.41   17.80
 -11  -1  -4    3.09    8.64
 -10  -1  -4   10.43    6.22
  -9  -1  -4   24.39    6.09
  -8  -1  -4    7.13    3.95
  -7  -1  -4   20.75    2.77
  -6  -1  -4   10.59    1.96
  -5  -1  -4  283.17    6.73
  -4  -1  -4   13.95    1.95
  -3  -1  -4   62.15    4.25
  -2  -1  -4    2.84    1.31
  -1  -1  -4   71.39    5.14
   0  -1  -4   20.77    2.73
   1  -1  -4   20.86    2.78
   2  -1  -4   63.45    4.94
   3  -1  -4  148.11    7.00
   4  -1  -4  343.32   10.28
   5  -1  -4   47.00    4.96
   6  -1  -4   12.22    3.09
   7  -1  -4   54.81    5.80
   8  -1  -4    3.12    2.49
   9  -1  -4   38.66    7.30
  10  -1  -4    9.63    4.37
  11  -1  -4    0.81    4.08
  12  -1  -4   55.55    9.91
 -12   0  -4    7.57    8.08
 -11   0  -4   -1.15    6.78
 -10   0  -4    9.52    5.80
  -9   0  -4   57.85    8.94
  -8   0  -4  168.67   10.25
  -7   0  -4   12.55    2.43
  -6   0  -4    7.28    1.67
  -5   0  -4    1.20    1.21
  -4   0  -4   37.11    3.11
  -3   0  -4   27.93    2.89
  -2   0  -4   44.69    3.38
  -1   0  -4   21.14    2.35
   0   0  -4  984.48   15.61
   1   0  -4   21.50    2.66
   2   0  -4   45.83    4.17
   3   0  -4   36.24    4.03
   4   0  -4   37.09    4.21
   5   0  -4    2.26    1.89
   6   0  -4    6.32    2.59
   7   0  -4   16.16    3.34
   8   0  -4  161.10   10.39
   9   0  -4   72.88    9.53
  10   0  -4    8.84    4.57
  11   0  -4    8.00    4.76
  12   0  -4    2.27    7.37
 -12   1  -4   64.51   11.23
 -11   1  -4    6.15    4.88
 -10   1  -4    7.01    4.40
  -9   1  -4   44.47    6.16
  -8   1  -4   -3.33    1.98
  -7   1  -4   55.11    5.07
  -6   1  -4   12.63    2.53
  -5   1  -4   44.93    4.06
  -4   1  -4  345.76    7.37
  -3   1  -4  153.92    5.20
  -2   1  -4   66.66    3.40
  -1   1  -4   20.41    2.00
   0   1  -4   20.31    1.94
   1   1  -4   64.40    3.72
   2   1  -4    5.45    1.64
   3   1  -4   72.88    5.53
   4   1  -4   12.56    2.71
   5   1  -4  298.50   10.15
   6   1  -4   18.40    3.57
   7   1  -4   22.79    4.18
   8   1  -4    9.86    3.44
   9   1  -4    9.12    4.78
  10   1  -4    1.85    4.04
  11   1  -4    6.78    5.25
 -13   2  -4   21.34   11.19
 -12   2  -4   54.75    9.85
 -11   2  -4   21.61    6.50
 -10   2  -4    2.54    3.23
  -9   2  -4   34.91    5.61
  -8   2  -4   -1.18    2.16
  -7   2  -4   95.88    7.15
  -6   2  -4    5.21    2.15
  -5   2  -4   12.66    2.33
  -4   2  -4  169.06    5.84
  -3   2  -4    2.03    1.47
  -2   2  -4   36.69    3.94
  -1   2  -4   73.86    5.60
   0   2  -4   40.44    4.24
   1   2  -4  166.36    8.79
   2   2  -4  168.50    6.46
   3   2  -4   39.12    4.27
   4   2  -4    1.99    1.68
   5   2  -4    2.35    2.01
   6   2  -4   16.34    3.55
   7   2  -4   27.14    4.71
   8   2  -4   19.60    4.40
   9   2  -4    4.92    4.07
  10   2  -4   72.61   16.08
 -13   3  -4    8.31    6.61
 -12   3  -4   25.65    7.64
 -11   3  -4   13.97    4.48
 -10   3  -4   19.27    4.75
  -9   3  -4   26.91    5.82
  -8   3  -4   96.99    9.89
  -7   3  -4  138.04    8.85
  -6   3  -4    4.81    2.08
  -5   3  -4   38.28    4.52
  -4   3  -4   57.49    4.53
  -3   3  -4   32.42    3.66
  -2   3  -4  153.20    6.51
  -1   3  -4    4.47    1.69
   0   3  -4   26.68    3.56
   1   3  -4  328.07   12.63
   2   3  -4   12.01    3.50
   3   3  -4   12.02    3.58
   4   3  -4   35.10    6.14
   5   3  -4   15.96    4.75
   6   3  -4   87.10    9.97
   7   3  -4   42.56    7.86
   8   3  -4   14.93    5.69
   9   3  -4   10.25    7.77
 -13   4  -4    5.04    6.11
 -12   4  -4    9.42    5.46
 -11   4  -4  183.45   15.70
 -10   4  -4   30.13    6.59
  -9   4  -4   38.06    7.08
  -8   4  -4   26.34    5.57
  -7   4  -4   30.74    5.58
  -6   4  -4    2.02    1.93
  -5   4  -4   10.58    2.83
  -4   4  -4   35.68    5.39
  -3   4  -4  340.70    9.10
  -2   4  -4  166.98    6.56
  -1   4  -4   62.84    5.13
   0   4  -4   33.05    3.87
   1   4  -4   49.47    6.16
   2   4  -4    8.21    3.31
   3   4  -4  147.25   12.05
   4   4  -4   32.21    6.10
   5   4  -4    1.80    2.87
   6   4  -4   55.33    8.66
   7   4  -4   -1.24    3.51
   8   4  -4   21.43    6.62
   9   4  -4   -0.60    7.17
 -13   5  -4    8.75    5.63
 -12   5  -4    3.38    4.08
 -11   5  -4   13.34    5.23
 -10   5  -4   20.32    5.72
  -9   5  -4    6.04    3.87
  -8   5  -4   16.88    4.77
  -7   5  -4    2.20    2.73
  -6   5  -4  287.91   10.30
  -5   5  -4   -0.07    1.42
  -4   5  -4   41.10    5.79
  -3   5  -4   12.44    3.43
  -2   5  -4   28.78    3.57
  -1   5  -4   14.93    2.76
   0   5  -4    2.15    1.80
   1   5  -4   10.43    3.69
   2   5  -4  103.69    9.93
   3   5  -4  110.68   10.83
   4   5  -4   67.67    9.18
   5   5  -4   25.02    5.91
   6   5  -4   34.97    7.54
   7   5  -4    0.98    3.76
   8   5  -4   33.66    8.13
 -14   6  -4    2.30    7.73
 -13   6  -4   13.09    5.94
 -12   6  -4   10.41    5.32
 -11   6  -4   23.86    6.13
 -10   6  -4   61.41    9.28
  -9   6  -4   86.85   10.39
  -8   6  -4   24.40    5.70
  -7   6  -4   13.88    4.27
  -6   6  -4    4.43    2.46
  -5   6  -4    4.17    2.46
  -4   6  -4    8.06    3.25
  -3   6  -4    3.63    2.66
  -2   6  -4   -0.23    1.93
  -1   6  -4  288.54    9.59
   0   6  -4    5.66    2.36
   1   6  -4   68.16    8.51
   2   6  -4    0.39    2.64
   3   6  -4   18.09    5.21
   4   6  -4   16.96    4.84
   5   6  -4   16.91    5.62
   6   6  -4    7.74    5.14
   7   6  -4   71.31   11.11
 -13   7  -4   79.56   12.21
 -12   7  -4    1.15    4.47
 -11   7  -4    1.39    3.71
 -10   7  -4   56.38    9.25
  -9   7  -4   16.12    5.12
  -8   7  -4   12.28    3.95
  -7   7  -4   19.61    5.07
  -6   7  -4   61.17    7.49
  -5   7  -4  112.59    9.82
  -4   7  -4  126.35   10.48
  -3   7  -4   39.67    5.99
  -2   7  -4   -1.52    1.97
  -1   7  -4   11.17    3.66
   0   7  -4   17.37    4.54
   1   7  -4    3.56    3.02
   2   7  -4   35.42    6.70
   3   7  -4   18.34    5.52
   4   7  -4  211.26   16.98
   5   7  -4   -0.82    3.59
   6   7  -4    2.16    4.72
   7   7  -4   14.15   11.71
 -13   8  -4   50.90    9.90
 -12   8  -4   23.20    7.05
 -11   8  -4   16.78    5.85
 -10   8  -4   14.72    5.65
  -9   8  -4    4.41    3.75
  -8   8  -4  148.64   13.70
  -7   8  -4    1.70    2.52
  -6   8  -4    3.93    2.79
  -5   8  -4   96.99    9.40
  -4   8  -4   29.84    5.10
  -3   8  -4   26.03    5.22
  -2   8  -4   10.75    3.91
  -1   8  -4   24.70    8.22
   0   8  -4  152.02   19.08
   1   8  -4   51.25    8.06
   2   8  -4   -1.71    3.01
   3   8  -4    4.31    4.26
   4   8  -4   16.20    5.81
   5   8  -4   20.51    6.69
 -13   9  -4   -0.67    5.13
 -12   9  -4   -3.72    3.88
 -11   9  -4    5.33    4.87
 -10   9  -4   13.38    5.14
  -9   9  -4   51.29    8.92
  -8   9  -4   32.04    6.96
  -7   9  -4   31.18    8.58
  -6   9  -4   16.52    4.68
  -5   9  -4   48.62    7.09
  -4   9  -4    3.08    2.92
  -3   9  -4   88.80   14.54
  -2   9  -4   45.21   10.87
  -1   9  -4    6.78    5.50
   0   9  -4   63.63   13.79
   1   9  -4    8.82    6.21
   2   9  -4   29.27   10.31
   3   9  -4   35.39    8.42
   4   9  -4   14.47    5.74
 -13  10  -4   -1.41    7.63
 -12  10  -4   55.72   10.32
 -11  10  -4   -2.17    3.83
 -10  10  -4    7.93    5.11
  -9  10  -4   18.27    6.07
  -8  10  -4   -0.78    4.37
  -7  10  -4   32.03    9.16
  -6  10  -4   21.29    5.35
  -5  10  -4   23.22    5.04
  -4  10  -4   47.38   10.96
  -3  10  -4   54.44   12.13
  -2  10  -4   24.03    8.56
  -1  10  -4   23.10    8.97
   0  10  -4    9.70    6.18
   1  10  -4   10.26    7.37
   2  10  -4   96.09   18.18
 -12  11  -4    0.39    4.73
 -11  11  -4    2.73    4.72
 -10  11  -4   -1.37    3.76
  -9  11  -4   27.83    9.94
  -8  11  -4    9.40    6.39
  -7  11  -4  153.77   20.04
  -6  11  -4   16.32    5.74
  -5  11  -4   24.72    8.36
  -4  11  -4    2.44    4.78
  -3  11  -4   11.96    7.38
  -2  11  -4   16.94    7.78
  -1  11  -4   -2.18    5.71
   0  11  -4   15.14    8.73
   1  11  -4   62.53   14.53
 -12  12  -4   -0.86    7.75
 -11  12  -4   52.15    9.69
 -10  12  -4   71.43   16.66
  -9  12  -4   15.38    9.63
  -8  12  -4    8.22    6.92
  -7  12  -4    6.88    6.29
  -5  12  -4    0.96    5.58
  -4  12  -4   21.19    9.04
  -3  12  -4    3.84    6.92
  -2  12  -4   89.22   16.99
  -1  12  -4    0.78    6.68
 -10  13  -4    2.42    6.74
  -9  13  -4   10.94    7.38
  -5  13  -4   42.12   12.56
  -4  13  -4    6.73    7.49
  -3  13  -4    2.19    7.53
   3 -14  -3   24.41    9.03
   4 -14  -3   29.58   10.27
   5 -14  -3   11.32    9.22
   6 -14  -3   16.51    8.79
   7 -14  -3   19.38    9.85
   8 -14  -3   -1.04    6.52
   9 -14  -3   -1.79    6.82
   1 -13  -3    3.73    6.82
   2 -13  -3    5.38    5.27
   3 -13  -3   30.19    7.31
   4 -13  -3   26.76    6.64
   5 -13  -3   -1.96    3.58
   6 -13  -3    4.28    4.00
   7 -13  -3   56.01   15.26
   8 -13  -3   24.39   11.89
   9 -13  -3   51.34   15.15
  10 -13  -3    1.63    6.69
  11 -13  -3   -2.45    6.91
  -1 -12  -3   13.38   15.73
   0 -12  -3   41.24    7.94
   1 -12  -3   38.66    7.97
   2 -12  -3    9.12    4.90
   3 -12  -3    0.91    3.52
   4 -12  -3   78.41    9.31
   5 -12  -3    0.01    2.99
   6 -12  -3   12.33    4.89
   7 -12  -3   24.08    6.16
   8 -12  -3    8.53    6.84
   9 -12  -3   31.88   10.35
  10 -12  -3    5.54    6.92
  11 -12  -3    5.73    7.66
  12 -12  -3   64.40   17.17
  -2 -11  -3    1.06    5.88
  -1 -11  -3   11.38    5.12
   0 -11  -3   29.16    6.74
   1 -11  -3    8.47    4.30
   2 -11  -3   25.80    5.69
   3 -11  -3   34.30    6.19
   4 -11  -3   33.18    5.95
   5 -11  -3   83.95    9.32
   6 -11  -3   26.31    5.80
   7 -11  -3    0.14    2.91
   8 -11  -3   11.25    4.84
   9 -11  -3   68.61   14.59
  10 -11  -3    3.25    6.42
  11 -11  -3   15.20    8.88
  12 -11  -3   39.67   12.49
  13 -11  -3   13.06    9.70
  -4 -10  -3   15.98   15.89
  -3 -10  -3    9.90    6.89
  -2 -10  -3    3.10    3.80
  -1 -10  -3    6.50    3.71
   0 -10  -3  114.97   11.33
   1 -10  -3   36.33    6.63
   2 -10  -3  132.52   11.32
   3 -10  -3    2.29    2.99
   4 -10  -3    1.98    2.64
   5 -10  -3   17.33    4.74
   6 -10  -3   18.22    4.35
   7 -10  -3    8.35    3.77
   8 -10  -3   24.14    5.35
   9 -10  -3    3.08    3.14
  10 -10  -3  146.31   17.15
  11 -10  -3   -2.45    6.29
  12 -10  -3   15.40    8.81
  13 -10  -3   20.80   11.23
  -5  -9  -3    3.30    5.98
  -4  -9  -3   47.86   10.93
  -3  -9  -3   38.07    7.15
  -2  -9  -3   74.00    9.20
  -1  -9  -3    1.34    2.71
   0  -9  -3    0.58    2.77
   1  -9  -3   49.60    7.23
   2  -9  -3   12.98    3.50
   3  -9  -3    0.65    2.38
   4  -9  -3    8.18    3.28
   5  -9  -3  199.19   12.16
   6  -9  -3   19.62    4.43
   7  -9  -3  117.15   10.25
   8  -9  -3    2.37    3.06
   9  -9  -3    5.44    3.23
  10  -9  -3   25.50    6.49
  11  -9  -3   27.20    8.07
  12  -9  -3   -2.96    5.00
  13  -9  -3   20.67    9.30
  14  -9  -3   25.22   10.22
  -6  -8  -3    4.19    5.75
  -5  -8  -3   23.77    7.74
  -4  -8  -3   11.86    5.70
  -3  -8  -3   -0.38    2.66
  -2  -8  -3   29.53    5.88
  -1  -8  -3    2.06    2.49
   0  -8  -3    0.58    2.18
   1  -8  -3  145.16   10.15
   2  -8  -3   81.25    7.84
   3  -8  -3  198.21   12.62
   4  -8  -3   56.22    5.55
   5  -8  -3   10.90    2.80
   6  -8  -3    5.57    2.28
   7  -8  -3   16.98    3.10
   8  -8  -3    3.77    2.83
   9  -8  -3   47.35    7.61
  10  -8  -3  132.62   12.59
  11  -8  -3   25.90    6.17
  12  -8  -3   72.56   14.48
  13  -8  -3    1.09    5.41
  14  -8  -3   15.20    9.57
  -7  -7  -3   25.40    9.03
  -6  -7  -3   53.69   11.13
  -5  -7  -3   28.54    7.73
  -4  -7  -3    3.13    3.17
  -3  -7  -3   10.94    3.68
  -2  -7  -3  111.85    9.89
  -1  -7  -3   29.16    5.04
   0  -7  -3   99.76    8.73
   1  -7  -3   78.62    7.19
   2  -7  -3   13.96    2.97
   3  -7  -3  104.98    7.01
   4  -7  -3   18.44    3.08
   5  -7  -3    9.59    2.30
   6  -7  -3  259.75    8.19
   7  -7  -3  102.65    7.60
   8  -7  -3  156.44   13.00
   9  -7  -3   22.31    5.49
  10  -7  -3    0.81    2.55
  11  -7  -3   40.37    7.46
  12  -7  -3    1.50    3.56
  13  -7  -3   -1.97    4.93
  14  -7  -3   32.10   11.14
  -8  -6  -3    9.90    7.01
  -7  -6  -3    9.45    6.30
  -6  -6  -3   13.59    5.33
  -5  -6  -3   19.77    6.51
  -4  -6  -3   19.26    4.69
  -3  -6  -3   27.04    5.08
  -2  -6  -3    3.20    2.40
  -1  -6  -3  237.53   10.39
   0  -6  -3   37.46    3.99
   1  -6  -3   15.54    2.93
   2  -6  -3   59.96    5.03
   3  -6  -3  217.50    7.64
   4  -6  -3   63.21    5.17
   5  -6  -3   49.30    4.66
   6  -6  -3   40.78    4.64
   7  -6  -3   92.80    7.00
   8  -6  -3   80.01    9.22
   9  -6  -3    1.81    2.46
  10  -6  -3    1.67    2.71
  11  -6  -3   90.80   10.61
  12  -6  -3    6.94    4.52
  13  -6  -3   47.15    8.93
  14  -6  -3   -1.24    6.12
  -9  -5  -3   13.95    7.29
  -8  -5  -3   -6.22    3.90
  -7  -5  -3   -2.76    3.02
  -6  -5  -3   85.92   10.23
  -5  -5  -3   16.45    3.34
  -4  -5  -3  201.28    8.94
  -3  -5  -3   17.46    2.97
  -2  -5  -3   10.44    2.78
  -1  -5  -3   48.50    4.61
   0  -5  -3  129.45    6.91
   1  -5  -3   15.09    2.73
   2  -5  -3   77.99    5.18
   3  -5  -3   49.21    4.22
   4  -5  -3  253.36    7.82
   5  -5  -3  121.68    7.50
   6  -5  -3   17.37    2.85
   7  -5  -3    9.37    2.41
   8  -5  -3  187.54   13.59
   9  -5  -3    4.08    2.91
  10  -5  -3   11.05    3.68
  11  -5  -3   18.52    4.93
  12  -5  -3   27.31    6.96
  13  -5  -3   20.16    6.52
  14  -5  -3   -3.68    4.70
 -10  -4  -3   37.24   12.90
  -9  -4  -3   15.24    7.04
  -8  -4  -3   91.59   10.52
  -7  -4  -3   38.31    6.47
  -6  -4  -3    4.30    2.69
  -5  -4  -3    6.71    2.57
  -4  -4  -3   64.23    5.63
  -3  -4  -3   26.67    3.07
  -2  -4  -3   53.36    3.88
  -1  -4  -3  258.15    6.37
   0  -4  -3  135.02    6.08
   1  -4  -3  365.51    8.83
   2  -4  -3    8.10    1.87
   3  -4  -3   32.10    3.23
   4  -4  -3  121.88    7.24
   5  -4  -3   17.44    2.69
   6  -4  -3   55.80    4.49
   7  -4  -3  109.97    7.39
   8  -4  -3   70.05    8.53
   9  -4  -3  192.26   13.96
  10  -4  -3   22.16    4.81
  11  -4  -3    1.06    2.86
  12  -4  -3    8.88    4.74
  13  -4  -3   55.36    9.72
  14  -4  -3    2.07    6.95
 -11  -3  -3   41.31   14.46
 -10  -3  -3   39.58   10.74
  -9  -3  -3    1.90    5.48
  -8  -3  -3   29.05    5.92
  -7  -3  -3    1.92    3.22
  -6  -3  -3    0.96    2.61
  -5  -3  -3  195.50    6.74
  -4  -3  -3  108.41    5.32
  -3  -3  -3  217.76    5.68
  -2  -3  -3   57.45    3.89
  -1  -3  -3   27.82    2.44
   0  -3  -3   88.65    4.52
   1  -3  -3   35.18    3.11
   2  -3  -3   87.14    4.38
   3  -3  -3   85.78    4.41
   4  -3  -3  357.79    8.58
   5  -3  -3   90.00    5.47
   6  -3  -3  221.72    7.39
   7  -3  -3   22.76    3.22
   8  -3  -3    9.91    3.17
   9  -3  -3   16.81    4.04
  10  -3  -3    8.06    3.50
  11  -3  -3    2.88    3.36
  12  -3  -3   42.65    8.19
  13  -3  -3    7.37    4.97
  14  -3  -3   43.70   13.81
 -11  -2  -3   23.36    9.34
 -10  -2  -3   21.76    8.56
  -9  -2  -3   32.92    8.80
  -8  -2  -3  135.88   10.38
  -7  -2  -3   10.82    2.59
  -6  -2  -3   86.82    4.96
  -5  -2  -3   16.02    1.97
  -4  -2  -3   54.38    3.30
  -3  -2  -3   84.75    3.80
  -2  -2  -3   10.96    1.73
  -1  -2  -3   86.94    4.35
   0  -2  -3  322.49    8.06
   1  -2  -3   70.76    4.71
   2  -2  -3  320.07    8.40
   3  -2  -3   41.09    3.86
   4  -2  -3   11.37    1.89
   5  -2  -3   53.21    4.38
   6  -2  -3   64.91    4.98
   7  -2  -3    9.02    2.40
   8  -2  -3    3.18    2.32
   9  -2  -3  107.72    9.42
  10  -2  -3   22.97    4.76
  11  -2  -3   88.24   10.72
  12  -2  -3    3.02    3.97
  13  -2  -3    4.84    5.48
 -12  -1  -3    6.28    8.41
 -11  -1  -3   29.67    9.68
 -10  -1  -3    8.43    6.36
  -9  -1  -3   45.38    6.66
  -8  -1  -3   52.17    6.92
  -7  -1  -3  181.23    7.59
  -6  -1  -3   86.56    4.52
  -5  -1  -3   22.98    2.33
  -4  -1  -3   14.98    1.78
  -3  -1  -3  360.44    6.28
  -2  -1  -3   36.45    2.78
  -1  -1  -3   71.15    3.31
   0  -1  -3   46.36    3.57
   1  -1  -3   58.39    4.08
   2  -1  -3   71.78    4.74
   3  -1  -3   95.59    5.86
   4  -1  -3   31.71    3.13
   5  -1  -3  256.91    7.68
   6  -1  -3   46.40    4.36
   7  -1  -3  228.81    8.21
   8  -1  -3   23.29    4.53
   9  -1  -3    0.73    2.26
  10  -1  -3   -0.27    2.84
  11  -1  -3    7.66    3.96
  12  -1  -3    6.23    5.15
  13  -1  -3    8.44    5.88
 -12   0  -3   40.17   13.81
 -11   0  -3   36.85    7.34
 -10   0  -3  126.03   11.99
  -9   0  -3    4.96    3.65
  -8   0  -3    3.09    2.33
  -7   0  -3   95.09    6.99
  -6   0  -3   45.48    3.21
  -5   0  -3  139.68    4.39
  -4   0  -3  130.17    3.90
  -3   0  -3   85.33    3.44
  -2   0  -3  316.90    6.66
  -1   0  -3   55.49    2.85
   0   0  -3    0.44    0.71
   1   0  -3   57.36    3.83
   2   0  -3  310.85    8.02
   3   0  -3   85.35    5.40
   4   0  -3  121.86    6.23
   5   0  -3  128.46    6.94
   6   0  -3   38.58    4.61
   7   0  -3  107.23    7.59
   8   0  -3    4.06    2.47
   9   0  -3   -0.94    2.45
  10   0  -3  125.46   12.85
  11   0  -3   13.23    4.70
  12   0  -3   50.31    9.57
 -13   1  -3   17.45    8.82
 -12   1  -3   13.19    5.67
 -11   1  -3   22.21    6.57
 -10   1  -3    2.66    3.75
  -9   1  -3   -0.70    2.11
  -8   1  -3   19.48    3.55
  -7   1  -3  235.92    7.22
  -6   1  -3   45.06    3.26
  -5   1  -3  254.70    6.21
  -4   1  -3   28.27    2.20
  -3   1  -3   87.04    3.42
  -2   1  -3   74.76    3.25
  -1   1  -3   56.16    2.41
   0   1  -3   55.67    2.36
   1   1  -3   78.06    3.72
   2   1  -3   37.00    3.51
   3   1  -3  380.55    9.53
   4   1  -3   17.72    2.85
   5   1  -3   20.88    3.31
   6   1  -3   83.83    6.63
   7   1  -3  168.95    9.21
   8   1  -3   45.23    5.79
   9   1  -3   33.86    6.95
  10   1  -3    4.01    3.96
  11   1  -3   34.14    8.38
  12   1  -3   11.02    8.77
 -13   2  -3   -3.14    5.03
 -12   2  -3    5.42    4.56
 -11   2  -3   74.02   10.50
 -10   2  -3   29.13    5.19
  -9   2  -3  117.00    9.19
  -8   2  -3    5.63    2.58
  -7   2  -3   11.17    2.24
  -6   2  -3   55.50    4.41
  -5   2  -3   55.61    3.49
  -4   2  -3    8.80    1.58
  -3   2  -3   40.09    3.10
  -2   2  -3  322.86    7.90
  -1   2  -3   70.51    4.14
   0   2  -3  318.07    8.29
   1   2  -3   96.69    4.31
   2   2  -3   11.51    2.05
   3   2  -3   89.76    5.37
   4   2  -3   62.34    5.35
   5   2  -3   11.00    2.53
   6   2  -3   75.55    6.68
   7   2  -3   18.42    3.93
   8   2  -3  148.35   10.48
   9   2  -3   35.06    7.34
  10   2  -3   10.56    4.63
  11   2  -3    6.83    4.99
 -13   3  -3    1.13    5.01
 -12   3  -3   40.38    8.98
 -11   3  -3   13.49    4.19
 -10   3  -3    5.51    3.10
  -9   3  -3   28.28    4.69
  -8   3  -3   11.91    3.23
  -7   3  -3   18.61    2.83
  -6   3  -3  229.80    7.86
  -5   3  -3   76.17    4.04
  -4   3  -3  363.58    7.20
  -3   3  -3   90.95    4.26
  -2   3  -3   78.17    4.19
  -1   3  -3   40.96    3.56
   0   3  -3   87.09    3.09
   1   3  -3   30.07    2.53
   2   3  -3   50.61    4.25
   3   3  -3  241.78    8.06
   4   3  -3  100.57    6.84
   5   3  -3  220.39    9.41
   6   3  -3    2.63    2.16
   7   3  -3    2.04    2.49
   8   3  -3   32.88    5.32
   9   3  -3    4.84    4.09
  10   3  -3   32.18    7.90
  11   3  -3   40.33   12.07
 -14   4  -3   22.46   11.49
 -13   4  -3   54.62   10.50
 -12   4  -3   12.58    4.37
 -11   4  -3    5.18    3.40
 -10   4  -3   23.60    4.79
  -9   4  -3  197.05   12.16
  -8   4  -3   63.96    6.66
  -7   4  -3   81.99    8.35
  -6   4  -3   61.70    5.17
  -5   4  -3   19.21    3.13
  -4   4  -3  123.34    7.54
  -3   4  -3   28.32    2.67
  -2   4  -3    8.22    1.78
  -1   4  -3  374.74    9.21
   0   4  -3  124.91    4.20
   1   4  -3  267.28    6.41
   2   4  -3   59.01    4.87
   3   4  -3   28.28    3.77
   4   4  -3   66.09    6.07
   5   4  -3    8.44    2.87
   6   4  -3    7.57    2.89
   7   4  -3   39.39    5.75
   8   4  -3   83.73    8.59
   9   4  -3   22.50    6.49
  10   4  -3   52.54   13.21
 -14   5  -3   -1.77    5.46
 -13   5  -3   14.00    5.02
 -12   5  -3   22.63    5.43
 -11   5  -3   26.33    5.31
 -10   5  -3    9.76    3.53
  -9   5  -3   10.23    3.78
  -8   5  -3  181.82   11.68
  -7   5  -3   10.53    3.40
  -6   5  -3   24.66    3.61
  -5   5  -3  125.33    6.81
  -4   5  -3  259.99    8.54
  -3   5  -3   56.11    3.50
  -2   5  -3   83.59    5.34
  -1   5  -3   18.68    2.77
   0   5  -3  149.37    4.74
   1   5  -3   48.76    3.58
   2   5  -3   14.27    2.83
   3   5  -3   15.62    3.21
   4   5  -3  205.76   10.04
   5   5  -3   12.65    3.43
   6   5  -3   83.28    8.03
   7   5  -3    0.17    2.72
   8   5  -3    2.03    3.07
   9   5  -3   10.75    5.31
 -14   6  -3    1.99    4.14
 -13   6  -3   57.67    8.39
 -12   6  -3   13.24    5.29
 -11   6  -3   67.60    9.35
 -10   6  -3   -1.02    2.73
  -9   6  -3    1.56    2.59
  -8   6  -3   66.93    8.25
  -7   6  -3   71.12    8.01
  -6   6  -3   41.30    4.35
  -5   6  -3   39.40    4.38
  -4   6  -3   57.08    6.27
  -3   6  -3  219.46    9.73
  -2   6  -3   62.45    4.89
  -1   6  -3   21.96    3.26
   0   6  -3   43.12    4.27
   1   6  -3  253.69    8.77
   2   6  -3    1.55    1.68
   3   6  -3   31.21    4.52
   4   6  -3   14.27    3.54
   5   6  -3   32.83    5.40
   6   6  -3    9.44    3.90
   7   6  -3    0.47    3.97
   8   6  -3    3.97    5.01
 -14   7  -3   11.13    6.20
 -13   7  -3    1.16    4.43
 -12   7  -3   -2.08    3.51
 -11   7  -3   25.62    6.36
 -10   7  -3    1.75    3.21
  -9   7  -3   11.16    4.29
  -8   7  -3  151.08   12.39
  -7   7  -3   93.36    9.36
  -6   7  -3  238.22    8.89
  -5   7  -3    8.79    2.55
  -4   7  -3   20.08    3.87
  -3   7  -3  116.95    9.26
  -2   7  -3   18.61    3.00
  -1   7  -3   86.27    6.28
   0   7  -3   91.74    9.11
   1   7  -3   25.82    5.11
   2   7  -3  122.61   11.36
   3   7  -3   12.57    4.76
   4   7  -3    2.27    3.46
   5   7  -3   25.88    6.63
   6   7  -3   62.07   10.06
   7   7  -3   32.74    7.96
 -14   8  -3   16.43    7.06
 -13   8  -3   -3.72    3.86
 -12   8  -3   86.33   11.52
 -11   8  -3   29.10    6.74
 -10   8  -3  136.60   13.50
  -9   8  -3   42.62    7.14
  -8   8  -3    7.16    3.48
  -7   8  -3   17.72    4.56
  -6   8  -3    6.48    2.30
  -5   8  -3   16.38    3.91
  -4   8  -3   50.30    6.37
  -3   8  -3  214.29   10.38
  -2   8  -3   78.29    7.61
  -1   8  -3  186.62   11.37
   0   8  -3    3.69    2.88
   1   8  -3    2.16    3.10
   2   8  -3   22.06    5.65
   3   8  -3    6.28    4.19
   4   8  -3    6.27    4.47
   5   8  -3   28.56    7.51
   6   8  -3    2.92    5.16
 -14   9  -3   21.28    7.70
 -13   9  -3   13.21    5.49
 -12   9  -3   -0.51    3.36
 -11   9  -3   29.95    7.08
 -10   9  -3   26.05    6.33
  -9   9  -3    2.17    3.34
  -8   9  -3    2.83    2.77
  -7   9  -3   92.17    9.64
  -6   9  -3   25.77    4.99
  -5   9  -3  205.01   10.82
  -4   9  -3    2.65    2.77
  -3   9  -3    3.52    2.61
  -2   9  -3   21.74    7.66
  -1   9  -3   35.46    9.39
   0   9  -3    8.48    3.82
   1   9  -3    0.42    3.26
   2   9  -3   92.06   11.30
   3   9  -3   22.39    6.69
   4   9  -3   45.12    8.82
   5   9  -3    2.30    4.45
 -14  10  -3   41.16   15.29
 -13  10  -3   19.98    6.56
 -12  10  -3   15.24    6.00
 -11  10  -3    6.59    4.67
 -10  10  -3  130.43   13.48
  -9  10  -3    2.42    3.43
  -8  10  -3   35.60    6.49
  -7  10  -3    5.40    4.67
  -6  10  -3   16.42    4.67
  -5  10  -3   12.89    4.10
  -4  10  -3    1.10    3.38
  -3  10  -3    8.80    5.19
  -2  10  -3  137.04   18.93
  -1  10  -3   14.52    7.57
   0  10  -3  127.72   18.73
   1  10  -3   16.53    7.83
   2  10  -3    1.93    3.91
   3  10  -3   -0.15    4.49
   4  10  -3    9.46    8.94
 -13  11  -3    6.49    5.63
 -12  11  -3   34.25    8.25
 -11  11  -3   24.40    6.91
 -10  11  -3   16.79    5.85
  -9  11  -3   84.87   10.79
  -8  11  -3   19.33    7.35
  -7  11  -3    7.43    5.42
  -6  11  -3   16.01    4.52
  -5  11  -3   94.71   14.74
  -4  11  -3   31.13    9.60
  -3  11  -3   44.77   11.54
  -2  11  -3   47.26   11.39
  -1  11  -3    7.08    6.35
   0  11  -3   41.08   11.95
   1  11  -3    4.43    6.49
   2  11  -3    2.89    7.17
 -13  12  -3   13.97   10.59
 -12  12  -3   56.55   10.89
 -11  12  -3    8.44    5.89
 -10  12  -3   -4.92    4.10
  -9  12  -3   31.38    9.59
  -8  12  -3    7.34    5.93
  -7  12  -3   18.62    7.20
  -6  12  -3    4.74    6.59
  -5  12  -3   -0.08    4.41
  -4  12  -3   90.06   15.82
  -3  12  -3   -1.42    5.31
  -2  12  -3   12.52    7.91
  -1  12  -3   34.22   11.38
   0  12  -3   45.39   13.12
 -11  13  -3    3.55    6.58
 -10  13  -3    8.90    6.88
  -9  13  -3   43.22   11.41
  -8  13  -3   12.39    6.88
  -5  13  -3    6.56    6.52
  -4  13  -3   25.65   10.12
  -3  13  -3   26.16    9.91
  -2  13  -3   14.72    8.71
 -10  14  -3    7.59    7.96
  -5  14  -3    7.20    8.29
  -4  14  -3   29.33   11.18
   6 -15  -2    4.79   12.75
   7 -15  -2   35.29   11.52
   8 -15  -2   36.14   11.32
   9 -15  -2   22.16   19.06
  10 -15  -2   69.40   26.58
   2 -14  -2   31.39   31.76
   3 -14  -2   35.80    9.40
   4 -14  -2   -0.57    6.10
   5 -14  -2    1.11    5.36
   6 -14  -2   48.46   11.22
   7 -14  -2    1.80    6.51
   8 -14  -2   13.88    8.14
   9 -14  -2   39.76   10.97
  10 -14  -2    8.61    7.63
  11 -14  -2   31.15    9.22
  12 -14  -2    4.76   15.20
   0 -13  -2   -7.75   10.82
   1 -13  -2   18.18    7.58
   2 -13  -2    5.01    4.27
   3 -13  -2   -0.35    3.98
   4 -13  -2   20.07    5.66
   5 -13  -2   41.09    9.98
   6 -13  -2   38.35    9.75
   7 -13  -2   70.20   12.69
   8 -13  -2   19.29    8.13
   9 -13  -2   38.17    9.62
  10 -13  -2    6.36    6.86
  11 -13  -2   44.51   11.67
  12 -13  -2    4.01    5.41
  13 -13  -2   -1.38    9.33
  -1 -12  -2   -0.42    5.00
   0 -12  -2    8.76    6.04
   1 -12  -2    3.85    4.16
   2 -12  -2  111.33   11.74
   3 -12  -2    6.53    4.12
   4 -12  -2   26.89    6.12
   5 -12  -2    4.82    3.68
   6 -12  -2   33.40    7.56
   7 -12  -2    4.42    4.58
   8 -12  -2    4.76    4.77
   9 -12  -2   18.93    7.70
  10 -12  -2   12.10    7.20
  11 -12  -2   61.96   15.04
  12 -12  -2    9.57    6.08
  13 -12  -2    5.59    6.30
  14 -12  -2    0.06    8.80
  -3 -11  -2   42.93   11.28
  -2 -11  -2   29.03    9.11
  -1 -11  -2   82.65   12.73
   0 -11  -2   15.56    5.17
   1 -11  -2    7.90    3.84
   2 -11  -2    0.44    3.11
   3 -11  -2   33.58    6.05
   4 -11  -2   54.93    7.68
   5 -11  -2   66.24    8.03
   6 -11  -2    1.64    2.72
   7 -11  -2  321.08   14.08
   8 -11  -2    4.21    4.94
   9 -11  -2   36.62    9.05
  10 -11  -2    0.88    4.13
  11 -11  -2    3.36    5.19
  12 -11  -2    2.51    4.99
  13 -11  -2    0.77    4.92
  14 -11  -2   24.31    7.94
  -4 -10  -2    3.03    5.53
  -3 -10  -2    2.85    5.19
  -2 -10  -2   12.05    5.82
  -1 -10  -2    2.97    3.18
   0 -10  -2   84.71    9.38
   1 -10  -2   22.81    5.12
   2 -10  -2   40.76    6.36
   3 -10  -2   73.90    8.22
   4 -10  -2   77.38    8.38
   5 -10  -2   39.75    6.08
   6 -10  -2    4.35    2.90
   7 -10  -2   13.07    3.95
   8 -10  -2  103.53    9.76
   9 -10  -2    8.69    5.03
  10 -10  -2   85.46   15.90
  11 -10  -2    0.59    4.10
  12 -10  -2   83.51   16.89
  13 -10  -2   -1.49    4.94
  14 -10  -2    3.96    5.46
  15 -10  -2   -5.61    7.77
  -5  -9  -2   30.38    9.06
  -4  -9  -2   30.64    8.78
  -3  -9  -2   25.59    7.35
  -2  -9  -2   36.70    6.36
  -1  -9  -2   16.27    4.57
   0  -9  -2   56.39    7.16
   1  -9  -2    1.88    2.44
   2  -9  -2   10.37    3.34
   3  -9  -2  159.06   11.10
   4  -9  -2   28.95    4.67
   5  -9  -2   69.60    6.96
   6  -9  -2   57.62    7.18
   7  -9  -2   59.22    7.68
   8  -9  -2   62.79    7.56
   9  -9  -2   56.28    7.97
  10  -9  -2   -0.63    3.83
  11  -9  -2   -0.61    3.57
  12  -9  -2   -2.18    3.56
  13  -9  -2   -0.27    4.64
  14  -9  -2   -2.60    4.87
  15  -9  -2   -0.66    8.99
  -6  -8  -2   16.52    7.48
  -5  -8  -2   31.64    8.79
  -4  -8  -2    1.18    3.63
  -3  -8  -2    9.95    4.88
  -2  -8  -2   91.52    9.34
  -1  -8  -2   58.16    7.14
   0  -8  -2  104.33    9.20
   1  -8  -2   16.35    3.73
   2  -8  -2   32.09    4.97
   3  -8  -2  113.36    8.71
   4  -8  -2   31.10    4.75
   5  -8  -2   33.99    4.67
   6  -8  -2   34.91    4.67
   7  -8  -2   44.45    6.31
   8  -8  -2  101.20    9.96
   9  -8  -2    1.12    2.41
  10  -8  -2   42.70    6.82
  11  -8  -2   35.21   10.64
  12  -8  -2   10.97    5.43
  13  -8  -2   52.83   13.20
  14  -8  -2   36.30   12.15
  -7  -7  -2    3.83    5.38
  -6  -7  -2   52.21   10.61
  -5  -7  -2   -1.71    4.08
  -4  -7  -2  302.62   17.81
  -3  -7  -2   19.71    4.46
  -2  -7  -2   58.31    6.80
  -1  -7  -2   48.63    6.08
   0  -7  -2   72.98    7.00
   1  -7  -2   15.69    3.44
   2  -7  -2   15.65    2.91
   3  -7  -2  103.18    7.76
   4  -7  -2  126.97    8.22
   5  -7  -2  204.44    6.92
   6  -7  -2   97.73    6.69
   7  -7  -2   72.05    5.78
   8  -7  -2   16.86    2.92
   9  -7  -2    6.65    3.09
  10  -7  -2   74.84    9.23
  11  -7  -2   65.80    8.52
  12  -7  -2    0.41    3.46
  13  -7  -2   52.19   13.04
  14  -7  -2    2.59    5.41
  -8  -6  -2   31.35    6.88
  -7  -6  -2   27.09    6.28
  -6  -6  -2   35.34    6.43
  -5  -6  -2    0.52    2.42
  -4  -6  -2    4.91    2.88
  -3  -6  -2   62.97    5.83
  -2  -6  -2   28.97    3.78
  -1  -6  -2   90.93    5.82
   0  -6  -2   15.29    2.21
   1  -6  -2  305.19    7.33
   2  -6  -2    6.43    1.93
   3  -6  -2  132.14    5.84
   4  -6  -2    9.26    2.15
   5  -6  -2  177.78    5.47
   6  -6  -2   18.39    2.27
   7  -6  -2   15.36    2.58
   8  -6  -2   27.35    5.18
   9  -6  -2  148.20   11.74
  10  -6  -2   72.55    8.92
  11  -6  -2   57.72    8.41
  12  -6  -2   28.29    6.54
  13  -6  -2   32.70   10.65
  14  -6  -2    3.17    5.19
  15  -6  -2    2.01   10.19
 -10  -5  -2    0.16    7.03
  -9  -5  -2   -1.58    4.77
  -8  -5  -2   46.75    7.73
  -7  -5  -2    1.29    3.05
  -6  -5  -2   46.46    6.77
  -5  -5  -2   40.70    6.08
  -4  -5  -2   72.29    5.86
  -3  -5  -2   23.76    3.33
  -2  -5  -2  199.22    7.05
  -1  -5  -2  157.87    5.80
   0  -5  -2    1.87    0.98
   1  -5  -2   42.53    2.36
   2  -5  -2   66.60    4.49
   3  -5  -2    8.27    1.80
   4  -5  -2   54.13    2.98
   5  -5  -2    0.28    1.18
   6  -5  -2  312.29    8.89
   7  -5  -2   23.71    2.93
   8  -5  -2  122.43   10.53
   9  -5  -2   44.44    6.64
  10  -5  -2   33.29    6.30
  11  -5  -2    0.49    2.51
  12  -5  -2    0.03    2.77
  13  -5  -2   12.51    4.95
  14  -5  -2   66.12   15.00
 -10  -4  -2    5.97    6.41
  -9  -4  -2   28.44    8.81
  -8  -4  -2   23.94    5.39
  -7  -4  -2   60.47    7.94
  -6  -4  -2   77.72    8.59
  -5  -4  -2   39.46    5.51
  -4  -4  -2   30.92    3.15
  -3  -4  -2  122.67    4.87
  -2  -4  -2   12.92    1.80
  -1  -4  -2   52.79    3.42
   0  -4  -2  122.83    3.81
   1  -4  -2  255.92    6.84
   2  -4  -2  228.82    6.35
   3  -4  -2  109.86    5.14
   4  -4  -2  118.08    5.77
   5  -4  -2   51.48    3.96
   6  -4  -2    4.83    1.67
   7  -4  -2  108.56    5.58
   8  -4  -2   29.28    5.03
   9  -4  -2   73.46    8.19
  10  -4  -2    0.85    2.45
  11  -4  -2  297.25   15.45
  12  -4  -2    2.26    3.13
  13  -4  -2   38.14    8.01
  14  -4  -2    5.02    6.27
 -11  -3  -2   42.60   11.48
 -10  -3  -2    2.11    5.20
  -9  -3  -2    9.27    5.71
  -8  -3  -2   28.92    5.70
  -7  -3  -2   88.99    8.92
  -6  -3  -2  160.21    7.98
  -5  -3  -2  111.09    6.22
  -4  -3  -2  100.14    4.90
  -3  -3  -2  136.88    4.57
  -2  -3  -2    8.85    1.34
  -1  -3  -2  111.15    3.64
   0  -3  -2   41.91    2.20
   1  -3  -2   85.92    3.93
   2  -3  -2  253.57    6.04
   3  -3  -2   49.55    3.38
   4  -3  -2  261.45    6.74
   5  -3  -2   60.67    4.05
   6  -3  -2  141.93    6.35
   7  -3  -2  139.10    6.46
   8  -3  -2   30.03    5.20
   9  -3  -2   61.08    7.46
  10  -3  -2    6.26    2.84
  11  -3  -2    4.88    3.46
  12  -3  -2   13.51    4.74
  13  -3  -2    2.77    3.78
  14  -3  -2   26.74    6.56
 -11  -2  -2    5.98    6.68
 -10  -2  -2   83.92   14.42
  -9  -2  -2    5.34    4.68
  -8  -2  -2   36.52    6.05
  -7  -2  -2    4.69    2.32
  -6  -2  -2   32.32    3.59
  -5  -2  -2   28.76    2.54
  -4  -2  -2    6.52    1.38
  -3  -2  -2   67.17    3.10
  -2  -2  -2  231.58    4.32
  -1  -2  -2  246.82    5.04
   0  -2  -2  415.64    7.59
   1  -2  -2  186.86    4.64
   2  -2  -2  427.03    7.40
   3  -2  -2   82.98    4.13
   4  -2  -2  244.44    6.34
   5  -2  -2    9.35    1.80
   6  -2  -2    9.17    2.04
   7  -2  -2  214.35    7.54
   8  -2  -2   26.14    4.58
   9  -2  -2   53.71    6.91
  10  -2  -2   93.73   10.45
  11  -2  -2   25.13    6.24
  12  -2  -2    3.36    3.58
  13  -2  -2   19.61    5.46
  14  -2  -2    8.85    7.08
 -12  -1  -2    6.93    6.84
 -11  -1  -2    2.64    5.76
 -10  -1  -2    4.06    3.90
  -9  -1  -2   33.67    6.06
  -8  -1  -2    4.10    2.88
  -7  -1  -2   17.78    2.63
  -6  -1  -2   15.85    2.43
  -5  -1  -2  298.27    6.53
  -4  -1  -2   40.54    2.53
  -3  -1  -2  267.32    4.79
  -2  -1  -2   81.60    2.48
  -1  -1  -2  192.36    4.22
   0  -1  -2   41.58    2.34
   1  -1  -2   46.48    3.03
   2  -1  -2  194.78    5.61
   3  -1  -2  255.24    6.07
   4  -1  -2  126.50    4.55
   5  -1  -2   59.51    4.64
   6  -1  -2  172.33    6.98
   7  -1  -2  106.30    6.21
   8  -1  -2   39.67    6.39
   9  -1  -2   61.39    8.05
  10  -1  -2   13.68    3.82
  11  -1  -2   -1.35    2.79
  12  -1  -2   89.94   11.85
  13  -1  -2    1.36    4.19
 -12   0  -2   17.35    6.07
 -11   0  -2   16.33    5.34
 -10   0  -2   98.29   10.47
  -9   0  -2   67.77    8.24
  -8   0  -2  118.28    7.72
  -7   0  -2   71.41    5.52
  -6   0  -2   17.65    2.44
  -5   0  -2    1.74    0.82
  -4   0  -2  110.92    3.17
  -3   0  -2   40.82    2.20
  -2   0  -2  418.68    5.45
  -1   0  -2   43.57    2.22
   0   0  -2  852.69   11.54
   1   0  -2   43.87    2.94
   2   0  -2  425.10    8.51
   3   0  -2   50.82    3.77
   4   0  -2  109.19    5.09
   5   0  -2    4.44    1.61
   6   0  -2   20.01    3.04
   7   0  -2   74.35    5.89
   8   0  -2  103.46    9.88
   9   0  -2   63.26    8.62
  10   0  -2  117.00   12.30
  11   0  -2    7.04    3.52
  12   0  -2    7.99    4.70
  13   0  -2   -2.37    5.60
 -13   1  -2    1.37    5.29
 -12   1  -2   77.02   11.41
 -11   1  -2    4.65    3.81
 -10   1  -2   20.06    5.26
  -9   1  -2   67.15    6.26
  -8   1  -2   47.14    5.00
  -7   1  -2  103.72    6.92
  -6   1  -2  169.78    5.28
  -5   1  -2   58.10    3.65
  -4   1  -2  119.84    3.42
  -3   1  -2  251.44    4.66
  -2   1  -2  199.13    3.74
  -1   1  -2   43.46    1.76
   0   1  -2   44.79    1.83
   1   1  -2  199.24    5.06
   2   1  -2   88.74    4.26
   3   1  -2  266.17    7.25
   4   1  -2   46.78    4.13
   5   1  -2  323.82    9.32
   6   1  -2   18.72    3.18
   7   1  -2   14.59    3.21
   8   1  -2    5.52    2.31
   9   1  -2   23.80    5.99
  10   1  -2    8.96    4.20
  11   1  -2    6.04    4.87
  12   1  -2    6.54    4.24
 -14   2  -2   17.22   10.52
 -13   2  -2   17.36    6.95
 -12   2  -2   10.76    5.55
 -11   2  -2   42.98    8.37
 -10   2  -2   85.45    7.93
  -9   2  -2   79.58    7.08
  -8   2  -2   27.25    4.15
  -7   2  -2  209.85    8.22
  -6   2  -2   13.40    1.96
  -5   2  -2    5.92    1.37
  -4   2  -2  236.46    5.17
  -3   2  -2   80.48    2.94
  -2   2  -2  416.57    6.78
  -1   2  -2  191.07    5.15
   0   2  -2  431.35    6.32
   1   2  -2  258.77    5.18
   2   2  -2  242.47    6.63
   3   2  -2   71.34    4.78
   4   2  -2   11.11    2.30
   5   2  -2   22.14    3.34
   6   2  -2   35.23    4.46
   7   2  -2    7.39    2.48
   8   2  -2   33.66    4.82
   9   2  -2    0.72    2.78
  10   2  -2  120.47   13.38
  11   2  -2    4.33    4.68
  12   2  -2    0.18    7.88
 -14   3  -2   38.06    9.19
 -13   3  -2    2.79    4.76
 -12   3  -2   40.51    8.04
 -11   3  -2   10.34    3.69
 -10   3  -2   14.97    3.74
  -9   3  -2   48.08    5.71
  -8   3  -2   26.90    4.16
  -7   3  -2  118.94    7.69
  -6   3  -2  148.93    4.84
  -5   3  -2   63.93    4.28
  -4   3  -2  259.90    8.32
  -3   3  -2   35.90    3.17
  -2   3  -2  256.60    5.26
  -1   3  -2   85.92    3.72
   0   3  -2   40.29    3.14
   1   3  -2  120.73    3.78
   2   3  -2   10.57    1.97
   3   3  -2  139.97    5.90
   4   3  -2  104.65    6.72
   5   3  -2  114.35    7.62
   6   3  -2  161.91    9.61
   7   3  -2   79.47    7.19
   8   3  -2   21.43    4.07
   9   3  -2    8.12    4.20
  10   3  -2    0.24    3.80
  11   3  -2   45.23    9.70
 -14   4  -2    6.57    5.57
 -13   4  -2   33.94    7.92
 -12   4  -2    5.17    3.33
 -11   4  -2  313.29   13.06
 -10   4  -2    4.37    2.64
  -9   4  -2   68.25    6.96
  -8   4  -2   31.84    4.33
  -7   4  -2  109.49    9.22
  -6   4  -2    7.63    1.67
  -5   4  -2   47.14    3.99
  -4   4  -2  111.88    4.79
  -3   4  -2  127.10    4.96
  -2   4  -2  239.70    5.98
  -1   4  -2  269.15    6.80
   0   4  -2  128.83    4.70
   1   4  -2   56.40    3.88
   2   4  -2   18.87    2.83
   3   4  -2  122.68    6.62
   4   4  -2   33.95    4.22
   5   4  -2   34.46    4.53
   6   4  -2   84.78    7.36
   7   4  -2   52.51    6.37
   8   4  -2   25.08    5.01
   9   4  -2   10.16    5.20
  10   4  -2   -2.41    4.14
 -14   5  -2   40.24    9.33
 -13   5  -2   28.09    5.93
 -12   5  -2    3.41    3.00
 -11   5  -2    0.24    2.61
 -10   5  -2   40.62    5.68
  -9   5  -2   38.24    5.29
  -8   5  -2  103.37    7.81
  -7   5  -2   22.66    4.36
  -6   5  -2  299.19    8.31
  -5   5  -2    2.60    1.31
  -4   5  -2   51.53    4.20
  -3   5  -2   11.13    1.47
  -2   5  -2   68.26    3.81
  -1   5  -2   51.26    3.86
   0   5  -2    5.67    1.60
   1   5  -2  169.84    5.71
   2   5  -2  238.29   10.62
   3   5  -2   22.51    3.51
   4   5  -2   73.71    6.50
   5   5  -2   41.02    5.25
   6   5  -2   59.22    6.76
   7   5  -2    0.05    2.52
   8   5  -2   49.50    6.90
   9   5  -2   -1.63    3.41
 -14   6  -2    4.73    4.19
 -13   6  -2   44.35    6.93
 -12   6  -2   42.40    6.63
 -11   6  -2   52.26    6.75
 -10   6  -2   69.91    7.18
  -9   6  -2  149.57   12.56
  -8   6  -2   20.63    4.68
  -7   6  -2   21.89    4.65
  -6   6  -2   18.27    2.90
  -5   6  -2  176.79    6.63
  -4   6  -2   10.83    2.21
  -3   6  -2  136.06    4.93
  -2   6  -2   11.24    1.98
  -1   6  -2  305.92    8.27
   0   6  -2   22.88    2.90
   1   6  -2   90.72    8.20
   2   6  -2   34.99    5.67
   3   6  -2   51.55    5.51
   4   6  -2    3.16    2.15
   5   6  -2    1.58    2.26
   6   6  -2   28.74    4.97
   7   6  -2   26.72    5.36
   8   6  -2   22.16    5.46
   9   6  -2   19.87   10.08
 -15   7  -2   40.59   11.98
 -14   7  -2   -0.04    3.82
 -13   7  -2   23.88    5.87
 -12   7  -2    2.97    3.34
 -11   7  -2   85.70   10.72
 -10   7  -2   74.23    9.39
  -9   7  -2    4.43    3.07
  -8   7  -2   17.00    4.47
  -7   7  -2   71.73    7.90
  -6   7  -2   96.37    6.55
  -5   7  -2  212.05    7.66
  -4   7  -2  136.26    6.35
  -3   7  -2   99.59    5.16
  -2   7  -2   18.40    2.74
  -1   7  -2   12.56    2.20
   0   7  -2   72.00    7.43
   1   7  -2   48.89    6.42
   2   7  -2   55.40    7.18
   3   7  -2   12.78    2.95
   4   7  -2  301.85   12.03
   5   7  -2    4.95    2.89
   6   7  -2   53.68    7.16
   7   7  -2    0.97    3.68
   8   7  -2   52.83   12.93
 -15   8  -2   39.14   12.71
 -14   8  -2   46.84    9.26
 -13   8  -2   39.50    8.34
 -12   8  -2   33.55    7.65
 -11   8  -2   38.52    7.35
 -10   8  -2   25.82    5.99
  -9   8  -2    1.83    2.68
  -8   8  -2  111.09   10.70
  -7   8  -2   57.07    7.34
  -6   8  -2   32.74    4.07
  -5   8  -2   32.80    4.08
  -4   8  -2   35.72    5.16
  -3   8  -2  118.68    6.68
  -2   8  -2   29.90    3.67
  -1   8  -2   20.89    4.38
   0   8  -2  117.71   10.04
   1   8  -2   70.22    8.51
   2   8  -2   92.63   10.03
   3   8  -2    8.96    3.05
   4   8  -2    3.63    2.90
   5   8  -2   18.20    4.56
   6   8  -2    7.23    4.00
   7   8  -2   35.42    7.80
 -15   9  -2   36.69   20.39
 -14   9  -2    2.49    5.52
 -13   9  -2   19.25    6.10
 -12   9  -2    6.37    4.51
 -11   9  -2    0.83    3.37
 -10   9  -2   24.25    6.01
  -9   9  -2   62.16    8.62
  -8   9  -2   57.06    7.52
  -7   9  -2   60.91    7.53
  -6   9  -2   44.82    5.02
  -5   9  -2   67.32    7.36
  -4   9  -2   50.29    6.48
  -3   9  -2  143.94    9.03
  -2   9  -2   15.58    3.91
  -1   9  -2    0.75    2.57
   0   9  -2   69.45    8.54
   1   9  -2   24.64    5.64
   2   9  -2   35.44    6.86
   3   9  -2   21.37    4.57
   4   9  -2   36.19    6.13
   5   9  -2   49.30   10.03
   6   9  -2   23.91   11.49
 -14  10  -2    1.72    5.26
 -13  10  -2    4.37    4.45
 -12  10  -2   94.06   12.34
 -11  10  -2    5.21    4.40
 -10  10  -2  114.67   12.43
  -9  10  -2   23.81    5.69
  -8  10  -2   97.25   10.07
  -7  10  -2   14.30    4.12
  -6  10  -2    7.42    3.16
  -5  10  -2   38.67    6.01
  -4  10  -2   71.09    7.83
  -3  10  -2   78.85   13.13
  -2  10  -2   54.79   11.44
  -1  10  -2   31.50    6.07
   0  10  -2  119.35   11.60
   1  10  -2    6.40    3.80
   2  10  -2    5.95    4.39
   3  10  -2    6.57    4.73
   4  10  -2    9.32    5.58
 -14  11  -2   39.95    9.20
 -13  11  -2   11.78    5.98
 -12  11  -2    3.42    4.86
 -11  11  -2   13.09    5.22
 -10  11  -2    2.05    3.44
  -9  11  -2   31.15    6.77
  -8  11  -2    3.49    4.88
  -7  11  -2  327.09   21.66
  -6  11  -2    5.69    3.29
  -5  11  -2   68.36    8.32
  -4  11  -2   70.70   12.24
  -3  11  -2   29.51    8.88
  -2  11  -2   -1.08    3.96
  -1  11  -2    4.62    5.37
   0  11  -2   10.26    7.27
   1  11  -2   81.91   10.83
   2  11  -2   37.30    8.22
   3  11  -2   55.92   10.35
 -14  12  -2   13.55    9.72
 -13  12  -2    0.34    4.36
 -12  12  -2    8.70    5.77
 -11  12  -2   69.56   15.13
 -10  12  -2    3.91    6.53
  -9  12  -2   31.17   10.42
  -8  12  -2   13.53    6.63
  -7  12  -2    0.82    3.83
  -6  12  -2   28.20    9.10
  -5  12  -2   -0.37    4.36
  -4  12  -2   39.41   10.17
  -3  12  -2    4.18    5.57
  -2  12  -2  110.88   18.99
  -1  12  -2    6.51    7.51
   0  12  -2   16.67    8.75
   1  12  -2   -2.59    5.47
 -12  13  -2    2.99    6.73
 -11  13  -2   22.97    9.66
 -10  13  -2   16.07    7.69
  -9  13  -2   36.43   10.59
  -8  13  -2   26.67    9.36
  -5  13  -2   45.39   12.03
  -4  13  -2   32.44   10.83
  -3  13  -2    2.36    5.78
  -2  13  -2   -1.39    5.63
  -1  13  -2    9.11    7.83
 -11  14  -2   51.71   13.20
 -10  14  -2    7.91    7.67
  -9  14  -2   36.49   11.57
  -5  14  -2    3.69    6.38
  -4  14  -2   -0.79    6.38
  -3  14  -2    9.39    8.11
  -5  15  -2   -5.11    7.14
   4 -15  -1   -2.98    7.31
   5 -15  -1    3.25    6.85
   6 -15  -1   70.67   13.39
   7 -15  -1   16.37    7.95
   8 -15  -1   64.00   13.21
   9 -15  -1   -0.83    6.51
  10 -15  -1    1.29    6.96
  11 -15  -1   21.95   11.87
   2 -14  -1   41.84   10.16
   3 -14  -1   64.14   13.46
   4 -14  -1   63.35   12.69
   5 -14  -1   16.89    7.75
   6 -14  -1    4.41    5.59
   7 -14  -1   26.42    9.34
   8 -14  -1    3.97    6.24
   9 -14  -1   -2.30    5.51
  10 -14  -1   15.04    7.57
  11 -14  -1   43.05   11.03
  12 -14  -1   10.58    7.53
   0 -13  -1   -2.02    5.40
   1 -13  -1    0.69    4.92
   2 -13  -1   15.67    7.23
   3 -13  -1    6.14    4.79
   4 -13  -1   16.92    7.15
   5 -13  -1    0.78    4.25
   6 -13  -1   -3.99    3.25
   7 -13  -1   59.30   11.54
   8 -13  -1   14.83    7.48
   9 -13  -1   66.75   12.21
  10 -13  -1    4.15    5.22
  11 -13  -1    3.93    5.37
  12 -13  -1   13.42    7.34
  13 -13  -1    2.65    6.20
  -2 -12  -1    5.08    5.34
  -1 -12  -1   24.57    8.41
   0 -12  -1   63.42   11.54
   1 -12  -1   52.39   10.51
   2 -12  -1    1.32    3.24
   3 -12  -1   -1.85    2.63
   4 -12  -1   91.58    9.47
   5 -12  -1    6.67    4.49
   6 -12  -1   13.82    6.39
   7 -12  -1   17.88    6.73
   8 -12  -1    5.08    5.01
   9 -12  -1   29.90    8.95
  10 -12  -1    0.87    4.17
  11 -12  -1   -0.11    4.22
  12 -12  -1   61.31   14.64
  13 -12  -1   11.65    6.67
  14 -12  -1   11.71    6.77
  -3 -11  -1   51.64   11.80
  -2 -11  -1    4.53    5.42
  -1 -11  -1   -0.82    4.37
   0 -11  -1   19.99    6.86
   1 -11  -1   18.61    4.81
   2 -11  -1   67.06    8.20
   3 -11  -1   58.45    6.84
   4 -11  -1   50.38    6.76
   5 -11  -1  140.85   11.04
   6 -11  -1   13.13    5.34
   7 -11  -1    2.53    3.49
   8 -11  -1    0.18    3.64
   9 -11  -1  108.56   17.76
  10 -11  -1    9.14    5.04
  11 -11  -1   13.95    5.79
  12 -11  -1   53.78   12.95
  13 -11  -1    4.63    5.54
  14 -11  -1   80.83   17.78
  -4 -10  -1   16.96    7.31
  -3 -10  -1   -0.18    4.11
  -2 -10  -1   -0.01    3.24
  -1 -10  -1   13.81    5.46
   0 -10  -1  108.11   10.24
   1 -10  -1    8.06    3.15
   2 -10  -1  171.28   11.89
   3 -10  -1    2.36    2.24
   4 -10  -1    3.62    2.59
   5 -10  -1   26.03    4.78
   6 -10  -1    6.17    2.95
   7 -10  -1    3.91    4.09
   8 -10  -1   26.71    8.70
   9 -10  -1   -0.94    2.95
  10 -10  -1  132.94   18.81
  11 -10  -1    9.21    5.61
  12 -10  -1   -0.38    4.15
  13 -10  -1   13.04    6.10
  14 -10  -1   49.89   13.27
  15 -10  -1   -0.22    6.01
  -6  -9  -1   -0.60    5.55
  -5  -9  -1    0.99    4.17
  -4  -9  -1   53.71   10.43
  -3  -9  -1   24.43    7.27
  -2  -9  -1   91.46   12.45
  -1  -9  -1    0.73    2.91
   0  -9  -1    2.94    2.46
   1  -9  -1   45.32    5.94
   2  -9  -1   15.04    3.43
   3  -9  -1    1.68    2.11
   4  -9  -1    0.52    1.82
   5  -9  -1  181.56    9.42
   6  -9  -1   37.82    5.14
   7  -9  -1  212.28   10.87
   8  -9  -1    2.66    3.39
   9  -9  -1    2.20    2.80
  10  -9  -1    5.40    3.30
  11  -9  -1   57.60    9.56
  12  -9  -1   -0.78    3.75
  13  -9  -1    5.36    4.83
  14  -9  -1    5.02    5.36
  15  -9  -1   61.80   15.04
  -7  -8  -1   50.35   11.45
  -6  -8  -1    3.60    4.09
  -5  -8  -1   18.91    5.11
  -4  -8  -1    4.74    3.45
  -3  -8  -1    4.38    2.87
  -2  -8  -1   21.57    4.49
  -1  -8  -1    9.96    2.60
   0  -8  -1    7.33    2.16
   1  -8  -1  183.36    7.08
   2  -8  -1   56.00    4.62
   3  -8  -1  199.39    7.85
   4  -8  -1   68.29    4.83
   5  -8  -1    3.70    1.65
   6  -8  -1    0.64    1.42
   7  -8  -1   40.73    4.52
   8  -8  -1    4.15    2.14
   9  -8  -1   41.67    6.59
  10  -8  -1  158.98   13.26
  11  -8  -1   60.40    8.57
  12  -8  -1  107.00   11.94
  13  -8  -1   -0.02    2.97
  14  -8  -1   10.28    4.56
  15  -8  -1    8.39    5.36
  -8  -7  -1    7.91    4.88
  -7  -7  -1   18.62    5.39
  -6  -7  -1   68.15    9.02
  -5  -7  -1    5.56    3.30
  -4  -7  -1   -0.86    2.16
  -3  -7  -1    7.46    2.84
  -2  -7  -1  180.49    8.88
  -1  -7  -1   26.16    3.61
   0  -7  -1  134.09    6.57
   1  -7  -1  131.79    6.24
   2  -7  -1   24.43    2.89
   3  -7  -1  201.44    6.35
   4  -7  -1    2.72    1.32
   5  -7  -1   11.78    2.29
   6  -7  -1  262.47    8.41
   7  -7  -1  137.67    6.72
   8  -7  -1  192.73    8.00
   9  -7  -1   19.35    3.52
  10  -7  -1    1.40    3.12
  11  -7  -1   61.66   12.34
  12  -7  -1    2.11    3.98
  13  -7  -1   -2.15    4.14
  14  -7  -1    7.52    5.85
  15  -7  -1   37.43   13.37
  -9  -6  -1   43.52   11.65
  -8  -6  -1    3.17    3.70
  -7  -6  -1    2.94    3.15
  -6  -6  -1   18.60    4.80
  -5  -6  -1    8.01    3.32
  -4  -6  -1    5.63    2.81
  -3  -6  -1   21.36    3.85
  -2  -6  -1    1.79    1.55
  -1  -6  -1  247.04    7.91
   0  -6  -1   48.48    4.10
   1  -6  -1    5.62    1.56
   2  -6  -1  156.17    5.23
   3  -6  -1  302.19    7.21
   4  -6  -1   52.68    4.00
   5  -6  -1   22.35    2.72
   6  -6  -1   48.99    4.32
   7  -6  -1  135.67    6.46
   8  -6  -1   49.92    6.10
   9  -6  -1   -0.37    2.01
  10  -6  -1    3.66    2.73
  11  -6  -1  121.44   17.68
  12  -6  -1   11.68    4.62
  13  -6  -1   42.14   10.83
  14  -6  -1   -0.27    4.70
  15  -6  -1    0.72    5.72
 -10  -5  -1    8.14    8.91
  -9  -5  -1    7.53    6.02
  -8  -5  -1    2.36    3.18
  -7  -5  -1    3.09    2.84
  -6  -5  -1  127.20   10.78
  -5  -5  -1   19.38    4.21
  -4  -5  -1  208.20    9.62
  -3  -5  -1    4.02    2.08
  -2  -5  -1   16.56    2.68
  -1  -5  -1   25.02    2.87
   0  -5  -1  183.35    5.66
   1  -5  -1   18.94    2.21
   2  -5  -1   65.90    3.32
   3  -5  -1   97.72    3.90
   4  -5  -1  397.51    8.71
   5  -5  -1  188.62    5.04
   6  -5  -1    6.30    2.43
   7  -5  -1   24.78    3.83
   8  -5  -1  203.52   10.10
   9  -5  -1    0.83    1.96
  10  -5  -1   22.70    4.98
  11  -5  -1    5.56    3.13
  12  -5  -1    4.28    4.19
  13  -5  -1    9.57    5.56
  14  -5  -1    0.13    5.06
  15  -5  -1   -0.63    8.79
 -10  -4  -1   35.08   10.38
  -9  -4  -1   20.77    7.81
  -8  -4  -1   91.72    9.91
  -7  -4  -1   51.29    7.37
  -6  -4  -1    5.60    2.98
  -5  -4  -1    0.24    1.55
  -4  -4  -1   77.91    4.78
  -3  -4  -1    0.52    1.00
  -2  -4  -1   50.08    2.77
  -1  -4  -1  393.90    8.36
   0  -4  -1  166.85    4.78
   1  -4  -1  427.99    7.45
   2  -4  -1   15.52    1.44
   3  -4  -1   12.86    1.46
   4  -4  -1  164.01    5.05
   5  -4  -1   20.74    2.25
   6  -4  -1  173.19    5.11
   7  -4  -1  186.97    9.14
   8  -4  -1   67.52    7.18
   9  -4  -1  214.77   10.86
  10  -4  -1    4.92    2.86
  11  -4  -1    3.76    2.86
  12  -4  -1    4.31    3.33
  13  -4  -1   66.14   14.84
  14  -4  -1    5.41    5.98
 -11  -3  -1   56.73   12.64
 -10  -3  -1   30.54    9.30
  -9  -3  -1    1.00    4.15
  -8  -3  -1   70.54   11.47
  -7  -3  -1    3.21    2.17
  -6  -3  -1    1.03    1.63
  -5  -3  -1  190.73    7.06
  -4  -3  -1  201.90    6.54
  -3  -3  -1  298.66    6.54
  -2  -3  -1   95.93    3.42
  -1  -3  -1   12.37    1.28
   0  -3  -1  185.79    4.05
   1  -3  -1   21.13    1.48
   2  -3  -1   43.50    2.01
   3  -3  -1  184.81    5.07
   4  -3  -1  425.41    7.78
   5  -3  -1   74.41    3.52
   6  -3  -1  304.74    7.01
   7  -3  -1    4.93    2.38
   8  -3  -1    3.08    1.92
   9  -3  -1   21.26    4.64
  10  -3  -1    2.20    2.74
  11  -3  -1    1.07    2.75
  12  -3  -1   10.17    4.19
  13  -3  -1   -0.11    3.40
  14  -3  -1   43.28   14.08
 -12  -2  -1   63.20   14.04
 -11  -2  -1    7.02    6.54
 -10  -2  -1    3.16    4.68
  -9  -2  -1   44.36    6.97
  -8  -2  -1  177.89   12.37
  -7  -2  -1   24.33    3.85
  -6  -2  -1   41.71    4.42
  -5  -2  -1   24.93    2.41
  -4  -2  -1  173.46    4.67
  -3  -2  -1   71.53    2.74
  -2  -2  -1   15.31    1.37
  -1  -2  -1   44.11    1.88
   0  -2  -1  516.33    6.41
   1  -2  -1  127.66    3.38
   2  -2  -1  531.64    7.75
   3  -2  -1   22.01    1.95
   4  -2  -1   13.77    1.65
   5  -2  -1   97.21    4.24
   6  -2  -1   49.40    3.64
   7  -2  -1   12.65    2.13
   8  -2  -1    2.63    2.17
   9  -2  -1  212.90   12.66
  10  -2  -1   39.01    6.63
  11  -2  -1  121.19   12.52
  12  -2  -1   -2.02    3.10
  13  -2  -1   -2.02    3.35
  14  -2  -1   -0.33    5.89
 -12  -1  -1    2.60    6.02
 -11  -1  -1   44.31    7.92
 -10  -1  -1   18.79    5.32
  -9  -1  -1   10.75    3.85
  -8  -1  -1   48.87    6.71
  -7  -1  -1  183.73    9.34
  -6  -1  -1  122.83    5.06
  -5  -1  -1    8.24    1.53
  -4  -1  -1   23.25    2.16
  -3  -1  -1  425.00    6.17
  -2  -1  -1   22.75    1.42
  -1  -1  -1  126.27    2.29
   0  -1  -1   40.43    1.39
   1  -1  -1   42.31    1.75
   2  -1  -1  132.32    3.45
   3  -1  -1   45.68    2.71
   4  -1  -1   13.99    1.84
   5  -1  -1  379.89    8.60
   6  -1  -1   21.46    2.76
   7  -1  -1  259.89    8.10
   8  -1  -1   33.28    5.78
   9  -1  -1    8.67    3.34
  10  -1  -1    2.09    2.53
  11  -1  -1    4.68    2.91
  12  -1  -1    0.65    3.53
  13  -1  -1   10.06    5.19
  14  -1  -1   53.53   15.68
 -13   0  -1    2.03    5.03
 -12   0  -1   51.76    8.72
 -11   0  -1   37.10    7.24
 -10   0  -1  117.74   11.18
  -9   0  -1    3.60    2.85
  -8   0  -1    4.90    2.18
  -7   0  -1  135.67    6.62
  -6   0  -1   46.35    4.01
  -5   0  -1  185.75    5.18
  -4   0  -1  170.30    4.46
  -3   0  -1  181.01    3.34
  -2   0  -1  523.88    5.52
  -1   0  -1   42.96    1.34
   0   0  -1    0.51    0.41
   1   0  -1   40.82    2.06
   2   0  -1  533.71    8.51
   3   0  -1  184.81    5.10
   4   0  -1  167.54    5.34
   5   0  -1  181.57    6.11
   6   0  -1   49.21    4.24
   7   0  -1  135.52    6.84
   8   0  -1    4.46    2.73
   9   0  -1   11.35    4.16
  10   0  -1  121.15   12.19
  11   0  -1   12.95    4.41
  12   0  -1   55.78    9.29
  13   0  -1    0.69    4.51
 -14   1  -1   50.80   16.31
 -13   1  -1   18.80    6.73
 -12   1  -1    1.48    4.05
 -11   1  -1   12.78    4.78
 -10   1  -1    2.70    2.96
  -9   1  -1   11.51    3.08
  -8   1  -1   30.94    4.52
  -7   1  -1  248.16    8.08
  -6   1  -1   22.40    2.96
  -5   1  -1  381.81    8.66
  -4   1  -1   14.69    1.49
  -3   1  -1   38.98    2.17
  -2   1  -1  130.00    2.78
  -1   1  -1   41.08    1.59
   0   1  -1   45.27    1.99
   1   1  -1  134.27    3.53
   2   1  -1   21.86    2.13
   3   1  -1  421.79    8.74
   4   1  -1   15.20    2.18
   5   1  -1    7.50    1.84
   6   1  -1  129.80    6.76
   7   1  -1  189.80    7.90
   8   1  -1   39.60    6.61
   9   1  -1    4.83    3.39
  10   1  -1   18.63    5.75
  11   1  -1   40.02    7.88
  12   1  -1    5.47    4.48
 -14   2  -1   -0.92    5.38
 -13   2  -1    2.57    5.08
 -12   2  -1   -1.90    3.47
 -11   2  -1  111.58   12.69
 -10   2  -1   34.91    4.55
  -9   2  -1  204.50    9.08
  -8   2  -1   -0.88    1.39
  -7   2  -1    9.84    2.33
  -6   2  -1   45.99    3.91
  -5   2  -1   97.48    3.23
  -4   2  -1   17.03    1.58
  -3   2  -1   17.95    1.57
  -2   2  -1  528.71   10.05
  -1   2  -1  127.30    2.84
   0   2  -1  538.47    7.93
   1   2  -1   45.62    2.20
   2   2  -1   16.05    2.01
   3   2  -1   72.01    4.53
   4   2  -1  166.39    6.26
   5   2  -1   26.27    3.34
   6   2  -1   60.23    5.34
   7   2  -1   24.45    3.90
   8   2  -1  165.56   10.36
   9   2  -1   60.51    8.84
  10   2  -1    1.73    3.67
  11   2  -1    6.77    5.08
  12   2  -1   36.17    8.68
 -14   3  -1   48.53   10.19
 -13   3  -1    6.54    4.79
 -12   3  -1   18.81    5.97
 -11   3  -1    1.89    2.77
 -10   3  -1    7.00    3.03
  -9   3  -1   34.08    4.65
  -8   3  -1    1.93    1.80
  -7   3  -1    1.68    1.45
  -6   3  -1  319.32   10.95
  -5   3  -1   78.03    5.32
  -4   3  -1  418.79    7.82
  -3   3  -1  177.28    4.80
  -2   3  -1   41.97    1.83
  -1   3  -1   19.01    1.79
   0   3  -1  202.24    5.43
   1   3  -1   15.05    1.55
   2   3  -1   88.84    5.55
   3   3  -1  288.67   10.41
   4   3  -1  199.45    7.37
   5   3  -1  190.86    7.82
   6   3  -1    0.08    1.65
   7   3  -1    2.55    2.12
   8   3  -1   59.18    6.26
   9   3  -1    2.38    3.27
  10   3  -1   27.07    7.19
  11   3  -1   49.50    9.21
 -14   4  -1   16.91    6.75
 -13   4  -1   70.73   10.22
 -12   4  -1    1.56    2.86
 -11   4  -1    6.82    3.06
 -10   4  -1    7.23    2.91
  -9   4  -1  209.10    9.08
  -8   4  -1   79.18    6.67
  -7   4  -1  205.69    8.05
  -6   4  -1  174.94    6.83
  -5   4  -1   20.82    1.96
  -4   4  -1  159.79    4.97
  -3   4  -1   14.78    1.26
  -2   4  -1   15.25    1.48
  -1   4  -1  436.34    8.06
   0   4  -1  178.16    4.74
   1   4  -1  392.77    7.31
   2   4  -1   49.85    5.37
   3   4  -1    3.19    2.00
   4   4  -1   61.58    5.39
   5   4  -1    0.04    1.61
   6   4  -1    3.89    2.23
   7   4  -1   52.12    6.16
   8   4  -1   92.67    8.60
   9   4  -1   24.82    6.59
  10   4  -1   43.93    8.83
 -14   5  -1    7.86    5.52
 -13   5  -1   41.95    7.08
 -12   5  -1   13.91    4.20
 -11   5  -1   15.75    4.09
 -10   5  -1   22.31    4.39
  -9   5  -1   -0.46    1.87
  -8   5  -1  183.76    8.68
  -7   5  -1   23.12    3.54
  -6   5  -1    8.29    1.61
  -5   5  -1  184.42    5.78
  -4   5  -1  387.66    8.59
  -3   5  -1   93.98    3.22
  -2   5  -1   73.68    3.78
  -1   5  -1   23.48    2.43
   0   5  -1  192.20    5.41
   1   5  -1   20.54    2.06
   2   5  -1   13.86    3.20
   3   5  -1    0.63    1.81
   4   5  -1  199.86   10.64
   5   5  -1   28.13    4.40
   6   5  -1  128.01    9.22
   7   5  -1    7.28    3.25
   8   5  -1    1.40    2.86
   9   5  -1    8.34    5.22
  10   5  -1    4.26    6.85
 -15   6  -1   -3.39    5.10
 -14   6  -1    0.90    3.48
 -13   6  -1   60.70    8.00
 -12   6  -1   16.21    4.41
 -11   6  -1  126.23   10.37
 -10   6  -1    5.25    2.54
  -9   6  -1    0.90    1.95
  -8   6  -1   46.70    5.46
  -7   6  -1  120.60    9.43
  -6   6  -1   40.55    3.62
  -5   6  -1   20.14    2.64
  -4   6  -1   49.11    2.95
  -3   6  -1  314.54    6.49
  -2   6  -1  175.47    5.67
  -1   6  -1    5.84    1.56
   0   6  -1   42.29    3.44
   1   6  -1  255.91   10.63
   2   6  -1    1.55    2.11
   3   6  -1   26.43    5.02
   4   6  -1    7.98    3.43
   5   6  -1   11.05    3.46
   6   6  -1   20.05    4.03
   7   6  -1    0.37    2.73
   8   6  -1    2.53    3.34
   9   6  -1   60.35   10.65
 -15   7  -1   59.11    8.82
 -14   7  -1   21.35    5.92
 -13   7  -1    1.36    3.20
 -12   7  -1    6.11    3.38
 -11   7  -1   44.12    6.35
 -10   7  -1    3.67    2.83
  -9   7  -1   16.89    4.53
  -8   7  -1  164.56   12.08
  -7   7  -1  116.13    9.65
  -6   7  -1  255.96    7.92
  -5   7  -1   15.74    1.88
  -4   7  -1    1.58    1.01
  -3   7  -1  204.93    6.58
  -2   7  -1   25.08    3.06
  -1   7  -1  130.22    5.53
   0   7  -1  133.52    8.54
   1   7  -1   23.38    4.40
   2   7  -1  205.30   11.00
   3   7  -1   -1.46    2.01
   4   7  -1    0.38    2.48
   5   7  -1   10.00    3.48
   6   7  -1   79.60    8.26
   7   7  -1   22.53    5.32
   8   7  -1    6.40    4.91
 -15   8  -1    6.62    4.81
 -14   8  -1    2.07    3.83
 -13   8  -1    0.93    3.16
 -12   8  -1   88.60   11.23
 -11   8  -1   65.12    9.46
 -10   8  -1  137.78   12.62
  -9   8  -1   35.20    6.25
  -8   8  -1    4.69    2.91
  -7   8  -1   29.32    5.25
  -6   8  -1    1.11    1.50
  -5   8  -1    2.35    1.57
  -4   8  -1   70.79    4.32
  -3   8  -1  196.56    7.02
  -2   8  -1   53.74    4.58
  -1   8  -1  194.80    9.76
   0   8  -1    3.91    2.69
   1   8  -1   10.80    3.55
   2   8  -1   37.33    6.41
   3   8  -1   -0.91    2.42
   4   8  -1    2.45    3.30
   5   8  -1   23.06    4.96
   6   8  -1    1.93    3.25
   7   8  -1   45.43    7.40
 -15   9  -1   76.19   12.91
 -14   9  -1   11.71    6.04
 -13   9  -1   27.96    7.29
 -12   9  -1    0.66    3.69
 -11   9  -1   50.15    8.09
 -10   9  -1   14.10    4.80
  -9   9  -1    8.30    3.84
  -8   9  -1    6.49    3.07
  -7   9  -1  218.14   11.03
  -6   9  -1   22.83    3.45
  -5   9  -1  223.50    8.50
  -4   9  -1    1.53    1.78
  -3   9  -1    2.11    1.56
  -2   9  -1   24.25    4.58
  -1   9  -1   35.53    5.66
   0   9  -1    2.08    2.45
   1   9  -1    1.16    2.63
   2   9  -1   99.41   10.95
   3   9  -1   25.24    6.03
   4   9  -1   50.09    8.76
   5   9  -1    4.38    3.60
   6   9  -1    3.33    3.68
 -15  10  -1   11.70    6.46
 -14  10  -1   69.90   11.07
 -13  10  -1   35.14    8.11
 -12  10  -1    0.76    4.04
 -11  10  -1   18.33    6.23
 -10  10  -1  125.00   12.52
  -9  10  -1    7.11    3.62
  -8  10  -1   21.88    5.08
  -7  10  -1    7.60    4.74
  -6  10  -1    4.15    2.88
  -5  10  -1   20.44    4.49
  -4  10  -1    2.80    2.70
  -3  10  -1    7.64    3.46
  -2  10  -1  156.44   10.41
  -1  10  -1   11.66    4.01
   0  10  -1  129.29   11.90
   1  10  -1    9.88    4.33
   2  10  -1   -3.78    2.86
   3  10  -1    2.38    3.94
   4  10  -1   22.59    5.13
   5  10  -1    4.08    4.06
 -14  11  -1   54.64   10.63
 -13  11  -1    6.88    4.91
 -12  11  -1   46.72    8.59
 -11  11  -1   19.24    6.06
 -10  11  -1    8.62    4.47
  -9  11  -1  104.51   16.18
  -8  11  -1    0.28    4.41
  -7  11  -1    2.53    3.94
  -6  11  -1   13.06    4.20
  -5  11  -1  147.10   11.80
  -4  11  -1   48.02   10.60
  -3  11  -1   53.34   11.64
  -2  11  -1   56.66    8.55
  -1  11  -1   19.41    5.34
   0  11  -1   23.06    5.93
   1  11  -1   11.85    4.88
   2  11  -1    2.97    4.40
   3  11  -1   44.10    9.11
   4  11  -1   14.84    8.55
 -14  12  -1   55.37   11.59
 -13  12  -1    4.50    5.15
 -12  12  -1   63.10   14.75
 -11  12  -1    6.22    6.33
 -10  12  -1    0.59    4.97
  -9  12  -1   21.22    8.64
  -8  12  -1    1.20    5.07
  -7  12  -1    5.32    4.81
  -6  12  -1   14.20    4.55
  -5  12  -1    6.98    4.92
  -4  12  -1   88.59   15.40
  -3  12  -1   -0.88    4.69
  -2  12  -1    1.47    5.36
  -1  12  -1   44.21   12.08
   0  12  -1   53.17    8.89
   1  12  -1   16.43    6.32
   2  12  -1    7.84    6.38
 -13  13  -1   13.53    8.82
 -12  13  -1    9.73    8.52
 -11  13  -1    4.07    6.88
 -10  13  -1    2.05    5.28
  -9  13  -1   75.00   15.39
  -8  13  -1    8.75    6.26
  -6  13  -1    3.16    5.31
  -5  13  -1   -0.64    4.45
  -4  13  -1   21.28    9.07
  -3  13  -1   16.19    7.68
  -2  13  -1    7.72    7.16
  -1  13  -1   -2.72    6.09
   0  13  -1    7.97    7.69
 -12  14  -1    4.86    7.26
 -11  14  -1   79.42   16.26
 -10  14  -1    9.41    6.86
  -9  14  -1   -2.39    5.28
  -5  14  -1   12.85    7.46
  -4  14  -1   44.03   12.04
  -3  14  -1   71.54   15.51
  -2  14  -1   46.66   13.05
 -11  15  -1    5.37    7.80
 -10  15  -1    2.64    7.44
  -5  15  -1    6.53    7.46
  -4  15  -1    9.77    9.07
   5 -15   0   -1.14   12.33
   6 -15   0    7.81   13.01
   7 -15   0    6.44   13.21
   8 -15   0   42.53   20.55
   9 -15   0   71.60   27.14
  10 -15   0   29.34   19.72
   1 -14   0  155.54   23.41
   2 -14   0   24.94    9.05
   3 -14   0   12.57    7.72
   4 -14   0    1.78    5.08
   5 -14   0    0.19    4.73
   6 -14   0   23.67    8.44
   7 -14   0   -1.24    4.32
   8 -14   0    7.82    6.23
   9 -14   0   42.67   10.58
  10 -14   0   11.06    7.08
  11 -14   0   24.61    9.22
  12 -14   0   10.23    6.44
  13 -14   0   -1.74    7.63
  -1 -13   0    1.27    6.50
   0 -13   0   -1.68    5.22
   1 -13   0   16.07    6.88
   2 -13   0   -0.24    4.96
   3 -13   0    6.45    4.90
   4 -13   0    7.32    5.82
   5 -13   0  199.83   19.83
   6 -13   0   69.33   11.85
   7 -13   0   28.37    8.60
   8 -13   0    1.82    4.70
   9 -13   0   50.04   10.48
  10 -13   0   19.54    7.80
  11 -13   0   76.50   15.99
  12 -13   0    3.73    5.69
  13 -13   0   -1.98    5.05
  14 -13   0  162.35   24.44
  -2 -12   0    8.28    5.86
  -1 -12   0    0.70    4.65
   0 -12   0    2.08    4.73
   1 -12   0    2.21    3.95
   2 -12   0   76.05   11.85
   3 -12   0   37.07    9.04
   4 -12   0   63.83   10.40
   5 -12   0    9.83    5.19
   6 -12   0    1.03    4.07
   7 -12   0    1.89    4.11
   8 -12   0    1.23    3.93
   9 -12   0   -2.81    4.19
  10 -12   0   88.33   16.22
  11 -12   0   58.06   13.53
  12 -12   0   -3.83    3.57
  13 -12   0    9.88    6.20
  14 -12   0   15.65    7.28
  -4 -11   0   14.11    9.55
  -3 -11   0   29.74    9.18
  -2 -11   0   71.63   12.00
  -1 -11   0   63.99   11.24
   0 -11   0    8.61    4.55
   1 -11   0    4.21    4.37
   2 -11   0   12.27    5.56
   3 -11   0   85.06   11.96
   4 -11   0   18.30    5.71
   5 -11   0   72.28   10.65
   6 -11   0    6.36    4.45
   7 -11   0  469.10   21.68
   8 -11   0    0.34    3.33
   9 -11   0   93.95   15.28
  10 -11   0    2.98    4.09
  11 -11   0   10.37    5.42
  12 -11   0    1.95    4.09
  13 -11   0   -2.63    4.73
  14 -11   0    3.91    5.23
  15 -11   0   16.23    9.68
  -5 -10   0   45.25   11.89
  -4 -10   0   14.76    6.54
  -3 -10   0   21.39    5.85
  -2 -10   0   81.63    9.14
  -1 -10   0    6.03    3.07
   0 -10   0   30.24    5.45
   1 -10   0   46.46    6.34
   2 -10   0    0.65    2.30
   3 -10   0   59.16    5.62
   4 -10   0   50.18    5.06
   5 -10   0    4.34    2.57
   6 -10   0   16.81    3.44
   7 -10   0   11.79    3.53
   8 -10   0    3.92    3.16
   9 -10   0   36.09    6.47
  10 -10   0   38.66    7.06
  11 -10   0    3.16    3.26
  12 -10   0   93.90   11.39
  13 -10   0    1.32    3.33
  14 -10   0    2.63    4.29
  15 -10   0    1.42    4.79
  -6  -9   0   88.67   10.89
  -5  -9   0   42.44    7.47
  -4  -9   0   16.83    5.02
  -3  -9   0    8.73    3.78
  -2  -9   0   60.37    7.64
  -1  -9   0   36.62    5.56
   0  -9   0  219.57   10.42
   1  -9   0   -0.10    1.84
   2  -9   0   16.06    2.80
   3  -9   0  314.22    9.38
   4  -9   0    1.85    1.62
   5  -9   0  152.64    7.24
   6  -9   0    1.46    1.98
   7  -9   0  124.40   10.35
   8  -9   0   29.89    5.56
   9  -9   0  226.63   12.55
  10  -9   0   36.30    6.71
  11  -9   0    2.14    3.24
  12  -9   0   34.03    7.06
  13  -9   0    7.54    4.10
  14  -9   0    1.10    3.55
  15  -9   0    6.43    5.01
  -7  -8   0   34.55    7.57
  -6  -8   0   -0.06    3.27
  -5  -8   0    3.19    3.39
  -4  -8   0    6.77    3.74
  -3  -8   0    0.85    2.24
  -2  -8   0    2.82    2.04
  -1  -8   0   32.68    5.14
   0  -8   0  165.97    8.40
   1  -8   0    1.99    1.50
   2  -8   0   63.42    5.01
   3  -8   0   90.67    5.82
   4  -8   0   -1.60    1.05
   5  -8   0  129.24    5.90
   6  -8   0   25.02    3.33
   7  -8   0   30.04    5.00
   8  -8   0  167.17   12.08
   9  -8   0   -2.09    2.17
  10  -8   0    1.81    2.64
  11  -8   0   64.18    8.82
  12  -8   0   61.62    9.13
  13  -8   0  156.26   14.90
  14  -8   0   10.48    4.67
  15  -8   0    1.46    4.65
  -8  -7   0   10.16    7.59
  -7  -7   0    2.67    3.41
  -6  -7   0   25.97    5.73
  -5  -7   0    4.99    3.38
  -4  -7   0  439.03   15.94
  -3  -7   0   12.50    3.55
  -2  -7   0  110.29    8.63
  -1  -7   0   16.52    3.48
   0  -7   0   70.05    5.23
   1  -7   0    2.35    1.41
   2  -7   0   76.70    4.85
   3  -7   0  100.91    4.82
   4  -7   0  163.67    5.51
   5  -7   0  395.20    9.60
   6  -7   0  169.17    6.34
   7  -7   0   67.94    5.18
   8  -7   0    3.48    2.13
   9  -7   0    5.39    2.76
  10  -7   0   46.67    7.26
  11  -7   0    8.33    3.33
  12  -7   0    7.95    3.62
  13  -7   0   83.81   10.65
  14  -7   0    2.49    3.74
  15  -7   0   43.94    8.91
  -9  -6   0   -3.81    5.19
  -8  -6   0   11.93    6.50
  -7  -6   0   60.35    7.98
  -6  -6   0   -0.87    2.42
  -5  -6   0    3.57    2.87
  -4  -6   0   15.11    3.80
  -3  -6   0    1.09    1.78
  -2  -6   0   26.21    4.01
  -1  -6   0  160.05    7.41
   0  -6   0   20.45    2.71
   1  -6   0  368.68    8.47
   2  -6   0    3.51    1.36
   3  -6   0   30.14    2.80
   4  -6   0    0.52    0.92
   5  -6   0    8.06    1.77
   6  -6   0   16.88    2.38
   7  -6   0    1.92    1.39
   8  -6   0   75.74    5.75
   9  -6   0  285.76   18.45
  10  -6   0   46.48   10.09
  11  -6   0   74.69   13.57
  12  -6   0   -2.46    3.33
  13  -6   0   21.07    9.00
  14  -6   0    0.00    4.91
  15  -6   0   62.87   15.67
 -10  -5   0    4.11    6.44
  -9  -5   0    0.78    4.12
  -8  -5   0  145.48   16.91
  -7  -5   0    8.82    3.60
  -6  -5   0   87.88    8.81
  -5  -5   0    1.34    2.23
  -4  -5   0  137.21    9.62
  -3  -5   0  117.48    5.68
  -2  -5   0  375.37    8.39
  -1  -5   0    5.79    1.35
   0  -5   0    4.03    1.34
   1  -5   0  174.00    5.17
   2  -5   0  139.70    4.41
   3  -5   0    0.31    0.70
   4  -5   0   -1.07    0.76
   5  -5   0    3.03    1.19
   6  -5   0  369.26    9.08
   7  -5   0   82.04    6.76
   8  -5   0  103.33    8.09
   9  -5   0    2.81    2.12
  10  -5   0   -5.01    2.41
  11  -5   0    3.66    3.67
  12  -5   0    1.21    3.49
  13  -5   0    1.83    4.45
  14  -5   0   32.53   12.22
  15  -5   0   34.52   12.97
 -10  -4   0    3.36    5.51
  -9  -4   0    6.45    5.42
  -8  -4   0   49.45    9.70
  -7  -4   0   13.22    3.93
  -6  -4   0   51.63    5.14
  -5  -4   0   -1.36    1.40
  -4  -4   0   -1.09    1.13
  -3  -4   0  162.16    5.62
  -2  -4   0   -0.22    0.87
  -1  -4   0   -0.11    0.62
   0  -4   0  143.22    3.29
   1  -4   0  209.26    5.09
   2  -4   0  780.34   10.68
   3  -4   0  543.64    9.13
   4  -4   0  152.81    4.74
   5  -4   0  180.83    6.84
   6  -4   0    2.15    1.56
   7  -4   0  109.14    7.82
   8  -4   0   -1.11    1.57
   9  -4   0  136.71   10.38
  10  -4   0   20.01    4.55
  11  -4   0  532.25   28.63
  12  -4   0    5.00    3.91
  13  -4   0    7.63    5.54
  14  -4   0    8.72    7.08
 -11  -3   0    9.85    7.29
 -10  -3   0    3.24    5.18
  -9  -3   0   32.66    8.70
  -8  -3   0   60.52    7.47
  -7  -3   0   56.84    6.70
  -6  -3   0  297.06    9.73
  -5  -3   0   96.49    6.21
  -4  -3   0  103.09    5.40
  -3  -3   0   33.59    3.13
  -2  -3   0   -0.33    0.70
  -1  -3   0  523.84    7.33
   0  -3   0    5.54    0.83
   1  -3   0   61.19    2.37
   2  -3   0  173.23    4.10
   3  -3   0    2.81    0.99
   4  -3   0  211.21    6.83
   5  -3   0  136.02    6.02
   6  -3   0   25.01    3.59
   7  -3   0  160.54    7.83
   8  -3   0  122.80    9.32
   9  -3   0    0.04    1.84
  10  -3   0    7.65    2.80
  11  -3   0    1.90    2.78
  12  -3   0    1.44    3.85
  13  -3   0    5.54    5.50
  14  -3   0   13.74    6.79
 -12  -2   0   34.22   10.38
 -11  -2   0    4.54    6.12
 -10  -2   0  111.25   11.28
  -9  -2   0    7.56    3.67
  -8  -2   0    2.61    2.65
  -7  -2   0    9.82    3.24
  -6  -2   0   64.21    5.53
  -5  -2   0   76.31    3.30
  -4  -2   0    4.39    0.95
  -3  -2   0  132.62    4.59
  -2  -2   0  781.44   10.99
  -1  -2   0  169.81    3.42
   0  -2   0  166.79    3.49
   1  -2   0    1.20    0.54
   2  -2   0  169.47    3.71
   3  -2   0   54.96    3.37
   4  -2   0  764.14   14.66
   5  -2   0    1.76    1.30
   6  -2   0   -0.18    0.77
   7  -2   0  383.47   12.97
   8  -2   0    9.93    3.02
   9  -2   0  111.97   10.27
  10  -2   0    5.69    3.10
  11  -2   0   60.84    8.63
  12  -2   0   93.64   11.53
  13  -2   0   87.27   17.69
  14  -2   0    6.87    6.19
 -12  -1   0   14.19    6.13
 -11  -1   0   -2.36    3.66
 -10  -1   0    5.00    3.84
  -9  -1   0   42.64    6.65
  -8  -1   0    0.01    2.20
  -7  -1   0    2.49    2.17
  -6  -1   0    3.65    1.36
  -5  -1   0  350.87    7.02
  -4  -1   0  177.62    4.29
  -3  -1   0  216.43    4.20
  -2  -1   0   54.32    1.83
  -1  -1   0    0.69    0.60
   0  -1   0    5.69    0.59
   1  -1   0    5.37    0.74
   2  -1   0    2.09    0.83
   3  -1   0  163.75    3.54
   4  -1   0  532.39    8.49
   5  -1   0   -0.44    0.77
   6  -1   0   11.10    1.97
   7  -1   0  177.65    6.14
   8  -1   0   25.73    4.67
   9  -1   0   32.60    5.70
  10  -1   0   37.75    6.73
  11  -1   0    3.87    3.25
  12  -1   0   80.02   11.35
  13  -1   0   -0.87    4.86
 -13   0   0   -0.11    4.46
 -12   0   0    1.22    3.87
 -11   0   0   21.13    5.28
 -10   0   0   26.12    5.66
  -9   0   0  236.31   13.42
  -8   0   0  168.52   10.89
  -7   0   0   67.96    4.96
  -6   0   0   19.60    2.63
  -5   0   0    3.46    1.25
  -4   0   0  154.96    4.53
  -3   0   0    2.87    1.01
  -2   0   0  163.72    3.10
  -1   0   0    5.07    0.52
   1   0   0    4.81    0.60
   2   0   0  162.74    4.19
   3   0   0    4.92    1.07
   4   0   0  151.64    4.70
   5   0   0    4.68    1.38
   6   0   0   18.10    2.58
   7   0   0   61.24    4.99
   8   0   0  187.27   10.40
   9   0   0  208.56   16.59
  10   0   0   43.09    7.37
  11   0   0   11.11    4.07
  12   0   0   -1.49    3.44
  13   0   0    1.23    4.22
 -14   1   0   -3.18    7.00
 -13   1   0    5.40    5.29
 -12   1   0   61.20    9.22
 -11   1   0    2.01    3.38
 -10   1   0   34.30    6.25
  -9   1   0   23.42    3.89
  -8   1   0   26.05    3.71
  -7   1   0  168.27    6.61
  -6   1   0    5.02    1.55
  -5   1   0    0.10    0.96
  -4   1   0  537.18    9.17
  -3   1   0  171.88    4.30
  -2   1   0    1.98    0.78
  -1   1   0    5.07    0.64
   0   1   0    4.14    1.05
   1   1   0    1.34    0.78
   2   1   0   58.81    3.15
   3   1   0  208.56    6.60
   4   1   0  183.94    5.75
   5   1   0  366.77    9.10
   6   1   0    1.46    1.31
   7   1   0    1.02    1.53
   8   1   0    0.78    2.42
   9   1   0   41.96    7.12
  10   1   0    3.07    3.21
  11   1   0   -0.17    3.30
  12   1   0   14.62    5.16
  13   1   0  122.63   20.78
 -14   2   0   12.92    6.61
 -13   2   0   48.41    8.97
 -12   2   0   80.99   11.63
 -11   2   0   58.55    8.17
 -10   2   0    3.50    2.32
  -9   2   0  121.03    7.83
  -8   2   0   20.84    3.24
  -7   2   0  400.58   10.11
  -6   2   0   -0.84    0.99
  -5   2   0   -0.77    0.90
  -4   2   0  748.08   12.43
  -3   2   0   56.96    4.16
  -2   2   0  165.46    3.06
  -1   2   0    2.26    0.65
   0   2   0  173.53    5.07
   1   2   0  171.39    5.58
   2   2   0  776.49   14.98
   3   2   0  129.28    5.87
   4   2   0    4.61    1.45
   5   2   0   72.08    5.30
   6   2   0   59.58    5.28
   7   2   0   17.27    3.44
   8   2   0   -0.94    2.39
   9   2   0    5.50    3.43
  10   2   0   91.24   11.06
  11   2   0   -0.09    3.58
  12   2   0   17.63    6.58
 -14   3   0   23.35    7.23
 -13   3   0   12.60    5.89
 -12   3   0   -0.27    3.92
 -11   3   0    3.19    2.70
 -10   3   0   12.87    3.41
  -9   3   0    1.10    1.78
  -8   3   0  129.81    8.20
  -7   3   0  162.32    6.88
  -6   3   0   27.23    3.34
  -5   3   0  130.23    5.19
  -4   3   0  214.57    5.98
  -3   3   0    5.04    0.97
  -2   3   0  175.43    4.11
  -1   3   0   58.46    2.20
   0   3   0    5.11    1.08
   1   3   0  527.48   12.06
   2   3   0    1.82    1.33
   3   3   0   25.09    3.42
   4   3   0   89.51    7.09
   5   3   0   98.23    6.55
   6   3   0  316.44   10.42
   7   3   0   53.27    5.70
   8   3   0   64.90    9.00
   9   3   0   24.73    6.24
  10   3   0    1.09    3.68
  11   3   0   10.18    5.58
 -14   4   0   16.76    6.50
 -13   4   0   18.47    6.24
 -12   4   0    6.42    3.47
 -11   4   0  462.49   15.40
 -10   4   0   24.62    4.56
  -9   4   0  139.10    9.20
  -8   4   0   -0.17    1.41
  -7   4   0  118.67    7.29
  -6   4   0    4.12    1.68
  -5   4   0  177.83    6.04
  -4   4   0  151.44    3.94
  -3   4   0  527.88    9.03
  -2   4   0  779.05   11.05
  -1   4   0  217.65    6.63
   0   4   0  156.10    4.41
   1   4   0    1.20    0.70
   2   4   0    0.71    1.25
   3   4   0  167.90    8.12
   4   4   0    2.70    2.00
   5   4   0   -0.64    1.55
   6   4   0   63.70    6.17
   7   4   0   11.57    3.19
   8   4   0   69.00    7.92
   9   4   0    8.21    4.44
  10   4   0   -1.53    3.56
 -15   5   0   26.53    8.91
 -14   5   0   32.11    8.26
 -13   5   0    0.74    3.25
 -12   5   0    2.75    2.83
 -11   5   0    6.87    3.33
 -10   5   0    0.37    1.90
  -9   5   0    0.44    1.89
  -8   5   0   84.87    6.84
  -7   5   0   68.02    5.62
  -6   5   0  344.79    9.58
  -5   5   0    3.71    1.27
  -4   5   0   -0.24    0.85
  -3   5   0    1.53    0.95
  -2   5   0  129.64    4.04
  -1   5   0  171.80    6.38
   0   5   0    4.85    1.29
   1   5   0    7.05    1.26
   2   5   0  377.31   12.86
   3   5   0  139.92   10.12
   4   5   0  156.19   11.49
   5   5   0   -2.10    1.97
   6   5   0  100.51    8.37
   7   5   0   13.41    4.00
   8   5   0  139.41   11.67
   9   5   0    1.85    3.88
  10   5   0   -3.64    4.53
 -15   6   0  102.88   14.10
 -14   6   0    0.99    3.55
 -13   6   0   19.43    5.12
 -12   6   0    2.60    2.87
 -11   6   0   86.50    8.33
 -10   6   0   50.30    6.04
  -9   6   0  301.58   10.99
  -8   6   0   54.29    5.49
  -7   6   0    0.87    1.57
  -6   6   0   20.98    2.54
  -5   6   0    7.12    1.74
  -4   6   0   -0.12    1.01
  -3   6   0   22.90    2.49
  -2   6   0    2.49    1.60
  -1   6   0  357.49    8.51
   0   6   0   17.74    2.29
   1   6   0  167.72    8.66
   2   6   0   19.35    4.08
   3   6   0    1.83    2.11
   4   6   0   20.77    4.73
   5   6   0    4.89    3.08
   6   6   0   -0.74    2.20
   7   6   0   71.42    7.72
   8   6   0   19.32    6.12
   9   6   0    4.32    5.02
 -15   7   0   46.99    8.55
 -14   7   0   -2.03    3.29
 -13   7   0   49.62    7.15
 -12   7   0    8.49    3.34
 -11   7   0   12.36    3.76
 -10   7   0   51.05    6.05
  -9   7   0   14.34    3.57
  -8   7   0   -0.64    2.13
  -7   7   0   61.27    6.81
  -6   7   0  174.33    6.35
  -5   7   0  402.01    9.60
  -4   7   0  162.43    5.76
  -3   7   0  106.81    4.82
  -2   7   0   76.07    6.41
  -1   7   0    1.60    1.25
   0   7   0   64.54    6.76
   1   7   0   30.69    4.94
   2   7   0  102.98    9.16
   3   7   0   16.88    4.53
   4   7   0  457.31   18.04
   5   7   0    0.49    2.87
   6   7   0   27.33    5.39
   7   7   0    1.15    3.27
   8   7   0    3.29    4.41
 -15   8   0    7.74    4.79
 -14   8   0   26.23    5.93
 -13   8   0  146.10   12.00
 -12   8   0   52.60    7.18
 -11   8   0   54.97    6.87
 -10   8   0   -1.43    2.49
  -9   8   0    2.26    2.87
  -8   8   0  169.24   10.94
  -7   8   0   27.33    4.81
  -6   8   0   21.69    3.23
  -5   8   0  125.03    5.89
  -4   8   0    0.37    1.18
  -3   8   0   91.84    7.54
  -2   8   0   71.38    5.39
  -1   8   0    0.31    1.72
   0   8   0  178.65   10.82
   1   8   0   37.70    6.10
   2   8   0    2.73    2.65
   3   8   0    1.46    2.68
   4   8   0    6.60    3.73
   5   8   0    5.26    3.91
   6   8   0    4.37    3.28
   7   8   0   38.78    6.85
 -15   9   0   -1.42    4.24
 -14   9   0    0.80    3.85
 -13   9   0    9.47    5.11
 -12   9   0   32.40    7.32
 -11   9   0    2.13    3.51
 -10   9   0   36.92    6.59
  -9   9   0  228.62   12.47
  -8   9   0   31.37    5.86
  -7   9   0  126.47   10.16
  -6   9   0    1.68    1.73
  -5   9   0  154.99    9.46
  -4   9   0   -0.70    1.77
  -3   9   0  316.90    9.74
  -2   9   0    9.54    3.48
  -1   9   0   -0.09    2.08
   0   9   0  227.67   12.10
   1   9   0   42.09    7.20
   2   9   0   50.88    7.81
   3   9   0    6.69    4.18
   4   9   0   21.74    5.92
   5   9   0   38.81    6.10
   6   9   0   95.64   10.05
 -15  10   0    7.92    6.38
 -14  10   0    2.87    4.77
 -13  10   0   -1.40    3.90
 -12  10   0  135.31   14.25
 -11  10   0    5.82    4.06
 -10  10   0   43.35    7.33
  -9  10   0   38.27    6.84
  -8  10   0    0.07    3.16
  -7  10   0   16.12    6.49
  -6  10   0   20.49    4.11
  -5  10   0    3.53    2.59
  -4  10   0   49.21    5.04
  -3  10   0   47.57    6.58
  -2  10   0   -0.74    2.27
  -1  10   0   47.16    7.56
   0  10   0   32.57    6.27
   1  10   0    3.53    3.66
   2  10   0   85.82   10.78
   3  10   0   16.11    5.54
   4  10   0    6.85    5.17
   5  10   0   29.35    6.09
 -15  11   0   34.39   14.00
 -14  11   0    8.55    6.05
 -13  11   0    5.00    4.87
 -12  11   0   -1.21    3.69
 -11  11   0   24.27    6.48
 -10  11   0   -0.53    4.26
  -9  11   0   85.61   14.57
  -8  11   0    6.52    5.11
  -7  11   0  444.75   24.66
  -6  11   0    4.70    3.04
  -5  11   0   81.10    8.71
  -4  11   0   20.49    5.11
  -3  11   0   66.04    8.43
  -2  11   0    6.25    3.64
  -1  11   0    7.08    3.96
   0  11   0   15.09    5.23
   1  11   0   75.61   10.66
   2  11   0   60.72    9.24
   3  11   0   31.91    8.16
 -14  12   0   22.55    9.98
 -13  12   0   19.92   10.25
 -12  12   0    2.80    6.31
 -11  12   0   49.25   12.82
 -10  12   0   78.75   15.23
  -9  12   0    1.53    4.64
  -8  12   0    9.60    6.12
  -7  12   0    3.31    4.51
  -6  12   0    0.93    3.15
  -5  12   0   12.47    5.81
  -4  12   0   61.05   12.11
  -3  12   0   26.70    8.95
  -2  12   0  104.56   11.42
  -1  12   0    2.64    3.64
   0  12   0    1.50    4.00
   1  12   0   -4.83    3.72
   2  12   0    9.83    5.74
 -13  13   0   -1.25    6.86
 -12  13   0   -2.80    5.73
 -11  13   0   64.84   15.81
 -10  13   0   11.46    7.45
  -9  13   0   22.87    8.78
  -8  13   0   -0.56    5.04
  -7  13   0   39.36   10.79
  -6  13   0   69.63   13.69
  -5  13   0  147.66   19.48
  -4  13   0   12.29    6.70
  -3  13   0   -1.17    5.11
  -2  13   0    1.22    5.85
  -1  13   0   11.23    6.03
   0  13   0    1.46    4.58
   1  13   0    3.39    7.36
 -12  14   0   12.76    8.90
 -11  14   0   27.58   11.16
 -10  14   0    0.39    6.74
  -9  14   0   32.98   11.07
  -6  14   0   26.03   12.17
  -5  14   0    5.61    6.09
  -4  14   0    7.17    7.59
  -3  14   0   -0.64    6.19
  -2  14   0   28.37   11.68
 -11  15   0    4.77    8.61
 -10  15   0   16.18    9.33
  -5  15   0   -1.28    6.91
  -4  15   0   30.49   12.12
   6 -15   1   72.70   26.18
   7 -15   1    8.42   11.78
   8 -15   1   35.22   19.34
   9 -15   1    8.50   15.29
   2 -14   1   33.94   22.21
   3 -14   1   47.49   20.10
   4 -14   1   70.61   24.89
   5 -14   1   11.71   12.63
   6 -14   1   -3.64    8.59
   7 -14   1   19.24   14.55
   8 -14   1    3.80   11.03
   9 -14   1    4.38   11.24
  10 -14   1    5.17   11.36
  11 -14   1   30.54   17.01
  12 -14   1    2.01   11.25
   0 -13   1    5.85   11.78
   1 -13   1   13.21   11.96
   2 -13   1    3.26   10.14
   3 -13   1   25.89   14.61
   4 -13   1   29.29   16.53
   5 -13   1   -0.53    7.19
   6 -13   1    4.86    8.99
   7 -13   1   41.69   17.48
   8 -13   1   12.17   12.64
   9 -13   1   62.32   23.19
  10 -13   1   -2.62    6.94
  11 -13   1   -2.47    8.26
  12 -13   1    2.69    8.01
  13 -13   1    2.24    9.42
  -2 -12   1   11.80   14.75
  -1 -12   1   16.45   13.27
   0 -12   1   85.02   14.51
   1 -12   1   48.69    7.85
   2 -12   1    3.29    3.39
   3 -12   1    0.06    3.04
   4 -12   1  112.69   10.88
   5 -12   1    8.81    3.82
   6 -12   1   22.40    5.28
   7 -12   1    9.99    3.96
   8 -12   1    5.92    3.74
   9 -12   1   18.28    4.69
  10 -12   1    0.93    3.39
  11 -12   1    3.03    4.60
  12 -12   1   37.90   10.83
  13 -12   1   -2.59    5.08
  14 -12   1    0.20    9.08
  -4 -11   1    3.58    5.85
  -3 -11   1   70.68    9.60
  -2 -11   1    4.61    4.29
  -1 -11   1   -0.55    3.04
   0 -11   1   25.33    5.63
   1 -11   1   19.29    4.88
   2 -11   1   55.00    7.01
   3 -11   1   57.98    7.44
   4 -11   1   52.65    6.88
   5 -11   1  138.25   10.72
   6 -11   1   10.48    3.46
   7 -11   1    4.80    3.13
   8 -11   1    2.65    2.89
   9 -11   1  126.33   12.37
  10 -11   1   14.85    4.29
  11 -11   1   13.54    4.29
  12 -11   1   59.04    9.37
  13 -11   1    7.43    4.57
  14 -11   1   63.55   11.70
  15 -11   1    5.95    7.10
  -5 -10   1   -0.26    4.96
  -4 -10   1   17.70    5.78
  -3 -10   1    4.52    3.38
  -2 -10   1   -0.42    2.79
  -1 -10   1   13.51    4.15
   0 -10   1  132.21   10.95
   1 -10   1   13.03    3.97
   2 -10   1  187.35   10.73
   3 -10   1    4.70    2.84
   4 -10   1    0.94    2.33
   5 -10   1   23.94    4.68
   6 -10   1    5.84    2.67
   7 -10   1    2.38    2.67
   8 -10   1   27.92    5.74
   9 -10   1    1.18    2.62
  10 -10   1  137.40   12.53
  11 -10   1   10.87    4.03
  12 -10   1    3.38    3.38
  13 -10   1    8.68    4.52
  14 -10   1   58.79    9.87
  15 -10   1    6.00    6.09
  -6  -9   1    0.05    3.80
  -5  -9   1    5.11    3.88
  -4  -9   1   51.81    7.72
  -3  -9   1   24.18    5.49
  -2  -9   1   93.37    9.27
  -1  -9   1    1.11    2.40
   0  -9   1    7.86    2.86
   1  -9   1   34.53    5.21
   2  -9   1   23.00    4.16
   3  -9   1    2.11    1.92
   4  -9   1    0.05    1.75
   5  -9   1  204.73    9.49
   6  -9   1   21.17    4.10
   7  -9   1  230.24   11.53
   8  -9   1    5.98    2.92
   9  -9   1    3.85    3.04
  10  -9   1    7.69    3.36
  11  -9   1   55.14    8.53
  12  -9   1   -0.41    2.91
  13  -9   1   21.20    6.51
  14  -9   1    7.74    4.87
  15  -9   1   77.86   11.52
  -7  -8   1   52.03   11.99
  -6  -8   1    4.21    3.86
  -5  -8   1   17.39    4.89
  -4  -8   1    6.59    3.51
  -3  -8   1    4.42    3.03
  -2  -8   1   36.21    5.68
  -1  -8   1   14.40    3.61
   0  -8   1    8.38    2.79
   1  -8   1  177.60    8.45
   2  -8   1   57.52    5.77
   3  -8   1  208.28    8.65
   4  -8   1   74.08    6.63
   5  -8   1    2.01    2.08
   6  -8   1   -1.73    1.53
   7  -8   1   35.04    5.58
   8  -8   1    6.29    2.89
   9  -8   1   40.86    6.74
  10  -8   1  187.22   14.33
  11  -8   1   59.57    8.61
  12  -8   1   83.94   10.68
  13  -8   1    1.34    3.20
  14  -8   1    2.58    4.16
  15  -8   1    2.18    4.43
  -8  -7   1   10.22    6.98
  -7  -7   1   28.29    8.28
  -6  -7   1   61.02    8.54
  -5  -7   1   19.26    4.70
  -4  -7   1    3.01    2.75
  -3  -7   1    1.96    2.29
  -2  -7   1  201.64    9.78
  -1  -7   1   35.96    5.01
   0  -7   1  134.25    7.77
   1  -7   1  127.53    7.20
   2  -7   1   24.31    3.51
   3  -7   1  208.23    8.10
   4  -7   1    2.04    1.22
   5  -7   1    7.72    2.46
   6  -7   1  270.88   10.98
   7  -7   1  130.19    9.70
   8  -7   1  172.04   10.73
   9  -7   1   10.92    3.58
  10  -7   1    2.83    2.71
  11  -7   1   42.81    7.37
  12  -7   1   -0.82    3.10
  13  -7   1   -1.12    3.03
  14  -7   1    7.61    4.82
  15  -7   1   58.41   10.81
  -9  -6   1   69.83   13.13
  -8  -6   1    3.68    5.27
  -7  -6   1    0.67    4.14
  -6  -6   1   26.78    5.19
  -5  -6   1    8.13    3.20
  -4  -6   1    3.32    2.56
  -3  -6   1   22.66    4.27
  -2  -6   1    0.33    1.25
  -1  -6   1  260.35    7.31
   0  -6   1   44.44    3.65
   1  -6   1   12.44    2.67
   2  -6   1  166.98    6.60
   3  -6   1  323.75    9.31
   4  -6   1   46.38    2.96
   5  -6   1   28.24    2.35
   6  -6   1   33.13    4.32
   7  -6   1  134.07   10.15
   8  -6   1   48.02    6.43
   9  -6   1   -2.08    1.95
  10  -6   1    0.17    2.56
  11  -6   1  162.28   13.77
  12  -6   1   12.82    4.09
  13  -6   1   54.16    8.81
  14  -6   1   -1.93    3.36
  15  -6   1    1.40    4.73
 -10  -5   1   11.89   14.80
  -9  -5   1    6.05    6.17
  -8  -5   1    1.61    4.39
  -7  -5   1    0.87    3.80
  -6  -5   1  134.01   10.81
  -5  -5   1   22.71    4.53
  -4  -5   1  186.77    7.60
  -3  -5   1    1.83    1.50
  -2  -5   1   13.29    2.21
  -1  -5   1   24.30    2.58
   0  -5   1  187.84    5.36
   1  -5   1   18.28    2.60
   2  -5   1   74.03    4.35
   3  -5   1   92.69    5.38
   4  -5   1  381.86    7.00
   5  -5   1  168.14    7.75
   6  -5   1    8.63    1.51
   7  -5   1   29.74    3.29
   8  -5   1  166.00   11.55
   9  -5   1    1.25    2.81
  10  -5   1    9.00    4.95
  11  -5   1    1.90    3.99
  12  -5   1   -1.06    3.19
  13  -5   1   28.11   10.24
  14  -5   1    2.16    5.12
  15  -5   1    8.28    9.95
 -10  -4   1   46.25   10.62
  -9  -4   1   26.64    8.15
  -8  -4   1  104.17   13.88
  -7  -4   1   51.99    6.85
  -6  -4   1    4.68    2.83
  -5  -4   1    0.67    1.61
  -4  -4   1   63.46    5.06
  -3  -4   1    1.29    1.09
  -2  -4   1   49.43    3.79
  -1  -4   1  403.22    8.06
   0  -4   1  164.11    5.67
   1  -4   1  436.11    9.13
   2  -4   1   16.72    2.30
   3  -4   1   13.24    2.35
   4  -4   1  163.35    6.76
   5  -4   1   20.14    2.02
   6  -4   1  175.80    5.60
   7  -4   1  196.78    7.80
   8  -4   1   62.96    6.03
   9  -4   1  181.33   18.13
  10  -4   1   -0.72    3.18
  11  -4   1   -0.05    3.44
  12  -4   1    0.62    3.68
  13  -4   1   60.11   14.19
  14  -4   1    5.40    5.90
 -11  -3   1   53.82   11.47
 -10  -3   1   21.96    7.40
  -9  -3   1    1.50    3.41
  -8  -3   1   65.99    7.97
  -7  -3   1    3.28    2.69
  -6  -3   1   -0.39    1.80
  -5  -3   1  201.23    7.39
  -4  -3   1  210.68    6.96
  -3  -3   1  302.30    7.73
  -2  -3   1   91.67    4.11
  -1  -3   1   14.19    1.74
   0  -3   1  193.56    5.38
   1  -3   1   17.95    1.95
   2  -3   1   38.29    2.97
   3  -3   1  189.76    6.33
   4  -3   1  429.96    7.40
   5  -3   1   67.30    3.98
   6  -3   1  308.40    9.35
   7  -3   1    1.51    1.60
   8  -3   1    2.06    2.04
   9  -3   1   17.22    3.75
  10  -3   1    6.41    3.54
  11  -3   1    4.65    4.42
  12  -3   1   10.71    5.21
  13  -3   1   -1.12    4.59
  14  -3   1   68.31   17.67
 -12  -2   1   28.16   17.46
 -11  -2   1   12.18    4.60
 -10  -2   1    2.38    3.53
  -9  -2   1   59.31    7.76
  -8  -2   1  159.85   11.73
  -7  -2   1   26.76    4.69
  -6  -2   1   62.06    6.48
  -5  -2   1   26.51    4.11
  -4  -2   1  177.46    4.29
  -3  -2   1   66.37    2.66
  -2  -2   1   14.12    1.30
  -1  -2   1   37.39    1.80
   0  -2   1  533.74    8.40
   1  -2   1  139.82    3.58
   2  -2   1  528.63    9.94
   3  -2   1   19.19    1.56
   4  -2   1   16.73    2.17
   5  -2   1   92.37    3.21
   6  -2   1   42.52    2.63
   7  -2   1    8.49    2.64
   8  -2   1    0.32    1.72
   9  -2   1  214.19   11.66
  10  -2   1   48.73    7.33
  11  -2   1   60.91   12.90
  12  -2   1    0.66    4.15
  13  -2   1    4.24    5.47
  14  -2   1   12.12    8.29
 -12  -1   1    3.43    4.18
 -11  -1   1   35.08    6.87
 -10  -1   1   17.42    4.86
  -9  -1   1    6.21    3.26
  -8  -1   1   34.83    5.47
  -7  -1   1  192.01    9.40
  -6  -1   1  136.72    5.85
  -5  -1   1    8.65    1.76
  -4  -1   1   20.22    2.15
  -3  -1   1  435.45    7.57
  -2  -1   1   22.11    1.90
  -1  -1   1  139.58    2.77
   0  -1   1   39.06    2.83
   1  -1   1   37.61    3.82
   2  -1   1  134.56    4.30
   3  -1   1   40.27    3.06
   4  -1   1   11.08    1.50
   5  -1   1  388.80    7.79
   6  -1   1   24.96    2.60
   7  -1   1  258.87    7.38
   8  -1   1   24.80    4.66
   9  -1   1   13.31    3.70
  10  -1   1   -1.28    2.46
  11  -1   1   11.15    3.84
  12  -1   1    1.72    4.82
  13  -1   1    6.97    5.77
 -13   0   1    7.27    5.43
 -12   0   1   66.58    9.65
 -11   0   1   11.20    4.40
 -10   0   1  114.58   11.14
  -9   0   1    5.38    3.23
  -8   0   1    2.68    2.33
  -7   0   1  120.55    6.20
  -6   0   1   36.45    3.58
  -5   0   1  173.10    5.64
  -4   0   1  160.54    4.95
  -3   0   1  194.99    4.83
  -2   0   1  538.22    7.61
  -1   0   1   44.99    1.71
   0   0   1    0.33    0.62
   3   0   1  184.74    4.73
   4   0   1  151.64    4.81
   5   0   1  182.25    5.73
   6   0   1   39.67    3.76
   7   0   1  119.89    6.04
   8   0   1    4.29    2.88
   9   0   1    3.19    2.92
  10   0   1  139.49   12.65
  11   0   1   26.48    6.16
  12   0   1   75.49   11.10
  13   0   1    4.30    6.03
 -13   1   1   21.82    7.48
 -12   1   1   -3.66    2.99
 -11   1   1    7.72    4.00
 -10   1   1    6.93    3.70
  -9   1   1    9.58    3.63
  -8   1   1   23.39    3.26
  -7   1   1  265.60    8.22
  -6   1   1   25.29    3.01
  -5   1   1  398.77    8.66
  -4   1   1   13.96    1.92
  -3   1   1   35.93    2.60
  -2   1   1  137.67    3.72
  -1   1   1   40.56    1.70
   0   1   1   42.67    1.83
   1   1   1  130.82    5.73
   2   1   1   25.52    3.85
   3   1   1  434.91   10.34
   4   1   1   19.58    2.97
   5   1   1    7.83    1.90
   6   1   1  122.76    6.31
   7   1   1  171.67    7.88
   8   1   1   45.72    6.66
   9   1   1    6.11    3.74
  10   1   1    8.89    3.93
  11   1   1   48.01    8.80
  12   1   1    6.47    4.03
 -14   2   1    7.91    5.81
 -13   2   1    2.54    5.04
 -12   2   1   -2.59    3.19
 -11   2   1   98.41   11.18
 -10   2   1   36.92    6.10
  -9   2   1  209.99    8.48
  -8   2   1    0.14    1.52
  -7   2   1   11.13    2.46
  -6   2   1   40.39    3.71
  -5   2   1   93.54    4.57
  -4   2   1    7.51    1.64
  -3   2   1   18.44    2.05
  -2   2   1  514.49    7.84
  -1   2   1  127.06    5.30
   0   2   1  511.75   13.70
   1   2   1   37.84    3.10
   2   2   1   14.56    2.03
   3   2   1   68.35    5.35
   4   2   1  172.49    7.53
   5   2   1   25.49    3.35
   6   2   1   56.75    5.07
   7   2   1   27.19    4.07
   8   2   1  183.10   13.53
   9   2   1   45.06    7.52
  10   2   1    0.69    3.57
  11   2   1    6.76    4.88
  12   2   1   30.68    8.24
 -14   3   1   72.72   11.34
 -13   3   1    2.12    4.65
 -12   3   1   22.41    6.67
 -11   3   1    4.32    3.11
 -10   3   1    4.54    2.65
  -9   3   1   25.28    3.94
  -8   3   1    1.34    1.76
  -7   3   1    0.88    1.47
  -6   3   1  300.75    8.76
  -5   3   1   68.02    4.64
  -4   3   1  449.83    8.98
  -3   3   1  185.55    4.83
  -2   3   1   37.85    3.33
  -1   3   1   23.67    1.90
   0   3   1  196.29    6.16
   1   3   1   10.75    1.92
   2   3   1   95.43    3.85
   3   3   1  306.43    7.08
   4   3   1  205.38    5.91
   5   3   1  194.69    9.36
   6   3   1    2.07    1.93
   7   3   1    1.82    1.95
   8   3   1   60.86    8.62
   9   3   1   -0.06    3.14
  10   3   1   13.18    5.58
  11   3   1   45.98    8.58
 -14   4   1    8.60    6.13
 -13   4   1   49.45    9.34
 -12   4   1    6.41    3.40
 -11   4   1    5.08    2.74
 -10   4   1    7.21    2.82
  -9   4   1  202.03    9.58
  -8   4   1   53.72    5.44
  -7   4   1  198.18    7.64
  -6   4   1  172.71    6.50
  -5   4   1   22.63    2.79
  -4   4   1  159.99    5.12
  -3   4   1   11.30    1.74
  -2   4   1   15.99    1.82
  -1   4   1  424.40   10.53
   0   4   1  157.61    6.10
   1   4   1  390.20    9.70
   2   4   1   45.97    3.40
   3   4   1    2.07    1.77
   4   4   1   47.42    5.97
   5   4   1   -1.36    1.37
   6   4   1    1.96    1.86
   7   4   1   44.20    5.77
   8   4   1   98.23   10.92
   9   4   1   18.24    5.89
  10   4   1   42.25    8.37
 -15   5   1    7.17    7.74
 -14   5   1    3.91    4.52
 -13   5   1   16.95    5.27
 -12   5   1   12.16    3.92
 -11   5   1   12.53    3.80
 -10   5   1   24.88    4.53
  -9   5   1    0.33    1.95
  -8   5   1  219.03    8.70
  -7   5   1   32.11    4.01
  -6   5   1   11.61    1.81
  -5   5   1  181.42    4.94
  -4   5   1  393.35    8.53
  -3   5   1   96.10    4.14
  -2   5   1   73.36    3.24
  -1   5   1   17.30    2.84
   0   5   1  182.40    6.99
   1   5   1   22.06    3.05
   2   5   1   11.42    3.16
   3   5   1    7.05    2.63
   4   5   1  193.23   10.42
   5   5   1   16.47    4.13
   6   5   1  120.96    8.74
   7   5   1    1.49    2.46
   8   5   1    0.22    3.40
   9   5   1   11.57    5.48
  10   5   1    0.28    6.56
 -15   6   1    7.12    5.95
 -14   6   1    0.69    5.15
 -13   6   1   58.30    7.29
 -12   6   1   24.56    4.95
 -11   6   1  111.22    9.27
 -10   6   1    3.78    2.49
  -9   6   1   -1.13    1.57
  -8   6   1   63.59    6.00
  -7   6   1  108.42    7.19
  -6   6   1   40.94    3.29
  -5   6   1   25.18    3.00
  -4   6   1   48.81    3.87
  -3   6   1  314.21    7.30
  -2   6   1  170.75    7.52
  -1   6   1   10.69    2.59
   0   6   1   41.75    4.40
   1   6   1  267.27   11.20
   2   6   1    1.67    2.03
   3   6   1   17.09    3.93
   4   6   1    7.04    3.44
   5   6   1    9.37    3.88
   6   6   1   21.31    5.33
   7   6   1   -0.76    2.55
   8   6   1    4.46    4.10
   9   6   1   45.72    9.67
 -15   7   1   51.28    9.79
 -14   7   1   28.91    6.27
 -13   7   1    0.18    3.07
 -12   7   1    4.90    3.29
 -11   7   1   40.33    5.58
 -10   7   1    2.84    2.56
  -9   7   1   23.33    3.96
  -8   7   1  172.08    8.39
  -7   7   1  133.30    6.73
  -6   7   1  272.13    8.19
  -5   7   1    9.02    2.11
  -4   7   1    2.12    1.38
  -3   7   1  202.00    8.87
  -2   7   1   29.35    4.23
  -1   7   1  120.93    7.39
   0   7   1  110.88   13.45
   1   7   1   22.11    4.39
   2   7   1  184.24   13.25
   3   7   1    1.92    2.61
   4   7   1    4.82    3.00
   5   7   1   10.43    4.67
   6   7   1   80.83    8.73
   7   7   1   23.36    5.04
   8   7   1   11.28    5.64
 -15   8   1    1.90    5.82
 -14   8   1    4.09    3.98
 -13   8   1    0.96    3.20
 -12   8   1   84.84    8.78
 -11   8   1   59.13    7.06
 -10   8   1  167.82   11.09
  -9   8   1   42.05    6.93
  -8   8   1    4.22    2.75
  -7   8   1   29.77    3.90
  -6   8   1   -1.00    1.35
  -5   8   1    1.99    1.61
  -4   8   1   62.86    6.71
  -3   8   1  204.12    9.54
  -2   8   1   60.67    6.29
  -1   8   1  187.10   18.12
   0   8   1    6.64    3.00
   1   8   1   14.78    4.17
   2   8   1   25.92    5.53
   3   8   1    3.12    3.12
   4   8   1    2.45    3.26
   5   8   1   20.58    6.35
   6   8   1    6.44    3.52
   7   8   1   47.73    7.56
 -15   9   1   63.03   11.37
 -14   9   1    6.35    5.12
 -13   9   1   20.72    6.52
 -12   9   1    8.02    4.64
 -11   9   1   61.65    9.15
 -10   9   1   21.33    5.55
  -9   9   1    8.64    3.76
  -8   9   1   14.99    4.21
  -7   9   1  214.83    9.07
  -6   9   1   24.49    4.81
  -5   9   1  194.51   10.17
  -4   9   1   -0.90    1.96
  -3   9   1    1.19    2.43
  -2   9   1   12.16    5.64
  -1   9   1   41.87    6.40
   0   9   1    7.75    3.47
   1   9   1    3.93    3.19
   2   9   1  111.02   11.64
   3   9   1   41.06    7.87
   4   9   1   66.27    9.76
   5   9   1    5.44    4.46
   6   9   1   -0.42    3.60
 -15  10   1   11.07    7.02
 -14  10   1   59.32   10.71
 -13  10   1   30.41    7.71
 -12  10   1   -2.97    3.22
 -11  10   1   20.05    5.80
 -10  10   1  157.14   14.02
  -9  10   1    7.98    6.47
  -8  10   1   32.50    9.35
  -7  10   1    4.59    4.38
  -6  10   1    9.46    3.38
  -5  10   1   20.96    4.66
  -4  10   1    4.37    2.79
  -3  10   1    1.24    3.70
  -2  10   1  167.46   12.57
  -1  10   1   16.32    4.06
   0  10   1  139.19   12.81
   1  10   1    7.85    3.92
   2  10   1   -4.09    3.13
   3  10   1    2.28    4.41
   4  10   1   25.20    7.02
   5  10   1    3.04    7.37
 -15  11   1    2.35    8.70
 -14  11   1   51.47   10.06
 -13  11   1    9.82    5.27
 -12  11   1   34.30    9.56
 -11  11   1    7.83    7.70
 -10  11   1   -0.32    4.44
  -9  11   1   84.75   15.60
  -8  11   1    4.38    4.60
  -7  11   1    7.63    5.31
  -6  11   1   12.64    4.13
  -5  11   1  134.48   11.46
  -4  11   1   44.95   10.46
  -3  11   1   73.68    9.02
  -2  11   1   58.77    8.42
  -1  11   1   22.80    5.69
   0  11   1   23.83    6.33
   1  11   1    2.46    3.65
   2  11   1    6.40    5.22
   3  11   1   68.18   10.52
 -14  12   1   45.81   17.43
 -13  12   1    7.58    8.07
 -12  12   1   75.97   16.34
 -11  12   1    3.49    6.52
 -10  12   1   -0.87    5.40
  -9  12   1   21.50    9.08
  -8  12   1    5.77    6.05
  -7  12   1   11.54    6.73
  -6  12   1   14.60    4.77
  -5  12   1   11.70    5.95
  -4  12   1   87.48    9.93
  -3  12   1    5.08    3.64
  -2  12   1    2.93    3.67
  -1  12   1   53.81    8.88
   0  12   1   70.14   10.03
   1  12   1   28.30    7.97
   2  12   1    1.21    4.90
 -13  13   1   11.17    8.12
 -12  13   1   20.11    9.54
 -11  13   1    5.86    6.61
 -10  13   1   10.32    7.48
  -9  13   1   54.06   12.58
  -8  13   1   11.03    6.30
  -7  13   1   53.71   12.27
  -6  13   1   -2.34    3.87
  -5  13   1   -1.88    4.94
  -4  13   1   24.84    8.72
  -3  13   1   16.31    5.77
  -2  13   1   22.20    6.57
  -1  13   1   21.12    7.08
   0  13   1    3.97    4.99
 -12  14   1   14.10    8.67
 -11  14   1   56.19   14.63
 -10  14   1    8.88    7.63
  -9  14   1   -1.71    5.29
  -6  14   1   -4.27    5.17
  -5  14   1   11.26    8.13
  -4  14   1   18.88    9.33
  -3  14   1   53.15   13.91
  -2  14   1   44.78   12.41
  -1  14   1   -3.01    6.24
 -11  15   1    2.14   10.31
 -10  15   1    1.36    7.75
  -5  15   1    8.87    7.42
  -4  15   1    0.97    8.38
   3 -14   2   50.74   22.17
   4 -14   2    0.46    9.45
   5 -14   2    5.84   11.66
   6 -14   2   36.87   18.53
   7 -14   2    1.55    9.14
   8 -14   2    2.68   10.08
   9 -14   2   70.50   25.76
  10 -14   2   23.26   17.40
  11 -14   2   30.36   16.79
   0 -13   2   -0.19    7.87
   1 -13   2   15.72    7.63
   2 -13   2    3.16    5.33
   3 -13   2    0.63    4.94
   4 -13   2   20.47    8.81
   5 -13   2   38.40   10.08
   6 -13   2   37.98    9.83
   7 -13   2   46.08   10.66
   8 -13   2   36.24    9.54
   9 -13   2   39.28   10.02
  10 -13   2    4.67    5.70
  11 -13   2    5.46    5.96
  12 -13   2    1.85    5.24
  13 -13   2   -2.71    6.97
  -2 -12   2   23.05   10.12
  -1 -12   2   -3.81    4.81
   0 -12   2    9.85    6.51
   1 -12   2    4.05    5.43
   2 -12   2  105.90   14.72
   3 -12   2    5.98    5.38
   4 -12   2   28.10    8.10
   5 -12   2    5.64    5.41
   6 -12   2   19.82    7.43
   7 -12   2    1.06    4.13
   8 -12   2    4.31    4.82
   9 -12   2    7.32    4.97
  10 -12   2    8.40    5.35
  11 -12   2   60.04   14.09
  12 -12   2    2.31    5.07
  13 -12   2    6.75    5.99
  14 -12   2   15.79    9.94
  -3 -11   2   38.39   10.33
  -2 -11   2   20.61    7.97
  -1 -11   2   73.36   12.82
   0 -11   2   11.57    6.33
   1 -11   2    0.56    3.97
   2 -11   2   -2.32    3.36
   3 -11   2   35.56    8.03
   4 -11   2  100.70   13.29
   5 -11   2   58.19   10.26
   6 -11   2    6.14    4.90
   7 -11   2  304.82   19.74
   8 -11   2    0.57    4.24
   9 -11   2   41.84   11.59
  10 -11   2    1.80    4.23
  11 -11   2   13.35    5.92
  12 -11   2    1.76    4.39
  13 -11   2    6.39    5.95
  14 -11   2   54.96   14.15
  -4 -10   2    0.02    4.74
  -3 -10   2   13.40    6.36
  -2 -10   2   14.00    6.29
  -1 -10   2    8.45    4.58
   0 -10   2  109.73   13.66
   1 -10   2   37.09    8.05
   2 -10   2   49.20    9.48
   3 -10   2   53.71    8.40
   4 -10   2   85.88   11.17
   5 -10   2   37.25    8.14
   6 -10   2    3.25    3.67
   7 -10   2    6.81    4.86
   8 -10   2   73.24   13.41
   9 -10   2   19.11    6.17
  10 -10   2   85.69   15.25
  11 -10   2   -1.22    3.76
  12 -10   2   84.85   16.38
  13 -10   2    1.75    5.12
  14 -10   2    4.08    5.44
  -5  -9   2   54.91   11.08
  -4  -9   2   36.84    9.20
  -3  -9   2   35.55    8.88
  -2  -9   2   32.86    5.91
  -1  -9   2   16.11    4.35
   0  -9   2   68.69    7.39
   1  -9   2    9.42    3.10
   2  -9   2    6.31    2.67
   3  -9   2  160.01    9.03
   4  -9   2   46.44    5.70
   5  -9   2   77.51    7.25
   6  -9   2   63.01    7.74
   7  -9   2   69.85    8.50
   8  -9   2   81.06   10.14
   9  -9   2   63.69   12.77
  10  -9   2    7.84    4.69
  11  -9   2    0.25    3.68
  12  -9   2   -0.19    4.20
  13  -9   2    5.66    5.24
  14  -9   2   -1.29    4.75
  -7  -8   2   12.20   12.15
  -6  -8   2    1.84    4.95
  -5  -8   2   19.36    5.13
  -4  -8   2    4.87    3.51
  -3  -8   2    6.58    3.47
  -2  -8   2  102.42    8.94
  -1  -8   2   71.97    7.39
   0  -8   2  119.29    9.02
   1  -8   2   15.36    3.16
   2  -8   2   38.40    4.78
   3  -8   2  105.34    6.62
   4  -8   2   32.39    4.46
   5  -8   2   18.26    3.51
   6  -8   2   25.46    4.08
   7  -8   2   42.36    5.72
   8  -8   2  115.54   10.29
   9  -8   2    3.95    2.89
  10  -8   2   33.60    6.37
  11  -8   2   15.96    4.24
  12  -8   2   27.74    6.75
  13  -8   2   39.74    8.20
  14  -8   2   24.74    7.03
  -8  -7   2   22.39   14.49
  -7  -7   2    2.87    5.26
  -6  -7   2   52.78   10.29
  -5  -7   2    2.86    3.06
  -4  -7   2  298.35   13.08
  -3  -7   2   20.67    4.45
  -2  -7   2   48.75    6.13
  -1  -7   2   49.11    4.63
   0  -7   2   80.48    5.60
   1  -7   2   14.62    3.03
   2  -7   2   33.13    4.14
   3  -7   2  102.46    6.03
   4  -7   2  127.51    6.62
   5  -7   2  204.59    9.02
   6  -7   2  107.14    8.53
   7  -7   2   75.05    7.63
   8  -7   2   14.29    3.77
   9  -7   2   11.63    3.89
  10  -7   2   77.71    9.32
  11  -7   2   74.16    9.32
  12  -7   2    1.68    3.11
  13  -7   2   34.01    7.69
  14  -7   2    7.38    4.86
  15  -7   2   26.21   14.68
  -9  -6   2   10.37   12.08
  -8  -6   2   34.71    9.78
  -7  -6   2   28.61    8.29
  -6  -6   2   24.93    7.68
  -5  -6   2   -1.39    3.05
  -4  -6   2    2.05    2.51
  -3  -6   2   59.52    5.39
  -2  -6   2   38.61    4.11
  -1  -6   2  107.63    6.37
   0  -6   2   17.88    2.57
   1  -6   2  307.76    9.23
   2  -6   2   12.90    2.44
   3  -6   2  141.27    6.28
   4  -6   2   19.68    2.89
   5  -6   2  178.65    7.84
   6  -6   2   14.01    3.43
   7  -6   2    4.96    2.45
   8  -6   2   31.00    5.15
   9  -6   2  154.10   12.30
  10  -6   2   63.56    8.54
  11  -6   2   63.53    9.08
  12  -6   2   50.76    8.84
  13  -6   2   64.67   10.54
  14  -6   2    3.93    4.72
  15  -6   2   20.86   12.26
  -9  -5   2    8.14    5.72
  -8  -5   2   40.50    9.11
  -7  -5   2    0.16    3.93
  -6  -5   2   63.56   10.36
  -5  -5   2   47.38    6.28
  -4  -5   2   78.39    6.07
  -3  -5   2   30.76    3.70
  -2  -5   2  205.20    6.86
  -1  -5   2  171.70    4.66
   0  -5   2    3.90    1.72
   1  -5   2   57.58    4.38
   2  -5   2   73.89    4.05
   3  -5   2   10.55    1.85
   4  -5   2   57.30    4.92
   5  -5   2    3.79    1.76
   6  -5   2  316.36   11.18
   7  -5   2   18.08    3.57
   8  -5   2  101.17    9.25
   9  -5   2   39.58    6.22
  10  -5   2   31.55    6.03
  11  -5   2    1.55    3.12
  12  -5   2    1.38    3.14
  13  -5   2   18.69    6.43
  14  -5   2   51.28    9.88
  15  -5   2   42.15   13.71
 -10  -4   2    6.86    6.32
  -9  -4   2   21.58    7.54
  -8  -4   2   22.60    5.00
  -7  -4   2   68.06    8.09
  -6  -4   2   68.68    7.47
  -5  -4   2   34.06    5.10
  -4  -4   2   28.11    4.35
  -3  -4   2  122.60    6.73
  -2  -4   2   19.63    1.96
  -1  -4   2   55.50    3.17
   0  -4   2  121.21    4.83
   1  -4   2  280.74    6.85
   2  -4   2  244.32    6.45
   3  -4   2  122.13    4.83
   4  -4   2  112.97    5.91
   5  -4   2   53.28    5.38
   6  -4   2    5.06    2.20
   7  -4   2  106.65    8.66
   8  -4   2   27.85    4.99
   9  -4   2   63.86   10.51
  10  -4   2   -0.78    3.03
  11  -4   2  304.83   21.55
  12  -4   2    4.39    4.42
  13  -4   2   13.90    6.24
  14  -4   2    9.97    6.36
 -11  -3   2   47.47   11.03
 -10  -3   2   -0.57    4.39
  -9  -3   2    2.51    3.34
  -8  -3   2   31.24    5.68
  -7  -3   2   60.55    7.43
  -6  -3   2  130.69    9.81
  -5  -3   2  120.14    9.01
  -4  -3   2  110.26    8.06
  -3  -3   2  150.57    4.90
  -2  -3   2   16.05    1.78
  -1  -3   2  124.26    3.49
   0  -3   2   47.82    2.78
   1  -3   2   80.78    2.92
   2  -3   2  266.82    5.71
   3  -3   2   47.44    3.76
   4  -3   2  274.14    8.51
   5  -3   2   73.82    3.49
   6  -3   2  142.66    5.25
   7  -3   2  127.54    7.04
   8  -3   2   31.10    7.28
   9  -3   2   34.22    8.16
  10  -3   2    9.51    4.96
  11  -3   2    6.30    4.78
  12  -3   2   12.89    5.66
  13  -3   2    3.50    5.50
  14  -3   2   40.02   13.35
 -12  -2   2   18.51   15.50
 -11  -2   2    9.29    5.00
 -10  -2   2   86.04   10.10
  -9  -2   2    2.74    3.10
  -8  -2   2   25.31    4.92
  -7  -2   2   11.51    3.57
  -6  -2   2   24.34    4.38
  -5  -2   2   38.67    4.96
  -4  -2   2    3.98    1.44
  -3  -2   2   74.60    3.91
  -2  -2   2  246.53    5.92
  -1  -2   2  264.07    6.74
   0  -2   2  421.25   11.45
   1  -2   2  184.59    9.52
   2  -2   2  410.59    8.13
   3  -2   2   82.39    4.07
   4  -2   2  230.58    5.74
   5  -2   2   13.21    2.14
   6  -2   2   14.39    2.70
   7  -2   2  198.62    8.73
   8  -2   2   42.84    5.36
   9  -2   2   63.16    7.52
  10  -2   2   96.75   14.92
  11  -2   2   38.54   10.83
  12  -2   2    8.05    5.70
  13  -2   2   18.75    7.65
  14  -2   2   30.26   20.58
 -12  -1   2    2.30    4.61
 -11  -1   2    3.44    4.27
 -10  -1   2    3.28    3.60
  -9  -1   2   21.44    4.69
  -8  -1   2    6.67    3.31
  -7  -1   2   17.99    4.16
  -6  -1   2   15.40    2.60
  -5  -1   2  316.00    8.14
  -4  -1   2   53.93    3.88
  -3  -1   2  275.96    6.58
  -2  -1   2   84.15    3.48
  -1  -1   2  201.26    5.40
   0  -1   2   45.72    3.42
   1  -1   2   48.71    5.65
   2  -1   2  195.86    5.59
   3  -1   2  254.77    7.62
   4  -1   2  112.24    4.97
   5  -1   2   50.36    4.74
   6  -1   2  166.33    5.83
   7  -1   2   96.25    5.25
   8  -1   2   56.41    6.67
   9  -1   2   78.82    8.82
  10  -1   2   14.38    4.31
  11  -1   2    6.51    4.99
  12  -1   2   82.76   15.90
  13  -1   2   -0.16    5.58
 -13   0   2    2.57    6.26
 -12   0   2    7.00    4.47
 -11   0   2   19.55    5.56
 -10   0   2  101.64   10.67
  -9   0   2   71.06    8.29
  -8   0   2  125.75   10.28
  -7   0   2   80.06    5.93
  -6   0   2   22.37    2.93
  -5   0   2    3.31    1.41
  -4   0   2  120.77    4.58
  -3   0   2   50.43    3.35
  -2   0   2  420.72    7.33
  -1   0   2   51.07    3.91
   0   0   2  840.35   14.54
   1   0   2   39.61    4.60
   2   0   2  420.56   14.43
   4   0   2  113.92    5.61
   5   0   2    1.01    1.19
   6   0   2   17.38    2.69
   7   0   2   71.38    5.46
   8   0   2  101.28    9.38
   9   0   2   71.72    8.66
  10   0   2   99.50   10.80
  11   0   2    6.17    4.94
  12   0   2    4.78    5.66
  13   0   2   10.05    7.69
 -13   1   2   -1.07    5.02
 -12   1   2   56.38    8.60
 -11   1   2    3.34    3.42
 -10   1   2   17.56    4.77
  -9   1   2   60.58    7.59
  -8   1   2   47.81    5.01
  -7   1   2   97.27    6.36
  -6   1   2  167.88    6.34
  -5   1   2   56.54    4.21
  -4   1   2  114.87    4.42
  -3   1   2  260.97    5.94
  -2   1   2  184.91    5.11
  -1   1   2   47.66    2.88
   0   1   2   43.40    2.80
   1   1   2  195.41    6.09
   4   1   2   51.75    4.87
   5   1   2  296.22    8.61
   6   1   2   15.73    2.74
   7   1   2   15.94    3.04
   8   1   2    1.40    2.48
   9   1   2   26.59    5.57
  10   1   2    4.56    3.85
  11   1   2    2.13    3.46
  12   1   2    5.15    5.55
 -13   2   2   30.10    8.19
 -12   2   2   10.50    5.13
 -11   2   2   39.14    7.90
 -10   2   2   93.18   10.77
  -9   2   2   79.31    6.60
  -8   2   2   36.30    4.34
  -7   2   2  220.84    7.65
  -6   2   2   17.67    2.94
  -5   2   2   14.47    2.53
  -4   2   2  236.78    6.79
  -3   2   2   75.76    3.78
  -2   2   2  410.01    7.48
  -1   2   2  185.06    4.62
   0   2   2  416.58    8.42
   1   2   2  256.95   10.97
   2   2   2  219.77   10.53
   3   2   2   84.30    6.26
   4   2   2    6.09    1.76
   5   2   2   20.55    3.84
   6   2   2   27.19    3.85
   7   2   2   11.51    2.90
   8   2   2   44.28    6.95
   9   2   2    2.74    3.39
  10   2   2  102.96   11.88
  11   2   2    8.21    4.84
 -14   3   2   37.49    9.43
 -13   3   2    2.59    4.84
 -12   3   2   21.12    6.48
 -11   3   2    7.59    4.11
 -10   3   2   12.34    3.50
  -9   3   2   57.67    6.21
  -8   3   2   24.68    3.84
  -7   3   2  137.31    6.87
  -6   3   2  124.72    6.62
  -5   3   2   76.31    4.62
  -4   3   2  270.35    7.02
  -3   3   2   45.85    2.66
  -2   3   2  251.08    7.94
  -1   3   2   89.81    4.40
   0   3   2   50.85    6.37
   1   3   2  127.05    7.69
   2   3   2   12.59    2.52
   3   3   2  150.06    6.70
   4   3   2  109.34    5.61
   5   3   2  107.42    8.79
   6   3   2  145.03   11.05
   7   3   2   61.39    6.23
   8   3   2   24.30    5.57
   9   3   2    1.92    3.61
  10   3   2   -0.53    3.82
  11   3   2   41.13    8.09
 -14   4   2   12.78    6.60
 -13   4   2   29.76    7.38
 -12   4   2    2.37    3.94
 -11   4   2  309.26   12.65
 -10   4   2    2.33    2.40
  -9   4   2   68.21    6.57
  -8   4   2   31.69    4.36
  -7   4   2  102.15    7.05
  -6   4   2    6.55    1.84
  -5   4   2   59.47    4.38
  -4   4   2  123.32    4.46
  -3   4   2  119.16    6.04
  -2   4   2  243.37    7.78
  -1   4   2  259.27    7.53
   0   4   2  115.99    6.05
   1   4   2   58.16    5.21
   2   4   2   20.26    3.23
   3   4   2  126.07    6.22
   4   4   2   42.15    5.78
   5   4   2   37.79    5.92
   6   4   2   52.25    7.30
   7   4   2   65.01    6.84
   8   4   2   26.26    5.93
   9   4   2   20.44    5.93
  10   4   2    4.90    4.59
 -15   5   2   43.15   13.44
 -14   5   2   28.58    8.43
 -13   5   2   13.90    6.02
 -12   5   2    5.21    3.49
 -11   5   2    0.52    2.55
 -10   5   2   27.78    4.42
  -9   5   2   38.05    4.95
  -8   5   2  107.74    7.78
  -7   5   2   32.59    3.79
  -6   5   2  295.70    8.72
  -5   5   2    6.05    1.68
  -4   5   2   57.68    5.65
  -3   5   2   14.75    2.81
  -2   5   2   64.59    3.86
  -1   5   2   54.49    3.11
   0   5   2    0.94    1.54
   1   5   2  158.67    7.95
   2   5   2  216.95    8.76
   3   5   2   25.14    4.66
   4   5   2   71.44    8.06
   5   5   2   29.16    5.78
   6   5   2   68.81    8.68
   7   5   2   -0.44    2.33
   8   5   2   50.53    8.87
   9   5   2    2.17    3.97
 -14   6   2    0.60    4.60
 -13   6   2   49.01    7.10
 -12   6   2   49.07    6.95
 -11   6   2   52.07    6.56
 -10   6   2   71.45    7.13
  -9   6   2  160.84    9.05
  -8   6   2   35.78    4.63
  -7   6   2   17.87    3.13
  -6   6   2   18.32    2.81
  -5   6   2  168.07    6.52
  -4   6   2   18.69    2.77
  -3   6   2  144.43    5.74
  -2   6   2    9.77    1.80
  -1   6   2  315.64   11.25
   0   6   2   16.58    3.53
   1   6   2   92.86    7.72
   2   6   2   33.57    8.14
   3   6   2   62.07    7.67
   4   6   2    5.22    3.03
   5   6   2    0.82    2.98
   6   6   2   40.52    7.11
   7   6   2   36.25    5.77
   8   6   2   44.86    9.06
 -14   7   2    8.00    5.24
 -13   7   2   36.02    7.83
 -12   7   2   11.99    5.29
 -11   7   2   66.90    9.51
 -10   7   2   80.82   10.16
  -9   7   2   10.37    3.79
  -8   7   2   14.55    4.25
  -7   7   2   69.90    5.62
  -6   7   2   89.81    6.19
  -5   7   2  222.30    7.62
  -4   7   2  132.57    5.89
  -3   7   2  105.68    8.72
  -2   7   2   30.86    4.81
  -1   7   2   18.85    3.84
   0   7   2   81.77    7.45
   1   7   2   72.72   11.59
   2   7   2   53.07    7.38
   3   7   2   14.33    4.53
   4   7   2  263.49   14.56
   5   7   2   -2.04    3.04
   6   7   2   59.65    8.99
   7   7   2    3.61    3.57
 -15   8   2   59.93   14.71
 -14   8   2   41.01    9.03
 -13   8   2   55.42    9.42
 -12   8   2   35.64    7.39
 -11   8   2   49.47    8.01
 -10   8   2   26.69    6.21
  -9   8   2    3.56    3.37
  -8   8   2  121.98   11.06
  -7   8   2   56.51    5.47
  -6   8   2   32.74    3.97
  -5   8   2   34.78    5.19
  -4   8   2   41.98    5.82
  -3   8   2  109.64    9.23
  -2   8   2   19.81    4.23
  -1   8   2   14.46    4.01
   0   8   2   96.49   13.38
   1   8   2   66.93    8.46
   2   8   2  107.87   11.18
   3   8   2    1.08    3.39
   4   8   2    4.30    4.00
   5   8   2   27.70    7.10
   6   8   2    0.26    4.09
   7   8   2   40.82   13.28
 -15   9   2    9.55    8.43
 -14   9   2    4.55    5.18
 -13   9   2   21.26    6.79
 -12   9   2   11.54    5.21
 -11   9   2    2.85    3.84
 -10   9   2   29.82    6.36
  -9   9   2   75.49    9.39
  -8   9   2   76.52    8.74
  -7   9   2   68.63    7.67
  -6   9   2   54.17    7.03
  -5   9   2   63.92    7.57
  -4   9   2   37.93    6.11
  -3   9   2  159.84   11.54
  -2   9   2   11.06    3.61
  -1   9   2    6.91    4.90
   0   9   2   70.63   12.20
   1   9   2   25.90    6.04
   2   9   2   49.60    8.24
   3   9   2   26.20    6.96
   4   9   2   28.66    7.26
   5   9   2   30.57    7.93
   6   9   2    0.97    7.69
 -14  10   2    2.79    4.51
 -13  10   2    1.67    4.80
 -12  10   2   97.34   12.29
 -11  10   2    6.52    4.44
 -10  10   2   66.32   13.69
  -9  10   2   19.70    8.20
  -8  10   2   84.60   14.16
  -7  10   2   12.81    4.48
  -6  10   2    3.70    3.24
  -5  10   2   37.56    6.15
  -4  10   2   77.37    8.92
  -3  10   2   68.81    9.38
  -2  10   2   33.04    8.67
  -1  10   2   38.68   10.32
   0  10   2  103.96   11.29
   1  10   2    1.57    3.60
   2  10   2   13.55    5.45
   3  10   2    3.90    4.53
   4  10   2    9.71    5.95
 -14  11   2   29.28    8.29
 -13  11   2   -2.41    5.77
 -12  11   2    6.43    7.68
 -11  11   2   15.50    8.48
 -10  11   2    5.38    5.85
  -9  11   2   41.81   12.07
  -8  11   2    0.02    5.33
  -7  11   2  313.58   22.46
  -6  11   2    1.65    3.03
  -5  11   2   70.24    8.96
  -4  11   2   76.27   13.41
  -3  11   2   36.54    9.49
  -2  11   2   -2.31    3.93
  -1  11   2    1.57    3.27
   0  11   2   20.17    5.92
   1  11   2   72.94   10.76
   2  11   2   23.43    7.55
   3  11   2   39.20    8.49
 -13  12   2    1.36    8.47
 -12  12   2   27.71   11.89
 -11  12   2   54.60   13.71
 -10  12   2   12.65    7.54
  -9  12   2   23.93    9.19
  -8  12   2    7.60    6.26
  -7  12   2    1.68    5.02
  -6  12   2   47.82    8.25
  -5  12   2   -2.36    4.37
  -4  12   2   48.54   11.75
  -3  12   2    5.20    6.46
  -2  12   2   95.88   11.89
  -1  12   2    8.71    4.92
   0  12   2   10.81    5.52
   1  12   2    0.42    4.71
 -12  13   2   -2.10    6.36
 -11  13   2   35.26   12.27
 -10  13   2   -0.57    5.95
  -9  13   2    3.24    6.51
  -8  13   2   29.27   10.42
  -7  13   2   50.21   12.55
  -6  13   2   41.85   10.88
  -5  13   2   41.18   11.22
  -4  13   2   24.00    9.19
  -3  13   2    5.69    4.43
  -2  13   2   -0.49    4.51
  -1  13   2   14.14    6.11
   0  13   2    5.25    8.03
 -11  14   2   36.12   13.25
 -10  14   2   -4.34    5.57
  -9  14   2   48.83   13.17
  -8  14   2   11.54    8.63
  -6  14   2   22.81    8.84
  -5  14   2   14.63    8.35
  -4  14   2    4.68    7.41
  -3  14   2   37.01    8.63
  -2  14   2   34.07   12.03
 -10  15   2   36.94   11.71
  -5  15   2    4.57    6.48
   3 -14   3   22.51   12.10
   4 -14   3   27.49    9.91
   5 -14   3   13.26    7.48
   6 -14   3   14.75    8.46
   7 -14   3   19.21    9.03
   8 -14   3   -3.03    6.04
   9 -14   3    0.38    6.70
  10 -14   3   21.27    9.18
  11 -14   3   34.06   13.69
   1 -13   3   13.91    7.88
   2 -13   3   23.11    8.97
   3 -13   3   37.87   10.41
   4 -13   3   26.60    9.56
   5 -13   3    2.31    5.53
   6 -13   3   -2.48    4.78
   7 -13   3   43.26   10.37
   8 -13   3   22.02    8.50
   9 -13   3   39.48   10.60
  10 -13   3    6.74    6.15
  11 -13   3   -0.15    5.66
  12 -13   3    9.07    9.00
  -1 -12   3   20.02    8.74
   0 -12   3   46.71   10.62
   1 -12   3   32.21    9.33
   2 -12   3    8.07    6.27
   3 -12   3    5.48    5.33
   4 -12   3   94.99   14.17
   5 -12   3   -0.86    4.14
   6 -12   3   13.19    6.88
   7 -12   3   14.49    6.93
   8 -12   3   10.37    6.16
   9 -12   3   26.24    8.23
  10 -12   3    4.42    5.29
  11 -12   3    3.22    5.65
  12 -12   3   33.83   11.98
  13 -12   3   10.43   10.16
  -3 -11   3   82.28   36.65
  -2 -11   3   -1.04    5.67
  -1 -11   3    3.21    5.31
   0 -11   3   37.44    9.62
   1 -11   3   13.09    6.32
   2 -11   3   29.67    8.21
   3 -11   3   24.74    7.56
   4 -11   3   15.20    5.96
   5 -11   3   87.92   13.18
   6 -11   3   15.94    6.43
   7 -11   3   -0.43    3.69
   8 -11   3    5.05    4.45
   9 -11   3   62.88   13.61
  10 -11   3    2.56    4.95
  11 -11   3   13.68    5.95
  12 -11   3   11.50    5.93
  13 -11   3   -0.57    5.22
  -4 -10   3    9.79    7.04
  -3 -10   3    0.72    5.20
  -2 -10   3    7.48    5.91
  -1 -10   3   19.61    7.71
   0 -10   3  123.04   15.24
   1 -10   3   32.44    8.44
   2 -10   3  144.85   16.26
   3 -10   3    1.25    3.63
   4 -10   3    1.26    3.49
   5 -10   3   12.28    5.08
   6 -10   3   12.97    5.55
   7 -10   3    3.22    4.79
   8 -10   3   27.77    7.72
   9 -10   3   -0.49    4.11
  10 -10   3  127.45   19.42
  11 -10   3    4.98    4.39
  12 -10   3    4.31    5.44
  13 -10   3   10.46    6.69
  -5  -9   3   -4.50    4.49
  -4  -9   3   60.27   11.62
  -3  -9   3   22.28    7.46
  -2  -9   3   69.22   11.70
  -1  -9   3    1.98    4.18
   0  -9   3    4.11    4.24
   1  -9   3   57.25    9.81
   2  -9   3   15.69    5.39
   3  -9   3    0.26    2.84
   4  -9   3    2.44    3.41
   5  -9   3  203.54   16.24
   6  -9   3   27.90    6.85
   7  -9   3  131.31   17.44
   8  -9   3    1.84    4.04
   9  -9   3    4.10    4.91
  10  -9   3    9.36    6.03
  11  -9   3   15.50    6.67
  12  -9   3    0.64    5.36
  13  -9   3   17.75    6.47
  14  -9   3   -0.44    6.02
  -6  -8   3    1.36    5.36
  -5  -8   3   35.51    9.33
  -4  -8   3    7.08    5.10
  -3  -8   3    6.33    4.90
  -2  -8   3   25.29    7.09
  -1  -8   3   -0.18    3.25
   0  -8   3    3.01    3.07
   1  -8   3  163.73   14.99
   2  -8   3   57.29    8.92
   3  -8   3  207.50   13.80
   4  -8   3   80.44   10.81
   5  -8   3    6.11    4.08
   6  -8   3    0.93    3.19
   7  -8   3    7.16    5.47
   8  -8   3    2.72    3.80
   9  -8   3   50.55   11.50
  10  -8   3  121.49   18.89
  11  -8   3    9.10    5.67
  12  -8   3   88.60   17.11
  13  -8   3    0.65    5.33
  14  -8   3    5.40    6.08
  -7  -7   3   19.92    8.24
  -6  -7   3   50.67   10.34
  -5  -7   3   25.64    7.51
  -4  -7   3    5.15    4.51
  -3  -7   3   14.61    5.48
  -2  -7   3  109.92    9.40
  -1  -7   3   29.40    4.88
   0  -7   3  110.55    9.04
   1  -7   3   79.07   10.05
   2  -7   3   10.58    4.13
   3  -7   3   97.57   10.96
   4  -7   3    8.04    3.41
   5  -7   3    3.88    2.78
   6  -7   3  243.17   18.16
   7  -7   3  102.41   15.22
   8  -7   3  197.57   21.91
   9  -7   3   11.00    5.48
  10  -7   3    3.93    5.11
  11  -7   3   49.28   12.49
  12  -7   3   -0.53    4.02
  13  -7   3    2.31    5.05
  14  -7   3   16.11    7.73
  -8  -6   3   14.19    7.28
  -7  -6   3    9.89    6.19
  -6  -6   3    6.87    4.86
  -5  -6   3   21.89    6.79
  -4  -6   3   20.20    4.63
  -3  -6   3   39.62    5.68
  -2  -6   3    5.53    2.75
  -1  -6   3  245.81   10.31
   0  -6   3   49.70    7.51
   1  -6   3   30.13    5.82
   2  -6   3   51.24    7.64
   3  -6   3  217.68   12.21
   4  -6   3   61.61   10.25
   5  -6   3   41.93    8.77
   6  -6   3   48.27    9.87
   7  -6   3   70.34   11.99
   8  -6   3   38.69    9.51
   9  -6   3    0.74    3.99
  10  -6   3    3.52    3.72
  11  -6   3  100.26   17.46
  12  -6   3    6.69    5.66
  13  -6   3   49.78   13.87
  14  -6   3    3.03    5.81
  -9  -5   3    2.67    5.41
  -8  -5   3   -0.33    3.94
  -7  -5   3    1.43    4.32
  -6  -5   3   87.50    9.15
  -5  -5   3   11.11    3.94
  -4  -5   3  225.08   11.31
  -3  -5   3   13.01    3.73
  -2  -5   3    8.13    2.84
  -1  -5   3   47.02    3.37
   0  -5   3  140.79    6.24
   1  -5   3   18.56    4.32
   2  -5   3   94.83    9.23
   3  -5   3   48.25    8.30
   4  -5   3  228.43   15.34
   5  -5   3  154.27   16.27
   6  -5   3   16.72    3.55
   7  -5   3    5.08    2.42
   8  -5   3  156.01   10.18
   9  -5   3    0.50    2.57
  10  -5   3    7.74    3.75
  11  -5   3   17.11    5.10
  12  -5   3   11.08    5.83
  13  -5   3    6.81    6.12
  14  -5   3    2.13    5.44
  -9  -4   3   21.32    7.86
  -8  -4   3   90.42   10.20
  -7  -4   3   46.25    6.85
  -6  -4   3    1.08    2.86
  -5  -4   3    8.24    3.09
  -4  -4   3   62.06    6.84
  -3  -4   3   18.51    3.68
  -2  -4   3   66.27    4.69
  -1  -4   3  255.90    7.29
   0  -4   3  131.11    8.14
   1  -4   3  376.09   13.98
   2  -4   3   12.05    3.48
   3  -4   3   22.69    5.98
   4  -4   3  119.59    5.36
   5  -4   3   10.56    2.45
   6  -4   3   51.57    5.78
   7  -4   3   93.81    8.24
   8  -4   3   50.63    6.68
   9  -4   3  218.79   12.99
  10  -4   3   10.39    4.05
  11  -4   3    5.51    3.82
  12  -4   3    4.53    4.15
  13  -4   3   47.14    9.44
 -10  -3   3   30.99    7.56
  -9  -3   3    5.69    3.58
  -8  -3   3   18.09    4.92
  -7  -3   3    3.59    3.16
  -6  -3   3    3.52    2.69
  -5  -3   3  191.75   10.33
  -4  -3   3  114.67    8.90
  -3  -3   3  230.98    7.07
  -2  -3   3   57.56    4.36
  -1  -3   3   27.92    3.37
   0  -3   3   82.42    6.82
   1  -3   3   32.23    4.44
   2  -3   3   75.88    9.57
   3  -3   3   91.99   10.86
   4  -3   3  361.85    9.90
   5  -3   3   95.76    4.05
   6  -3   3  225.82    9.73
   7  -3   3   20.43    4.27
   8  -3   3   12.15    3.59
   9  -3   3   29.47    5.89
  10  -3   3    4.12    3.39
  11  -3   3    9.40    4.35
  12  -3   3    9.88    4.57
  13  -3   3    8.85    4.97
  14  -3   3   57.70   14.78
 -11  -2   3    8.76    5.63
 -10  -2   3   10.76    4.55
  -9  -2   3   24.22    5.60
  -8  -2   3  149.66   12.11
  -7  -2   3   14.62    3.99
  -6  -2   3   74.60    7.70
  -5  -2   3   13.67    3.39
  -4  -2   3   53.70    4.43
  -3  -2   3   98.38    5.21
  -2  -2   3   12.02    1.95
  -1  -2   3   80.98    4.94
   0  -2   3  337.99    8.44
   1  -2   3   60.03    7.56
   2  -2   3  318.76   14.79
   3  -2   3   32.92    3.23
   4  -2   3    6.32    1.90
   5  -2   3   47.61    5.05
   6  -2   3   53.89    4.53
   7  -2   3    9.69    2.61
   8  -2   3    2.17    3.49
   9  -2   3  106.03   14.28
  10  -2   3   19.35    6.85
  11  -2   3   85.83   14.89
  12  -2   3    0.07    4.27
  13  -2   3    0.62    5.68
 -12  -1   3   25.38   11.35
 -11  -1   3   25.39    6.84
 -10  -1   3   11.43    4.33
  -9  -1   3   24.33    5.44
  -8  -1   3   37.64    6.03
  -7  -1   3  180.59   11.49
  -6  -1   3   90.03    6.23
  -5  -1   3   27.82    3.38
  -4  -1   3   20.37    2.75
  -3  -1   3  365.92    8.46
  -2  -1   3   34.58    3.03
  -1  -1   3   74.23    4.21
   0  -1   3   58.92    5.14
   1  -1   3   59.53    6.84
   2  -1   3   72.36    8.24
   3  -1   3   85.90    4.90
   4  -1   3   31.01    4.03
   5  -1   3  251.02    9.74
   6  -1   3   50.83    5.48
   7  -1   3  228.26    7.97
   8  -1   3   16.64    4.01
   9  -1   3    1.40    3.61
  10  -1   3    1.94    4.23
  11  -1   3    4.86    5.02
  12  -1   3    6.06    5.82
  13  -1   3    8.91    9.17
 -12   0   3   56.72    9.92
 -11   0   3   31.68    6.65
 -10   0   3  140.75   12.54
  -9   0   3    1.47    2.84
  -8   0   3    2.39    2.91
  -7   0   3  104.25    7.05
  -6   0   3   51.49    4.78
  -5   0   3  132.85    5.91
  -4   0   3  127.83    5.61
  -3   0   3   85.01    4.53
  -2   0   3  313.51    8.06
  -1   0   3   58.34    4.79
   0   0   3    1.19    1.21
   1   0   3   55.54    4.85
   2   0   3  305.38   13.25
   3   0   3   69.69    8.52
   4   0   3  129.19   10.07
   5   0   3  128.55   10.02
   6   0   3   38.04    4.07
   7   0   3  101.93    6.93
   8   0   3    4.72    2.72
   9   0   3    1.03    2.73
  10   0   3  114.10   16.79
  11   0   3    9.39    6.45
  12   0   3   62.20   14.91
 -13   1   3   12.96    7.47
 -12   1   3   13.75    6.26
 -11   1   3   12.69    5.59
 -10   1   3    2.52    2.94
  -9   1   3    1.30    2.52
  -8   1   3   21.69    3.52
  -7   1   3  244.81    8.53
  -6   1   3   44.85    4.39
  -5   1   3  262.97    7.70
  -4   1   3   34.82    3.23
  -3   1   3   84.03    5.47
  -2   1   3   70.75    4.06
  -1   1   3   56.54    3.86
   0   1   3   52.71    4.25
   1   1   3   76.43    4.82
   2   1   3   28.31    3.62
   3   1   3  367.71   11.17
   5   1   3   22.04    3.88
   6   1   3   69.02    5.68
   7   1   3  191.66    8.19
   8   1   3   48.23    7.12
   9   1   3   17.85    4.53
  10   1   3   -0.67    4.15
  11   1   3    9.57    6.27
  12   1   3    8.80    9.46
 -13   2   3   -0.18    4.89
 -12   2   3   -1.11    4.16
 -11   2   3   77.54   10.70
 -10   2   3   21.83    5.99
  -9   2   3  123.01    9.12
  -8   2   3    4.27    2.26
  -7   2   3   10.29    2.68
  -6   2   3   65.11    5.75
  -5   2   3   50.16    4.67
  -4   2   3    9.56    2.09
  -3   2   3   30.83    3.08
  -2   2   3  307.45    7.27
  -1   2   3   69.70    3.74
   0   2   3  321.75    8.38
   1   2   3   76.35    4.73
   2   2   3   10.55    2.45
   3   2   3   95.84   10.31
   4   2   3   43.36    5.33
   5   2   3   14.94    2.67
   6   2   3   71.77    5.41
   7   2   3   13.07    3.16
   8   2   3  120.45   11.32
   9   2   3   50.23    7.91
  10   2   3    7.53    4.84
  11   2   3    5.60    5.94
 -14   3   3   25.61   11.31
 -13   3   3    8.18    5.74
 -12   3   3   33.11    8.01
 -11   3   3    8.74    4.96
 -10   3   3   10.96    3.51
  -9   3   3   35.57    5.15
  -8   3   3   14.74    3.38
  -7   3   3   24.96    3.80
  -6   3   3  222.40    8.11
  -5   3   3   94.22    5.55
  -4   3   3  357.17    8.81
  -3   3   3   83.72    4.04
  -2   3   3   72.29    6.21
  -1   3   3   28.26    5.90
   0   3   3   84.90    4.10
   1   3   3   29.04    3.54
   2   3   3   41.29    6.88
   3   3   3  226.64    9.53
   4   3   3  103.83    8.32
   5   3   3  204.23   10.57
   6   3   3   -0.26    2.34
   7   3   3    8.82    3.04
   8   3   3   16.72    4.89
   9   3   3    0.91    3.30
  10   3   3   44.94    8.39
 -14   4   3    6.09    7.67
 -13   4   3   37.49    8.38
 -12   4   3    2.01    4.26
 -11   4   3    4.61    3.27
 -10   4   3   17.41    3.93
  -9   4   3  188.59    9.65
  -8   4   3   53.50    5.79
  -7   4   3  111.31    7.62
  -6   4   3   49.17    4.59
  -5   4   3   17.27    2.67
  -4   4   3  125.25    4.81
  -3   4   3   33.80    4.64
  -2   4   3    7.14    2.21
  -1   4   3  358.07   10.84
   0   4   3  131.95    4.90
   1   4   3  256.01   13.91
   2   4   3   63.41    6.42
   3   4   3   18.54    3.61
   4   4   3   54.78    6.87
   5   4   3    6.21    3.14
   6   4   3    3.91    3.17
   7   4   3   29.26    4.98
   8   4   3   99.90   11.49
   9   4   3   25.77    6.79
  10   4   3   44.53    9.19
 -14   5   3   -5.86    7.39
 -13   5   3   12.62    9.40
 -12   5   3   17.38    5.74
 -11   5   3   20.84    5.12
 -10   5   3   20.28    4.44
  -9   5   3    3.36    2.34
  -8   5   3  203.55    9.83
  -7   5   3   20.38    4.48
  -6   5   3   33.75    5.64
  -5   5   3  138.82   10.17
  -4   5   3  267.23   10.74
  -3   5   3   58.42    5.93
  -2   5   3   96.75    7.13
  -1   5   3   16.78    3.00
   0   5   3  129.85    9.42
   1   5   3   43.30    5.67
   2   5   3    6.99    2.67
   3   5   3   19.94    6.73
   4   5   3  206.61   12.36
   5   5   3   14.44    4.56
   6   5   3   68.33    9.01
   7   5   3   -1.81    2.54
   8   5   3   -2.15    3.33
   9   5   3   11.98    6.01
 -14   6   3    4.08    8.42
 -13   6   3   55.16    9.75
 -12   6   3    6.62    4.96
 -11   6   3   86.77   11.06
 -10   6   3    1.81    3.23
  -9   6   3    1.02    3.02
  -8   6   3   62.90    8.12
  -7   6   3   72.24    8.08
  -6   6   3   45.35    6.21
  -5   6   3   45.53    5.96
  -4   6   3   60.45    6.46
  -3   6   3  214.07    9.14
  -2   6   3   49.41    6.08
  -1   6   3   18.78    4.06
   0   6   3   38.35    5.29
   1   6   3  224.78   10.50
   2   6   3   12.69    5.44
   3   6   3   43.47    9.44
   4   6   3   20.19    5.20
   5   6   3   20.87    5.73
   6   6   3    9.20    4.93
   7   6   3   -0.59    2.98
   8   6   3    9.58    5.49
 -14   7   3   24.07    7.54
 -13   7   3    3.00    4.78
 -12   7   3   -0.63    4.12
 -11   7   3   43.98    8.02
 -10   7   3    0.71    3.33
  -9   7   3    8.80    4.15
  -8   7   3  172.72   13.40
  -7   7   3   90.37    9.22
  -6   7   3  243.41   11.48
  -5   7   3   10.26    2.62
  -4   7   3   23.95    4.71
  -3   7   3  107.12    9.46
  -2   7   3   13.47    3.73
  -1   7   3   64.67    7.44
   0   7   3  103.35    9.32
   1   7   3   23.57    7.18
   2   7   3   95.80   14.42
   3   7   3    6.05    3.41
   4   7   3    2.65    3.39
   5   7   3   16.48    5.66
   6   7   3   71.59   10.54
   7   7   3   41.43    7.00
 -14   8   3    9.35    6.25
 -13   8   3    8.53    5.62
 -12   8   3   86.20   11.93
 -11   8   3   29.40    6.94
 -10   8   3  131.19   12.90
  -9   8   3   41.78    7.31
  -8   8   3    6.33    3.27
  -7   8   3   22.84    3.90
  -6   8   3    4.21    3.18
  -5   8   3   10.62    3.85
  -4   8   3   47.44    6.56
  -3   8   3  196.58   10.63
  -2   8   3   73.48    8.20
  -1   8   3  187.45   11.19
   0   8   3    4.98    4.92
   1   8   3    2.91    3.91
   2   8   3   35.74    6.99
   3   8   3    6.64    3.69
   4   8   3    9.45    5.08
   5   8   3   22.89    6.53
   6   8   3    3.35    4.78
 -14   9   3   17.74    6.96
 -13   9   3   39.28    8.48
 -12   9   3    3.85    4.90
 -11   9   3   23.43    6.72
 -10   9   3   27.57    6.72
  -9   9   3    1.61    3.37
  -8   9   3    2.03    5.03
  -7   9   3  116.72   10.63
  -6   9   3   40.65    6.38
  -5   9   3  218.63   12.13
  -4   9   3    1.42    2.85
  -3   9   3    0.09    2.41
  -2   9   3   19.19    4.94
  -1   9   3   44.19    9.89
   0   9   3    5.17    4.81
   1   9   3    2.67    4.68
   2   9   3   77.26   10.04
   3   9   3   19.30    6.03
   4   9   3   48.02    9.11
   5   9   3    1.85    4.72
 -14  10   3   27.00    9.00
 -13  10   3   17.37    6.14
 -12  10   3   19.71    6.64
 -11  10   3    3.70    6.89
 -10  10   3  168.70   22.88
  -9  10   3    2.65    6.35
  -8  10   3   18.36    7.82
  -7  10   3   13.41    4.69
  -6  10   3   15.98    4.92
  -5  10   3   14.87    4.58
  -4  10   3    1.43    2.75
  -3  10   3    6.58    3.82
  -2  10   3  123.08   17.19
  -1  10   3   26.84    8.97
   0  10   3   91.13   15.72
   1  10   3    6.10    4.45
   2  10   3    1.31    4.21
   3  10   3    9.05    5.72
   4  10   3   10.57    9.44
 -13  11   3    5.07    8.31
 -12  11   3   29.22   10.58
 -11  11   3   27.60   11.81
 -10  11   3    8.91    8.05
  -9  11   3   71.66   15.13
  -8  11   3    5.61    6.22
  -7  11   3    4.07    3.80
  -6  11   3   23.87    5.90
  -5  11   3   86.52   10.24
  -4  11   3   45.82    8.57
  -3  11   3   20.63    8.09
  -2  11   3   45.80   12.02
  -1  11   3    8.08    6.63
   0  11   3   20.23    6.43
   1  11   3    1.62    4.91
   2  11   3    0.29    4.36
 -12  12   3   43.67   13.53
 -11  12   3   14.47    9.72
 -10  12   3   14.14    8.76
  -9  12   3   17.61    9.21
  -8  12   3   10.62    7.75
  -7  12   3    6.38    6.91
  -6  12   3    3.37    4.39
  -5  12   3    4.30    5.58
  -4  12   3   81.53   15.18
  -3  12   3   -3.36    4.28
  -2  12   3    4.21    7.15
  -1  12   3   26.47    6.88
   0  12   3   45.80    9.53
 -11  13   3    8.45    8.03
 -10  13   3    6.08    7.34
  -9  13   3   48.38   14.16
  -8  13   3   30.86   11.34
  -7  13   3   62.32   14.78
  -6  13   3    4.47    6.87
  -5  13   3   -6.28    5.25
  -4  13   3   31.12   11.08
  -3  13   3   25.63   11.49
  -2  13   3   12.01    5.55
  -1  13   3    4.95    7.27
 -10  14   3   -2.62    7.10
  -9  14   3    2.20    6.23
  -8  14   3   -0.78    6.95
  -6  14   3   15.14   10.15
  -5  14   3   16.12    9.65
  -4  14   3   28.35   11.29
  -3  14   3   22.75   10.92
   2 -13   4    8.67   13.46
   3 -13   4    5.29    6.98
   4 -13   4    8.23    6.82
   5 -13   4   39.76   10.39
   6 -13   4   65.32   12.96
   7 -13   4   11.55    7.42
   8 -13   4   24.74    9.48
   9 -13   4    3.88    6.69
  10 -13   4    2.24    5.81
   0 -12   4   -5.73   10.37
   1 -12   4    1.54    5.47
   2 -12   4  135.06   18.14
   3 -12   4    1.45    5.69
   4 -12   4   12.53    6.36
   5 -12   4   -1.57    3.88
   6 -12   4    9.93    5.85
   7 -12   4    1.73    5.55
   8 -12   4   13.14    7.48
   9 -12   4   29.13    8.92
  10 -12   4  101.21   19.75
  11 -12   4   65.56   15.76
  -1 -11   4   80.94   14.16
   0 -11   4    3.41    5.71
   1 -11   4    3.72    5.86
   2 -11   4   15.88    7.10
   3 -11   4   15.99    6.87
   4 -11   4   -0.68    4.23
   5 -11   4   39.18    9.74
   6 -11   4    9.98    6.08
   7 -11   4  177.97   19.38
   8 -11   4    8.42    6.17
   9 -11   4   24.50    8.62
  10 -11   4    7.01    6.35
  11 -11   4   -3.99    5.44
  12 -11   4    3.95    6.27
  -2 -10   4   76.17   13.36
  -1 -10   4    1.54    4.96
   0 -10   4   10.89    6.25
   1 -10   4   13.10    6.36
   2 -10   4   25.89    7.37
   3 -10   4   53.73   10.40
   4 -10   4   61.16   10.57
   5 -10   4   21.75    7.34
   6 -10   4   30.75    8.58
   7 -10   4   18.80    6.56
   8 -10   4    7.13    5.67
   9 -10   4    0.99    4.83
  10 -10   4   -0.95    5.19
  11 -10   4   -0.11    5.92
  12 -10   4  122.17   21.15
  13 -10   4    0.43   10.43
  -4  -9   4    8.69    7.57
  -3  -9   4    4.84    7.47
  -2  -9   4   12.88    6.72
  -1  -9   4   11.16    5.80
   0  -9   4   64.30   11.50
   1  -9   4    2.92    3.94
   2  -9   4   26.40    7.24
   3  -9   4   83.50   11.65
   4  -9   4    3.53    3.85
   5  -9   4   38.43    8.89
   6  -9   4   18.91    6.05
   7  -9   4   41.18   10.95
   8  -9   4   34.45   10.93
   9  -9   4   61.83   13.93
  10  -9   4    8.24    6.50
  11  -9   4    5.32    6.24
  12  -9   4    1.24    5.82
  13  -9   4    3.80    6.12
  -5  -8   4   22.63    9.78
  -4  -8   4    8.64    7.42
  -3  -8   4   -1.45    4.46
  -2  -8   4    4.31    4.29
  -1  -8   4   43.67    8.90
   0  -8   4  148.43   11.71
   1  -8   4   21.50    6.32
   2  -8   4   20.47    6.15
   3  -8   4   30.43    7.24
   4  -8   4   26.14    6.94
   5  -8   4  117.74   13.47
   6  -8   4   -1.11    3.17
   7  -8   4    5.65    4.23
   8  -8   4  139.94   19.46
   9  -8   4    5.00    5.07
  10  -8   4    5.26    6.19
  11  -8   4   11.42    6.73
  12  -8   4    6.82    6.03
  13  -8   4   13.38    8.12
  -6  -7   4    9.00    7.86
  -5  -7   4    2.21    5.91
  -4  -7   4  168.18   21.91
  -3  -7   4   18.32    4.78
  -2  -7   4   37.66    6.09
  -1  -7   4   -1.05    2.26
   0  -7   4   25.00    5.00
   1  -7   4    8.85    4.28
   2  -7   4   -0.67    2.64
   3  -7   4   23.49    5.93
   4  -7   4  138.17   13.89
   5  -7   4  103.00   15.13
   6  -7   4   44.78   10.52
   7  -7   4    7.67    4.57
   8  -7   4    7.51    4.87
   9  -7   4   16.11    5.93
  10  -7   4   52.09   12.46
  11  -7   4    2.07    5.36
  12  -7   4    2.18    5.94
  13  -7   4   52.71   14.29
  -7  -6   4   54.21   14.23
  -6  -6   4   13.81    8.06
  -5  -6   4   17.41    5.91
  -4  -6   4   28.70    6.43
  -3  -6   4   25.45    5.15
  -2  -6   4    2.48    2.74
  -1  -6   4   47.46    6.23
   0  -6   4    8.67    2.82
   1  -6   4  317.58   15.37
   2  -6   4    1.93    2.61
   3  -6   4    9.17    3.61
   4  -6   4    4.74    3.26
   5  -6   4    8.88    4.06
   6  -6   4    5.12    3.86
   7  -6   4    2.79    3.54
   8  -6   4    8.67    4.75
   9  -6   4   67.32   13.59
  10  -6   4   52.21   12.99
  11  -6   4   19.55    7.99
  12  -6   4    8.69    6.28
  13  -6   4    5.41    6.81
  -8  -5   4   40.54   12.89
  -7  -5   4   -2.30    3.86
  -6  -5   4   27.53    6.49
  -5  -5   4   32.21    6.80
  -4  -5   4   68.45    9.17
  -3  -5   4  128.88   10.26
  -2  -5   4  113.54    9.22
  -1  -5   4   13.00    2.75
   0  -5   4    2.49    1.79
   1  -5   4   12.14    3.98
   2  -5   4   32.63    6.05
   3  -5   4   12.48    3.15
   4  -5   4   31.92    7.76
   5  -5   4    0.47    2.46
   6  -5   4  293.46   19.95
   7  -5   4    3.39    3.39
   8  -5   4   41.21   10.37
   9  -5   4    7.57    5.42
  10  -5   4    4.41    5.70
  11  -5   4   -1.79    5.24
  12  -5   4    3.42    5.52
  13  -5   4    1.79    6.31
  -9  -4   4    2.58    6.09
  -8  -4   4   14.22    6.12
  -7  -4   4    0.13    3.19
  -6  -4   4   53.86    8.37
  -5  -4   4    4.03    3.56
  -4  -4   4   35.76    6.25
  -3  -4   4  165.54   10.50
  -2  -4   4    6.72    2.16
  -1  -4   4   49.01    4.44
   0  -4   4   36.07    4.13
   1  -4   4   59.65    7.15
   2  -4   4  156.55    9.58
   3  -4   4  355.97   19.03
   4  -4   4   28.61    7.12
   5  -4   4    6.78    3.55
   6  -4   4    1.18    3.03
   7  -4   4   39.41    9.51
   8  -4   4   31.22    8.77
   9  -4   4   32.52    9.58
  10  -4   4    8.34    5.97
  12  -4   4    4.11    6.47
  13  -4   4    2.71    6.07
 -10  -3   4    0.01    5.04
  -9  -3   4    6.38    4.69
  -8  -3   4   13.52    5.58
  -7  -3   4   42.95    7.65
  -6  -3   4   81.35    9.92
  -5  -3   4   20.48    5.16
  -4  -3   4   31.99    5.72
  -3  -3   4   13.28    2.86
  -2  -3   4   14.23    2.55
  -1  -3   4  337.82   10.20
   0  -3   4   31.07    3.62
   1  -3   4    2.66    1.94
   2  -3   4  159.09   12.04
   3  -3   4   37.64    7.87
   4  -3   4   49.99    8.69
   5  -3   4   31.71    7.59
   6  -3   4    3.47    3.31
   7  -3   4  166.47   18.72
   8  -3   4   74.61   13.25
   9  -3   4    7.18    5.31
  10  -3   4   15.30    6.36
  11  -3   4    4.46    6.10
  12  -3   4    4.55    6.53
  13  -3   4   -6.23    5.38
 -11  -2   4   -0.42    8.44
 -10  -2   4  101.52   12.94
  -9  -2   4    8.70    4.88
  -8  -2   4   22.81    5.74
  -7  -2   4   22.61    5.15
  -6  -2   4   15.61    4.54
  -5  -2   4    1.85    3.00
  -4  -2   4    0.85    1.69
  -3  -2   4   42.59    4.71
  -2  -2   4  162.86    7.37
  -1  -2   4  158.90    7.92
   0  -2   4   33.43    3.56
   1  -2   4   66.58    4.89
   2  -2   4   39.81    7.23
   3  -2   4   -0.25    1.95
   4  -2   4  144.52   11.97
   5  -2   4    3.91    3.16
   6  -2   4    0.91    2.91
   7  -2   4  103.98   14.99
   8  -2   4    0.73    3.33
   9  -2   4   53.40   11.89
  10  -2   4   -0.16    4.25
  11  -2   4    6.94    6.98
  12  -2   4   44.15   13.50
 -11  -1   4   -1.65    4.64
 -10  -1   4    8.80    5.18
  -9  -1   4   13.48    5.41
  -8  -1   4    5.77    4.13
  -7  -1   4   20.13    5.24
  -6  -1   4   14.80    3.59
  -5  -1   4  297.81   10.15
  -4  -1   4   13.40    2.98
  -3  -1   4   53.54    5.01
  -2  -1   4    4.19    1.82
  -1  -1   4   69.10    6.38
   0  -1   4   23.72    3.89
   1  -1   4   22.33    3.76
   2  -1   4   74.56    9.48
   3  -1   4  155.81    6.48
   4  -1   4  334.23   10.76
   5  -1   4   38.60    4.99
   6  -1   4    6.85    2.20
   7  -1   4   53.68    7.11
   8  -1   4    0.76    2.66
   9  -1   4   34.39    6.61
  10  -1   4    5.34    4.20
  11  -1   4    3.51    6.19
 -12   0   4    7.04    8.74
 -11   0   4    1.92    4.56
 -10   0   4   11.81    5.20
  -9   0   4   55.13    9.21
  -8   0   4  155.72   13.66
  -7   0   4   22.78    3.97
  -6   0   4    4.66    2.34
  -5   0   4    0.14    1.61
  -4   0   4   37.64    4.37
  -3   0   4   35.13    4.01
  -2   0   4   36.47    4.02
  -1   0   4   21.95    3.55
   0   0   4  918.19   19.96
   1   0   4   25.15    3.91
   2   0   4   45.16    5.21
   3   0   4   35.75    4.91
   4   0   4   51.22    8.71
   5   0   4    0.94    1.88
   6   0   4    7.71    2.34
   7   0   4   13.89    2.70
   8   0   4  158.24   12.72
   9   0   4   48.66    7.70
  10   0   4    9.14    4.59
  11   0   4    2.78    4.66
  12   0   4    3.03    6.41
 -12   1   4   62.00   10.55
 -11   1   4    2.96    4.64
 -10   1   4    9.74    4.70
  -9   1   4   47.05    7.97
  -8   1   4   -0.38    2.27
  -7   1   4   44.40    5.42
  -6   1   4   12.98    2.98
  -5   1   4   49.73    5.03
  -4   1   4  325.58    9.88
  -3   1   4  163.99    6.62
  -2   1   4   71.76    5.18
  -1   1   4   16.51    3.07
   0   1   4   19.54    3.19
   1   1   4   68.50    6.04
   2   1   4    3.73    1.89
   3   1   4   59.40    6.27
   4   1   4    4.14    2.13
   5   1   4  286.61   12.05
   6   1   4   12.26    2.16
   7   1   4   12.93    2.67
   8   1   4    2.13    2.89
   9   1   4   10.53    5.54
  10   1   4   -1.42    5.48
  11   1   4    4.33    6.31
 -13   2   4   15.46   10.35
 -12   2   4   90.90   12.59
 -11   2   4   23.16    7.01
 -10   2   4    3.32    4.16
  -9   2   4   35.40    5.53
  -8   2   4    1.49    2.28
  -7   2   4  112.89    8.35
  -6   2   4    4.04    2.32
  -5   2   4   12.96    2.83
  -4   2   4  159.10    6.92
  -3   2   4    0.81    1.25
  -2   2   4   41.13    3.81
  -1   2   4   66.29    4.58
   0   2   4   35.80    4.04
   1   2   4  149.73    7.23
   2   2   4  145.91    7.34
   3   2   4   36.00    4.94
   4   2   4    0.67    2.18
   5   2   4   -1.15    1.71
   6   2   4   11.57    3.18
   7   2   4   25.03    4.17
   8   2   4   22.57    5.63
   9   2   4    4.99    5.24
  10   2   4   99.02   18.22
  11   2   4   13.64    8.78
 -12   3   4   33.38   11.83
 -11   3   4   15.52    8.57
 -10   3   4   30.85    5.12
  -9   3   4   20.32    3.98
  -8   3   4  122.87    8.88
  -7   3   4  155.92    8.58
  -6   3   4   15.38    3.08
  -5   3   4   36.28    4.54
  -4   3   4   57.03    6.72
  -3   3   4   27.46    4.82
  -2   3   4  149.70    8.21
  -1   3   4    0.92    2.72
   0   3   4   37.88    7.50
   1   3   4  325.20   17.56
   2   3   4   11.06    4.92
   3   3   4   15.96    5.10
   4   3   4   24.92    4.76
   5   3   4   35.70    5.66
   6   3   4   78.08    9.04
   7   3   4   54.69    6.54
   8   3   4   11.07    4.63
   9   3   4    4.02    4.06
  10   3   4    3.43    5.42
 -13   4   4    6.41    7.65
 -12   4   4   17.61    9.51
 -11   4   4  182.52   15.89
 -10   4   4   31.34    6.85
  -9   4   4   40.34    7.36
  -8   4   4   31.23    6.22
  -7   4   4   33.78    6.11
  -6   4   4    3.00    2.75
  -5   4   4    6.43    2.75
  -4   4   4   28.49    4.84
  -3   4   4  312.87   12.33
  -2   4   4  171.83    8.90
  -1   4   4   61.25    6.61
   0   4   4   30.70    7.09
   1   4   4   31.54    7.42
   2   4   4   16.23    5.51
   3   4   4  145.46   10.79
   4   4   4   19.82    4.82
   5   4   4    5.58    3.38
   6   4   4   49.40    6.43
   7   4   4   -1.85    2.57
   8   4   4   13.39    5.23
   9   4   4    4.68    4.26
 -13   5   4    4.71    7.54
 -12   5   4   -1.12    4.19
 -11   5   4   12.05    5.11
 -10   5   4   23.61    5.89
  -9   5   4    2.25    3.44
  -8   5   4   19.31    5.37
  -7   5   4    2.79    2.78
  -6   5   4  288.08   13.34
  -5   5   4    2.02    2.62
  -4   5   4   46.64    6.19
  -3   5   4    8.34    2.79
  -2   5   4   39.22    5.56
  -1   5   4    6.64    2.95
   0   5   4    2.04    3.33
   1   5   4   16.55    4.22
   2   5   4   84.99    9.01
   3   5   4  122.77   15.67
   4   5   4   62.41   12.11
   5   5   4   13.20    4.49
   6   5   4   27.37    6.26
   7   5   4    5.26    3.54
   8   5   4   42.56    8.99
 -13   6   4    6.82    5.85
 -12   6   4    6.53    4.83
 -11   6   4   31.30    7.20
 -10   6   4   55.45    8.41
  -9   6   4   84.32   10.08
  -8   6   4    6.43    3.47
  -7   6   4    9.63    3.87
  -6   6   4    5.88    3.35
  -5   6   4   16.54    4.49
  -4   6   4    5.26    2.99
  -3   6   4    8.29    3.44
  -2   6   4    1.00    3.17
  -1   6   4  252.94   17.03
   0   6   4   10.31    3.78
   1   6   4   52.41    7.19
   2   6   4    1.34    4.30
   3   6   4   25.82    8.68
   4   6   4   14.64    4.90
   5   6   4   15.78    5.61
   6   6   4    9.21    5.16
   7   6   4   77.87    9.02
 -14   7   4    7.43    9.82
 -13   7   4   83.51   12.00
 -12   7   4   -1.68    4.16
 -11   7   4   -0.93    3.64
 -10   7   4   44.88    8.10
  -9   7   4   11.74    4.84
  -8   7   4   19.79    5.11
  -7   7   4   13.66    4.35
  -6   7   4   60.91    7.96
  -5   7   4  109.96   15.90
  -4   7   4  152.88   17.50
  -3   7   4   20.69    7.13
  -2   7   4    3.87    2.67
  -1   7   4   11.57    4.17
   0   7   4   19.68    4.75
   1   7   4   -0.40    3.88
   2   7   4   23.74    8.43
   3   7   4   13.07    6.90
   4   7   4  170.84   14.70
   5   7   4   -3.31    3.77
   6   7   4   10.57    5.61
   7   7   4    8.45    9.00
 -13   8   4   23.19    7.98
 -12   8   4   15.29    6.25
 -11   8   4   20.77    6.61
 -10   8   4   25.36    6.36
  -9   8   4   11.86    4.81
  -8   8   4  162.78   14.21
  -7   8   4   -1.71    4.12
  -6   8   4    4.96    3.21
  -5   8   4  128.45   11.33
  -4   8   4   23.41    5.30
  -3   8   4   16.96    4.90
  -2   8   4   21.80    5.32
  -1   8   4   20.96    5.24
   0   8   4  137.54   18.68
   1   8   4   23.91    8.98
   2   8   4    6.05    6.10
   3   8   4    8.51    4.69
   4   8   4    9.25    5.31
   5   8   4   16.07    6.48
 -13   9   4    5.31    6.09
 -12   9   4    3.48    5.38
 -11   9   4   14.66    6.21
 -10   9   4   11.42    8.21
  -9   9   4   42.00   11.59
  -8   9   4   49.70   12.51
  -7   9   4   39.03    6.69
  -6   9   4   18.25    5.22
  -5   9   4   58.20    8.24
  -4   9   4    4.43    3.52
  -3   9   4   84.40    9.48
  -2   9   4   21.11    5.55
  -1   9   4   17.25    8.14
   0   9   4   35.31   10.04
   1   9   4   13.17    7.49
   2   9   4   12.25    5.43
   3   9   4   20.34    6.56
   4   9   4   12.10    6.37
 -13  10   4   -0.86    9.63
 -12  10   4   97.31   18.77
 -11  10   4   -5.86    5.49
 -10  10   4   11.04    7.73
  -9  10   4   -5.80    5.42
  -8  10   4   -0.96    4.68
  -7  10   4   19.77    5.41
  -6  10   4   32.13    7.10
  -5  10   4   19.14    5.41
  -4  10   4   68.45    9.28
  -3  10   4   65.27    8.39
  -2  10   4   26.63    9.06
  -1  10   4    4.95    6.21
   0  10   4   -0.87    4.97
   1  10   4    2.55    4.15
   2  10   4   72.66   10.88
   3  10   4   -8.94    7.51
 -12  11   4    7.38    8.69
 -11  11   4    3.72    7.21
 -10  11   4   -2.54    6.69
  -9  11   4   18.55    9.72
  -8  11   4    6.79    6.77
  -7  11   4  209.98   17.18
  -6  11   4   13.86    5.03
  -5  11   4   35.05    7.04
  -4  11   4   -0.43    3.74
  -3  11   4   25.80    9.43
  -2  11   4    9.25    6.87
  -1  11   4    9.15    6.98
   0  11   4    0.47    6.52
   1  11   4   47.76    8.74
 -11  12   4   60.32   15.85
 -10  12   4   79.63   17.65
  -9  12   4    3.54    7.87
  -8  12   4    7.65    7.76
  -7  12   4   -4.12    4.68
  -6  12   4   14.29    5.72
  -5  12   4    2.92    5.89
  -4  12   4   13.18    7.75
  -3  12   4    5.78    6.31
  -2  12   4   92.09   17.41
  -1  12   4    0.44    6.34
 -10  13   4    0.19    8.07
  -9  13   4   11.12    9.45
  -8  13   4    5.12    8.23
  -7  13   4    0.96    8.15
  -6  13   4   37.57   11.66
  -5  13   4   51.79   14.10
  -4  13   4    6.85    7.51
  -3  13   4   -0.48    6.65
  -8  14   4   -0.86    7.90
  -6  14   4   23.19   11.56
   3 -12   5    0.29    8.84
   4 -12   5  107.31   20.86
   5 -12   5    2.29    7.88
   6 -12   5    4.34    7.46
   7 -12   5   26.24    9.54
   8 -12   5   18.98    8.63
   9 -12   5    6.14    9.29
  10 -12   5    6.51   10.93
   1 -11   5    4.01    7.79
   2 -11   5    2.86    8.26
   3 -11   5    5.85    7.25
   4 -11   5   21.03    9.69
   5 -11   5   36.62   11.88
   6 -11   5   19.73    8.25
   7 -11   5    5.85    5.69
   8 -11   5   13.17    7.54
   9 -11   5   15.06    7.22
  10 -11   5    1.95    6.09
  11 -11   5   -2.90   13.58
  -1 -10   5    7.10    7.49
   0 -10   5  139.53   22.22
   1 -10   5   53.66   13.97
   2 -10   5   93.72   16.52
   3 -10   5   -1.58    5.06
   4 -10   5    5.42    7.34
   5 -10   5   15.37    8.46
   6 -10   5   21.80    8.02
   7 -10   5   14.83    6.79
   8 -10   5    8.37    5.58
   9 -10   5    1.79    5.47
  10 -10   5   55.74   14.83
  11 -10   5    6.84    7.66
  12 -10   5   -3.55   11.89
  -2  -9   5   16.29   10.41
  -1  -9   5    4.49    6.65
   0  -9   5    6.03    6.82
   1  -9   5    0.37    3.31
   2  -9   5    2.55    6.47
   3  -9   5    1.53    5.30
   4  -9   5   27.20    9.78
   5  -9   5   22.57    9.30
   6  -9   5    7.61    5.32
   7  -9   5   39.52    7.46
   8  -9   5    1.80    4.64
   9  -9   5    3.47    4.74
  10  -9   5   22.36    7.54
  11  -9   5    1.96    5.75
  12  -9   5   -6.39   13.63
  -4  -8   5   14.02    8.64
  -3  -8   5   26.23   10.84
  -2  -8   5   24.35    9.69
  -1  -8   5    4.23    4.15
   0  -8   5    4.98    3.78
   1  -8   5   99.20   17.21
   2  -8   5   88.13   15.36
   3  -8   5  231.41   23.79
   4  -8   5   18.85    7.43
   5  -8   5   12.47    7.27
   6  -8   5   17.50    5.14
   7  -8   5    2.08    4.00
   8  -8   5    2.44    4.62
   9  -8   5   -1.15    4.28
  10  -8   5   56.28   13.50
  11  -8   5    6.84    6.79
  12  -8   5   51.42   15.25
  -5  -7   5   43.72   12.14
  -4  -7   5   -1.20    6.29
  -3  -7   5   18.85    5.84
  -2  -7   5   45.73    8.03
  -1  -7   5   18.68    5.48
   0  -7   5   13.15    4.71
   1  -7   5    3.55    2.86
   2  -7   5   12.59    6.55
   3  -7   5   36.24    9.82
   4  -7   5    7.62    5.75
   5  -7   5    6.20    4.69
   6  -7   5  222.26   23.48
   7  -7   5    1.99    3.66
   8  -7   5   63.15   13.50
   9  -7   5    0.99    4.73
  10  -7   5   -4.47    4.38
  11  -7   5    6.54    6.95
  12  -7   5   -1.91    6.28
  13  -7   5    3.34   14.31
  -6  -6   5   19.09    9.65
  -5  -6   5   30.88    7.49
  -4  -6   5   35.85    7.81
  -3  -6   5   11.12    4.64
  -2  -6   5   14.51    4.94
  -1  -6   5  274.53   15.91
   0  -6   5   16.30    4.44
   1  -6   5   26.16    5.15
   2  -6   5   28.38    8.22
   3  -6   5  130.03   17.30
   4  -6   5    2.86    4.19
   5  -6   5   72.53   12.80
   6  -6   5    1.18    3.77
   7  -6   5    3.96    4.53
   8  -6   5   85.76   15.05
   9  -6   5   -2.53    4.23
  10  -6   5   -0.38    4.89
  11  -6   5   36.17   11.92
  12  -6   5    2.04    5.99
  13  -6   5    4.31   14.29
  -7  -5   5   -0.23    4.42
  -6  -5   5   29.13    7.42
  -5  -5   5   30.85    7.15
  -4  -5   5   26.13    6.35
  -3  -5   5    9.21    4.41
  -2  -5   5    4.43    3.46
  -1  -5   5   81.71    7.30
   0  -5   5   11.40    3.66
   1  -5   5    8.77    3.28
   2  -5   5   56.12   11.20
   3  -5   5    0.92    3.86
   4  -5   5  172.92   18.89
   5  -5   5    2.99    4.28
   6  -5   5   37.13   10.06
   7  -5   5    4.85    4.24
   8  -5   5  220.55   23.49
   9  -5   5    8.46    5.67
  10  -5   5    3.11    5.44
  11  -5   5    6.92    6.73
  12  -5   5   10.56    8.31
  -8  -4   5   57.75   10.23
  -7  -4   5   20.34    6.60
  -6  -4   5   10.16    4.74
  -5  -4   5   13.92    5.04
  -4  -4   5   28.69    6.01
  -3  -4   5   11.22    4.17
  -2  -4   5    7.70    2.64
  -1  -4   5  166.50   10.08
   0  -4   5    1.80    2.54
   1  -4   5  296.65   12.67
   2  -4   5    2.58    3.84
   3  -4   5    3.33    4.19
   4  -4   5    1.29    3.42
   5  -4   5   13.78    6.51
   6  -4   5   28.70    8.18
   7  -4   5   28.56    9.11
   8  -4   5    9.97    4.99
   9  -4   5    5.43    4.86
  10  -4   5   13.65    7.15
  11  -4   5   -0.85    5.19
  12  -4   5   15.95    9.28
  -9  -3   5   -0.79    5.00
  -8  -3   5    2.42    5.10
  -7  -3   5    9.71    5.25
  -6  -3   5    1.89    3.23
  -5  -3   5  226.16   16.40
  -4  -3   5   33.33    6.38
  -3  -3   5  142.11    9.45
  -2  -3   5    1.98    1.99
  -1  -3   5    7.58    2.97
   0  -3   5   70.91    7.79
   1  -3   5   30.20    5.06
   2  -3   5   30.42    5.15
   3  -3   5   68.87   10.68
   4  -3   5  286.12   18.38
   5  -3   5   85.94   12.97
   6  -3   5  144.72   17.83
   7  -3   5    2.71    4.10
   8  -3   5    3.71    4.18
   9  -3   5    6.75    5.37
  10  -3   5    6.99    6.38
  11  -3   5    8.04    7.62
  12  -3   5    3.93    7.88
 -10  -2   5    6.30   13.60
  -9  -2   5    2.94    5.16
  -8  -2   5   83.57   11.10
  -7  -2   5    1.10    3.60
  -6  -2   5  104.14   11.20
  -5  -2   5   12.90    4.72
  -4  -2   5   30.39    4.66
  -3  -2   5   88.94    7.19
  -2  -2   5    2.54    1.89
  -1  -2   5   29.98    4.79
   0  -2   5   75.83    7.43
   1  -2   5   43.72    5.84
   2  -2   5   78.33    7.89
   3  -2   5   29.97    6.92
   4  -2   5   -1.26    3.21
   5  -2   5    3.10    4.02
   6  -2   5    3.68    4.50
   7  -2   5    1.37    4.22
   8  -2   5    1.57    3.86
   9  -2   5   65.39   13.41
  10  -2   5    9.24    6.71
  11  -2   5    2.78    6.57
  12  -2   5    2.25    8.13
 -10  -1   5   11.90    6.55
  -9  -1   5   44.24    8.35
  -8  -1   5   -5.95    3.33
  -7  -1   5   67.23    9.40
  -6  -1   5    1.75    3.15
  -5  -1   5   39.81    5.19
  -4  -1   5    9.40    2.84
  -3  -1   5  309.71   10.64
  -2  -1   5   34.24    4.31
  -1  -1   5   56.09    6.26
   0  -1   5   87.18    7.99
   1  -1   5   77.50    7.58
   2  -1   5   64.39    6.90
   3  -1   5   26.30    4.79
   4  -1   5   16.46    4.16
   5  -1   5  164.62   16.93
   6  -1   5   58.94   11.41
   7  -1   5  244.21   19.01
   8  -1   5    6.77    4.76
   9  -1   5    8.58    5.81
  10  -1   5   -2.27    4.73
  11  -1   5    6.20    6.88
 -11   0   5   -2.45    7.11
 -10   0   5  111.35   13.08
  -9   0   5    1.96    4.23
  -8   0   5    2.18    3.76
  -7   0   5    6.89    3.49
  -6   0   5    8.04    3.09
  -5   0   5    7.04    2.76
  -4   0   5    1.70    2.08
  -3   0   5   70.26    6.27
  -2   0   5   69.43    5.96
  -1   0   5   78.08    7.44
   0   0   5   -0.18    1.79
   1   0   5   77.01    7.20
   2   0   5   93.36    8.22
   3   0   5   60.81    6.62
   4   0   5    2.85    2.82
   5   0   5    3.67    2.89
   6   0   5    9.92    4.00
   7   0   5    6.57    3.79
   8   0   5    6.40    4.03
   9   0   5    1.44    5.20
  10   0   5  105.55   17.21
 -11   1   5   -2.75    6.13
 -10   1   5    2.80    7.91
  -9   1   5   -4.73    3.42
  -8   1   5   11.92    4.93
  -7   1   5  273.18   11.37
  -6   1   5   69.58    6.87
  -5   1   5  194.28    9.64
  -4   1   5   13.70    3.21
  -3   1   5   36.26    4.51
  -2   1   5   46.83    4.81
  -1   1   5   81.25    7.16
   0   1   5   82.57    7.12
   1   1   5   45.18    5.59
   2   1   5   30.98    4.83
   3   1   5  280.92   11.97
   4   1   5   16.85    4.37
   5   1   5   27.52    5.34
   6   1   5    8.84    3.53
   7   1   5   47.78    8.25
 -11   2   5   10.01    7.80
 -10   2   5   17.40    8.86
  -9   2   5   76.25   15.79
  -8   2   5   20.01    5.73
  -7   2   5    1.53    2.93
  -6   2   5    0.66    2.58
  -5   2   5    3.97    3.09
  -4   2   5    4.13    2.96
  -3   2   5   14.84    4.17
  -2   2   5   75.95    8.18
  -1   2   5   57.66   10.27
   0   2   5   57.13   10.07
   1   2   5   35.92    8.26
   2   2   5    2.43    3.26
   3   2   5   70.16   11.33
   4   2   5   17.85    6.48
   5   2   5   12.10    5.24
   6   2   5  101.28    7.22
   7   2   5    1.68    3.75
 -11   3   5    1.59    6.90
 -10   3   5   23.83   10.31
  -9   3   5   11.46    4.76
  -8   3   5    5.47    3.68
  -7   3   5    9.23    3.90
  -6   3   5  122.38   11.09
  -5   3   5   82.44    9.27
  -4   3   5  311.20   13.74
  -3   3   5   68.89    8.22
  -2   3   5   35.21    5.82
  -1   3   5   32.79    5.72
   0   3   5   71.59   11.56
   1   3   5   18.15    6.18
   2   3   5   -3.19    2.83
   3   3   5  134.97   16.03
   4   3   5   40.71    9.55
   5   3   5  185.91   13.86
   6   3   5    1.38    3.38
   7   3   5    6.69    3.58
   8   3   5   13.83    8.59
 -12   4   5   23.93   11.13
 -11   4   5    7.35    7.39
 -10   4   5   33.27    7.68
  -9   4   5   17.88    5.77
  -8   4   5   20.38    5.27
  -7   4   5   36.74    6.75
  -6   4   5   18.22    4.95
  -5   4   5    6.91    3.58
  -4   4   5    4.76    3.08
  -3   4   5    8.62    3.44
  -2   4   5    3.36    2.66
  -1   4   5  295.49   12.89
   0   4   5    7.78    5.01
   1   4   5  182.65   19.37
   2   4   5   -0.62    3.63
   3   4   5   19.57    6.93
   4   4   5   18.09    4.63
   5   4   5   33.97   10.42
   6   4   5    1.01    3.58
   7   4   5   16.63    5.83
   8   4   5   68.76   10.58
 -12   5   5   15.79    9.97
 -11   5   5   24.87    6.89
 -10   5   5   14.27    5.54
  -9   5   5    8.71    4.52
  -8   5   5  212.65   16.25
  -7   5   5   12.89    4.28
  -6   5   5   33.43    6.52
  -5   5   5    4.44    3.29
  -4   5   5  173.70   13.11
  -3   5   5    3.77    2.98
  -2   5   5   98.07    9.61
  -1   5   5   14.13    5.87
   0   5   5    3.00    4.11
   1   5   5   67.05   11.90
   2   5   5    2.89    3.15
   3   5   5   10.40    4.26
   4   5   5   20.76    8.09
   5   5   5   17.26    5.71
   6   5   5   40.51    7.92
   7   5   5   -1.35    4.25
 -12   6   5   18.72    7.37
 -11   6   5   28.80    7.48
 -10   6   5   -1.03    3.97
  -9   6   5    4.87    3.75
  -8   6   5   97.09   11.33
  -7   6   5    0.95    3.40
  -6   6   5    4.12    3.59
  -5   6   5   55.10    7.85
  -4   6   5    2.75    2.90
  -3   6   5  107.82   15.14
  -2   6   5   35.12    9.01
  -1   6   5   30.73    9.24
   0   6   5   12.93    6.58
   1   6   5  233.05   14.41
   2   6   5   36.60    9.71
   3   6   5   -1.71    4.32
   4   6   5   28.93   10.03
   5   6   5   21.66    6.38
   6   6   5   16.81    6.42
   7   6   5    5.20   13.86
 -13   7   5   -1.14    9.01
 -12   7   5   -6.32    4.57
 -11   7   5   20.66    6.47
 -10   7   5    6.99    5.04
  -9   7   5   -1.33    3.39
  -8   7   5   73.47    9.77
  -7   7   5    8.60    4.37
  -6   7   5  258.41   25.27
  -5   7   5   -1.73    4.03
  -4   7   5    9.56    6.04
  -3   7   5   25.26    8.29
  -2   7   5   11.14    6.33
  -1   7   5    2.07    3.44
   0   7   5    9.13    4.26
   1   7   5    6.86    5.40
   2   7   5   46.25   11.94
   3   7   5   28.48   10.60
   4   7   5    2.44    4.20
   5   7   5   39.99    8.33
   6   7   5   11.65   11.75
 -12   8   5   72.71   11.88
 -11   8   5    5.83    4.87
 -10   8   5   63.42    9.89
  -9   8   5   -4.33    3.91
  -8   8   5    1.64    5.52
  -7   8   5    8.52    6.18
  -6   8   5   15.02    7.51
  -5   8   5    3.84    4.88
  -4   8   5    9.99    4.39
  -3   8   5  189.21   14.84
  -2   8   5   91.65   10.15
  -1   8   5   66.40    9.18
   0   8   5    1.96    5.01
   1   8   5    1.39    5.67
   2   8   5   23.86    9.48
   3   8   5   20.25    6.55
   4   8   5   28.56    7.61
 -12   9   5   -6.86    6.57
 -11   9   5    4.74    7.35
 -10   9   5   67.00   15.70
  -9   9   5    1.03    5.68
  -8   9   5    5.06    6.37
  -7   9   5   55.63    8.46
  -6   9   5    5.40    4.30
  -5   9   5   15.46    5.14
  -4   9   5   15.30    4.97
  -3   9   5   -2.37    3.01
  -2   9   5    1.64    3.53
  -1   9   5   -2.10    4.88
   0   9   5    2.57    5.88
   1   9   5    6.48    6.95
   2   9   5    7.42    8.10
   3   9   5   19.31    7.32
 -11  10   5   16.26   10.01
 -10  10   5   93.29   17.87
  -9  10   5    2.23    6.58
  -8  10   5    4.97    7.56
  -7  10   5   12.82    5.41
  -6  10   5   38.15    7.39
  -5  10   5   15.43    5.20
  -4  10   5    3.69    4.14
  -3  10   5    3.36    3.89
  -2  10   5   58.20   13.44
  -1  10   5   37.29   11.00
   0  10   5  124.16   20.15
   1  10   5    0.86    7.54
 -10  11   5   -4.72    7.63
  -9  11   5   21.25   10.75
  -8  11   5    7.91    7.77
  -7  11   5    0.22    6.45
  -6  11   5   31.05    7.32
  -5  11   5   18.53    6.19
  -4  11   5   14.64    5.94
  -3  11   5    3.78    6.18
  -2  11   5    3.08    6.64
  -1  11   5   16.55    8.80
  -9  12   5   14.67    9.69
  -8  12   5   21.32   10.92
  -7  12   5   23.49   10.34
  -6  12   5   19.02    6.63
  -5  12   5    2.45    5.46
  -4  12   5   77.30   15.93
  -3  12   5   -0.65    7.62
  -7  13   5    7.69    9.15
  -6  13   5    2.87    8.02
   6 -11   6   -0.68   10.46
   1 -10   6    4.15   12.59
   2 -10   6   25.84   11.67
   3 -10   6   45.56   13.92
   4 -10   6   41.38   12.80
   5 -10   6   20.33    9.62
   6 -10   6   -1.70    6.82
   7 -10   6   14.87    9.35
   8 -10   6   55.39   14.46
  -1  -9   6    1.52   11.49
   0  -9   6   15.82    9.93
   1  -9   6    3.74    5.05
   2  -9   6    0.54    5.97
   3  -9   6   15.92    9.69
   4  -9   6   -1.33    5.92
   5  -9   6   21.08    9.43
   6  -9   6   27.56    9.89
   7  -9   6   13.57    8.59
   8  -9   6   24.78    9.77
   9  -9   6   13.61    8.95
  10  -9   6   20.08   15.73
  -2  -8   6   28.64   11.72
  -1  -8   6   55.70   14.81
   0  -8   6   55.37    9.90
   1  -8   6   23.40    6.42
   2  -8   6    6.62    7.09
   3  -8   6   26.16    6.37
   4  -8   6    9.14    6.94
   5  -8   6   12.56    7.66
   6  -8   6    2.75    5.16
   7  -8   6   35.00   11.11
   8  -8   6   63.04   14.59
   9  -8   6    4.09    7.44
  10  -8   6   18.95   10.17
  -3  -7   6   11.91    6.11
  -2  -7   6    9.63    5.61
  -1  -7   6   19.81    6.31
   0  -7   6   12.49    5.01
   1  -7   6   -5.53    4.96
   2  -7   6   -0.83    3.30
   3  -7   6   14.48    4.73
   4  -7   6   73.15   14.62
   5  -7   6   21.30    8.98
   6  -7   6    8.94    6.79
   7  -7   6    9.79    6.86
   8  -7   6   16.68    8.64
   9  -7   6    5.92    7.05
  10  -7   6   14.66    9.06
  11  -7   6   19.10   10.19
  -5  -6   6    6.42    5.53
  -4  -6   6   -0.21    4.60
  -3  -6   6   35.24    8.13
  -2  -6   6    0.90    3.66
  -1  -6   6   15.16    5.66
   0  -6   6    9.52    4.14
   1  -6   6  154.11   13.07
   2  -6   6    6.11    3.91
   3  -6   6   67.12    8.69
   4  -6   6    3.64    5.84
   5  -6   6   19.03    8.61
   6  -6   6    6.16    6.06
   7  -6   6    6.21    5.95
   8  -6   6    6.16    6.94
   9  -6   6   25.79   10.17
  10  -6   6   56.06   15.15
  11  -6   6    8.29    8.14
  -6  -5   6   13.03    6.07
  -5  -5   6   14.02    6.11
  -4  -5   6   14.85    5.80
  -3  -5   6   21.68    6.27
  -2  -5   6   41.74    7.85
  -1  -5   6   39.92    5.76
   0  -5   6    2.80    3.11
   1  -5   6   21.12    5.06
   2  -5   6    4.47    3.16
   3  -5   6    9.25    4.02
   4  -5   6   47.10   10.90
   5  -5   6   -1.15    3.58
   6  -5   6  147.89   18.40
   7  -5   6   14.65    7.34
   8  -5   6   15.47    8.07
   9  -5   6    0.80    5.20
  10  -5   6   20.75    9.91
  11  -5   6   -2.47    7.05
  -7  -4   6   18.42    6.75
  -6  -4   6   44.65    8.96
  -5  -4   6    3.41    4.77
  -4  -4   6   11.24    4.89
  -3  -4   6   69.33    9.82
  -2  -4   6   10.69    3.79
  -1  -4   6   35.91    5.51
   0  -4   6    9.82    4.05
   1  -4   6   50.64    7.23
   2  -4   6   29.15    5.63
   3  -4   6   92.52    9.62
   4  -4   6    9.68    6.08
   5  -4   6   14.55    6.79
   6  -4   6    3.50    5.07
   7  -4   6   22.09    8.20
   8  -4   6   17.57    8.34
   9  -4   6    2.01    6.32
  10  -4   6    4.17    6.58
  11  -4   6   62.29   14.73
  -8  -3   6   18.38   10.43
  -7  -3   6   34.01    8.10
  -6  -3   6   27.71    6.91
  -5  -3   6   20.71    6.18
  -4  -3   6   11.28    4.67
  -3  -3   6   77.29    7.96
  -2  -3   6    4.10    2.81
  -1  -3   6   70.69    6.99
   0  -3   6   16.59    4.78
   1  -3   6    5.57    3.29
   2  -3   6  116.28   10.64
   3  -3   6   15.06    4.34
   4  -3   6   47.55    7.17
   5  -3   6    9.79    6.33
   6  -3   6   64.51   12.47
   7  -3   6   50.21   11.17
   8  -3   6   30.56    9.38
   9  -3   6   44.27   11.88
  10  -3   6    1.42    6.84
  11  -3   6   10.03    8.24
  -8  -2   6   33.78    8.26
  -7  -2   6   -0.94    4.37
  -6  -2   6    4.06    4.46
  -5  -2   6   11.94    4.77
  -4  -2   6    8.89    3.28
  -3  -2   6   18.32    4.27
  -2  -2   6   30.59    4.82
  -1  -2   6  121.26    8.93
   0  -2   6   75.99    8.72
   1  -2   6   89.94    9.35
   2  -2   6   65.67    8.05
   3  -2   6    5.93    3.49
   4  -2   6   32.94    6.03
   5  -2   6    7.76    3.76
   6  -2   6    3.37    3.26
   7  -2   6   33.64    9.56
   8  -2   6   -2.11    5.72
   9  -2   6   15.69    9.18
  10  -2   6   36.72    7.90
  -9  -1   6   -2.96    7.27
  -8  -1   6   12.61    8.51
  -7  -1   6   22.97    6.76
  -6  -1   6   -0.30    3.45
  -5  -1   6  155.88   10.74
  -4  -1   6   28.96    4.83
  -3  -1   6   42.84    5.67
  -2  -1   6   -1.31    2.14
  -1  -1   6   81.40    8.55
   0  -1   6   17.41    4.37
   1  -1   6   11.24    3.85
   2  -1   6   81.59    8.61
   3  -1   6  118.90   10.78
   4  -1   6   74.60    8.66
   5  -1   6   37.42    6.78
   6  -1   6   45.31    7.35
   7  -1   6   25.99    6.60
   8  -1   6   10.29    6.60
   9  -1   6   35.14   10.02
  -9   0   6   -1.94    6.84
  -8   0   6   27.78   11.17
  -7   0   6    9.57    7.55
  -6   0   6    4.30    4.00
  -5   0   6    2.53    3.02
  -4   0   6   23.12    5.75
  -3   0   6   16.59    4.63
  -2   0   6   62.21    8.32
  -1   0   6   14.78    6.43
   0   0   6  155.43   17.36
   1   0   6   13.67    6.11
   2   0   6   62.03   11.60
   3   0   6   17.93    7.03
   4   0   6   11.51    6.11
   5   0   6    5.10    5.31
   6   0   6    2.71    5.19
   7   0   6   14.34    6.86
   8   0   6   40.13   11.24
  -9   1   6   32.21   11.73
  -8   1   6   25.45   10.83
  -7   1   6   11.22    4.96
  -6   1   6   38.00    7.03
  -5   1   6   56.65    8.04
  -4   1   6   71.90    9.06
  -3   1   6  120.92   11.46
  -2   1   6   81.18    9.19
  -1   1   6    7.62    3.68
   0   1   6    5.25    4.92
   1   1   6   73.22   12.62
   2   1   6    2.86    4.15
   3   1   6   43.32   10.26
   4   1   6   29.06    8.99
   5   1   6  134.71   17.89
   6   1   6    1.63    4.44
   7   1   6   21.84    8.12
 -10   2   6   60.30   15.79
  -9   2   6   -0.03    6.62
  -8   2   6   -0.19    3.83
  -7   2   6   37.92    7.75
  -6   2   6    5.64    4.12
  -5   2   6    6.86    3.59
  -4   2   6   27.46    5.95
  -3   2   6    3.99    3.16
  -2   2   6   57.64    7.47
  -1   2   6   77.30    9.06
   0   2   6   62.24   11.88
   1   2   6   93.55   14.25
   2   2   6   19.40    7.57
   3   2   6   24.13    8.12
   4   2   6    1.66    3.68
   5   2   6   19.70    7.57
   6   2   6    7.09    4.89
 -10   3   6   10.24    8.17
  -9   3   6   39.39    8.06
  -8   3   6   40.08    7.48
  -7   3   6   63.17    9.07
  -6   3   6   62.90    8.68
  -5   3   6   16.72    4.75
  -4   3   6   38.88    6.93
  -3   3   6   21.54    5.73
  -2   3   6  114.37   11.15
  -1   3   6   12.36    4.38
   0   3   6   18.73    7.47
   1   3   6   90.41   14.25
   2   3   6    8.43    5.49
   3   3   6   76.27   13.24
   4   3   6   12.37    6.48
   5   3   6   19.94    6.06
   6   3   6   34.94   11.70
 -10   4   6    7.19    5.23
  -9   4   6   17.46    5.75
  -8   4   6   18.13    5.91
  -7   4   6   18.71    5.76
  -6   4   6    5.46    3.92
  -5   4   6   14.87    5.10
  -4   4   6   21.73    5.40
  -3   4   6   74.91    9.34
  -2   4   6   32.56    6.62
  -1   4   6   49.17    7.61
   0   4   6   18.37    8.03
   1   4   6   37.33   10.17
   2   4   6   15.29    6.83
   3   4   6   55.31   12.12
   4   4   6   24.85    6.34
   5   4   6    0.14    6.49
   6   4   6   35.06    7.69
 -11   5   6    6.71    5.64
 -10   5   6   20.34    6.92
  -9   5   6    4.81    4.54
  -8   5   6   13.54    5.60
  -7   5   6    6.67    4.67
  -6   5   6  159.31   14.08
  -5   5   6   -0.23    3.48
  -4   5   6   51.93    8.07
  -3   5   6    3.09    3.36
  -2   5   6   26.78    8.99
  -1   5   6   34.42   10.14
   0   5   6    3.17    4.00
   1   5   6   29.30    9.53
   2   5   6   39.13   10.06
   3   5   6   20.98    6.61
   4   5   6   12.58    6.72
   5   5   6   25.65    7.07
   6   5   6   15.52    6.62
 -11   6   6   13.59    6.34
 -10   6   6   36.64    8.33
  -9   6   6   24.56    7.03
  -8   6   6    8.23    4.43
  -7   6   6   -0.14    3.71
  -6   6   6    3.72    4.07
  -5   6   6   30.29    7.17
  -4   6   6   10.41    7.31
  -3   6   6   75.19   14.69
  -2   6   6   22.17    8.28
  -1   6   6  167.45   20.71
   0   6   6   10.07    6.66
   1   6   6   23.90    6.61
   2   6   6   -0.94    5.41
   3   6   6   32.66   10.36
   4   6   6    4.18    7.17
   5   6   6    4.58    5.12
 -11   7   6   37.50    8.91
 -10   7   6   40.88    9.18
  -9   7   6    1.81    5.03
  -8   7   6   13.16    5.58
  -7   7   6    1.40    5.89
  -6   7   6   11.07    8.40
  -5   7   6   50.87   12.82
  -4   7   6   75.94   14.81
  -3   7   6   23.11    9.01
  -2   7   6    8.68    6.62
  -1   7   6   -0.06    3.44
   0   7   6    9.41    5.13
   1   7   6   27.88   10.50
   2   7   6    6.24    6.91
   3   7   6   11.55    8.00
   4   7   6   79.12   11.86
 -11   8   6    9.30   15.89
 -10   8   6   37.84   12.96
  -9   8   6    5.92    7.83
  -8   8   6   61.33   13.63
  -7   8   6   23.37    9.80
  -6   8   6   11.07    8.25
  -5   8   6   26.50   10.73
  -4   8   6    6.01    6.65
  -3   8   6   17.12    5.71
  -2   8   6    4.20    4.10
  -1   8   6   18.86    6.13
   0   8   6   45.13   12.55
   1   8   6   25.42   10.66
   2   8   6   59.09   14.81
 -10   9   6   -7.09    8.85
  -9   9   6    2.97    7.56
  -8   9   6   42.07   13.32
  -7   9   6   10.39    9.05
  -6   9   6   38.84    8.18
  -5   9   6   17.06    5.82
  -4   9   6    1.66    4.46
  -3   9   6   21.73    7.04
  -2   9   6   -0.58    4.10
  -1   9   6    4.01    6.74
   0   9   6   15.32    8.75
   1   9   6    8.65   12.08
  -9  10   6    3.90   12.47
  -8  10   6   61.50   16.52
  -7  10   6    8.19    5.85
  -6  10   6   10.13    5.13
  -5  10   6   20.57    6.84
  -4  10   6   31.41    7.96
  -3  10   6   26.03    7.43
  -2  10   6   27.28   11.21
  -1  10   6   10.17    9.48
  -7  11   6   69.64   17.63
  -6  11   6   -1.53    4.53
  -5  11   6   11.17    5.88
  -4  11   6   42.19   12.63
   2  -9   7   -2.65    7.32
   3  -9   7   -2.21   13.25
   4  -9   7   -4.00    6.69
   5  -9   7   57.59   10.14
   0  -8   7    4.04    6.91
   1  -8   7   70.21   11.06
   2  -8   7   18.34   10.34
   3  -8   7   64.49   10.06
   4  -8   7    8.37    5.22
   5  -8   7    6.02    4.66
   6  -8   7    7.79    9.02
   7  -8   7    2.34    7.55
   8  -8   7   -2.65   11.69
  -2  -7   7   27.58   11.46
  -1  -7   7    0.19    5.37
   0  -7   7   19.53    6.93
   1  -7   7   14.32    6.12
   2  -7   7   -2.25    3.63
   3  -7   7   10.91    5.35
   4  -7   7    1.67    3.92
   5  -7   7    2.39    3.96
   6  -7   7   43.86   13.00
   7  -7   7   17.94    9.25
   8  -7   7   42.09   13.09
  -3  -6   7   17.71    7.14
  -2  -6   7   13.67    6.17
  -1  -6   7   83.39   11.75
   0  -6   7   11.15    5.09
   1  -6   7    8.72    5.20
   2  -6   7   13.38    5.50
   3  -6   7   66.21    9.51
   4  -6   7    6.21    4.78
   5  -6   7   26.56    6.88
   6  -6   7   14.73    8.99
   7  -6   7   14.81    8.97
   8  -6   7   25.12    9.98
   9  -6   7    1.97    7.22
  -4  -5   7   39.64    8.89
  -3  -5   7    6.29    5.55
  -2  -5   7    0.43    4.30
  -1  -5   7   14.56    5.81
   0  -5   7   11.30    4.22
   1  -5   7    5.41    4.41
   2  -5   7   53.43    8.59
   3  -5   7    1.33    3.80
   4  -5   7   56.66    8.74
   5  -5   7   19.84    5.87
   6  -5   7    0.79    3.34
   7  -5   7    4.24    6.37
   8  -5   7   38.70   11.82
   9  -5   7    1.35    7.13
  -5  -4   7    8.33    5.81
  -4  -4   7   11.64    6.13
  -3  -4   7    3.18    4.69
  -2  -4   7   -6.58    3.33
  -1  -4   7   69.49    7.26
   0  -4   7   11.73    3.98
   1  -4   7  124.90   12.21
   2  -4   7   10.73    4.48
   3  -4   7   -1.47    3.37
   4  -4   7   12.74    4.93
   5  -4   7    7.03    4.40
   6  -4   7    6.36    4.58
   7  -4   7   13.34    5.75
   8  -4   7   18.54    6.09
   9  -4   7   47.34    9.19
  -5  -3   7   75.73   16.40
  -4  -3   7   11.92    5.41
  -3  -3   7   76.08   10.81
  -2  -3   7    4.08    3.39
  -1  -3   7   -0.61    2.59
   0  -3   7    6.98    4.35
   1  -3   7    1.78    3.46
   2  -3   7    3.04    3.34
   3  -3   7    8.44    4.66
   4  -3   7  116.79   11.86
   5  -3   7   48.07    8.31
   6  -3   7   69.02   10.06
   7  -3   7   -3.42    4.75
   8  -3   7    3.91    5.86
   9  -3   7   11.63    7.10
  -6  -2   7    6.68    7.46
  -5  -2   7   -2.70    5.16
  -4  -2   7    3.11    4.51
  -3  -2   7   54.03    8.42
  -2  -2   7    1.22    2.79
  -1  -2   7    3.13    3.53
   0  -2   7   47.06   10.67
   1  -2   7   10.44    6.15
   2  -2   7   69.89   12.90
   3  -2   7    4.58    5.11
   4  -2   7    3.47    5.30
   5  -2   7    4.08    6.40
   6  -2   7   -0.96    5.36
   7  -2   7   -1.26    5.09
   8  -2   7   29.59   10.58
   9  -2   7   12.88    7.52
  -7  -1   7   45.15   13.01
  -6  -1   7   13.66    9.49
  -5  -1   7    7.49    4.73
  -4  -1   7   10.87    5.25
  -3  -1   7  175.77   15.19
  -2  -1   7   12.10    4.80
  -1  -1   7   12.48    4.63
   0  -1   7   53.18   11.62
   1  -1   7   44.78   10.30
   2  -1   7    8.23    5.88
   3  -1   7   -3.26    4.45
   4  -1   7    0.75    5.04
   5  -1   7   66.53   13.66
   6  -1   7   17.88    8.15
   7  -1   7   74.36   14.76
   8  -1   7    7.54    7.08
  -7   0   7   27.76   11.14
  -6   0   7   16.92    6.24
  -5   0   7   14.23    5.32
  -4   0   7   18.08    5.59
  -3   0   7    4.96    4.25
  -2   0   7   54.73    8.44
  -1   0   7   34.35    7.09
   0   0   7    4.62    5.03
   1   0   7   23.01    8.83
   2   0   7   55.00   12.06
   3   0   7    9.13    6.92
   4   0   7    7.10    6.56
   5   0   7   18.83    8.70
   6   0   7   14.64    7.65
   7   0   7   10.55    7.77
   8   0   7    3.69    7.46
  -8   1   7    4.05    8.07
  -7   1   7   51.16    9.19
  -6   1   7   22.83    6.95
  -5   1   7   61.20    9.58
  -4   1   7    5.68    4.38
  -3   1   7    3.42    3.69
  -2   1   7   15.29    5.19
  -1   1   7   32.91    6.86
   0   1   7   30.80    9.56
   1   1   7    8.63    6.60
   2   1   7    3.68    5.81
   3   1   7  118.78   17.68
   4   1   7    2.93    4.86
   5   1   7    8.76    6.34
   6   1   7    7.66    7.38
   7   1   7   61.23   14.25
  -8   2   7   12.03    5.80
  -7   2   7    6.14    4.93
  -6   2   7    4.44    4.50
  -5   2   7   10.03    5.16
  -4   2   7    4.20    4.12
  -3   2   7    5.31    4.09
  -2   2   7   71.73    9.90
  -1   2   7    4.34    4.02
   0   2   7   48.16   12.39
   1   2   7    3.44    5.59
   2   2   7    7.46    5.68
   3   2   7   58.79   13.38
   4   2   7    0.26    5.72
   5   2   7    9.26    6.56
   6   2   7   11.40    5.80
  -9   3   7    4.03    8.04
  -8   3   7    5.51    5.05
  -7   3   7    4.70    4.80
  -6   3   7   68.59    9.70
  -5   3   7   54.43    8.96
  -4   3   7  131.19   13.26
  -3   3   7    4.06    4.40
  -2   3   7    0.17    3.48
  -1   3   7    0.74    3.74
   0   3   7    7.70    4.61
   1   3   7    0.99    4.02
   2   3   7   10.33    6.29
   3   3   7   70.24   14.56
   4   3   7   12.03    7.38
   5   3   7   38.02    8.48
   6   3   7    2.54    8.24
  -9   4   7   51.36   10.12
  -8   4   7   20.47    7.13
  -7   4   7   18.10    5.93
  -6   4   7   10.59    5.28
  -5   4   7    9.27    4.92
  -4   4   7   24.19    6.21
  -3   4   7   -1.57    4.07
  -2   4   7    9.91    5.15
  -1   4   7  160.47   21.39
   0   4   7    5.58    6.33
   1   4   7   79.55   16.35
   2   4   7   -2.44    6.16
   3   4   7   -2.61    5.60
   4   4   7   15.08    6.67
   5   4   7    4.86    7.22
  -9   5   7    1.93    5.05
  -8   5   7   56.53   10.03
  -7   5   7    0.44    4.43
  -6   5   7    6.70    5.27
  -5   5   7   19.33    6.61
  -4   5   7   45.36    9.07
  -3   5   7   -7.10    4.28
  -2   5   7   71.76   14.80
  -1   5   7    3.65    5.55
   0   5   7   47.31   13.11
   1   5   7   24.87    9.73
   2   5   7   -0.19    6.47
   3   5   7   -0.59    6.45
   4   5   7   48.52   14.07
  -9   6   7    0.04    5.42
  -8   6   7   16.74    6.49
  -7   6   7   22.43    7.16
  -6   6   7   12.56    9.20
  -5   6   7   15.96    7.94
  -4   6   7   -1.71    6.67
  -3   6   7   63.33   15.48
  -2   6   7   16.48    8.14
  -1   6   7   14.17    7.55
   0   6   7   18.59    8.88
   1   6   7   55.29    9.75
   2   6   7    5.99    7.92
   3   6   7    6.83    8.75
  -8   7   7   39.50   13.27
  -7   7   7   14.12    8.92
  -6   7   7   72.20   15.99
  -5   7   7   -2.81    6.71
  -4   7   7    6.68    6.83
  -3   7   7   -0.64    6.37
  -2   7   7   -1.25    5.86
  -1   7   7   13.64    8.55
   0   7   7   11.63    6.01
   1   7   7    1.64    6.84
  -7   8   7    4.85    8.65
  -6   8   7   15.49    9.93
  -5   8   7    0.82    6.68
  -4   8   7   18.47   10.99
  -3   8   7   58.25   15.18
  -2   8   7    7.76    5.13
  -1   8   7   58.66   10.20
  -5   9   7   47.11    9.52
  -4   9   7    7.91    5.62
  -3   9   7    5.06    6.66
  -2   9   7    1.33    8.21
   0  -6   8   -1.48    7.31
   1  -6   8   71.18   15.73
   2  -6   8   -2.72    4.94
   3  -6   8   37.44    8.28
   4  -6   8   -1.79    4.72
   5  -6   8    8.89    8.00
   6  -6   8    1.62    8.06
   0  -5   8    7.71    5.27
   1  -5   8   -0.06    4.29
   2  -5   8   -0.19    6.18
   3  -5   8    0.36    6.38
   4  -5   8   25.18   10.89
   5  -5   8   -3.05    6.10
  -1  -4   8   26.52    7.37
   0  -4   8    1.19    4.29
   1  -4   8   13.12    8.25
   2  -4   8   26.05    9.96
   4  -4   8    0.71    6.57
   5  -4   8    8.48    7.98
  -2  -3   8   -4.23    4.83
  -1  -3   8   84.09   11.90
   0  -3   8    6.64    4.95
   1  -3   8    6.77    6.80
   2  -3   8   70.19   14.12
   3  -3   8   20.77    9.61
   4  -3   8   10.72    8.19
   5  -3   8   10.87    8.48
  -3  -2   8    6.36    5.26
  -2  -2   8   27.33    7.89
  -1  -2   8   41.79    8.56
   0  -2   8    0.52    4.28
   1  -2   8   36.75   10.89
   2  -2   8    1.35    6.05
   3  -2   8    5.57    6.58
   4  -2   8   31.44   11.39
   5  -2   8    1.14    6.75
  -4  -1   8    6.73    5.00
  -3  -1   8   10.28    5.32
  -2  -1   8    4.16    5.14
  -1  -1   8   32.27    7.61
   0  -1   8    3.69    4.25
   1  -1   8    1.94    5.01
   2  -1   8   25.81    9.91
   3  -1   8   58.03   13.39
   4  -1   8   75.73   14.99
   5  -1   8    9.17    8.30
  -5   0   8    5.47    5.67
  -4   0   8    0.94    4.45
  -3   0   8   13.59    6.06
  -2   0   8    0.96    4.13
  -1   0   8   -0.28    4.17
   0   0   8  189.43   17.09
   1   0   8    0.76    7.02
   2   0   8    2.87    6.12
   3   0   8    7.20    7.12
   4   0   8   19.26    9.45
   5   0   8    0.04    6.18
  -6   1   8   -0.59    6.64
  -5   1   8   15.75    5.93
  -4   1   8   74.91   11.55
  -3   1   8   52.00    9.31
  -2   1   8   27.26    7.47
  -1   1   8    4.39    5.02
   0   1   8    3.22    4.41
   1   1   8   27.94   10.42
   2   1   8    1.49    7.53
   3   1   8   12.47    7.88
   4   1   8   11.96    8.50
   5   1   8   65.17   19.56
  -6   2   8    0.83    4.96
  -5   2   8   -2.93    4.21
  -4   2   8   22.49    7.11
  -3   2   8   -0.69    4.82
  -2   2   8    6.48    5.01
  -1   2   8   35.40    8.18
   0   2   8    2.69    4.85
   1   2   8   62.20    9.93
   2   2   8   27.02   10.75
   3   2   8    5.62    7.93
   4   2   8   -2.49    6.20
  -6   3   8   25.22    7.37
  -5   3   8   11.47    5.76
  -4   3   8    6.31    5.07
  -3   3   8    5.28    5.09
  -2   3   8   60.33   10.56
  -1   3   8   -1.61    4.17
   0   3   8   10.41    7.93
   1   3   8   76.71   16.61
   2   3   8   -0.11    6.52
   3   3   8   51.58   14.37
  -6   4   8    3.18    5.48
  -5   4   8   10.28    6.23
  -4   4   8    5.73    5.24
  -3   4   8   64.30   15.04
  -2   4   8   27.47   11.48
  -1   4   8   10.12    8.50
   0   4   8   10.01    8.74
   1   4   8   23.37   10.30
   2   4   8    2.11    6.04
  -6   5   8  123.87   28.55
  -5   5   8    6.07    8.33
  -4   5   8   50.01   14.27
  -3   5   8    2.79    7.28
  -2   5   8   -4.76    6.75
  -1   5   8    6.80    7.89
   0   5   8    1.59    8.07
   1   5   8    4.26    7.06
  -3   6   8   15.38   14.60
  -2   6   8    3.93    9.37
   0   0   0    0.00    0.00
;
_shelx_hkl_checksum              89583
loop_
_space_group_symop_operation_xyz
'x, y, z'
'-y, x-y, z'
'-x+y, -x, z'
'-x, -y, z+1/2'
'y, -x+y, z+1/2'
'x-y, x, z+1/2'
loop_
_atom_site_label
_atom_site_type_symbol
_atom_site_fract_x
_atom_site_fract_y
_atom_site_fract_z
_atom_site_U_iso_or_equiv
_atom_site_adp_type
_atom_site_occupancy
_atom_site_site_symmetry_order
_atom_site_calc_flag
_atom_site_refinement_flags_posn
_atom_site_refinement_flags_adp
_atom_site_refinement_flags_occupancy
_atom_site_disorder_assembly
_atom_site_disorder_group
Ce Ce 0.12822(7) 0.35708(7) 0.0160(3) 0.01239(17) Uani 1 1 d . . . . .
Co Co 0.0000 0.0000 0.2499(18) 0.0098(10) Uani 0.5 3 d S T P . .
Ge Ge 0.3333 0.6667 0.5976(4) 0.0125(5) Uani 1 3 d S T P . .
S1 S 0.2421(4) 0.1551(3) 0.0000(9) 0.0161(6) Uani 1 1 d . . . . .
S2 S 0.5200(4) 0.1041(4) 0.2467(6) 0.0136(6) Uani 1 1 d . . . . .
S3 S 0.3333 0.6667 0.2225(10) 0.0138(11) Uani 1 3 d S T P . .
loop_
_atom_site_aniso_label
_atom_site_aniso_U_11
_atom_site_aniso_U_22
_atom_site_aniso_U_33
_atom_site_aniso_U_23
_atom_site_aniso_U_13
_atom_site_aniso_U_12
Ce 0.0130(3) 0.0117(3) 0.0128(3) 0.0011(4) 0.0009(5) 0.0064(2)
Co 0.0067(13) 0.0067(13) 0.016(3) 0.000 0.000 0.0033(6)
Ge 0.0141(7) 0.0141(7) 0.0094(10) 0.000 0.000 0.0070(4)
S1 0.0167(13) 0.0140(13) 0.0203(16) 0.0029(19) 0.000(2) 0.0096(11)
S2 0.0142(15) 0.0122(15) 0.0127(15) 0.0010(13) -0.0010(13) 0.0054(13)
S3 0.0157(17) 0.0157(17) 0.010(3) 0.000 0.000 0.0079(9)
loop_
_atom_type_symbol
_atom_type_description
_atom_type_scat_dispersion_real
_atom_type_scat_dispersion_imag
_atom_type_scat_source
S S 0.1246 0.1234 'International Tables Vol C Tables 4.2.6.8 and 6.1.1.4'
Co Co 0.3494 0.9721 'International Tables Vol C Tables 4.2.6.8 and 6.1.1.4'
Ge Ge 0.1547 1.8001 'International Tables Vol C Tables 4.2.6.8 and 6.1.1.4'
Ce Ce -0.2486 2.6331 'International Tables Vol C Tables 4.2.6.8 and 6.1.1.4'
loop_
_geom_angle_atom_site_label_1
_geom_angle_atom_site_label_2
_geom_angle_atom_site_label_3
_geom_angle
_geom_angle_site_symmetry_1
_geom_angle_site_symmetry_3
S1 Ce S1 83.18(13) 2 .
S1 Ce S2 107.86(11) 2 5_564
S1 Ce S2 142.50(13) . 5_564
S1 Ce S1 76.90(11) 2 6
S1 Ce S1 76.88(11) . 6
S2 Ce S1 140.02(10) 5_564 6
S1 Ce S2 140.02(12) 2 6_554
S1 Ce S2 74.98(10) . 6_554
S2 Ce S2 74.20(13) 5_564 6_554
S1 Ce S2 127.91(9) 6 6_554
S1 Ce S3 149.99(11) 2 .
S1 Ce S3 116.83(8) . .
S2 Ce S3 70.73(11) 5_564 .
S1 Ce S3 85.84(13) 6 .
S2 Ce S3 69.61(11) 6_554 .
S1 Ce S2 71.80(10) 2 2
S1 Ce S2 143.68(12) . 2
S2 Ce S2 72.05(6) 5_564 2
S1 Ce S2 72.17(10) 6 2
S2 Ce S2 140.15(9) 6_554 2
S3 Ce S2 79.66(8) . 2
S1 Ce S1 74.08(10) 2 6_554
S1 Ce S1 74.07(11) . 6_554
S2 Ce S1 74.91(10) 5_564 6_554
S1 Ce S1 140.82(11) 6 6_554
S2 Ce S1 67.95(9) 6_554 6_554
S3 Ce S1 130.88(12) . 6_554
S2 Ce S1 121.20(9) 2 6_554
S1 Ce Co 47.53(10) 2 .
S1 Ce Co 47.52(10) . .
S2 Ce Co 155.37(10) 5_564 .
S1 Ce Co 46.88(17) 6 .
S2 Ce Co 122.48(9) 6_554 .
S3 Ce Co 129.93(18) . .
S2 Ce Co 96.57(11) 2 .
S1 Ce Co 93.94(17) 6_554 .
S1 Ce Co 46.58(10) 2 4_554
S1 Ce Co 46.58(10) . 4_554
S2 Ce Co 116.82(16) 5_564 4_554
S1 Ce Co 95.56(16) 6 4_554
S2 Ce Co 95.73(12) 6_554 4_554
S3 Ce Co 161.76(3) . 4_554
S2 Ce Co 118.12(8) 2 4_554
S1 Ce Co 45.26(16) 6_554 4_554
Co Ce Co 48.68(2) . 4_554
S1 Co S1 92.2(3) . 3
S1 Co S1 92.2(3) . 2
S1 Co S1 92.2(3) 3 2
S1 Co S1 87.85(5) . 6
S1 Co S1 180.0(4) 3 6
S1 Co S1 87.85(5) 2 6
S1 Co S1 87.85(5) . 5
S1 Co S1 87.85(5) 3 5
S1 Co S1 180.0(4) 2 5
S1 Co S1 92.1(3) 6 5
S1 Co S1 180.0(4) . 4
S1 Co S1 87.85(5) 3 4
S1 Co S1 87.85(5) 2 4
S1 Co S1 92.1(3) 6 4
S1 Co S1 92.1(3) 5 4
S1 Co Co 56.3(2) . 4_554
S1 Co Co 56.3(2) 3 4_554
S1 Co Co 56.3(2) 2 4_554
S1 Co Co 123.7(2) 6 4_554
S1 Co Co 123.7(2) 5 4_554
S1 Co Co 123.7(2) 4 4_554
S1 Co Co 123.7(2) . 4
S1 Co Co 123.7(2) 3 4
S1 Co Co 123.7(2) 2 4
S1 Co Co 56.3(2) 6 4
S1 Co Co 56.3(2) 5 4
S1 Co Co 56.3(2) 4 4
Co Co Co 180.0 4_554 4
S1 Co Ce 123.3(4) . 2
S1 Co Ce 53.16(11) 3 2
S1 Co Ce 53.19(11) 2 2
S1 Co Ce 126.85(8) 6 2
S1 Co Ce 126.82(9) 5 2
S1 Co Ce 56.69(11) 4 2
Co Co Ce 67.05(16) 4_554 2
Co Co Ce 112.95(16) 4 2
S1 Co Ce 53.16(11) . 3
S1 Co Ce 53.19(11) 3 3
S1 Co Ce 123.3(4) 2 3
S1 Co Ce 126.82(9) 6 3
S1 Co Ce 56.69(11) 5 3
S1 Co Ce 126.85(8) 4 3
Co Co Ce 67.05(16) 4_554 3
Co Co Ce 112.95(16) 4 3
Ce Co Ce 105.78(18) 2 3
S1 Co Ce 53.19(11) . .
S1 Co Ce 123.3(4) 3 .
S1 Co Ce 53.16(11) 2 .
S1 Co Ce 56.69(11) 6 .
S1 Co Ce 126.85(8) 5 .
S1 Co Ce 126.82(9) 4 .
Co Co Ce 67.05(16) 4_554 .
Co Co Ce 112.95(16) 4 .
Ce Co Ce 105.78(18) 2 .
Ce Co Ce 105.78(18) 3 .
S1 Co Ce 59.45(11) . 5
S1 Co Ce 128.01(8) 3 5
S1 Co Ce 127.98(7) 2 5
S1 Co Ce 51.98(11) 6 5
S1 Co Ce 52.01(11) 5 5
S1 Co Ce 120.5(4) 4 5
Co Co Ce 115.73(15) 4_554 5
Co Co Ce 64.27(15) 4 5
Ce Co Ce 177.2(3) 2 5
Ce Co Ce 75.791(14) 3 5
Ce Co Ce 75.790(14) . 5
S3 Ge S2 112.80(11) . 4_665
S3 Ge S2 112.80(11) . 5_565
S2 Ge S2 105.94(12) 4_665 5_565
S3 Ge S2 112.80(11) . 6
S2 Ge S2 105.94(12) 4_665 6
S2 Ge S2 105.94(12) 5_565 6
Co S1 Co 67.46(8) . 4_554
Co S1 Ce 79.31(9) . 3
Co S1 Ce 81.43(10) 4_554 3
Co S1 Ce 79.29(10) . .
Co S1 Ce 81.41(10) 4_554 .
Ce S1 Ce 156.46(13) 3 .
Co S1 Ce 143.9(2) . 5_554
Co S1 Ce 76.4(2) 4_554 5_554
Ce S1 Ce 95.77(13) 3 5_554
Ce S1 Ce 95.74(12) . 5_554
Co S1 Ce 75.3(2) . 5
Co S1 Ce 142.8(2) 4_554 5
Ce S1 Ce 91.99(12) 3 5
Ce S1 Ce 91.97(12) . 5
Ce S1 Ce 140.82(11) 5_554 5
Ge S2 Ce 91.02(12) 4_664 6_655
Ge S2 Ce 88.82(11) 4_664 5
Ce S2 Ce 109.81(12) 6_655 5
Ge S2 Ce 122.15(15) 4_664 3
Ce S2 Ce 141.40(12) 6_655 3
Ce S2 Ce 91.53(10) 5 3
Ge S3 Ce 113.24(11) . .
Ge S3 Ce 113.24(11) . 3_565
Ce S3 Ce 105.45(12) . 3_565
Ge S3 Ce 113.24(11) . 2_665
Ce S3 Ce 105.45(12) . 2_665
Ce S3 Ce 105.45(12) 3_565 2_665
loop_
_geom_bond_atom_site_label_1
_geom_bond_atom_site_label_2
_geom_bond_distance
_geom_bond_site_symmetry_2
Ce S1 2.828(3) 2
Ce S1 2.830(3) .
Ce S2 2.904(4) 5_564
Ce S1 2.986(5) 6
Ce S2 2.990(4) 6_554
Ce S3 3.030(3) .
Ce S2 3.031(4) 2
Ce S1 3.160(5) 6_554
Ce Co 3.473(4) .
Ce Co 3.550(5) 4_554
Co S1 2.607(7) .
Co S1 2.607(7) 3
Co S1 2.607(7) 2
Co S1 2.608(7) 6
Co S1 2.608(7) 5
Co S1 2.608(7) 4
Co Co 2.8953(9) 4_554
Co Co 2.8953(9) 4
Co Ce 3.473(4) 2
Co Ce 3.473(4) 3
Co Ce 3.550(5) 5
Ge S3 2.172(6) .
Ge S2 2.227(4) 4_665
Ge S2 2.227(4) 5_565
Ge S2 2.227(4) 6
S1 Co 2.608(7) 4_554
S1 Ce 2.828(3) 3
S1 Ce 2.986(5) 5_554
S1 Ce 3.160(5) 5
S2 Ge 2.227(4) 4_664
S2 Ce 2.904(4) 6_655
S2 Ce 2.990(4) 5
S2 Ce 3.031(4) 3
S3 Ce 3.030(3) 3_565
S3 Ce 3.030(3) 2_665
