#------------------------------------------------------------------------------
#$Date: 2021-02-18 12:20:21 +0200 (Thu, 18 Feb 2021) $
#$Revision: 262067 $
#$URL: file:///home/coder/svn-repositories/cod/cif/1/56/04/1560472.cif $
#------------------------------------------------------------------------------
#
# This file is available in the Crystallography Open Database (COD),
# http://www.crystallography.net/
#
# All data on this site have been placed in the public domain by the
# contributors.
#
data_1560472
loop_
_publ_author_name
'Iyer, Abishek K.'
'Yin, Wenlong'
'Lee, Emma J.'
'Lin, Xinsong'
'Mar, Arthur'
_publ_section_title
;
 Quaternary rare-earth sulfides RE 3 M 0.5 GeS 7 (RE=La--Nd, Sm; M=Co, Ni)
 and Y 3 Pd 0.5 SiS 7
;
_journal_name_full               'Journal of Solid State Chemistry'
_journal_page_first              14
_journal_page_last               23
_journal_paper_doi               10.1016/j.jssc.2017.03.009
_journal_volume                  250
_journal_year                    2017
_chemical_absolute_configuration ad
_chemical_formula_structural     'Y3 Pd0.50 Si S7'
_chemical_formula_sum            'Pd0.5 S7 Si Y3'
_chemical_formula_weight         572.44
_chemical_name_common
'yttrium palladium silicon sulfide (3/0.5/1/7)'
_chemical_name_systematic
'yttrium palladium silicon sulfide (3/0.5/1/7)'
_space_group_crystal_system      hexagonal
_space_group_IT_number           173
_space_group_name_Hall           'P 6c'
_space_group_name_H-M_alt        'P 63'
_atom_sites_solution_hydrogens   .
_audit_creation_method           SHELXL-2014/7
_cell_angle_alpha                90
_cell_angle_beta                 90
_cell_angle_gamma                120
_cell_formula_units_Z            2
_cell_length_a                   9.7891(3)
_cell_length_b                   9.7891(3)
_cell_length_c                   5.6840(4)
_cell_measurement_reflns_used    2429
_cell_measurement_temperature    296(2)
_cell_measurement_theta_max      24.60
_cell_measurement_theta_min      2.40
_cell_volume                     471.70(4)
_computing_cell_refinement       'Bruker SAINT 8.34A (Bruker, 2013)'
_computing_data_collection       'Bruker APEX 2 (Bruker, 2008)'
_computing_data_reduction        'Bruker SAINT 8.34A'
_computing_molecular_graphics    'ATOMS 5.1 (Dowty, 1999)'
_computing_publication_material  'SHELXL-2014/7 (Sheldrick, 2014)'
_computing_structure_refinement  'SHELXL-2014/7 (Sheldrick, 2014)'
_computing_structure_solution    'SHELXS-97 (Sheldrick, 2008)'
_diffrn_ambient_temperature      296(2)
_diffrn_measured_fraction_theta_full 1.000
_diffrn_measured_fraction_theta_max 0.998
_diffrn_measurement_device_type  'Bruker PLATFORM/SMART APEX II CCD'
_diffrn_measurement_method       '\w and \f scans'
_diffrn_radiation_type           MoK\a
_diffrn_radiation_wavelength     0.71073
_diffrn_reflns_av_R_equivalents  0.0638
_diffrn_reflns_av_unetI/netI     0.0486
_diffrn_reflns_Laue_measured_fraction_full 1.000
_diffrn_reflns_Laue_measured_fraction_max 0.998
_diffrn_reflns_limit_h_max       15
_diffrn_reflns_limit_h_min       -15
_diffrn_reflns_limit_k_max       15
_diffrn_reflns_limit_k_min       -14
_diffrn_reflns_limit_l_max       8
_diffrn_reflns_limit_l_min       -8
_diffrn_reflns_number            6928
_diffrn_reflns_point_group_measured_fraction_full 1.000
_diffrn_reflns_point_group_measured_fraction_max 0.998
_diffrn_reflns_theta_full        25.242
_diffrn_reflns_theta_max         33.131
_diffrn_reflns_theta_min         2.402
_diffrn_source                   'fine-focus sealed tube'
_exptl_absorpt_coefficient_mu    20.824
_exptl_absorpt_correction_T_max  0.524
_exptl_absorpt_correction_T_min  0.418
_exptl_absorpt_correction_type   numerical
_exptl_absorpt_process_details   'SHELXL-2014/7 (Sheldrick, 2014)'
_exptl_crystal_colour            grey
_exptl_crystal_density_diffrn    4.030
_exptl_crystal_description       irregular
_exptl_crystal_F_000             532
_exptl_crystal_size_max          0.053
_exptl_crystal_size_mid          0.052
_exptl_crystal_size_min          0.049
_refine_diff_density_max         0.954
_refine_diff_density_min         -1.845
_refine_diff_density_rms         0.225
_refine_ls_abs_structure_details
;
 Refined as an inversion twin.
;
_refine_ls_abs_structure_Flack   -0.04(2)
_refine_ls_extinction_coef       .
_refine_ls_extinction_method     none
_refine_ls_goodness_of_fit_ref   1.117
_refine_ls_hydrogen_treatment    undef
_refine_ls_matrix_type           full
_refine_ls_number_parameters     40
_refine_ls_number_reflns         1197
_refine_ls_number_restraints     1
_refine_ls_restrained_S_all      1.117
_refine_ls_R_factor_all          0.0542
_refine_ls_R_factor_gt           0.0413
_refine_ls_shift/su_max          0.000
_refine_ls_shift/su_mean         0.000
_refine_ls_structure_factor_coef Fsqd
_refine_ls_weighting_details
'w=1/[\s^2^(Fo^2^)+(0.0491P)^2^+0.7772P] where P=(Fo^2^+2Fc^2^)/3'
_refine_ls_weighting_scheme      calc
_refine_ls_wR_factor_gt          0.1020
_refine_ls_wR_factor_ref         0.1084
_reflns_Friedel_coverage         0.843
_reflns_Friedel_fraction_full    1.000
_reflns_Friedel_fraction_max     0.998
_reflns_number_gt                989
_reflns_number_total             1197
_reflns_threshold_expression     'I > 2\s(I)'
_cod_data_source_file            mmc22.cif
_cod_data_source_block           11
_cod_original_formula_sum        'Pd0.50 S7 Si Y3'
_cod_database_code               1560472
_shelx_shelxl_version_number     2014/7
_shelx_space_group_comment
;
The symmetry employed for this shelxl refinement is uniquely defined
by the following loop, which should always be used as a source of
symmetry information in preference to the above space-group names.
They are only intended as comments.
;
_shelx_estimated_absorpt_t_min   0.405
_shelx_estimated_absorpt_t_max   0.429
_shelx_res_file
;

    p63.res created by SHELXL-2014/7

TITL Y3Pd0.5SiS7 P6(3) lsf final refinement
CELL 0.71073   9.78910   9.78910   5.68400  90.0000  90.0000 120.0000
ZERR    2.00   0.00030   0.00030   0.00040   0.0000   0.0000   0.0000
LATT -1
SYMM -Y, X-Y, Z
SYMM -X+Y, -X, Z
SYMM -X, -Y, 0.5+Z
SYMM Y, -X+Y, 0.5+Z
SYMM X-Y, X, 0.5+Z
SFAC SI S Y PD
UNIT 2 14 6 1
TEMP 23
SIZE 0.049 0.052 0.053

L.S. 4
ACTA

TWIN

EADP PDA PDB
WGHT    0.049100    0.777200
BASF  -0.03758
FVAR       0.16059   0.88533
Y     3    0.130993    0.357108    0.028583    11.00000    0.02693    0.02784 =
         0.02282    0.00318    0.00167    0.01431
PDA   4    0.000000    0.000000    0.245916    20.16667    0.02672    0.02672 =
         0.02727    0.00000    0.00000    0.01336
PDB   4    0.000000    0.000000   -0.063326   -20.16667    0.02672    0.02672 =
         0.02727    0.00000    0.00000    0.01336
SI    1    0.333333    0.666667    0.613960    10.33333    0.02538    0.02538 =
         0.00980    0.00000    0.00000    0.01269
S1    2    0.252359    0.159063    0.000000    11.00000    0.05486    0.03507 =
         0.03660    0.00766    0.00596    0.03145
S2    2    0.523251    0.104807    0.263117    11.00000    0.02642    0.02320 =
         0.01457    0.00113   -0.00079    0.00970
S3    2    0.333333    0.666667    0.245479    10.33333    0.03069    0.03069 =
         0.01039    0.00000    0.00000    0.01535
HKLF 4

REM  Y3Pd0.5SiS7 P6(3) lsf final refinement
REM R1 =  0.0413 for     989 Fo > 4sig(Fo)  and  0.0542 for all    1197 data
REM     40 parameters refined using      1 restraints

END

WGHT      0.0491      0.7829

REM Highest difference peak  0.954,  deepest hole -1.845,  1-sigma level  0.225
Q1    1   0.5670  0.0876  0.0375  11.00000  0.05    0.95
Q2    1   0.2817  0.5436  0.5287  11.00000  0.05    0.86
Q3    1   0.3333  0.6667  0.4000  10.33333  0.05    0.82
Q4    1   0.1187  0.5998  0.2727  11.00000  0.05    0.75
Q5    1   0.3337  0.1993 -0.0098  11.00000  0.05    0.68
Q6    1   0.2116  0.7006  0.2430  11.00000  0.05    0.66
Q7    1   0.4753  0.0226  0.1225  11.00000  0.05    0.62
Q8    1   0.3333  0.6667  0.7974  10.33333  0.05    0.62
Q9    1   0.2918  0.2672  0.0290  11.00000  0.05    0.62
Q10   1   0.4613  0.0213  0.5025  11.00000  0.05    0.61
Q11   1   0.5426  0.1015  0.4438  11.00000  0.05    0.61
Q12   1   0.2174  0.2217 -0.1472  11.00000  0.05    0.60
Q13   1   0.3249  0.3932  0.0284  11.00000  0.05    0.60
Q14   1   0.5003  0.1241  0.0207  11.00000  0.05    0.59
Q15   1   0.3154  0.1055 -0.0132  11.00000  0.05    0.59
Q16   1  -0.0654  0.1200  0.2731  11.00000  0.05    0.58
Q17   1   0.4911  0.0266  0.2850  11.00000  0.05    0.57
Q18   1   0.0854  0.2422 -0.0746  11.00000  0.05    0.57
Q19   1   0.2452  0.0350  0.0259  11.00000  0.05    0.56
Q20   1   0.2529  0.5259  0.0161  11.00000  0.05    0.56
;
_shelx_res_checksum              52226
_shelx_hkl_file
;
   0  -5  -8    0.53    2.48
   1  -5  -8    8.59    3.65
   2  -5  -8    7.10    2.89
   3  -5  -8   -1.08    1.72
   4  -5  -8   10.31    3.60
   5  -5  -8   -0.34    3.38
   0  -4  -8    4.58    1.89
   1  -4  -8    2.29    1.74
   2  -4  -8   21.30    3.29
   3  -4  -8   26.05    4.41
   4  -4  -8    2.86    2.24
   5  -4  -8    5.06    3.60
  -2  -3  -8    2.37    3.15
  -1  -3  -8   19.60    4.32
   0  -3  -8    5.35    2.08
   1  -3  -8    1.79    1.54
   2  -3  -8    4.88    1.97
   3  -3  -8    5.96    2.19
   4  -3  -8    4.22    2.24
   5  -3  -8    1.85    2.48
  -3  -2  -8    7.71    3.92
  -2  -2  -8   24.15    4.56
  -1  -2  -8    5.39    2.50
   0  -2  -8    2.27    2.13
   1  -2  -8    7.59    2.30
   2  -2  -8    1.37    1.50
   3  -2  -8    1.26    1.99
   4  -2  -8   22.96    4.26
   5  -2  -8   -0.76    1.86
  -4  -1  -8   10.58    4.53
  -3  -1  -8    0.51    2.27
  -2  -1  -8    1.53    2.04
  -1  -1  -8   14.30    3.57
   0  -1  -8   -0.41    1.68
   1  -1  -8    0.46    1.37
   2  -1  -8    8.72    2.59
   3  -1  -8    6.40    2.55
   4  -1  -8   23.36    4.41
   5  -1  -8    8.83    3.29
  -5   0  -8    2.15    3.19
  -4   0  -8    4.86    2.55
  -3   0  -8    6.15    2.81
  -2   0  -8    1.56    2.00
  -1   0  -8   -1.35    1.66
   0   0  -8  108.91   10.64
   1   0  -8    0.84    1.47
   2   0  -8    0.69    1.73
   3   0  -8    6.10    2.50
   4   0  -8    1.81    2.22
   5   0  -8    0.08    2.70
  -5   1  -8   12.42    5.22
  -4   1  -8   29.68    5.13
  -3   1  -8    2.24    2.19
  -2   1  -8   11.03    3.26
  -1   1  -8   -1.01    1.66
   0   1  -8    0.25    1.72
   1   1  -8   12.12    3.16
   2   1  -8   -0.51    1.70
   3   1  -8    5.26    2.61
   4   1  -8    5.42    2.73
  -5   2  -8    0.49    2.41
  -4   2  -8   21.93    4.19
  -3   2  -8    1.31    1.92
  -2   2  -8    1.21    1.96
  -1   2  -8   12.35    3.27
   0   2  -8   -0.77    1.67
   1   2  -8    5.47    2.63
   2   2  -8   14.28    3.43
   3   2  -8    6.89    2.79
  -6   3  -8    7.61    4.24
  -5   3  -8    3.76    2.57
  -4   3  -8    0.46    1.90
  -3   3  -8    2.11    2.04
  -2   3  -8    3.65    2.27
  -1   3  -8    0.05    1.76
   0   3  -8    2.24    3.08
   1   3  -8   23.48    6.47
   2   3  -8    2.09    2.18
   3   3  -8   11.74    7.58
  -5   4  -8    7.40    3.44
  -4   4  -8    1.63    2.10
  -3   4  -8   23.74    4.53
  -2   4  -8   21.01    4.01
  -1   4  -8    3.66    3.54
   0   4  -8   -1.81    2.54
  -4   5  -8   12.08    3.84
  -3   5  -8   -0.11    1.99
  -3   6  -8   11.30    4.62
   1  -8  -7   17.75    6.65
   2  -8  -7   -0.09    1.89
   3  -8  -7    7.05    2.72
   4  -8  -7    2.35    2.02
   5  -8  -7   -1.35    1.99
   6  -8  -7    3.88    2.84
  -1  -7  -7    2.85    2.83
   0  -7  -7    3.32    2.18
   1  -7  -7    4.37    2.14
   2  -7  -7    2.04    1.88
   3  -7  -7    8.77    2.74
   4  -7  -7    1.12    1.94
   5  -7  -7    0.74    1.97
   6  -7  -7   12.15    3.28
   7  -7  -7    6.74    3.79
  -2  -6  -7   -0.12    2.57
  -1  -6  -7   16.08    3.20
   0  -6  -7    3.25    1.96
   1  -6  -7   -0.05    1.56
   2  -6  -7   11.80    2.93
   3  -6  -7   13.09    3.17
   4  -6  -7    4.86    2.11
   5  -6  -7    0.44    1.97
   6  -6  -7    6.83    2.57
   7  -6  -7    4.09    3.97
   8  -6  -7    3.82    5.49
  -3  -5  -7    1.74    2.24
  -2  -5  -7    1.57    2.10
  -1  -5  -7    0.90    1.40
   0  -5  -7    8.84    2.09
   1  -5  -7    0.78    1.39
   2  -5  -7   17.10    3.42
   3  -5  -7    1.94    1.62
   4  -5  -7   23.48    4.04
   5  -5  -7    9.10    2.69
   6  -5  -7   -0.90    1.78
   7  -5  -7   -1.45    3.21
   8  -5  -7   -2.51    3.32
  -4  -4  -7    4.73    2.62
  -3  -4  -7    0.23    1.89
  -2  -4  -7    1.90    2.01
  -1  -4  -7   24.29    3.30
   0  -4  -7    7.20    1.97
   1  -4  -7   23.43    3.32
   2  -4  -7    0.50    1.24
   3  -4  -7   -0.63    1.16
   4  -4  -7   11.09    2.90
   5  -4  -7   -0.58    1.49
   6  -4  -7    6.47    2.48
   7  -4  -7   15.31    5.34
   8  -4  -7    4.74    4.01
  -5  -3  -7   11.14    3.25
  -4  -3  -7    6.34    2.53
  -3  -3  -7   17.30    3.88
  -2  -3  -7    3.72    2.21
  -1  -3  -7   -0.19    1.13
   0  -3  -7   18.06    2.73
   1  -3  -7    1.16    1.15
   2  -3  -7    3.55    1.52
   3  -3  -7   10.80    2.31
   4  -3  -7   22.61    4.04
   5  -3  -7   21.11    3.85
   6  -3  -7   17.50    3.67
   7  -3  -7   -1.50    2.64
   8  -3  -7   -3.24    3.10
  -6  -2  -7   -0.79    3.37
  -5  -2  -7    1.18    1.90
  -4  -2  -7    2.59    2.17
  -3  -2  -7   15.07    3.38
  -2  -2  -7   -0.57    1.41
  -1  -2  -7    4.39    1.52
   0  -2  -7   25.94    3.33
   1  -2  -7    4.15    1.61
   2  -2  -7   26.94    3.50
   3  -2  -7    0.12    1.15
   4  -2  -7   -0.94    1.37
   5  -2  -7    1.51    1.79
   6  -2  -7    6.08    2.59
   7  -2  -7   -0.56    3.03
  -6  -1  -7    1.99    2.15
  -5  -1  -7   -0.09    1.77
  -4  -1  -7    3.05    2.05
  -3  -1  -7   26.32    4.47
  -2  -1  -7   -0.30    1.29
  -1  -1  -7    2.83    1.29
   0  -1  -7    9.93    2.05
   1  -1  -7    7.93    1.99
   2  -1  -7    5.16    1.67
   3  -1  -7    5.53    2.17
   4  -1  -7    0.15    1.56
   5  -1  -7   18.67    3.71
   6  -1  -7    0.62    2.53
   7  -1  -7   12.70    5.15
  -7   0  -7    5.28    2.49
  -6   0  -7    5.58    1.83
  -5   0  -7    7.02    1.99
  -4   0  -7    9.32    2.93
  -3   0  -7   10.67    2.94
  -2   0  -7   25.44    4.39
  -1   0  -7    7.33    1.81
   0   0  -7    0.89    1.05
   1   0  -7   11.61    2.28
   2   0  -7   31.17    3.66
   3   0  -7   10.76    2.80
   4   0  -7   11.90    3.03
   5   0  -7    4.66    2.31
   6   0  -7    9.98    4.50
   7   0  -7    3.52    3.84
  -7   1  -7   15.84    3.48
  -6   1  -7    2.24    1.50
  -5   1  -7   19.44    3.05
  -4   1  -7    1.53    1.77
  -3   1  -7    4.43    1.98
  -2   1  -7    0.89    1.31
  -1   1  -7    6.77    2.25
   0   1  -7    8.23    2.00
   1   1  -7    3.96    1.52
   2   1  -7    0.22    1.51
   3   1  -7   26.60    4.40
   4   1  -7    2.14    2.10
   5   1  -7    0.17    1.92
   6   1  -7    4.42    4.20
  -8   2  -7   -1.66    2.03
  -7   2  -7    1.85    1.90
  -6   2  -7    3.93    1.68
  -5   2  -7    4.09    1.65
  -4   2  -7    0.22    1.16
  -3   2  -7    0.46    1.46
  -2   2  -7   21.79    4.08
  -1   2  -7    4.09    1.72
   0   2  -7   24.30    3.25
   1   2  -7    4.12    2.04
   2   2  -7    1.93    1.82
   3   2  -7   16.85    3.68
   4   2  -7    9.56    2.87
   5   2  -7   -0.40    1.81
   6   2  -7    1.43    4.05
  -8   3  -7    2.61    1.80
  -7   3  -7    0.78    1.65
  -6   3  -7   20.60    3.02
  -5   3  -7   12.44    2.52
  -4   3  -7   19.59    3.05
  -3   3  -7    9.20    2.68
  -2   3  -7    3.56    1.91
  -1   3  -7   -0.05    1.33
   0   3  -7   12.15    2.29
   1   3  -7    0.36    1.66
   2   3  -7    3.88    2.18
   3   3  -7   15.06    3.59
   4   3  -7   10.18    2.93
   5   3  -7   16.03    3.53
  -8   4  -7    1.22    1.76
  -7   4  -7    6.78    1.98
  -6   4  -7    9.69    2.19
  -5   4  -7    1.64    1.37
  -4   4  -7    7.01    1.92
  -3   4  -7    0.24    1.54
  -2   4  -7    2.07    1.69
  -1   4  -7   20.28    3.91
   0   4  -7   11.93    3.19
   1   4  -7   15.00    3.43
   2   4  -7    5.38    2.48
   3   4  -7    0.37    2.00
   4   4  -7    1.68    2.36
  -8   5  -7    7.51    2.66
  -7   5  -7    1.81    1.50
  -6   5  -7    0.38    1.21
  -5   5  -7    1.81    1.46
  -4   5  -7   17.39    2.72
  -3   5  -7    1.97    1.92
  -2   5  -7   17.12    3.78
  -1   5  -7   -2.89    2.25
   0   5  -7    5.14    3.65
   1   5  -7    0.30    2.11
   2   5  -7    1.52    2.23
   3   5  -7   -0.19    1.91
  -8   6  -7    3.34    2.20
  -7   6  -7    2.31    1.65
  -6   6  -7    7.55    2.01
  -5   6  -7   -0.04    1.64
  -4   6  -7    3.15    2.15
  -3   6  -7   21.92    3.96
  -2   6  -7    7.45    2.52
  -1   6  -7    1.18    2.50
   0   6  -7    5.00    3.63
   1   6  -7   12.04    3.31
   2   6  -7    1.85    2.24
  -8   7  -7    6.20    3.05
  -7   7  -7    5.32    2.53
  -6   7  -7   12.75    3.33
  -5   7  -7    0.84    1.99
  -4   7  -7    0.03    1.88
  -3   7  -7   10.89    3.10
  -2   7  -7    5.88    3.62
  -1   7  -7    6.54    3.90
   0   7  -7    5.82    4.02
  -7   8  -7    5.35    4.05
  -6   8  -7    1.19    2.15
  -5   8  -7   -0.15    1.75
  -4   8  -7    2.81    2.19
  -3   8  -7   12.96    5.32
  -2   8  -7    3.70    5.67
   3 -10  -6   10.55    3.07
   4 -10  -6   12.88    3.20
   5 -10  -6   10.67    3.02
   6 -10  -6    1.20    1.62
   7 -10  -6   -0.50    1.48
   8 -10  -6   18.84    5.17
   0  -9  -6   -0.49    1.64
   1  -9  -6    0.02    1.61
   2  -9  -6    4.65    2.11
   3  -9  -6    9.32    2.67
   4  -9  -6   12.17    3.02
   5  -9  -6   -1.49    1.47
   6  -9  -6    8.10    2.06
   7  -9  -6    3.11    1.61
   8  -9  -6   11.73    3.02
   9  -9  -6    1.92    2.10
  -2  -8  -6   23.45    4.24
  -1  -8  -6    8.11    2.36
   0  -8  -6    5.68    2.19
   1  -8  -6    3.32    1.83
   2  -8  -6   -0.42    1.41
   3  -8  -6    7.44    2.24
   4  -8  -6   10.11    2.77
   5  -8  -6    2.56    1.93
   6  -8  -6    0.49    1.20
   7  -8  -6   22.33    3.00
   8  -8  -6    7.38    2.54
   9  -8  -6   -1.42    1.91
  10  -8  -6    6.45    3.08
  -3  -7  -6    2.56    2.15
  -2  -7  -6    3.78    1.88
  -1  -7  -6   20.89    3.55
   0  -7  -6    4.60    1.96
   1  -7  -6    1.17    1.54
   2  -7  -6    7.67    2.42
   3  -7  -6    8.25    2.48
   4  -7  -6   18.18    3.39
   5  -7  -6    8.51    2.64
   6  -7  -6    4.59    1.65
   7  -7  -6    4.52    1.75
   8  -7  -6    7.22    2.42
   9  -7  -6    2.42    2.21
  10  -7  -6   13.41    3.49
  -4  -6  -6    1.75    2.59
  -3  -6  -6    7.96    2.35
  -2  -6  -6    2.14    1.66
  -1  -6  -6    3.25    1.82
   0  -6  -6    6.96    2.18
   1  -6  -6   49.92    5.99
   2  -6  -6    1.78    1.43
   3  -6  -6   60.49    6.66
   4  -6  -6    0.46    1.41
   5  -6  -6   38.98    5.13
   6  -6  -6    4.25    1.49
   7  -6  -6   -0.30    1.19
   8  -6  -6   -0.22    1.68
   9  -6  -6    1.52    2.15
  10  -6  -6    3.98    2.44
  -5  -5  -6   10.83    2.95
  -4  -5  -6    1.63    1.84
  -3  -5  -6    3.70    1.63
  -2  -5  -6    8.85    2.03
  -1  -5  -6   43.22    4.45
   0  -5  -6    2.73    1.34
   1  -5  -6   33.61    3.95
   2  -5  -6    0.44    1.06
   3  -5  -6    4.57    1.71
   4  -5  -6   18.67    3.29
   5  -5  -6    3.58    1.92
   6  -5  -6   51.74    5.18
   7  -5  -6   11.95    2.77
   8  -5  -6    9.82    2.87
   9  -5  -6   14.28    3.34
  10  -5  -6    8.52    2.90
  -6  -4  -6    9.10    5.07
  -5  -4  -6    6.69    2.48
  -4  -4  -6    5.88    2.20
  -3  -4  -6   16.10    3.05
  -2  -4  -6    1.54    1.30
  -1  -4  -6   14.22    2.43
   0  -4  -6    5.49    1.56
   1  -4  -6   15.97    2.51
   2  -4  -6   10.80    2.24
   3  -4  -6   11.96    2.20
   4  -4  -6    7.35    2.16
   5  -4  -6   40.58    5.19
   6  -4  -6    1.75    1.69
   7  -4  -6    8.14    2.50
   8  -4  -6    5.12    2.27
   9  -4  -6    2.75    2.37
  10  -4  -6    2.99    2.47
  -7  -3  -6   10.96    5.26
  -6  -3  -6   11.45    4.89
  -5  -3  -6    7.50    2.55
  -4  -3  -6    8.90    2.45
  -3  -3  -6   73.85    7.50
  -2  -3  -6    3.43    1.31
  -1  -3  -6   12.58    2.24
   0  -3  -6   13.53    2.15
   1  -3  -6    6.42    1.66
   2  -3  -6   57.98    5.21
   3  -3  -6   11.66    2.10
   4  -3  -6   27.25    3.18
   5  -3  -6    0.01    1.26
   6  -3  -6   62.90    6.90
   7  -3  -6   16.86    3.72
   8  -3  -6    5.07    2.12
   9  -3  -6   11.65    2.97
  10  -3  -6    0.52    2.06
  -8  -2  -6    3.14    2.47
  -7  -2  -6    2.88    2.15
  -6  -2  -6   -1.53    1.00
  -5  -2  -6   11.94    2.29
  -4  -2  -6    2.34    1.63
  -3  -2  -6    2.85    1.73
  -2  -2  -6   15.57    2.42
  -1  -2  -6   51.69    4.79
   0  -2  -6   55.59    4.77
   1  -2  -6   53.11    4.59
   2  -2  -6   50.96    4.79
   3  -2  -6    4.65    1.41
   4  -2  -6   13.68    2.36
   5  -2  -6    3.63    1.78
   6  -2  -6    2.08    1.69
   7  -2  -6    7.72    4.11
   8  -2  -6    2.38    2.00
   9  -2  -6    3.40    2.48
  10  -2  -6   25.70    6.14
  -8  -1  -6   -0.96    1.75
  -7  -1  -6    6.45    2.42
  -6  -1  -6   -0.24    1.10
  -5  -1  -6   57.27    5.19
  -4  -1  -6   44.65    4.25
  -3  -1  -6   23.27    3.71
  -2  -1  -6    6.90    1.61
  -1  -1  -6   53.17    4.70
   0  -1  -6   10.24    1.84
   1  -1  -6    9.02    1.82
   2  -1  -6   59.38    4.88
   3  -1  -6   60.52    5.18
   4  -1  -6   12.65    2.84
   5  -1  -6   14.09    2.92
   6  -1  -6   36.59    4.93
   7  -1  -6    4.51    3.42
   8  -1  -6   21.22    6.03
   9  -1  -6    9.83    3.78
  -9   0  -6   -0.75    1.90
  -8   0  -6    7.86    2.70
  -7   0  -6    2.59    1.71
  -6   0  -6    3.67    1.51
  -5   0  -6    6.11    1.65
  -4   0  -6    5.80    1.62
  -3   0  -6   14.71    2.16
  -2   0  -6   57.34    4.56
  -1   0  -6   11.58    1.83
   0   0  -6   22.93    3.04
   1   0  -6   10.95    2.01
   2   0  -6   54.38    4.82
   3   0  -6   11.15    2.71
   4   0  -6    4.78    2.00
   5   0  -6    2.51    1.70
   6   0  -6    4.30    2.01
   7   0  -6    9.39    3.74
   8   0  -6    7.25    4.15
   9   0  -6    0.58    3.74
  -9   1  -6    8.47    2.71
  -8   1  -6   17.39    3.54
  -7   1  -6    7.13    2.31
  -6   1  -6   44.25    4.21
  -5   1  -6   19.13    2.66
  -4   1  -6   12.05    2.17
  -3   1  -6   56.07    5.00
  -2   1  -6   50.58    4.49
  -1   1  -6    9.21    1.73
   0   1  -6   11.05    1.89
   1   1  -6   56.72    4.87
   2   1  -6   10.44    1.92
   3   1  -6   23.58    3.75
   4   1  -6   46.65    5.55
   5   1  -6   50.74    6.24
   6   1  -6    0.48    2.69
   7   1  -6    3.90    3.65
   8   1  -6    1.00    3.57
 -10   2  -6   19.18    6.06
  -9   2  -6   -0.28    1.87
  -8   2  -6    3.80    1.85
  -7   2  -6    4.52    2.11
  -6   2  -6    1.08    1.14
  -5   2  -6    4.18    1.42
  -4   2  -6   11.68    2.11
  -3   2  -6    7.77    1.72
  -2   2  -6   52.76    5.93
  -1   2  -6   52.63    4.57
   0   2  -6   56.77    4.84
   1   2  -6   58.05    5.11
   2   2  -6   13.72    2.97
   3   2  -6   -0.33    1.23
   4   2  -6    0.45    1.54
   5   2  -6    9.83    2.72
   6   2  -6   -0.57    2.63
   7   2  -6    2.76    3.56
 -10   3  -6    3.41    2.34
  -9   3  -6    6.72    2.57
  -8   3  -6    2.40    1.82
  -7   3  -6   19.66    2.81
  -6   3  -6   64.10    5.47
  -5   3  -6    0.98    1.05
  -4   3  -6   20.51    2.68
  -3   3  -6   13.67    2.18
  -2   3  -6   48.23    6.02
  -1   3  -6    6.37    1.58
   0   3  -6   10.15    2.01
   1   3  -6   11.38    2.44
   2   3  -6    2.54    1.72
   3   3  -6   73.86    7.54
   4   3  -6    4.15    1.91
   5   3  -6   11.20    3.03
   6   3  -6   16.59    5.34
   7   3  -6   10.12    4.71
 -10   4  -6    1.49    2.03
  -9   4  -6    1.85    1.85
  -8   4  -6    3.48    1.96
  -7   4  -6    6.25    1.64
  -6   4  -6    3.27    1.30
  -5   4  -6   30.15    3.66
  -4   4  -6    3.34    1.22
  -3   4  -6   11.43    2.14
  -2   4  -6   13.43    3.05
  -1   4  -6   23.18    2.92
   0   4  -6    5.96    1.63
   1   4  -6   11.23    2.71
   2   4  -6    0.63    1.54
   3   4  -6   17.50    3.56
   4   4  -6    1.68    1.90
   5   4  -6    5.91    2.53
   6   4  -6    7.78    4.47
 -10   5  -6    6.03    2.34
  -9   5  -6    4.98    2.28
  -8   5  -6   10.88    2.61
  -7   5  -6   10.29    2.04
  -6   5  -6   49.32    4.89
  -5   5  -6    3.52    1.39
  -4   5  -6   18.83    2.56
  -3   5  -6    2.53    1.34
  -2   5  -6    0.18    1.22
  -1   5  -6   36.88    4.04
   0   5  -6    3.48    1.96
   1   5  -6   32.48    4.92
   2   5  -6    8.07    2.73
   3   5  -6    4.10    2.26
   4   5  -6    0.96    1.76
   5   5  -6    5.39    3.70
 -10   6  -6    6.48    2.51
  -9   6  -6    5.20    2.32
  -8   6  -6   -1.49    1.09
  -7   6  -6   -0.06    1.09
  -6   6  -6    0.99    1.20
  -5   6  -6   34.95    3.78
  -4   6  -6    0.83    1.47
  -3   6  -6   66.75    7.14
  -2   6  -6    3.93    1.75
  -1   6  -6   54.76    6.86
   0   6  -6    1.84    1.89
   1   6  -6    5.44    2.35
   2   6  -6    1.30    2.01
   3   6  -6   10.21    2.91
   4   6  -6    2.12    2.20
 -10   7  -6    6.11    2.56
  -9   7  -6    1.76    1.73
  -8   7  -6    3.10    1.76
  -7   7  -6    4.79    1.62
  -6   7  -6    3.26    1.28
  -5   7  -6   11.21    3.01
  -4   7  -6   12.46    3.07
  -3   7  -6    3.87    1.87
  -2   7  -6   10.15    2.76
  -1   7  -6    2.01    2.47
   0   7  -6    5.18    2.33
   1   7  -6   20.57    4.09
   2   7  -6    1.45    2.19
   3   7  -6    0.18    1.97
 -10   8  -6    8.70    3.55
  -9   8  -6   -0.08    1.58
  -8   8  -6    6.94    2.39
  -7   8  -6   20.63    4.09
  -6   8  -6   -0.43    1.73
  -5   8  -6    2.98    2.25
  -4   8  -6    8.73    2.69
  -3   8  -6    7.34    2.51
  -2   8  -6    3.43    3.20
  -1   8  -6    2.39    2.72
   0   8  -6    5.28    2.63
   1   8  -6   11.50    3.22
   2   8  -6   19.78    4.15
  -8   9  -6    6.03    3.89
  -7   9  -6   -0.39    1.99
  -6   9  -6    7.34    2.91
  -5   9  -6    3.05    2.12
  -4   9  -6    3.01    2.17
  -3   9  -6    6.76    4.00
  -2   9  -6   -0.65    2.29
  -1   9  -6    4.59    3.61
   0   9  -6   -2.21    2.54
  -7  10  -6    0.63    2.32
  -6  10  -6    0.75    2.11
  -5  10  -6    6.75    2.94
  -4  10  -6    3.27    3.51
  -3  10  -6    4.22    3.90
   4 -12  -5   10.75    3.99
   5 -12  -5   -0.25    2.37
   6 -12  -5    2.04    2.76
   7 -12  -5    6.44    3.46
   1 -11  -5    6.66    3.19
   2 -11  -5    0.40    1.58
   3 -11  -5    0.18    1.35
   4 -11  -5    3.65    1.71
   5 -11  -5    6.98    2.13
   6 -11  -5    4.62    1.83
   7 -11  -5    1.86    1.45
   8 -11  -5    7.49    2.74
   9 -11  -5    5.05    2.53
  10 -11  -5    4.75    3.72
   0 -10  -5   24.68    5.77
   1 -10  -5   12.75    2.39
   2 -10  -5   17.15    2.62
   3 -10  -5    1.56    1.36
   4 -10  -5    0.83    1.25
   5 -10  -5    5.49    1.79
   6 -10  -5    7.39    1.85
   7 -10  -5    8.05    2.02
   8 -10  -5    0.19    1.60
   9 -10  -5   -2.09    1.74
  10 -10  -5   25.01    4.49
  11 -10  -5    4.25    4.14
  -2  -9  -5    3.86    2.96
  -1  -9  -5    1.01    1.68
   0  -9  -5    0.30    1.17
   1  -9  -5    0.94    1.24
   2  -9  -5    2.19    1.20
   3  -9  -5    1.02    1.07
   4  -9  -5    8.45    1.89
   5  -9  -5    9.08    1.91
   6  -9  -5    2.74    1.37
   7  -9  -5   16.95    2.72
   8  -9  -5    4.23    2.07
   9  -9  -5    0.98    1.86
  10  -9  -5   16.68    3.55
  11  -9  -5    0.25    2.24
  -4  -8  -5    6.16    3.31
  -3  -8  -5    9.39    2.54
  -2  -8  -5    3.30    1.79
  -1  -8  -5    4.57    1.74
   0  -8  -5    0.10    0.92
   1  -8  -5   22.29    2.69
   2  -8  -5   30.06    3.45
   3  -8  -5   70.82    5.58
   4  -8  -5   14.51    2.20
   5  -8  -5    3.52    1.34
   6  -8  -5   11.11    2.01
   7  -8  -5    4.51    1.49
   8  -8  -5    0.72    1.51
   9  -8  -5    3.78    2.32
  10  -8  -5   14.90    3.67
  11  -8  -5    4.02    2.47
  12  -8  -5   18.79    5.95
  -4  -7  -5   -0.79    1.39
  -3  -7  -5    3.91    1.80
  -2  -7  -5   14.74    2.95
  -1  -7  -5    4.02    1.62
   0  -7  -5    2.48    1.11
   1  -7  -5    1.50    0.83
   2  -7  -5    9.53    1.83
   3  -7  -5    7.30    1.53
   4  -7  -5    7.39    1.54
   5  -7  -5    6.65    1.57
   6  -7  -5  103.53    7.39
   7  -7  -5    4.65    1.53
   8  -7  -5   35.18    4.55
   9  -7  -5    3.79    2.08
  10  -7  -5    1.28    1.96
  11  -7  -5    5.46    2.56
  12  -7  -5    0.68    3.52
  -5  -6  -5    8.47    3.34
  -4  -6  -5    7.42    2.13
  -3  -6  -5    1.30    1.34
  -2  -6  -5    4.46    1.71
  -1  -6  -5  109.83    9.04
   0  -6  -5    4.54    1.69
   1  -6  -5   16.79    2.18
   2  -6  -5   11.97    1.90
   3  -6  -5   45.15    4.09
   4  -6  -5    3.12    1.14
   5  -6  -5   21.91    2.73
   6  -6  -5    5.97    1.51
   7  -6  -5    1.67    1.09
   8  -6  -5   31.04    4.68
   9  -6  -5    0.26    1.61
  10  -6  -5   -2.51    1.51
  11  -6  -5    6.38    2.82
  12  -6  -5    7.73    3.17
  -6  -5  -5    4.17    4.29
  -5  -5  -5    7.78    2.44
  -4  -5  -5    9.77    1.97
  -3  -5  -5    2.55    1.17
  -2  -5  -5    4.43    1.41
  -1  -5  -5   21.76    2.85
   0  -5  -5   11.88    2.07
   1  -5  -5    2.33    0.96
   2  -5  -5   47.96    3.45
   3  -5  -5    0.30    0.73
   4  -5  -5   66.96    5.41
   5  -5  -5   13.61    1.99
   6  -5  -5   14.55    2.21
   7  -5  -5    9.97    1.89
   8  -5  -5   70.56    7.60
   9  -5  -5   13.76    3.14
  10  -5  -5    8.58    2.84
  11  -5  -5    2.62    2.17
  12  -5  -5    8.08    3.35
  -6  -4  -5    1.42    2.92
  -5  -4  -5    9.29    2.42
  -4  -4  -5   21.63    2.67
  -3  -4  -5    4.59    1.46
  -2  -4  -5    3.09    1.17
  -1  -4  -5   76.74    5.81
   0  -4  -5    5.31    1.43
   1  -4  -5  137.75    6.93
   2  -4  -5    5.34    1.09
   3  -4  -5    5.06    1.10
   4  -4  -5    6.15    1.32
   5  -4  -5    1.68    0.98
   6  -4  -5   13.47    2.11
   7  -4  -5   11.92    2.80
   8  -4  -5   13.48    3.09
   9  -4  -5   14.53    3.09
  10  -4  -5   10.48    2.97
  11  -4  -5    3.95    2.39
  12  -4  -5    4.11    3.93
  -8  -3  -5   -2.42    1.95
  -7  -3  -5    1.64    1.73
  -6  -3  -5    0.17    1.06
  -5  -3  -5   74.74    6.09
  -4  -3  -5    8.32    1.39
  -3  -3  -5   48.92    4.29
  -2  -3  -5    0.59    0.83
  -1  -3  -5    7.72    1.54
   0  -3  -5   38.22    3.79
   1  -3  -5   31.90    3.39
   2  -3  -5   40.29    3.06
   3  -3  -5   43.94    3.31
   4  -3  -5  124.16    6.85
   5  -3  -5   38.97    3.75
   6  -3  -5   47.06    4.31
   7  -3  -5    8.20    2.32
   8  -3  -5    4.09    2.00
   9  -3  -5    4.45    2.18
  10  -3  -5    1.03    1.97
  11  -3  -5   12.38    3.34
  -9  -2  -5   -0.68    2.42
  -8  -2  -5   19.29    3.69
  -7  -2  -5    2.62    1.78
  -6  -2  -5   33.66    3.66
  -5  -2  -5    6.62    1.67
  -4  -2  -5   10.91    1.96
  -3  -2  -5   48.33    3.25
  -2  -2  -5    6.95    1.42
  -1  -2  -5   39.78    3.76
   0  -2  -5   22.85    2.81
   1  -2  -5   19.16    2.50
   2  -2  -5   21.08    2.28
   3  -2  -5   31.93    2.80
   4  -2  -5    4.69    1.08
   5  -2  -5   -0.76    0.73
   6  -2  -5    2.40    1.12
   7  -2  -5    5.66    1.98
   8  -2  -5    7.97    2.53
   9  -2  -5   16.01    3.47
  10  -2  -5    3.40    2.21
  11  -2  -5    1.46    2.40
 -10  -1  -5    2.11    2.90
  -9  -1  -5   12.93    3.94
  -8  -1  -5    6.11    2.10
  -7  -1  -5   23.52    3.56
  -6  -1  -5    4.34    1.33
  -5  -1  -5   19.43    2.45
  -4  -1  -5    1.16    0.93
  -3  -1  -5  136.13    6.88
  -2  -1  -5   33.08    2.82
  -1  -1  -5   22.53    2.59
   0  -1  -5   34.98    3.30
   1  -1  -5   34.59    3.30
   2  -1  -5   21.89    2.60
   3  -1  -5   42.27    3.28
   4  -1  -5    4.90    1.10
   5  -1  -5   72.32    5.97
   6  -1  -5   19.51    2.73
   7  -1  -5  122.01    9.66
   8  -1  -5    5.52    2.13
   9  -1  -5    6.56    2.47
  10  -1  -5   -0.11    1.66
  11  -1  -5    2.85    3.02
 -10   0  -5   22.21    3.84
  -9   0  -5    0.56    1.29
  -8   0  -5    1.80    1.55
  -7   0  -5    3.09    1.54
  -6   0  -5    5.35    1.43
  -5   0  -5   13.65    2.00
  -4   0  -5    5.85    1.38
  -3   0  -5   43.73    3.18
  -2   0  -5   24.17    2.36
  -1   0  -5   31.39    3.13
   0   0  -5   -0.56    0.60
   1   0  -5   38.29    3.44
   2   0  -5   21.31    2.76
   3   0  -5   37.25    3.15
   4   0  -5    5.91    1.33
   5   0  -5   11.95    1.90
   6   0  -5    4.60    1.45
   7   0  -5    2.41    1.67
   8   0  -5    0.76    1.67
   9   0  -5   -1.47    1.59
  10   0  -5   24.47    4.37
 -10   1  -5   -1.03    1.33
  -9   1  -5    5.95    1.75
  -8   1  -5    2.82    1.74
  -7   1  -5  111.74    9.35
  -6   1  -5   18.74    2.60
  -5   1  -5   75.39    5.77
  -4   1  -5    4.42    1.24
  -3   1  -5   41.39    3.05
  -2   1  -5   20.99    2.08
  -1   1  -5   31.82    3.12
   0   1  -5   41.33    3.57
   1   1  -5   18.79    2.54
   2   1  -5   29.91    3.30
   3   1  -5  130.80    8.41
   4   1  -5    2.99    1.20
   5   1  -5   15.41    2.36
   6   1  -5    2.99    1.35
   7   1  -5   18.32    3.46
   8   1  -5    1.39    1.83
   9   1  -5   12.57    3.37
  10   1  -5    2.69    3.25
 -11   2  -5    5.52    2.39
 -10   2  -5    2.82    1.49
  -9   2  -5   13.44    2.48
  -8   2  -5    6.22    2.19
  -7   2  -5    6.94    1.49
  -6   2  -5    0.48    0.85
  -5   2  -5    0.60    0.80
  -4   2  -5    4.11    1.13
  -3   2  -5   31.70    2.67
  -2   2  -5   28.10    2.48
  -1   2  -5   22.19    2.52
   0   2  -5   20.76    2.76
   1   2  -5   40.10    3.87
   2   2  -5    3.19    1.13
   3   2  -5   42.66    4.76
   4   2  -5    9.40    1.84
   5   2  -5   10.23    1.95
   6   2  -5   30.09    4.39
   7   2  -5   -1.77    1.34
   8   2  -5   18.91    3.55
   9   2  -5    0.35    2.11
 -11   3  -5   10.23    2.37
 -10   3  -5    4.16    1.55
  -9   3  -5    4.60    2.04
  -8   3  -5    3.56    1.57
  -7   3  -5    5.82    1.43
  -6   3  -5   43.07    4.09
  -5   3  -5   41.91    3.79
  -4   3  -5  127.22    7.96
  -3   3  -5   46.17    3.95
  -2   3  -5   45.34    3.26
  -1   3  -5   29.18    3.21
   0   3  -5   42.97    3.93
   1   3  -5    7.29    1.51
   2   3  -5    1.31    1.43
   3   3  -5   39.94    5.28
   4   3  -5   10.84    2.07
   5   3  -5   78.85    6.36
   6   3  -5    2.44    1.68
   7   3  -5    4.18    2.13
   8   3  -5    0.91    1.86
 -11   4  -5    3.55    1.56
 -10   4  -5    6.98    2.30
  -9   4  -5   12.48    2.84
  -8   4  -5   21.04    3.46
  -7   4  -5    9.25    1.81
  -6   4  -5    7.94    1.67
  -5   4  -5    3.79    1.18
  -4   4  -5    6.80    1.52
  -3   4  -5    4.00    1.12
  -2   4  -5    3.48    0.91
  -1   4  -5  135.09    8.11
   0   4  -5    6.80    1.48
   1   4  -5   82.84    7.91
   2   4  -5    2.67    1.63
   3   4  -5    7.07    2.25
   4   4  -5   12.98    2.94
   5   4  -5    9.64    2.10
   6   4  -5   -0.44    1.54
   7   4  -5    2.91    2.10
   8   4  -5   21.37    5.32
 -12   5  -5    7.54    4.04
 -11   5  -5    6.73    2.45
 -10   5  -5    5.28    2.23
  -9   5  -5    6.98    2.28
  -8   5  -5   55.42    6.94
  -7   5  -5    7.60    1.71
  -6   5  -5   18.74    2.50
  -5   5  -5   10.24    1.73
  -4   5  -5   76.90    5.81
  -3   5  -5    1.01    0.84
  -2   5  -5   49.04    3.36
  -1   5  -5    2.02    1.11
   0   5  -5   13.37    2.13
   1   5  -5   16.54    3.33
   2   5  -5    8.81    2.46
   3   5  -5    4.30    1.91
   4   5  -5   12.46    2.72
   5   5  -5    7.12    2.50
   6   5  -5    5.25    3.97
   7   5  -5    3.21    3.12
 -12   6  -5    1.19    3.50
 -11   6  -5    9.62    2.75
 -10   6  -5    0.30    1.52
  -9   6  -5   -1.07    1.31
  -8   6  -5   23.01    4.06
  -7   6  -5    2.06    1.16
  -6   6  -5    3.90    1.34
  -5   6  -5   18.46    2.54
  -4   6  -5    1.25    0.98
  -3   6  -5   44.12    5.51
  -2   6  -5   10.03    1.98
  -1   6  -5   21.83    2.80
   0   6  -5    3.48    1.78
   1   6  -5  115.26   10.09
   2   6  -5    5.95    2.21
   3   6  -5    4.80    2.22
   4   6  -5    5.19    2.52
   5   6  -5    4.59    3.64
 -12   7  -5    0.77    2.90
 -11   7  -5    2.82    2.06
 -10   7  -5    2.30    1.83
  -9   7  -5   -1.32    1.04
  -8   7  -5   25.10    3.62
  -7   7  -5    3.01    1.24
  -6   7  -5  111.83    7.95
  -5   7  -5    7.01    1.50
  -4   7  -5    3.31    1.82
  -3   7  -5    5.92    2.18
  -2   7  -5   10.00    1.97
  -1   7  -5    2.87    1.93
   0   7  -5    3.01    1.95
   1   7  -5    3.63    2.10
   2   7  -5   12.73    3.21
   3   7  -5    4.73    2.32
   4   7  -5   -0.48    1.86
 -11   8  -5    0.55    1.84
 -10   8  -5   14.16    3.17
  -9   8  -5    1.66    1.65
  -8   8  -5    0.62    1.25
  -7   8  -5    6.45    1.60
  -6   8  -5   11.06    2.71
  -5   8  -5    2.69    1.78
  -4   8  -5   16.63    3.31
  -3   8  -5   75.16    7.79
  -2   8  -5   24.93    4.28
  -1   8  -5   26.51    4.18
   0   8  -5    0.52    1.75
   1   8  -5    5.33    2.34
   2   8  -5    1.74    1.99
   3   8  -5    8.44    3.00
   4   8  -5    2.58    3.01
 -11   9  -5    2.51    2.02
 -10   9  -5    9.70    2.79
  -9   9  -5    2.19    1.67
  -8   9  -5    6.03    2.42
  -7   9  -5   13.52    3.31
  -6   9  -5    6.01    2.41
  -5   9  -5    9.44    2.80
  -4   9  -5    9.73    2.77
  -3   9  -5    0.19    1.46
  -2   9  -5   -0.48    1.97
  -1   9  -5    2.24    2.04
   0   9  -5    0.89    1.97
   1   9  -5   -0.42    1.87
   2   9  -5    3.42    2.46
 -11  10  -5    1.63    2.50
 -10  10  -5   21.66    6.63
  -9  10  -5    0.92    3.16
  -8  10  -5    4.09    2.41
  -7  10  -5    5.17    2.55
  -6  10  -5    6.70    2.61
  -5  10  -5    6.05    2.36
  -4  10  -5    2.26    1.94
  -3  10  -5   -1.12    2.69
  -2  10  -5   11.59    4.59
  -1  10  -5    7.85    4.16
   0  10  -5   18.34    4.17
   1  10  -5    2.36    3.83
  -9  11  -5    0.65    2.67
  -8  11  -5    5.62    2.83
  -7  11  -5    0.20    2.01
  -6  11  -5    4.51    2.41
  -5  11  -5    2.94    2.29
  -4  11  -5    1.79    3.50
  -3  11  -5   -0.91    2.47
  -2  11  -5    1.11    3.14
  -8  12  -5   -1.18    3.96
  -7  12  -5    4.20    2.87
  -6  12  -5    1.99    2.57
  -5  12  -5    0.80    4.20
   6 -13  -4   14.62    3.45
   7 -13  -4    3.44    2.72
   8 -13  -4    1.19    3.59
   9 -13  -4    2.74    3.34
   2 -12  -4   19.73    3.79
   3 -12  -4    2.11    1.74
   4 -12  -4    5.34    2.04
   5 -12  -4    0.69    1.68
   6 -12  -4    1.17    1.84
   7 -12  -4    2.36    1.93
   8 -12  -4    6.89    2.42
   9 -12  -4    5.53    2.60
  10 -12  -4   34.81    4.95
  -1 -11  -4   11.89    4.44
   0 -11  -4    0.67    1.70
   1 -11  -4    0.57    1.56
   2 -11  -4    6.96    2.24
   3 -11  -4   11.26    2.56
   4 -11  -4    7.01    2.26
   5 -11  -4    8.95    2.27
   6 -11  -4    7.05    2.17
   7 -11  -4   68.13    6.66
   8 -11  -4    1.53    1.91
   9 -11  -4    2.91    2.05
  10 -11  -4   -1.88    1.87
  11 -11  -4    1.47    3.02
  -2 -10  -4   23.90    4.07
  -1 -10  -4    0.58    1.48
   0 -10  -4    1.63    1.45
   1 -10  -4    2.94    1.64
   2 -10  -4    1.31    1.40
   3 -10  -4   19.66    2.73
   4 -10  -4   11.33    2.13
   5 -10  -4    2.59    1.31
   6 -10  -4   21.00    2.81
   7 -10  -4    6.43    1.73
   8 -10  -4    0.15    1.33
   9 -10  -4    4.64    2.15
  10 -10  -4    0.53    1.86
  11 -10  -4    3.96    3.09
  12 -10  -4   10.98    4.90
  -4  -9  -4    0.92    2.29
  -3  -9  -4    2.04    1.88
  -2  -9  -4    1.65    1.53
  -1  -9  -4    2.61    1.60
   0  -9  -4   30.73    3.53
   1  -9  -4    2.12    1.14
   2  -9  -4   24.13    2.89
   3  -9  -4   24.52    2.92
   4  -9  -4    3.21    1.22
   5  -9  -4   13.44    2.14
   6  -9  -4    1.48    1.09
   7  -9  -4    9.54    1.93
   8  -9  -4    9.69    2.56
   9  -9  -4   26.75    4.09
  10  -9  -4    5.55    2.16
  11  -9  -4    2.07    2.10
  12  -9  -4    0.93    3.06
  -4  -8  -4   10.95    2.57
  -3  -8  -4   -0.85    1.21
  -2  -8  -4    1.95    1.17
  -1  -8  -4   10.21    1.88
   0  -8  -4   51.96    4.47
   1  -8  -4    6.24    1.48
   2  -8  -4    6.07    1.38
   3  -8  -4    9.36    1.69
   4  -8  -4    3.32    1.13
   5  -8  -4   75.98    5.74
   6  -8  -4    0.44    0.92
   7  -8  -4    2.51    1.18
   8  -8  -4   51.61    5.64
   9  -8  -4    4.88    2.10
  10  -8  -4    2.52    2.00
  11  -8  -4    8.00    2.78
  12  -8  -4    0.68    3.33
  -5  -7  -4    3.28    2.28
  -4  -7  -4   54.96    5.78
  -3  -7  -4    6.77    1.68
  -2  -7  -4    8.19    1.68
  -1  -7  -4    3.50    1.14
   0  -7  -4    3.14    1.11
   1  -7  -4   19.28    2.37
   2  -7  -4    7.57    1.52
   3  -7  -4   14.43    2.07
   4  -7  -4   64.81    4.73
   5  -7  -4   28.86    3.10
   6  -7  -4   37.24    3.53
   7  -7  -4    4.11    1.29
   8  -7  -4    6.87    2.01
   9  -7  -4   30.83    4.41
  10  -7  -4   25.83    4.11
  11  -7  -4    1.90    2.18
  12  -7  -4    1.71    3.06
  -5  -6  -4   12.71    3.46
  -4  -6  -4   21.19    2.63
  -3  -6  -4    1.85    1.00
  -2  -6  -4    1.37    0.90
  -1  -6  -4   35.56    3.28
   0  -6  -4   -0.04    0.67
   1  -6  -4  120.13    7.72
   2  -6  -4    1.67    0.81
   3  -6  -4   11.71    1.86
   4  -6  -4    3.08    1.01
   5  -6  -4    6.81    1.52
   6  -6  -4    1.61    0.93
   7  -6  -4   21.78    2.66
   8  -6  -4    5.65    1.98
   9  -6  -4   26.14    3.97
  10  -6  -4    3.75    2.19
  11  -6  -4   10.90    2.94
  12  -6  -4    1.47    2.52
  -5  -5  -4    3.39    1.38
  -4  -5  -4   13.78    1.84
  -3  -5  -4   74.59    4.60
  -2  -5  -4   36.04    2.86
  -1  -5  -4   11.54    1.52
   0  -5  -4    0.39    0.57
   1  -5  -4   21.20    2.08
   2  -5  -4   22.17    2.39
   3  -5  -4   24.86    2.58
   4  -5  -4   14.30    1.97
   5  -5  -4   -0.61    0.59
   6  -5  -4  122.16    7.84
   7  -5  -4    8.54    1.66
   8  -5  -4    8.07    2.30
   9  -5  -4    3.89    1.79
  10  -5  -4    3.95    2.01
  11  -5  -4   16.64    3.39
  12  -5  -4    1.71    2.47
  -7  -4  -4    4.04    2.54
  -6  -4  -4   10.07    1.94
  -5  -4  -4    1.46    0.84
  -4  -4  -4    3.32    0.85
  -3  -4  -4   62.42    3.94
  -2  -4  -4    6.24    1.12
  -1  -4  -4   15.29    1.79
   0  -4  -4   23.11    2.15
   1  -4  -4   24.14    2.20
   2  -4  -4  158.65    7.65
   3  -4  -4  257.72   14.39
   4  -4  -4   23.21    2.50
   5  -4  -4   18.71    2.33
   6  -4  -4    1.32    0.89
   7  -4  -4   17.65    2.28
   8  -4  -4    1.88    1.43
   9  -4  -4   17.15    3.25
  10  -4  -4   24.28    4.03
  11  -4  -4   58.66    6.51
  12  -4  -4    9.00    2.87
  -9  -3  -4    2.56    2.76
  -8  -3  -4    3.24    1.78
  -7  -3  -4   20.00    2.61
  -6  -3  -4   31.70    2.75
  -5  -3  -4    9.83    1.40
  -4  -3  -4   15.34    1.76
  -3  -3  -4   14.31    1.51
  -2  -3  -4   26.71    2.24
  -1  -3  -4  259.58   12.43
   0  -3  -4   15.86    1.55
   1  -3  -4    2.48    0.70
   2  -3  -4   61.04    3.76
   3  -3  -4   12.22    1.37
   4  -3  -4   23.23    2.60
   5  -3  -4   20.59    2.43
   6  -3  -4   12.06    1.95
   7  -3  -4   68.99    6.74
   8  -3  -4   84.78    7.18
   9  -3  -4    0.84    1.55
  10  -3  -4    9.52    2.85
  11  -3  -4   -0.52    1.93
  12  -3  -4    3.08    2.41
 -10  -2  -4    9.73    3.84
  -9  -2  -4    4.89    1.90
  -8  -2  -4    3.22    1.57
  -7  -2  -4   29.54    3.27
  -6  -2  -4    6.39    1.22
  -5  -2  -4    7.92    1.08
  -4  -2  -4    1.55    0.70
  -3  -2  -4   23.20    1.87
  -2  -2  -4  159.08    6.71
  -1  -2  -4   66.92    3.69
   0  -2  -4   11.92    1.36
   1  -2  -4   23.47    2.00
   2  -2  -4   12.33    1.43
   3  -2  -4    1.92    0.66
   4  -2  -4  152.79    7.61
   5  -2  -4   27.52    2.84
   6  -2  -4    3.10    1.11
   7  -2  -4   26.69    3.95
   8  -2  -4    2.47    1.58
   9  -2  -4   13.25    2.90
  10  -2  -4    0.67    1.80
  11  -2  -4    3.12    2.04
  12  -2  -4   41.62    7.95
 -10  -1  -4   -0.56    1.52
  -9  -1  -4    4.78    1.81
  -8  -1  -4    4.01    1.34
  -7  -1  -4    5.04    1.49
  -6  -1  -4   18.58    2.08
  -5  -1  -4  129.30    6.76
  -4  -1  -4   24.21    2.00
  -3  -1  -4   23.49    2.14
  -2  -1  -4    1.25    0.57
  -1  -1  -4   23.86    1.64
   0  -1  -4   17.40    1.49
   1  -1  -4   19.46    1.59
   2  -1  -4   19.26    1.91
   3  -1  -4   62.08    3.74
   4  -1  -4  269.19   12.56
   5  -1  -4   17.47    2.04
   6  -1  -4    9.04    1.46
   7  -1  -4   42.01    3.86
   8  -1  -4    4.30    1.87
   9  -1  -4    8.35    2.56
  10  -1  -4    5.34    2.29
  11  -1  -4   -0.09    1.87
  12  -1  -4   16.20    5.43
 -11   0  -4    1.10    1.76
 -10   0  -4    0.26    1.37
  -9   0  -4   28.94    3.61
  -8   0  -4   51.07    4.52
  -7   0  -4    3.05    1.16
  -6   0  -4    0.41    0.63
  -5   0  -4   -0.12    0.52
  -4   0  -4   25.17    2.12
  -3   0  -4   13.23    1.40
  -2   0  -4   11.21    1.38
  -1   0  -4   14.25    1.47
   0   0  -4  977.17   43.71
   1   0  -4   16.71    1.53
   2   0  -4   10.58    1.40
   3   0  -4   13.30    1.51
   4   0  -4   26.54    2.03
   5   0  -4   -0.34    0.59
   6   0  -4   -0.06    0.69
   7   0  -4    2.91    1.23
   8   0  -4   48.48    4.61
   9   0  -4   32.50    3.67
  10   0  -4    2.77    2.19
  11   0  -4   -1.22    1.99
 -12   1  -4    7.78    4.10
 -11   1  -4    0.47    1.73
 -10   1  -4    0.60    1.53
  -9   1  -4   11.77    2.11
  -8   1  -4    1.12    0.95
  -7   1  -4   33.69    3.56
  -6   1  -4   10.51    1.47
  -5   1  -4   15.40    1.99
  -4   1  -4  267.95   12.40
  -3   1  -4   64.09    3.69
  -2   1  -4   22.85    1.97
  -1   1  -4   15.66    1.54
   0   1  -4   16.00    1.34
   1   1  -4   27.31    2.16
   2   1  -4    1.93    0.71
   3   1  -4   22.90    2.14
   4   1  -4   21.54    2.50
   5   1  -4  129.77    8.01
   6   1  -4   23.97    2.42
   7   1  -4    5.21    1.62
   8   1  -4    3.60    1.53
   9   1  -4    3.18    1.70
  10   1  -4    0.05    1.89
  11   1  -4    0.17    4.73
 -12   2  -4   18.35    3.84
 -11   2  -4    2.23    1.70
 -10   2  -4    0.71    1.12
  -9   2  -4    8.56    1.81
  -8   2  -4    0.52    0.88
  -7   2  -4   34.83    2.78
  -6   2  -4    4.23    1.00
  -5   2  -4   21.62    2.47
  -4   2  -4  148.68    8.77
  -3   2  -4    2.89    0.66
  -2   2  -4   12.98    1.42
  -1   2  -4   22.46    2.03
   0   2  -4   12.63    1.41
   1   2  -4   60.93    3.74
   2   2  -4  159.22    7.66
   3   2  -4   22.41    2.67
   4   2  -4    1.36    0.92
   5   2  -4    5.42    1.46
   6   2  -4    4.39    1.89
   7   2  -4   26.74    4.27
   8   2  -4    3.24    1.59
   9   2  -4    5.78    2.08
  10   2  -4   20.77    3.25
 -12   3  -4    1.62    1.93
 -11   3  -4    0.24    1.57
 -10   3  -4    7.39    1.81
  -9   3  -4    0.28    1.00
  -8   3  -4   68.04    5.70
  -7   3  -4   62.78    3.94
  -6   3  -4   14.62    1.96
  -5   3  -4   24.21    2.58
  -4   3  -4   28.48    2.74
  -3   3  -4   13.15    1.39
  -2   3  -4   61.85    3.72
  -1   3  -4    1.47    0.62
   0   3  -4   11.73    1.42
   1   3  -4  260.45   12.52
   2   3  -4   23.09    2.25
   3   3  -4   11.44    2.01
   4   3  -4   15.64    2.26
   5   3  -4    8.86    1.76
   6   3  -4   24.61    3.98
   7   3  -4   17.34    3.46
   8   3  -4    4.92    1.90
   9   3  -4    2.14    1.71
 -12   4  -4    7.21    2.58
 -11   4  -4   53.87    5.13
 -10   4  -4   25.27    3.16
  -9   4  -4   15.42    2.37
  -8   4  -4    1.83    1.08
  -7   4  -4   14.02    1.67
  -6   4  -4    2.51    1.02
  -5   4  -4   21.89    2.45
  -4   4  -4   24.71    2.63
  -3   4  -4  255.52   12.42
  -2   4  -4  149.74    7.56
  -1   4  -4   26.00    2.31
   0   4  -4   23.45    2.20
   1   4  -4   16.82    1.85
   2   4  -4    4.38    1.27
   3   4  -4   60.23    5.11
   4   4  -4    2.80    1.30
   5   4  -4    1.58    1.26
   6   4  -4    9.15    2.52
   7   4  -4    4.50    2.45
   8   4  -4    2.90    2.06
   9   4  -4   -1.95    3.11
 -12   5  -4    1.16    1.55
 -11   5  -4    6.57    1.80
 -10   5  -4    1.69    1.23
  -9   5  -4    4.73    1.47
  -8   5  -4    7.41    1.67
  -7   5  -4    7.39    1.47
  -6   5  -4  130.37    7.89
  -5   5  -4   -0.20    0.65
  -4   5  -4   14.19    1.99
  -3   5  -4   20.85    2.08
  -2   5  -4   23.09    2.18
  -1   5  -4   24.01    2.66
   0   5  -4    1.03    0.63
   1   5  -4    7.40    1.62
   2   5  -4   29.72    3.19
   3   5  -4   73.14    5.91
   4   5  -4   16.97    2.48
   5   5  -4    1.82    1.29
   6   5  -4   12.74    3.02
   7   5  -4    2.04    2.06
   8   5  -4   16.37    5.35
 -13   6  -4   -1.39    2.30
 -12   6  -4    1.07    1.54
 -11   6  -4    9.98    2.19
 -10   6  -4    8.79    2.04
  -9   6  -4   22.22    2.93
  -8   6  -4    1.58    1.41
  -7   6  -4   22.64    2.74
  -6   6  -4    0.98    0.89
  -5   6  -4    9.33    1.70
  -4   6  -4    5.49    1.30
  -3   6  -4   12.52    1.62
  -2   6  -4    1.31    0.90
  -1   6  -4  130.86    8.08
   0   6  -4    0.61    0.75
   1   6  -4   34.07    3.55
   2   6  -4    1.01    1.03
   3   6  -4    2.05    1.18
   4   6  -4   22.49    2.96
   5   6  -4    9.78    2.34
   6   6  -4    1.54    1.92
   7   6  -4    6.16    3.94
 -13   7  -4   10.38    3.05
 -12   7  -4    0.91    1.50
 -11   7  -4    4.68    1.82
 -10   7  -4   19.17    2.68
  -9   7  -4   30.21    4.27
  -8   7  -4    5.36    1.82
  -7   7  -4    2.63    1.16
  -6   7  -4   34.62    3.52
  -5   7  -4   25.53    2.77
  -4   7  -4   68.92    4.81
  -3   7  -4   16.14    2.32
  -2   7  -4    7.14    1.62
  -1   7  -4   20.22    2.61
   0   7  -4    2.29    1.61
   1   7  -4    1.65    1.19
   2   7  -4    9.51    2.01
   3   7  -4    5.12    1.76
   4   7  -4   55.72    5.20
   5   7  -4    2.15    2.15
   6   7  -4    3.23    3.17
 -13   8  -4   18.49    3.83
 -12   8  -4    0.79    1.57
 -11   8  -4    6.03    1.87
 -10   8  -4    3.31    1.80
  -9   8  -4    0.25    1.34
  -8   8  -4   46.27    4.38
  -7   8  -4    2.49    0.98
  -6   8  -4    0.08    0.88
  -5   8  -4   68.90    7.37
  -4   8  -4    1.87    1.51
  -3   8  -4    8.08    1.83
  -2   8  -4    4.42    1.39
  -1   8  -4    4.58    2.03
   0   8  -4   50.33    5.88
   1   8  -4    7.70    2.25
   2   8  -4    0.04    1.07
   3   8  -4    1.30    1.49
   4   8  -4    6.19    2.00
   5   8  -4    0.25    2.66
 -13   9  -4    2.21    2.52
 -12   9  -4    2.69    2.31
 -11   9  -4    4.83    2.19
 -10   9  -4    1.61    1.84
  -9   9  -4   22.24    3.65
  -8   9  -4    5.65    1.63
  -7   9  -4   11.30    2.86
  -6   9  -4    0.97    1.49
  -5   9  -4   16.64    3.33
  -4   9  -4    2.29    1.52
  -3   9  -4   25.94    4.05
  -2   9  -4   31.05    3.54
  -1   9  -4    4.08    1.97
   0   9  -4   32.24    4.69
   1   9  -4    2.51    1.89
   2   9  -4    3.17    2.08
   3   9  -4    2.76    1.76
   4   9  -4    3.10    2.52
 -12  10  -4    8.49    3.01
 -11  10  -4    0.35    1.82
 -10  10  -4   -0.29    1.63
  -9  10  -4    0.19    1.49
  -8  10  -4    1.85    2.08
  -7  10  -4    3.40    2.19
  -6  10  -4   19.79    3.94
  -5  10  -4    2.79    1.81
  -4  10  -4   11.52    2.81
  -3  10  -4   14.40    3.23
  -2  10  -4    5.27    2.24
  -1  10  -4    5.40    2.32
   0  10  -4    0.32    1.87
   1  10  -4    0.67    1.99
   2  10  -4   20.48    4.31
 -12  11  -4    5.09    3.25
 -11  11  -4   -0.32    1.83
 -10  11  -4    5.79    3.80
  -9  11  -4    1.22    2.90
  -8  11  -4    1.35    1.93
  -7  11  -4   48.69    6.59
  -6  11  -4    3.79    2.25
  -5  11  -4   11.09    3.07
  -4  11  -4    4.07    2.32
  -3  11  -4   10.13    4.46
  -2  11  -4    6.49    3.10
  -1  11  -4   -1.36    1.70
   0  11  -4    1.84    2.18
 -10  12  -4   11.07    5.20
  -9  12  -4    5.04    3.78
  -8  12  -4   12.09    3.56
  -7  12  -4    0.81    2.12
  -6  12  -4    0.90    1.93
  -5  12  -4    1.02    1.87
  -4  12  -4    4.62    3.65
  -3  12  -4   -0.55    2.87
  -2  12  -4   13.61    5.17
  -1  12  -4    0.97    3.56
  -8  13  -4   -0.65    3.60
  -7  13  -4   -0.94    2.14
  -6  13  -4   10.38    3.42
   7 -14  -3    5.82    3.77
   8 -14  -3   -2.19    3.18
   3 -13  -3    6.55    2.37
   4 -13  -3    7.10    2.38
   5 -13  -3   -0.69    1.53
   6 -13  -3    0.58    1.72
   7 -13  -3    8.87    2.63
   8 -13  -3    0.44    1.94
   9 -13  -3   11.56    3.16
  10 -13  -3    5.32    3.75
   1 -12  -3    1.29    1.75
   2 -12  -3    3.81    1.97
   3 -12  -3    1.82    1.67
   4 -12  -3   14.59    3.09
   5 -12  -3    0.87    1.51
   6 -12  -3    4.85    1.97
   7 -12  -3    9.37    2.40
   8 -12  -3    2.67    1.94
   9 -12  -3    1.40    1.94
  10 -12  -3    3.91    3.16
  11 -12  -3   11.04    4.65
  -1 -11  -3    6.06    2.19
   0 -11  -3    8.53    2.48
   1 -11  -3    1.49    1.58
   2 -11  -3    7.13    2.24
   3 -11  -3    9.04    2.40
   4 -11  -3    8.53    2.29
   5 -11  -3   17.36    3.14
   6 -11  -3    8.89    2.30
   7 -11  -3    1.96    1.66
   8 -11  -3    8.07    2.42
   9 -11  -3   19.97    3.58
  10 -11  -3    4.54    2.94
  11 -11  -3    0.47    2.93
  12 -11  -3    0.99    3.43
  -3 -10  -3    0.76    2.67
  -2 -10  -3    0.64    1.56
  -1 -10  -3    4.45    1.86
   0 -10  -3   34.42    4.40
   1 -10  -3   21.86    3.36
   2 -10  -3   42.41    5.00
   3 -10  -3    3.62    1.64
   4 -10  -3    0.53    1.27
   5 -10  -3    9.31    2.23
   6 -10  -3    9.55    2.27
   7 -10  -3    0.85    1.27
   8 -10  -3   10.97    2.50
   9 -10  -3   -2.65    1.12
  10 -10  -3   34.13    4.56
  11 -10  -3    2.63    3.15
  12 -10  -3    0.54    2.96
  13 -10  -3    2.95    3.66
  -4  -9  -3    4.26    3.27
  -3  -9  -3    1.16    1.40
  -2  -9  -3   22.10    3.56
  -1  -9  -3    0.03    1.15
   0  -9  -3    2.45    1.34
   1  -9  -3   18.75    3.08
   2  -9  -3    5.92    1.75
   3  -9  -3    1.28    0.97
   4  -9  -3    2.75    1.06
   5  -9  -3   72.19    6.47
   6  -9  -3   16.88    2.32
   7  -9  -3   30.70    3.34
   8  -9  -3    2.98    1.52
   9  -9  -3    0.30    1.36
  10  -9  -3   21.04    3.45
  11  -9  -3   10.16    4.10
  12  -9  -3    1.51    3.10
  13  -9  -3    0.79    3.43
  -6  -8  -3    4.21    3.20
  -5  -8  -3    2.38    2.52
  -4  -8  -3    1.85    1.34
  -3  -8  -3    5.89    1.64
  -2  -8  -3    7.86    1.68
  -1  -8  -3    1.42    1.01
   0  -8  -3    0.50    0.68
   1  -8  -3   65.95    4.75
   2  -8  -3   35.40    2.82
   3  -8  -3  108.65    5.60
   4  -8  -3   30.15    2.53
   5  -8  -3    9.95    1.43
   6  -8  -3    1.58    0.80
   7  -8  -3    9.48    1.69
   8  -8  -3   -0.44    1.06
   9  -8  -3   17.21    3.10
  10  -8  -3   32.10    4.66
  11  -8  -3    3.67    3.08
  12  -8  -3   19.27    5.59
  13  -8  -3   -0.41    2.38
  -7  -7  -3    5.12    5.44
  -6  -7  -3   12.00    3.10
  -5  -7  -3   11.63    2.58
  -4  -7  -3    2.37    1.37
  -3  -7  -3    1.20    1.00
  -2  -7  -3   35.03    2.97
  -1  -7  -3    7.55    1.35
   0  -7  -3   25.90    2.51
   1  -7  -3   40.03    3.02
   2  -7  -3   10.06    1.33
   3  -7  -3   52.15    3.51
   4  -7  -3   10.83    1.33
   5  -7  -3    9.03    1.23
   6  -7  -3  158.78    7.41
   7  -7  -3   29.45    2.63
   8  -7  -3   75.00    5.73
   9  -7  -3    3.62    1.46
  10  -7  -3    1.41    1.26
  11  -7  -3    5.15    3.33
  12  -7  -3    2.17    2.80
  13  -7  -3   -2.96    2.47
  -8  -6  -3    1.08    3.46
  -7  -6  -3    0.37    2.70
  -6  -6  -3    4.33    2.17
  -5  -6  -3    6.12    1.66
  -4  -6  -3    8.86    1.74
  -3  -6  -3   15.07    1.94
  -2  -6  -3    0.93    0.71
  -1  -6  -3  168.40    7.52
   0  -6  -3   25.87    2.34
   1  -6  -3   15.39    1.64
   2  -6  -3   37.86    2.56
   3  -6  -3   94.95    5.18
   4  -6  -3   35.45    2.60
   5  -6  -3   16.57    1.57
   6  -6  -3   26.35    2.30
   7  -6  -3   39.89    3.07
   8  -6  -3   41.20    3.52
   9  -6  -3    1.62    1.07
  10  -6  -3    2.37    1.30
  11  -6  -3   19.81    2.89
  12  -6  -3   10.54    2.99
  13  -6  -3    8.07    4.23
  -8  -5  -3    0.70    2.51
  -7  -5  -3    1.84    1.77
  -6  -5  -3   24.26    2.91
  -5  -5  -3    9.86    1.52
  -4  -5  -3   79.04    4.19
  -3  -5  -3    9.18    1.08
  -2  -5  -3   10.05    1.06
  -1  -5  -3   21.40    1.44
   0  -5  -3   75.93    4.18
   1  -5  -3    3.83    0.74
   2  -5  -3   57.54    3.34
   3  -5  -3   20.13    1.69
   4  -5  -3  145.65    6.99
   5  -5  -3   74.90    4.17
   6  -5  -3   18.97    1.77
   7  -5  -3   10.98    1.38
   8  -5  -3  105.06    6.63
   9  -5  -3    3.89    1.33
  10  -5  -3   10.19    1.96
  11  -5  -3    8.74    2.03
  12  -5  -3    8.15    2.48
  13  -5  -3    1.99    2.42
  -9  -4  -3    2.37    3.29
  -8  -4  -3   18.09    3.54
  -7  -4  -3   11.36    2.15
  -6  -4  -3    1.16    0.78
  -5  -4  -3    3.32    0.64
  -4  -4  -3   25.63    1.60
  -3  -4  -3   11.61    0.95
  -2  -4  -3   34.94    2.23
  -1  -4  -3  141.96    6.32
   0  -4  -3   77.58    4.13
   1  -4  -3  214.22    9.83
   2  -4  -3    6.90    0.84
   3  -4  -3   19.85    1.54
   4  -4  -3   77.08    4.46
   5  -4  -3    2.51    0.68
   6  -4  -3   37.20    2.68
   7  -4  -3   55.72    4.46
   8  -4  -3   30.63    3.18
   9  -4  -3   76.87    6.27
  10  -4  -3    5.50    1.74
  11  -4  -3    1.43    1.42
  12  -4  -3    2.91    2.10
  13  -4  -3    9.49    2.94
 -10  -3  -3    4.29    2.26
  -9  -3  -3    1.86    1.70
  -8  -3  -3    9.04    2.35
  -7  -3  -3    3.20    1.16
  -6  -3  -3    1.08    0.62
  -5  -3  -3  115.83    3.96
  -4  -3  -3   55.69    2.37
  -3  -3  -3   97.20    3.66
  -2  -3  -3   16.45    1.32
  -1  -3  -3   22.80    1.59
   0  -3  -3  112.04    4.66
   1  -3  -3   27.32    1.56
   2  -3  -3   81.71    3.77
   3  -3  -3  109.75    5.12
   4  -3  -3  216.74    9.81
   5  -3  -3   60.93    3.53
   6  -3  -3   91.57    5.26
   7  -3  -3    7.44    1.50
   8  -3  -3    7.71    1.66
   9  -3  -3   13.18    2.11
  10  -3  -3    3.99    1.49
  11  -3  -3    8.04    2.03
  12  -3  -3    1.34    1.94
  13  -3  -3    5.42    2.53
 -11  -2  -3    4.59    3.34
 -10  -2  -3    4.43    2.19
  -9  -2  -3    7.26    1.79
  -8  -2  -3   46.90    4.15
  -7  -2  -3    3.88    1.09
  -6  -2  -3   39.68    2.25
  -5  -2  -3   12.25    1.01
  -4  -2  -3   40.69    1.89
  -3  -2  -3   58.37    2.56
  -2  -2  -3    7.46    0.74
  -1  -2  -3   83.57    3.82
   0  -2  -3  165.91    9.12
   1  -2  -3   36.65    2.33
   2  -2  -3  162.67    9.14
   3  -2  -3   25.97    1.56
   4  -2  -3    5.90    0.87
   5  -2  -3   19.47    1.79
   6  -2  -3   32.54    2.77
   7  -2  -3    9.53    1.71
   8  -2  -3    0.11    0.97
   9  -2  -3   33.20    3.64
  10  -2  -3    7.18    1.83
  11  -2  -3   15.92    2.85
  12  -2  -3    0.34    1.94
  13  -2  -3    6.22    3.84
 -11  -1  -3    3.58    2.06
 -10  -1  -3    2.32    1.38
  -9  -1  -3   23.67    2.83
  -8  -1  -3   18.54    2.51
  -7  -1  -3   71.43    4.62
  -6  -1  -3   37.67    2.65
  -5  -1  -3   17.23    1.44
  -4  -1  -3    4.04    0.61
  -3  -1  -3  214.31    7.98
  -2  -1  -3   23.57    1.48
  -1  -1  -3   36.05    1.95
   0  -1  -3   31.86    1.93
   1  -1  -3   28.34    1.94
   2  -1  -3   35.12    1.91
   3  -1  -3   81.39    3.85
   4  -1  -3   17.65    1.72
   5  -1  -3  143.74    7.16
   6  -1  -3   17.13    1.74
   7  -1  -3  164.22    8.95
   8  -1  -3   11.93    2.00
   9  -1  -3    2.83    1.35
  10  -1  -3   -0.44    1.14
  11  -1  -3    5.78    1.98
  12  -1  -3    4.54    2.64
 -12   0  -3   12.25    5.24
 -11   0  -3    3.87    1.91
 -10   0  -3   27.09    3.98
  -9   0  -3    1.76    1.10
  -8   0  -3    0.04    0.69
  -7   0  -3   31.78    3.21
  -6   0  -3   27.63    2.33
  -5   0  -3   75.80    3.69
  -4   0  -3   76.54    4.01
  -3   0  -3  106.58    4.64
  -2   0  -3  173.16    8.10
  -1   0  -3   29.73    1.66
   0   0  -3   -0.18    0.23
   1   0  -3   28.04    1.96
   2   0  -3  170.28    9.19
   3   0  -3  113.33    5.32
   4   0  -3   73.92    4.54
   5   0  -3   69.85    4.29
   6   0  -3   25.18    2.44
   7   0  -3   29.40    3.43
   8   0  -3    2.20    1.21
   9   0  -3    1.15    1.24
  10   0  -3   33.77    3.86
  11   0  -3    5.54    2.04
  12   0  -3   19.23    5.88
 -12   1  -3    4.71    2.11
 -11   1  -3    7.13    2.30
 -10   1  -3   -0.57    1.12
  -9   1  -3    1.51    1.04
  -8   1  -3    7.59    1.61
  -7   1  -3  165.67    8.74
  -6   1  -3   20.49    1.72
  -5   1  -3  142.21    6.19
  -4   1  -3   19.82    1.41
  -3   1  -3   84.51    4.25
  -2   1  -3   38.23    2.26
  -1   1  -3   28.85    1.99
   0   1  -3   29.04    1.73
   1   1  -3   38.48    2.32
   2   1  -3   28.04    2.00
   3   1  -3  208.86    9.87
   4   1  -3    2.16    0.87
   5   1  -3   17.01    2.09
   6   1  -3   35.43    3.52
   7   1  -3   76.49    6.22
   8   1  -3   22.11    2.96
   9   1  -3   27.02    3.35
  10   1  -3    2.81    1.68
  11   1  -3    4.47    2.11
 -13   2  -3    0.84    2.91
 -12   2  -3    0.48    1.64
 -11   2  -3   16.15    3.22
 -10   2  -3    3.60    1.63
  -9   2  -3   34.12    3.49
  -8   2  -3    1.09    0.88
  -7   2  -3    8.97    1.55
  -6   2  -3   38.31    2.79
  -5   2  -3   15.30    1.63
  -4   2  -3    7.84    0.77
  -3   2  -3   25.95    1.74
  -2   2  -3  174.02    9.14
  -1   2  -3   32.92    1.84
   0   2  -3  177.37    8.17
   1   2  -3   83.42    4.37
   2   2  -3    5.57    0.92
   3   2  -3   58.45    3.61
   4   2  -3   34.63    3.28
   5   2  -3   11.18    1.74
   6   2  -3   34.90    3.73
   7   2  -3    3.52    1.82
   8   2  -3   44.58    4.42
   9   2  -3    9.88    2.31
  10   2  -3    3.90    1.93
  11   2  -3    3.26    2.63
 -13   3  -3    4.27    2.22
 -12   3  -3    1.43    1.68
 -11   3  -3    8.47    2.46
 -10   3  -3    2.03    1.12
  -9   3  -3   15.67    2.28
  -8   3  -3   10.96    1.74
  -7   3  -3    9.83    1.29
  -6   3  -3   90.64    5.20
  -5   3  -3   62.40    3.48
  -4   3  -3  207.99    9.75
  -3   3  -3  110.78    5.20
  -2   3  -3   84.88    3.78
  -1   3  -3   24.36    1.52
   0   3  -3  108.84    5.28
   1   3  -3   19.75    1.75
   2   3  -3   18.94    1.75
   3   3  -3  100.17    6.29
   4   3  -3   57.29    4.57
   5   3  -3  108.51    6.71
   6   3  -3    1.17    1.38
   7   3  -3    2.68    1.74
   8   3  -3   14.28    3.16
   9   3  -3    0.62    1.54
  10   3  -3    8.42    2.45
 -13   4  -3    7.73    2.68
 -12   4  -3    2.30    1.83
 -11   4  -3    1.19    1.17
 -10   4  -3    7.10    1.61
  -9   4  -3   82.39    6.34
  -8   4  -3   25.08    2.83
  -7   4  -3   57.08    3.57
  -6   4  -3   37.26    2.73
  -5   4  -3    2.69    0.71
  -4   4  -3   75.37    4.48
  -3   4  -3   18.01    1.67
  -2   4  -3    6.02    0.90
  -1   4  -3  211.50    8.78
   0   4  -3   81.40    4.61
   1   4  -3  146.08    7.10
   2   4  -3   31.77    3.24
   3   4  -3   10.73    1.67
   4   4  -3   25.70    2.88
   5   4  -3    2.32    1.21
   6   4  -3    0.97    1.52
   7   4  -3    9.79    2.71
   8   4  -3   20.26    3.92
   9   4  -3    5.25    2.14
 -13   5  -3    1.11    2.11
 -12   5  -3    4.51    1.98
 -11   5  -3    6.33    1.72
 -10   5  -3    9.82    1.91
  -9   5  -3    4.61    1.25
  -8   5  -3  109.36    6.59
  -7   5  -3   10.93    1.37
  -6   5  -3   17.50    1.73
  -5   5  -3   73.97    4.96
  -4   5  -3  136.74    7.00
  -3   5  -3   16.33    1.67
  -2   5  -3   58.27    3.50
  -1   5  -3    1.79    0.62
   0   5  -3   69.56    4.20
   1   5  -3   17.63    1.67
   2   5  -3    6.13    1.35
   3   5  -3    8.05    1.61
   4   5  -3   79.43    6.44
   5   5  -3    6.43    1.60
   6   5  -3   16.09    3.34
   7   5  -3    0.61    1.81
   8   5  -3    3.58    2.47
 -13   6  -3    9.71    2.91
 -12   6  -3    3.40    1.62
 -11   6  -3   15.31    2.52
 -10   6  -3    1.08    1.11
  -9   6  -3    0.61    0.92
  -8   6  -3   39.63    3.44
  -7   6  -3   41.51    3.14
  -6   6  -3   26.64    2.86
  -5   6  -3   18.61    2.07
  -4   6  -3   35.32    2.78
  -3   6  -3  104.15    5.32
  -2   6  -3   38.66    2.58
  -1   6  -3   17.71    2.16
   0   6  -3   27.70    2.82
   1   6  -3  155.80    8.77
   2   6  -3    0.49    0.87
   3   6  -3   14.74    2.26
   4   6  -3    8.29    1.76
   5   6  -3    5.21    1.71
   6   6  -3    2.47    2.00
   7   6  -3   -0.92    2.01
 -13   7  -3    0.49    1.81
 -12   7  -3    0.58    1.33
 -11   7  -3    7.19    1.78
 -10   7  -3    2.02    1.25
  -9   7  -3    4.43    1.36
  -8   7  -3   69.23    5.36
  -7   7  -3   29.16    3.14
  -6   7  -3  154.90    8.73
  -5   7  -3    9.50    1.55
  -4   7  -3   12.09    1.44
  -3   7  -3   58.04    4.42
  -2   7  -3   13.69    1.89
  -1   7  -3   37.99    3.65
   0   7  -3   32.69    3.28
   1   7  -3    7.47    1.68
   2   7  -3   35.27    3.59
   3   7  -3    1.85    1.20
   4   7  -3    1.35    1.24
   5   7  -3   10.44    2.75
   6   7  -3    5.96    2.63
 -14   8  -3    4.27    3.80
 -13   8  -3    0.10    1.47
 -12   8  -3   22.90    3.12
 -11   8  -3   13.56    2.36
 -10   8  -3   37.90    3.90
  -9   8  -3   16.87    2.42
  -8   8  -3    1.54    0.98
  -7   8  -3   12.43    1.98
  -6   8  -3    0.92    0.85
  -5   8  -3    8.48    1.53
  -4   8  -3   26.43    2.82
  -3   8  -3  117.40    6.85
  -2   8  -3   36.18    3.43
  -1   8  -3   64.71    5.77
   0   8  -3    0.45    1.27
   1   8  -3    2.17    1.14
   2   8  -3    6.45    1.73
   3   8  -3    5.28    1.66
   4   8  -3    2.86    1.52
   5   8  -3    0.22    2.00
 -13   9  -3    0.85    1.65
 -12   9  -3   -0.07    1.36
 -11   9  -3    6.07    1.85
 -10   9  -3   22.68    3.65
  -9   9  -3    3.78    1.60
  -8   9  -3    0.72    1.02
  -7   9  -3   27.45    3.30
  -6   9  -3   18.24    3.33
  -5   9  -3   79.29    8.72
  -4   9  -3    4.75    1.57
  -3   9  -3    2.19    1.23
  -2   9  -3    3.46    1.33
  -1   9  -3   16.58    3.18
   0   9  -3   -0.07    1.26
   1   9  -3    0.06    0.98
   2   9  -3   15.04    2.72
   3   9  -3    2.50    1.61
   4   9  -3    7.04    2.05
 -13  10  -3    2.47    2.67
 -12  10  -3    3.87    2.25
 -11  10  -3    2.74    1.85
 -10  10  -3   30.42    4.49
  -9  10  -3    0.45    1.41
  -8  10  -3    5.93    1.62
  -7  10  -3    3.02    1.93
  -6  10  -3    6.54    2.17
  -5  10  -3    9.75    2.60
  -4  10  -3    0.00    1.32
  -3  10  -3    5.28    1.58
  -2  10  -3   38.04    4.10
  -1  10  -3   21.87    3.75
   0  10  -3   29.61    4.36
   1  10  -3    6.56    1.85
   2  10  -3    0.11    1.43
   3  10  -3    3.62    1.99
 -13  11  -3   -0.69    3.15
 -12  11  -3    3.28    2.31
 -11  11  -3    3.70    2.11
 -10  11  -3    6.70    2.41
  -9  11  -3   18.67    5.84
  -8  11  -3    9.83    2.92
  -7  11  -3    0.90    1.72
  -6  11  -3    6.16    2.48
  -5  11  -3   21.41    4.04
  -4  11  -3    6.82    2.47
  -3  11  -3   10.56    2.08
  -2  11  -3    9.08    2.72
  -1  11  -3    2.25    1.91
   0  11  -3    5.62    1.92
   1  11  -3    2.21    1.60
   2  11  -3    2.39    2.19
 -12  12  -3    6.67    3.69
 -11  12  -3   -0.05    3.44
 -10  12  -3    4.80    3.76
  -9  12  -3    2.23    3.13
  -8  12  -3    3.37    2.37
  -7  12  -3    7.40    2.82
  -6  12  -3    1.41    1.87
  -5  12  -3   -0.71    1.74
  -4  12  -3   18.36    3.89
  -3  12  -3    1.70    2.34
  -2  12  -3    6.98    2.63
  -1  12  -3   -0.54    1.87
   0  12  -3    7.33    2.70
 -10  13  -3    3.37    4.20
  -9  13  -3    1.96    3.97
  -8  13  -3    2.30    2.45
  -7  13  -3    7.32    3.04
  -6  13  -3   -0.43    1.91
  -5  13  -3   -0.61    1.95
  -4  13  -3    2.40    3.65
  -3  13  -3    7.46    4.20
  -2  13  -3    3.50    3.43
  -8  14  -3    3.46    4.27
  -7  14  -3    1.87    2.83
  -6  14  -3    4.46    3.59
   4 -14  -2   -2.52    3.42
   5 -14  -2    0.75    1.96
   6 -14  -2    3.65    2.22
   7 -14  -2    2.68    2.11
   8 -14  -2    0.92    2.54
   9 -14  -2    2.82    3.13
   2 -13  -2    6.05    2.06
   3 -13  -2    0.70    1.30
   4 -13  -2    4.50    1.57
   5 -13  -2    3.62    1.62
   6 -13  -2    0.62    1.29
   7 -13  -2   14.61    2.60
   8 -13  -2    5.57    2.02
   9 -13  -2    7.92    3.68
  10 -13  -2    2.17    3.24
  11 -13  -2    2.15    3.46
  -1 -12  -2    0.98    3.10
   0 -12  -2    7.45    2.13
   1 -12  -2    1.18    1.29
   2 -12  -2   17.27    2.72
   3 -12  -2    4.22    1.52
   4 -12  -2    2.50    1.18
   5 -12  -2    0.42    1.04
   6 -12  -2   18.36    2.68
   7 -12  -2    0.87    1.13
   8 -12  -2    7.44    1.77
   9 -12  -2   14.19    2.97
  10 -12  -2    1.19    1.64
  11 -12  -2   13.73    3.12
  12 -12  -2    2.10    3.51
  -2 -11  -2    3.36    2.25
  -1 -11  -2   10.48    2.25
   0 -11  -2    4.77    1.63
   1 -11  -2    3.14    1.45
   2 -11  -2    8.63    1.82
   3 -11  -2    4.18    1.35
   4 -11  -2   50.29    4.41
   5 -11  -2   20.02    2.58
   6 -11  -2    0.40    0.92
   7 -11  -2   73.74    5.75
   8 -11  -2    1.58    1.17
   9 -11  -2   14.29    2.75
  10 -11  -2    2.21    1.72
  11 -11  -2    5.70    2.38
  12 -11  -2    4.93    2.35
  13 -11  -2    6.92    2.97
  -4 -10  -2    5.79    3.85
  -3 -10  -2    2.62    1.92
  -2 -10  -2    1.07    1.72
  -1 -10  -2    3.46    1.48
   0 -10  -2   25.83    3.20
   1 -10  -2    6.00    1.55
   2 -10  -2   20.20    2.54
   3 -10  -2   28.41    2.98
   4 -10  -2   12.38    1.88
   5 -10  -2   26.42    2.88
   6 -10  -2    1.37    0.92
   7 -10  -2    2.52    1.08
   8 -10  -2   82.26    5.72
   9 -10  -2    2.65    1.25
  10 -10  -2   26.16    4.09
  11 -10  -2    2.52    1.89
  12 -10  -2   18.37    3.80
  13 -10  -2    2.10    2.11
  14 -10  -2    0.37    3.45
  -5  -9  -2   10.73    3.20
  -4  -9  -2   11.00    3.00
  -3  -9  -2    9.88    2.56
  -2  -9  -2   10.88    2.17
  -1  -9  -2    3.73    1.25
   0  -9  -2    2.26    1.09
   1  -9  -2   -0.40    0.74
   2  -9  -2    5.93    1.38
   3  -9  -2   31.57    3.33
   4  -9  -2   47.77    4.00
   5  -9  -2   12.71    1.80
   6  -9  -2   28.66    2.78
   7  -9  -2   21.06    2.47
   8  -9  -2   26.55    2.85
   9  -9  -2    3.12    1.22
  10  -9  -2    4.73    1.98
  11  -9  -2    7.77    2.50
  12  -9  -2    3.74    2.14
  13  -9  -2    2.47    2.03
  14  -9  -2    1.14    2.27
  -6  -8  -2   -0.22    1.88
  -5  -8  -2    8.93    2.76
  -4  -8  -2    2.83    1.81
  -3  -8  -2    0.71    1.01
  -2  -8  -2   78.19    5.88
  -1  -8  -2   30.96    3.15
   0  -8  -2   26.94    2.87
   1  -8  -2    6.30    1.26
   2  -8  -2    2.55    0.91
   3  -8  -2   74.53    4.66
   4  -8  -2   24.72    2.51
   5  -8  -2    3.92    1.03
   6  -8  -2   22.02    2.29
   7  -8  -2   52.82    4.03
   8  -8  -2   29.39    2.96
   9  -8  -2    0.71    0.93
  10  -8  -2   22.09    3.67
  11  -8  -2    9.44    2.67
  12  -8  -2    2.87    1.87
  13  -8  -2    4.53    2.38
  14  -8  -2    4.51    2.74
  -7  -7  -2    5.82    3.70
  -6  -7  -2   19.06    3.82
  -5  -7  -2    0.16    1.50
  -4  -7  -2   78.80    7.95
  -3  -7  -2    1.88    1.06
  -2  -7  -2   21.36    2.48
  -1  -7  -2   53.84    4.34
   0  -7  -2   27.03    2.83
   1  -7  -2    5.40    0.99
   2  -7  -2   35.70    2.70
   3  -7  -2   54.98    3.38
   4  -7  -2   59.24    3.51
   5  -7  -2   49.08    3.26
   6  -7  -2   48.13    3.37
   7  -7  -2   29.23    2.85
   8  -7  -2    7.56    1.48
   9  -7  -2    7.82    1.55
  10  -7  -2   27.14    3.97
  11  -7  -2   49.61    5.88
  12  -7  -2    1.59    1.68
  13  -7  -2    0.14    1.92
  14  -7  -2    5.17    2.75
  -8  -6  -2    7.13    2.86
  -7  -6  -2   -0.27    1.95
  -6  -6  -2   28.71    3.47
  -5  -6  -2   -0.11    0.94
  -4  -6  -2    2.04    0.91
  -3  -6  -2   26.18    2.42
  -2  -6  -2   25.89    2.22
  -1  -6  -2   57.60    3.05
   0  -6  -2   11.71    1.13
   1  -6  -2  134.78    6.08
   2  -6  -2    0.65    0.49
   3  -6  -2  158.46    7.78
   4  -6  -2    9.92    1.15
   5  -6  -2  163.29    8.43
   6  -6  -2    9.18    1.20
   7  -6  -2    6.62    1.03
   8  -6  -2    1.79    0.93
   9  -6  -2   32.31    3.42
  10  -6  -2    7.54    1.64
  11  -6  -2   17.28    3.40
  12  -6  -2   23.56    3.99
  13  -6  -2   17.96    3.61
  14  -6  -2    2.13    2.39
  -9  -5  -2   -0.69    1.96
  -8  -5  -2    8.07    2.74
  -7  -5  -2    0.57    1.60
  -6  -5  -2   16.25    2.58
  -5  -5  -2   27.69    2.54
  -4  -5  -2   12.56    1.27
  -3  -5  -2    3.15    0.69
  -2  -5  -2   46.92    2.63
  -1  -5  -2  174.45    7.57
   0  -5  -2   -0.16    0.28
   1  -5  -2   94.49    4.29
   2  -5  -2   22.48    1.79
   3  -5  -2   14.32    1.36
   4  -5  -2   43.53    2.48
   5  -5  -2    0.06    0.27
   6  -5  -2  134.50    6.07
   7  -5  -2   34.87    2.60
   8  -5  -2   70.18    4.92
   9  -5  -2   50.60    4.29
  10  -5  -2   23.55    2.91
  11  -5  -2    1.21    1.55
  12  -5  -2    1.82    1.83
  13  -5  -2    8.30    2.75
  14  -5  -2   11.06    3.21
 -10  -4  -2    0.88    3.31
  -9  -4  -2    3.15    2.18
  -8  -4  -2    3.16    1.58
  -7  -4  -2   52.62    4.77
  -6  -4  -2   11.18    1.68
  -5  -4  -2   49.44    3.14
  -4  -4  -2   28.78    1.61
  -3  -4  -2   61.34    2.47
  -2  -4  -2    8.47    0.73
  -1  -4  -2   44.10    2.07
   0  -4  -2   77.57    3.57
   1  -4  -2  205.99    9.74
   2  -4  -2  109.61    5.76
   3  -4  -2   50.92    2.75
   4  -4  -2   77.66    4.06
   5  -4  -2   90.08    4.87
   6  -4  -2    0.91    0.49
   7  -4  -2   57.34    4.14
   8  -4  -2   25.14    2.76
   9  -4  -2   11.07    2.01
  10  -4  -2    0.43    0.98
  11  -4  -2   81.63    8.19
  12  -4  -2    9.22    2.81
  13  -4  -2    9.80    3.02
  14  -4  -2   14.60    5.22
 -10  -3  -2    2.52    2.02
  -9  -3  -2    4.32    2.01
  -8  -3  -2    7.92    1.90
  -7  -3  -2   26.65    2.53
  -6  -3  -2   37.58    3.04
  -5  -3  -2   72.14    2.82
  -4  -3  -2   56.77    2.38
  -3  -3  -2  164.16    5.50
  -2  -3  -2   16.78    1.00
  -1  -3  -2   52.25    2.26
   0  -3  -2   63.35    2.93
   1  -3  -2   70.29    3.33
   2  -3  -2  187.84    8.83
   3  -3  -2   64.30    3.23
   4  -3  -2  200.18    9.74
   5  -3  -2   20.40    1.79
   6  -3  -2  166.19    7.87
   7  -3  -2   63.60    4.51
   8  -3  -2    4.24    1.23
   9  -3  -2   24.06    2.96
  10  -3  -2    0.29    1.11
  11  -3  -2    0.96    1.63
  12  -3  -2   11.04    2.86
  13  -3  -2    0.77    2.05
 -11  -2  -2    6.45    2.76
 -10  -2  -2   15.27    3.26
  -9  -2  -2    7.53    2.34
  -8  -2  -2   24.47    2.70
  -7  -2  -2   10.06    1.47
  -6  -2  -2    2.15    0.62
  -5  -2  -2   34.50    1.82
  -4  -2  -2    0.61    0.31
  -3  -2  -2   22.01    1.26
  -2  -2  -2  111.38    4.07
  -1  -2  -2  190.81    6.69
   0  -2  -2  458.23   18.96
   1  -2  -2  273.67   10.97
   2  -2  -2  462.98   18.97
   3  -2  -2   71.91    3.73
   4  -2  -2  110.73    5.84
   5  -2  -2   14.62    1.42
   6  -2  -2    9.82    1.16
   7  -2  -2   46.79    4.27
   8  -2  -2   21.58    2.65
   9  -2  -2   18.91    2.62
  10  -2  -2   76.95    6.30
  11  -2  -2    8.96    2.77
  12  -2  -2   -0.05    1.76
  13  -2  -2    4.55    2.53
 -12  -1  -2   -2.11    2.33
 -11  -1  -2    1.16    1.95
 -10  -1  -2    2.13    1.66
  -9  -1  -2    5.85    1.53
  -8  -1  -2    1.01    0.88
  -7  -1  -2    7.01    1.18
  -6  -1  -2    5.59    0.84
  -5  -1  -2  137.66    5.18
  -4  -1  -2   93.73    3.44
  -3  -1  -2  206.64    6.88
  -2  -1  -2   72.13    2.61
  -1  -1  -2  274.56   10.00
   0  -1  -2   63.42    3.16
   1  -1  -2   62.36    3.18
   2  -1  -2  274.01   12.26
   3  -1  -2  185.06    7.98
   4  -1  -2   53.21    2.88
   5  -1  -2   44.95    2.82
   6  -1  -2  174.34    8.62
   7  -1  -2   51.41    4.48
   8  -1  -2   53.79    4.64
   9  -1  -2   26.27    3.18
  10  -1  -2    3.52    1.45
  11  -1  -2    3.52    2.02
  12  -1  -2   16.00    3.53
  13  -1  -2    5.01    5.21
 -12   0  -2    6.91    2.50
 -11   0  -2    3.22    1.58
 -10   0  -2   29.18    3.46
  -9   0  -2    0.40    0.97
  -8   0  -2   22.84    2.65
  -7   0  -2   30.70    2.54
  -6   0  -2   10.07    1.08
  -5   0  -2    0.78    0.37
  -4   0  -2   78.18    3.27
  -3   0  -2   63.99    2.88
  -2   0  -2  471.25   17.28
  -1   0  -2   62.67    3.06
   0   0  -2  390.18   16.57
   1   0  -2   62.06    3.20
   2   0  -2  457.19   21.28
   3   0  -2   65.35    3.31
   4   0  -2   76.26    4.84
   5   0  -2    1.49    0.63
   6   0  -2   10.80    1.33
   7   0  -2   33.77    3.35
   8   0  -2   32.83    3.45
   9   0  -2    1.46    1.21
  10   0  -2   39.95    4.18
  11   0  -2    4.15    2.15
  12   0  -2    8.62    2.98
 -12   1  -2   10.70    2.39
 -11   1  -2    0.64    1.17
 -10   1  -2    2.45    1.29
  -9   1  -2   27.31    3.09
  -8   1  -2   52.77    3.75
  -7   1  -2   52.63    3.53
  -6   1  -2  175.09    7.56
  -5   1  -2   44.39    2.20
  -4   1  -2   55.18    2.45
  -3   1  -2  192.08    7.91
  -2   1  -2  274.26   10.99
  -1   1  -2   61.10    3.17
   0   1  -2   63.05    2.83
   1   1  -2  272.68   12.37
   2   1  -2   74.07    3.81
   3   1  -2  198.48    9.76
   4   1  -2   91.05    5.81
   5   1  -2  142.08    8.14
   6   1  -2    5.26    1.20
   7   1  -2    5.31    1.46
   8   1  -2   -0.17    0.85
   9   1  -2    9.86    2.20
  10   1  -2    0.36    1.30
  11   1  -2    2.02    1.92
 -13   2  -2    5.49    2.40
 -12   2  -2   -1.00    1.17
 -11   2  -2   13.18    2.36
 -10   2  -2   81.84    6.28
  -9   2  -2   20.51    2.23
  -8   2  -2   23.97    2.25
  -7   2  -2   45.76    3.49
  -6   2  -2   11.82    1.15
  -5   2  -2   15.74    1.43
  -4   2  -2  109.43    5.80
  -3   2  -2   74.51    3.31
  -2   2  -2  462.57   21.23
  -1   2  -2  273.78   12.35
   0   2  -2  465.54   18.98
   1   2  -2  188.96    8.92
   2   2  -2  111.32    5.80
   3   2  -2   20.74    1.66
   4   2  -2    0.61    0.53
   5   2  -2   37.11    3.20
   6   2  -2    2.30    1.33
   7   2  -2    4.69    1.84
   8   2  -2   22.67    2.95
   9   2  -2    3.96    1.65
  10   2  -2   18.32    2.88
  11   2  -2    2.30    2.49
 -13   3  -2   -0.22    1.65
 -12   3  -2   15.67    3.20
 -11   3  -2    0.19    1.14
 -10   3  -2    4.15    1.68
  -9   3  -2   30.18    2.93
  -8   3  -2    2.84    1.01
  -7   3  -2   63.03    4.19
  -6   3  -2  158.26    7.76
  -5   3  -2   23.43    1.86
  -4   3  -2  200.00    9.78
  -3   3  -2   65.27    2.90
  -2   3  -2  194.65    8.93
  -1   3  -2   73.02    3.76
   0   3  -2   63.72    3.25
   1   3  -2   52.45    2.82
   2   3  -2   15.00    1.39
   3   3  -2  163.11    9.16
   4   3  -2   54.90    3.97
   5   3  -2   65.12    4.91
   6   3  -2   34.33    4.56
   7   3  -2   22.60    3.62
   8   3  -2    6.14    2.32
   9   3  -2    0.40    1.45
  10   3  -2    0.99    1.80
 -14   4  -2    6.21    3.62
 -13   4  -2   10.94    2.84
 -12   4  -2    5.27    2.21
 -11   4  -2   79.55    7.03
 -10   4  -2    2.83    1.16
  -9   4  -2   11.35    1.83
  -8   4  -2   23.45    2.63
  -7   4  -2   54.06    3.35
  -6   4  -2    0.90    0.48
  -5   4  -2   96.53    4.94
  -4   4  -2   78.41    3.60
  -3   4  -2   46.86    2.85
  -2   4  -2  105.86    5.80
  -1   4  -2  206.02    9.77
   0   4  -2   77.46    4.81
   1   4  -2   46.10    3.02
   2   4  -2   10.31    1.15
   3   4  -2   65.06    4.24
   4   4  -2   29.50    2.81
   5   4  -2   50.70    4.18
   6   4  -2    6.73    2.09
   7   4  -2   55.05    6.13
   8   4  -2    3.42    2.10
   9   4  -2    6.48    2.33
  10   4  -2    2.86    3.90
 -14   5  -2    4.57    2.42
 -13   5  -2    5.43    2.31
 -12   5  -2    0.61    1.54
 -11   5  -2    1.65    1.26
 -10   5  -2   31.45    3.19
  -9   5  -2   42.95    4.02
  -8   5  -2   69.80    4.92
  -7   5  -2   36.67    2.64
  -6   5  -2  131.86    6.90
  -5   5  -2    0.34    0.33
  -4   5  -2   47.70    2.62
  -3   5  -2   13.74    1.37
  -2   5  -2   21.85    1.80
  -1   5  -2   92.02    4.86
   0   5  -2    0.52    0.56
   1   5  -2  172.34    9.86
   2   5  -2   45.53    4.03
   3   5  -2    4.93    1.25
   4   5  -2    8.54    1.70
   5   5  -2   24.78    2.95
   6   5  -2   10.91    2.76
   7   5  -2    1.54    1.70
   8   5  -2    3.81    2.46
   9   5  -2    0.15    1.85
 -14   6  -2    2.70    2.36
 -13   6  -2   16.40    3.50
 -12   6  -2   21.44    3.60
 -11   6  -2   17.13    2.54
 -10   6  -2    8.59    1.74
  -9   6  -2   32.70    3.51
  -8   6  -2    1.60    0.90
  -7   6  -2    6.22    1.01
  -6   6  -2   11.40    1.34
  -5   6  -2  174.84    7.57
  -4   6  -2    8.57    1.11
  -3   6  -2  163.45    7.82
  -2   6  -2    0.77    0.44
  -1   6  -2  133.81    8.09
   0   6  -2    9.71    1.57
   1   6  -2   52.80    4.00
   2   6  -2   21.72    2.49
   3   6  -2   28.52    3.01
   4   6  -2    1.76    0.98
   5   6  -2   -0.89    0.93
   6   6  -2   28.42    4.22
   7   6  -2    2.39    2.02
   8   6  -2    7.18    3.04
 -14   7  -2    3.73    2.54
 -13   7  -2    2.66    2.20
 -12   7  -2   -0.30    1.19
 -11   7  -2   43.62    4.45
 -10   7  -2   23.90    2.91
  -9   7  -2    7.81    1.67
  -8   7  -2    9.23    1.58
  -7   7  -2   34.39    2.67
  -6   7  -2   53.34    3.42
  -5   7  -2   49.12    3.28
  -4   7  -2   64.57    3.64
  -3   7  -2   61.07    3.42
  -2   7  -2   31.38    3.12
  -1   7  -2    7.85    1.36
   0   7  -2   36.41    3.24
   1   7  -2   45.26    5.22
   2   7  -2   18.79    2.49
   3   7  -2    4.56    1.30
   4   7  -2   70.86    6.11
   5   7  -2    1.54    1.65
   6   7  -2   18.15    3.54
   7   7  -2    4.24    2.57
 -14   8  -2    5.76    2.60
 -13   8  -2    1.99    1.98
 -12   8  -2    3.12    1.47
 -11   8  -2    8.16    1.93
 -10   8  -2   16.75    2.47
  -9   8  -2    2.43    1.15
  -8   8  -2   30.83    2.56
  -7   8  -2   48.77    3.43
  -6   8  -2   25.10    2.69
  -5   8  -2    3.56    0.87
  -4   8  -2   29.14    2.31
  -3   8  -2   65.60    5.07
  -2   8  -2    3.90    1.17
  -1   8  -2   10.31    1.71
   0   8  -2   25.08    2.83
   1   8  -2   31.80    4.13
   2   8  -2   72.04    6.07
   3   8  -2    0.79    1.09
   4   8  -2    5.74    1.73
   5   8  -2    6.15    2.68
   6   8  -2    1.00    2.25
 -14   9  -2    0.00    2.11
 -13   9  -2    3.28    1.65
 -12   9  -2    2.58    1.48
 -11   9  -2    2.76    1.87
 -10   9  -2    8.90    2.48
  -9   9  -2    1.62    1.57
  -8   9  -2   25.12    2.96
  -7   9  -2   20.96    2.65
  -6   9  -2   26.27    2.84
  -5   9  -2   14.94    2.13
  -4   9  -2   54.92    4.50
  -3   9  -2   31.92    3.57
  -2   9  -2    8.77    1.71
  -1   9  -2    0.38    0.83
   0   9  -2    2.23    1.34
   1   9  -2    3.16    1.69
   2   9  -2   14.79    2.41
   3   9  -2   17.57    2.80
   4   9  -2    9.53    2.28
   5   9  -2    5.74    2.72
 -13  10  -2    3.01    2.13
 -12  10  -2   10.14    2.99
 -11  10  -2    2.31    1.84
 -10  10  -2   26.62    4.25
  -9  10  -2    3.49    1.71
  -8  10  -2   72.14    5.86
  -7  10  -2    3.74    1.31
  -6  10  -2    1.65    1.42
  -5  10  -2   36.67    3.96
  -4  10  -2    9.23    1.99
  -3  10  -2   23.19    2.92
  -2  10  -2   19.78    2.58
  -1  10  -2    4.36    1.84
   0  10  -2   30.57    4.54
   1  10  -2    2.44    1.67
   2  10  -2    1.27    1.43
   3  10  -2    1.73    1.61
 -13  11  -2    9.74    3.04
 -12  11  -2   -0.24    1.72
 -11  11  -2    3.40    2.08
 -10  11  -2    3.20    1.95
  -9  11  -2    7.53    2.48
  -8  11  -2   -0.87    1.65
  -7  11  -2   66.51    7.92
  -6  11  -2   -1.54    1.25
  -5  11  -2   14.93    3.31
  -4  11  -2   47.94    4.67
  -3  11  -2    8.36    1.88
  -2  11  -2    7.45    2.18
  -1  11  -2    3.51    1.91
   0  11  -2    6.87    2.51
   1  11  -2    8.93    2.68
   2  11  -2    1.27    1.59
 -13  12  -2    1.35    2.56
 -12  12  -2    6.42    2.84
 -11  12  -2   16.61    3.57
 -10  12  -2    1.63    3.11
  -9  12  -2    8.90    4.47
  -8  12  -2    5.22    2.63
  -7  12  -2    0.56    1.88
  -6  12  -2   20.69    4.00
  -5  12  -2    0.33    1.54
  -4  12  -2    3.61    1.66
  -3  12  -2    3.20    1.57
  -2  12  -2   12.86    3.11
  -1  12  -2    2.07    1.95
   0  12  -2    5.75    2.63
   1  12  -2    0.03    2.61
 -11  13  -2    1.12    3.73
 -10  13  -2   -0.43    2.91
  -9  13  -2    5.08    4.32
  -8  13  -2    2.88    2.44
  -7  13  -2   19.18    4.04
  -6  13  -2    0.70    1.94
  -5  13  -2    3.47    2.31
  -4  13  -2    8.18    2.75
  -3  13  -2   -0.42    1.66
  -2  13  -2    3.13    2.35
  -1  13  -2    5.19    3.93
  -9  14  -2   10.51    5.30
  -8  14  -2    0.69    2.27
  -7  14  -2    0.47    2.12
  -6  14  -2    4.86    2.51
  -5  14  -2    1.88    2.26
   3 -14  -1    2.42    2.97
   4 -14  -1   15.03    2.56
   5 -14  -1    4.10    1.59
   6 -14  -1    3.32    1.63
   7 -14  -1    6.92    2.37
   8 -14  -1   -1.82    1.51
   9 -14  -1    0.05    1.68
  10 -14  -1    2.81    1.89
  11 -14  -1    3.72    2.61
   1 -13  -1    0.56    1.79
   2 -13  -1    2.51    1.92
   3 -13  -1    8.11    2.06
   4 -13  -1    2.83    1.40
   5 -13  -1    0.28    1.14
   6 -13  -1    0.15    1.04
   7 -13  -1   11.34    2.25
   8 -13  -1    3.17    1.81
   9 -13  -1    7.04    2.38
  10 -13  -1   -0.29    1.68
  11 -13  -1    4.57    2.48
  12 -13  -1   -1.28    1.92
  -1 -12  -1    1.19    1.74
   0 -12  -1   16.16    3.39
   1 -12  -1    6.26    2.24
   2 -12  -1    1.02    1.23
   3 -12  -1    1.21    1.17
   4 -12  -1   31.50    3.37
   5 -12  -1    3.44    1.36
   6 -12  -1    7.08    1.70
   7 -12  -1    5.31    1.50
   8 -12  -1    4.41    1.79
   9 -12  -1    1.30    1.58
  10 -12  -1    1.56    1.81
  11 -12  -1    2.45    1.92
  12 -12  -1   23.22    4.06
  13 -12  -1    0.83    2.25
  -3 -11  -1    7.90    4.29
  -2 -11  -1    3.25    2.00
  -1 -11  -1    1.99    1.77
   0 -11  -1    3.98    1.90
   1 -11  -1    3.08    1.38
   2 -11  -1   17.38    2.47
   3 -11  -1   17.63    2.48
   4 -11  -1   16.04    2.15
   5 -11  -1   31.72    3.44
   6 -11  -1    4.02    1.24
   7 -11  -1    2.77    1.20
   8 -11  -1    4.84    1.72
   9 -11  -1   26.70    3.89
  10 -11  -1    9.76    2.74
  11 -11  -1    4.78    2.23
  12 -11  -1   11.69    3.02
  13 -11  -1    3.56    2.36
  14 -11  -1    3.87    2.65
  -4 -10  -1    2.56    2.19
  -3 -10  -1    5.00    2.23
  -2 -10  -1   -1.78    1.18
  -1 -10  -1   10.40    2.55
   0 -10  -1   36.25    3.80
   1 -10  -1   14.32    2.26
   2 -10  -1   54.88    4.75
   3 -10  -1    0.13    0.72
   4 -10  -1    3.12    1.08
   5 -10  -1    9.85    1.73
   6 -10  -1    1.97    1.02
   7 -10  -1    0.86    0.86
   8 -10  -1   11.99    1.88
   9 -10  -1    3.53    1.69
  10 -10  -1   36.27    4.87
  11 -10  -1    4.18    2.01
  12 -10  -1    2.11    1.97
  13 -10  -1   11.35    3.24
  14 -10  -1   15.25    3.82
  -5  -9  -1   -2.43    1.41
  -4  -9  -1   12.03    3.07
  -3  -9  -1    0.85    1.61
  -2  -9  -1   27.08    4.03
  -1  -9  -1    3.74    1.26
   0  -9  -1    2.42    1.04
   1  -9  -1   16.44    2.24
   2  -9  -1    4.74    1.15
   3  -9  -1    1.54    0.85
   4  -9  -1    0.74    0.70
   5  -9  -1   85.45    5.08
   6  -9  -1   19.56    2.23
   7  -9  -1   62.34    4.83
   8  -9  -1    7.78    1.46
   9  -9  -1    2.84    1.47
  10  -9  -1    8.91    2.46
  11  -9  -1   24.48    3.70
  12  -9  -1    2.98    2.14
  13  -9  -1    6.78    2.72
  14  -9  -1    3.95    2.44
  -6  -8  -1    1.76    1.93
  -5  -8  -1    1.36    1.46
  -4  -8  -1    0.40    1.16
  -3  -8  -1    4.01    1.43
  -2  -8  -1    7.32    1.42
  -1  -8  -1    7.88    1.33
   0  -8  -1    3.83    0.95
   1  -8  -1   96.77    5.80
   2  -8  -1   29.77    2.95
   3  -8  -1  117.15    7.58
   4  -8  -1   43.64    3.45
   5  -8  -1    2.42    0.85
   6  -8  -1    1.31    0.71
   7  -8  -1   15.16    1.92
   8  -8  -1    2.82    1.01
   9  -8  -1   22.64    3.23
  10  -8  -1   65.23    6.47
  11  -8  -1   22.29    3.76
  12  -8  -1   35.99    4.97
  13  -8  -1    2.63    2.08
  14  -8  -1    1.74    2.35
  -7  -7  -1    2.02    2.28
  -6  -7  -1   11.75    2.46
  -5  -7  -1    4.63    1.74
  -4  -7  -1    5.44    1.56
  -3  -7  -1    1.44    1.02
  -2  -7  -1   64.09    4.26
  -1  -7  -1   15.50    1.67
   0  -7  -1   37.22    2.80
   1  -7  -1   63.69    3.48
   2  -7  -1   21.13    1.79
   3  -7  -1  108.89    5.67
   4  -7  -1    1.73    0.48
   5  -7  -1   20.01    1.63
   6  -7  -1  180.28    9.53
   7  -7  -1   42.67    2.62
   8  -7  -1   98.16    4.91
   9  -7  -1    4.10    1.13
  10  -7  -1   -0.53    0.78
  11  -7  -1   12.36    2.18
  12  -7  -1    1.47    1.46
  13  -7  -1    1.15    1.89
  14  -7  -1   12.13    3.37
  -8  -6  -1    1.63    2.16
  -7  -6  -1   -1.56    1.54
  -6  -6  -1    4.63    1.67
  -5  -6  -1    4.17    1.39
  -4  -6  -1    2.77    1.17
  -3  -6  -1   19.10    2.27
  -2  -6  -1    0.91    0.63
  -1  -6  -1  190.77    9.75
   0  -6  -1   29.42    2.05
   1  -6  -1   15.85    1.48
   2  -6  -1   91.83    4.95
   3  -6  -1  154.85    7.37
   4  -6  -1   32.07    1.96
   5  -6  -1    9.54    1.03
   6  -6  -1   26.82    1.72
   7  -6  -1   60.88    3.52
   8  -6  -1   28.39    2.46
   9  -6  -1    1.31    0.93
  10  -6  -1    2.42    1.14
  11  -6  -1   36.50    3.89
  12  -6  -1    4.48    1.65
  13  -6  -1   13.56    2.64
  14  -6  -1    0.71    1.63
  -9  -5  -1    0.00    1.90
  -8  -5  -1    0.44    1.73
  -7  -5  -1    5.48    2.10
  -6  -5  -1   29.00    3.38
  -5  -5  -1   10.57    1.59
  -4  -5  -1   92.69    4.63
  -3  -5  -1    1.46    0.56
  -2  -5  -1   19.79    1.53
  -1  -5  -1   10.85    1.01
   0  -5  -1  117.40    6.71
   1  -5  -1    2.80    0.47
   2  -5  -1   86.79    3.58
   3  -5  -1   30.40    1.71
   4  -5  -1  242.35   10.37
   5  -5  -1  125.89    5.78
   6  -5  -1   16.42    1.45
   7  -5  -1   19.13    1.76
   8  -5  -1  122.16    6.61
   9  -5  -1    0.68    0.68
  10  -5  -1    9.46    1.87
  11  -5  -1    3.97    1.58
  12  -5  -1    7.25    1.95
  13  -5  -1    2.56    1.63
  14  -5  -1    2.34    1.75
 -10  -4  -1   12.67    3.69
  -9  -4  -1    5.53    2.03
  -8  -4  -1   25.51    3.33
  -7  -4  -1   17.56    2.52
  -6  -4  -1    2.74    1.26
  -5  -4  -1    0.77    0.72
  -4  -4  -1   44.91    2.68
  -3  -4  -1    1.29    0.40
  -2  -4  -1   29.73    1.61
  -1  -4  -1  245.15    9.52
   0  -4  -1  102.82    4.25
   1  -4  -1  328.88   13.25
   2  -4  -1   16.02    1.02
   3  -4  -1    4.58    0.47
   4  -4  -1  105.22    4.19
   5  -4  -1    2.72    0.46
   6  -4  -1   99.08    5.88
   7  -4  -1  108.62    6.75
   8  -4  -1   42.03    3.79
   9  -4  -1  100.74    5.53
  10  -4  -1    3.27    1.60
  11  -4  -1    2.66    1.66
  12  -4  -1    3.56    2.05
  13  -4  -1   11.50    2.56
  14  -4  -1    0.53    1.82
 -11  -3  -1    1.77    2.96
 -10  -3  -1    8.66    2.75
  -9  -3  -1    1.96    1.46
  -8  -3  -1   13.26    2.53
  -7  -3  -1    0.34    0.93
  -6  -3  -1    3.00    0.83
  -5  -3  -1  124.16    5.95
  -4  -3  -1  110.97    4.69
  -3  -3  -1  158.24    5.66
  -2  -3  -1   29.55    1.34
  -1  -3  -1    5.04    0.45
   0  -3  -1  210.69   10.38
   1  -3  -1   53.30    2.58
   2  -3  -1   98.75    4.79
   3  -3  -1  218.68    9.27
   4  -3  -1  323.68   14.82
   5  -3  -1   87.04    4.03
   6  -3  -1  150.08    7.44
   7  -3  -1    1.47    0.76
   8  -3  -1    1.97    0.90
   9  -3  -1   17.56    2.38
  10  -3  -1    4.68    1.78
  11  -3  -1    4.98    2.21
  12  -3  -1    1.31    1.94
  13  -3  -1   -1.13    1.75
 -11  -2  -1    3.06    2.30
 -10  -2  -1    1.66    1.74
  -9  -2  -1   12.37    2.44
  -8  -2  -1   56.44    5.15
  -7  -2  -1    5.62    1.15
  -6  -2  -1   25.89    2.45
  -5  -2  -1   17.85    1.55
  -4  -2  -1   91.24    4.10
  -3  -2  -1   86.30    2.84
  -2  -2  -1   18.06    0.92
  -1  -2  -1   96.60    3.38
   0  -2  -1  250.17    9.49
   1  -2  -1   73.36    3.69
   2  -2  -1  253.20   11.61
   3  -2  -1   52.61    2.93
   4  -2  -1   17.83    1.28
   5  -2  -1   28.56    1.91
   6  -2  -1   30.52    2.74
   7  -2  -1   20.21    2.29
   8  -2  -1    0.11    0.68
   9  -2  -1   56.21    5.20
  10  -2  -1   12.20    2.64
  11  -2  -1   22.98    3.96
  12  -2  -1    3.03    2.34
  13  -2  -1    1.40    2.28
 -12  -1  -1    4.53    2.49
 -11  -1  -1    4.97    2.25
 -10  -1  -1    3.44    1.95
  -9  -1  -1   14.33    2.25
  -8  -1  -1   22.74    2.30
  -7  -1  -1  102.31    5.18
  -6  -1  -1   58.98    3.26
  -5  -1  -1   16.09    1.37
  -4  -1  -1    3.19    0.47
  -3  -1  -1  324.91   10.49
  -2  -1  -1   55.09    2.07
  -1  -1  -1   73.91    2.61
   0  -1  -1   45.90    2.24
   1  -1  -1   44.19    1.97
   2  -1  -1   75.45    3.75
   3  -1  -1   95.74    4.85
   4  -1  -1    4.23    0.61
   5  -1  -1  244.81   11.76
   6  -1  -1    9.24    1.02
   7  -1  -1  189.06   11.49
   8  -1  -1   18.84    2.37
   9  -1  -1    8.09    1.73
  10  -1  -1    4.16    1.81
  11  -1  -1   12.68    3.01
  12  -1  -1    3.23    2.08
  13  -1  -1    0.25    2.13
 -12   0  -1   13.68    3.39
 -11   0  -1    6.70    2.38
 -10   0  -1   42.45    4.12
  -9   0  -1    3.38    1.21
  -8   0  -1    3.17    1.08
  -7   0  -1   40.57    2.77
  -6   0  -1   23.48    1.88
  -5   0  -1  126.32    5.20
  -4   0  -1  101.16    3.87
  -3   0  -1  220.03    7.86
  -2   0  -1  249.52    8.20
  -1   0  -1   45.20    1.60
   0   0  -1    0.25    0.15
   1   0  -1   46.49    2.04
   2   0  -1  249.62   11.65
   3   0  -1  219.34   12.13
   4   0  -1   95.98    5.53
   5   0  -1  122.52    5.94
   6   0  -1   24.09    1.77
   7   0  -1   41.77    3.71
   8   0  -1    3.74    1.20
   9   0  -1    2.59    1.36
  10   0  -1   38.27    4.08
  11   0  -1    4.50    2.26
  12   0  -1   15.11    3.64
 -13   1  -1    1.82    2.23
 -12   1  -1    3.09    2.11
 -11   1  -1    7.71    1.82
 -10   1  -1    1.97    1.19
  -9   1  -1    4.75    1.38
  -8   1  -1   18.64    2.14
  -7   1  -1  190.61    9.72
  -6   1  -1    9.90    0.93
  -5   1  -1  248.34   11.62
  -4   1  -1    5.08    0.53
  -3   1  -1   96.88    4.29
  -2   1  -1   72.91    3.72
  -1   1  -1   45.08    2.29
   0   1  -1   44.95    2.01
   1   1  -1   71.37    3.72
   2   1  -1   52.58    3.46
   3   1  -1  323.74   17.22
   4   1  -1    2.13    0.63
   5   1  -1   21.01    1.92
   6   1  -1   66.78    4.24
   7   1  -1   97.94    6.16
   8   1  -1   27.09    3.03
   9   1  -1   11.28    2.30
  10   1  -1    5.82    2.01
  11   1  -1    6.87    2.67
  12   1  -1    2.44    2.31
 -13   2  -1    1.25    1.60
 -12   2  -1    0.48    1.42
 -11   2  -1   22.75    3.02
 -10   2  -1    9.97    1.90
  -9   2  -1   54.70    5.11
  -8   2  -1    0.88    0.67
  -7   2  -1   22.56    1.94
  -6   2  -1   34.38    1.83
  -5   2  -1   32.64    1.76
  -4   2  -1   17.88    1.16
  -3   2  -1   53.77    2.95
  -2   2  -1  248.71   10.38
  -1   2  -1   73.64    3.73
   0   2  -1  259.39   11.62
   1   2  -1   98.54    5.56
   2   2  -1   16.89    1.19
   3   2  -1   81.42    4.70
   4   2  -1   92.12    5.82
   5   2  -1   18.44    2.07
   6   2  -1   22.89    3.45
   7   2  -1    6.50    1.92
   8   2  -1   57.17    5.15
   9   2  -1   11.64    2.33
  10   2  -1    1.20    1.64
  11   2  -1    3.24    2.29
 -14   3  -1    8.74    3.72
 -13   3  -1    0.18    1.38
 -12   3  -1    0.75    1.26
 -11   3  -1    4.06    1.47
 -10   3  -1    1.67    1.07
  -9   3  -1   21.41    2.07
  -8   3  -1    3.97    0.89
  -7   3  -1    1.57    0.63
  -6   3  -1  150.40    6.62
  -5   3  -1   87.47    4.02
  -4   3  -1  324.70   14.86
  -3   3  -1  216.39    9.29
  -2   3  -1   99.60    4.29
  -1   3  -1   56.29    2.95
   0   3  -1  220.73   10.39
   1   3  -1    3.63    0.69
   2   3  -1   29.06    2.15
   3   3  -1  153.21    7.39
   4   3  -1  111.38    6.72
   5   3  -1  125.43    7.68
   6   3  -1    0.16    1.05
   7   3  -1    0.08    1.07
   8   3  -1   16.90    3.31
   9   3  -1    1.74    1.64
  10   3  -1    4.04    2.00
 -14   4  -1    8.71    2.92
 -13   4  -1    9.69    2.42
 -12   4  -1    0.19    1.20
 -11   4  -1    5.51    1.58
 -10   4  -1    3.27    1.05
  -9   4  -1   93.47    4.61
  -8   4  -1   48.53    3.96
  -7   4  -1  109.65    6.76
  -6   4  -1   93.53    4.99
  -5   4  -1    3.06    0.59
  -4   4  -1  101.66    4.77
  -3   4  -1    4.46    0.50
  -2   4  -1   16.34    1.27
  -1   4  -1  326.17   14.83
   0   4  -1  101.16    5.56
   1   4  -1  247.55   13.53
   2   4  -1   30.11    2.32
   3   4  -1    1.83    0.61
   4   4  -1   42.66    3.67
   5   4  -1    0.90    0.80
   6   4  -1    0.90    1.13
   7   4  -1   11.93    2.75
   8   4  -1   28.82    4.35
   9   4  -1    3.56    1.88
  10   4  -1   11.53    2.82
 -14   5  -1   -0.41    1.70
 -13   5  -1    3.65    2.12
 -12   5  -1    3.51    1.89
 -11   5  -1    4.73    1.98
 -10   5  -1   13.11    2.11
  -9   5  -1    1.44    0.88
  -8   5  -1  124.68    7.75
  -7   5  -1   18.56    1.68
  -6   5  -1   18.23    1.57
  -5   5  -1  123.68    5.88
  -4   5  -1  242.98   10.42
  -3   5  -1   28.78    1.98
  -2   5  -1   83.75    4.01
  -1   5  -1    3.03    0.51
   0   5  -1  124.19    6.82
   1   5  -1   10.14    1.39
   2   5  -1   23.76    2.16
   3   5  -1    1.92    0.79
   4   5  -1   87.74    5.23
   5   5  -1   10.98    1.87
   6   5  -1   32.26    4.46
   7   5  -1    1.13    1.66
   8   5  -1    0.96    1.97
   9   5  -1    3.83    2.03
 -14   6  -1   -0.63    1.85
 -13   6  -1   17.38    3.67
 -12   6  -1    4.86    1.99
 -11   6  -1   34.89    3.76
 -10   6  -1    2.70    1.16
  -9   6  -1    1.53    0.90
  -8   6  -1   22.80    2.80
  -7   6  -1   62.13    3.57
  -6   6  -1   28.00    2.03
  -5   6  -1    9.04    1.13
  -4   6  -1   30.86    1.75
  -3   6  -1  149.77    7.47
  -2   6  -1   91.65    4.97
  -1   6  -1   15.39    1.21
   0   6  -1   22.86    2.26
   1   6  -1  181.77   11.17
   2   6  -1    0.71    0.82
   3   6  -1   15.74    2.07
   4   6  -1    1.78    1.05
   5   6  -1    4.02    1.38
   6   6  -1    5.40    2.25
   7   6  -1    1.13    1.99
   8   6  -1    2.77    2.23
 -14   7  -1    4.91    2.68
 -13   7  -1    0.45    1.75
 -12   7  -1    3.30    1.79
 -11   7  -1   16.01    2.38
 -10   7  -1   -0.72    0.74
  -9   7  -1    5.72    1.33
  -8   7  -1   97.60    5.86
  -7   7  -1   41.32    2.93
  -6   7  -1  189.66    9.74
  -5   7  -1   21.54    1.56
  -4   7  -1    0.88    0.50
  -3   7  -1  110.11    5.76
  -2   7  -1   19.46    1.80
  -1   7  -1   62.11    4.31
   0   7  -1   40.25    3.38
   1   7  -1   14.65    1.97
   2   7  -1   63.47    6.40
   3   7  -1    0.98    0.84
   4   7  -1    4.48    1.41
   5   7  -1    4.80    1.67
   6   7  -1   14.42    3.09
   7   7  -1    5.38    2.78
 -14   8  -1    4.46    2.34
 -13   8  -1    1.78    1.85
 -12   8  -1   26.85    3.29
 -11   8  -1   16.73    2.55
 -10   8  -1   55.47    4.89
  -9   8  -1   21.15    2.44
  -8   8  -1    2.52    0.90
  -7   8  -1   17.83    1.94
  -6   8  -1    1.11    0.63
  -5   8  -1    2.62    0.74
  -4   8  -1   47.53    3.02
  -3   8  -1  135.31    7.90
  -2   8  -1   30.29    3.03
  -1   8  -1  109.84    6.06
   0   8  -1    2.67    0.96
   1   8  -1    7.34    1.94
   2   8  -1    5.57    1.95
   3   8  -1    5.11    1.40
   4   8  -1    1.28    1.22
   5   8  -1    4.58    2.26
   6   8  -1   -1.19    1.82
 -14   9  -1    1.14    1.86
 -13   9  -1    2.26    1.82
 -12   9  -1    1.57    1.50
 -11   9  -1   12.33    2.99
 -10   9  -1   16.03    3.15
  -9   9  -1    2.99    1.57
  -8   9  -1   10.18    1.80
  -7   9  -1   63.30    5.33
  -6   9  -1   20.68    1.94
  -5   9  -1   82.84    4.65
  -4   9  -1    0.78    0.80
  -3   9  -1    1.66    0.94
  -2   9  -1    4.66    1.28
  -1   9  -1   21.47    2.56
   0   9  -1    2.20    1.08
   1   9  -1    2.92    1.48
   2   9  -1   25.31    3.90
   3   9  -1    1.93    1.38
   4   9  -1   11.52    2.39
   5   9  -1    1.00    1.88
 -14  10  -1   13.22    4.88
 -13  10  -1    6.89    2.36
 -12  10  -1    0.43    1.78
 -11  10  -1    1.70    1.73
 -10  10  -1   27.32    4.53
  -9  10  -1    3.97    1.79
  -8  10  -1    8.35    1.67
  -7  10  -1    0.93    0.95
  -6  10  -1    1.81    1.05
  -5  10  -1   13.39    2.03
  -4  10  -1    2.70    1.19
  -3  10  -1    0.76    0.89
  -2  10  -1   54.74    4.93
  -1  10  -1   16.40    2.43
   0  10  -1   32.50    4.60
   1  10  -1   10.55    2.59
   2  10  -1    1.01    1.59
   3  10  -1    1.47    1.54
   4  10  -1    3.28    2.02
 -13  11  -1    2.70    2.46
 -12  11  -1    8.28    2.99
 -11  11  -1    7.65    2.56
 -10  11  -1   11.53    2.63
  -9  11  -1   21.35    3.67
  -8  11  -1    4.26    1.52
  -7  11  -1   -0.24    1.38
  -6  11  -1    5.53    2.14
  -5  11  -1   40.35    4.01
  -4  11  -1   13.85    2.31
  -3  11  -1   19.96    2.78
  -2  11  -1   14.05    2.36
  -1  11  -1    2.80    1.74
   0  11  -1    4.67    1.99
   1  11  -1    1.32    1.80
   2  11  -1    2.03    1.60
   3  11  -1    6.95    3.37
 -13  12  -1    2.17    2.27
 -12  12  -1   11.23    3.32
 -11  12  -1    1.26    2.07
 -10  12  -1    0.65    1.83
  -9  12  -1    0.17    2.56
  -8  12  -1    0.34    1.78
  -7  12  -1    4.13    2.13
  -6  12  -1    7.31    2.61
  -5  12  -1    1.77    1.26
  -4  12  -1   34.30    3.64
  -3  12  -1    1.54    1.23
  -2  12  -1    3.68    1.93
  -1  12  -1    7.27    2.59
   0  12  -1   22.57    4.07
   1  12  -1   -0.32    1.85
 -12  13  -1    0.64    2.38
 -11  13  -1    4.03    4.08
 -10  13  -1    6.30    4.52
  -9  13  -1    9.53    4.70
  -8  13  -1    5.90    2.64
  -7  13  -1   11.80    3.06
  -6  13  -1   -0.37    1.49
  -5  13  -1   -0.21    1.38
  -4  13  -1    7.06    2.09
  -3  13  -1   12.41    2.80
  -2  13  -1    3.13    2.10
  -1  13  -1    2.61    2.12
 -10  14  -1    2.89    3.83
  -9  14  -1    0.03    3.61
  -8  14  -1    0.78    2.30
  -7  14  -1    3.63    2.65
  -6  14  -1   -0.22    1.85
  -5  14  -1    4.19    2.64
  -4  14  -1    9.61    2.63
  -3  14  -1    5.98    3.84
   3 -14   0   -1.56    1.66
   4 -14   0   -2.17    1.42
   5 -14   0    3.29    1.81
   6 -14   0    6.89    2.18
   7 -14   0    0.27    1.46
   8 -14   0   -0.23    1.51
   9 -14   0   17.05    3.51
  10 -14   0    2.47    1.83
  11 -14   0    0.54    1.77
   1 -13   0    0.98    1.69
   2 -13   0    0.67    1.66
   3 -13   0    2.48    1.74
   4 -13   0    1.30    1.48
   5 -13   0   69.14    5.80
   6 -13   0   13.64    2.50
   7 -13   0    1.49    1.63
   8 -13   0   -1.40    1.19
   9 -13   0    2.67    1.82
  10 -13   0    4.81    2.20
  11 -13   0   29.04    4.34
  12 -13   0    1.11    2.21
  13 -13   0    0.16    3.25
  -1 -12   0    0.88    1.84
   0 -12   0    3.20    1.89
   1 -12   0    1.29    1.52
   2 -12   0   24.71    3.95
   3 -12   0    9.62    2.56
   4 -12   0    6.67    1.59
   5 -12   0   -0.80    0.88
   6 -12   0    0.19    0.97
   7 -12   0   -0.72    1.05
   8 -12   0    7.67    1.93
   9 -12   0    0.72    1.46
  10 -12   0   50.73    5.87
  11 -12   0    9.39    2.78
  12 -12   0    6.54    2.42
  13 -12   0   -1.17    1.82
  -3 -11   0    2.13    5.12
  -2 -11   0   19.03    3.82
  -1 -11   0   11.56    2.97
   0 -11   0    0.33    1.44
   1 -11   0    2.43    1.51
   2 -11   0    7.55    2.09
   3 -11   0   12.30    2.07
   4 -11   0   24.15    2.83
   5 -11   0   26.26    2.91
   6 -11   0   17.18    2.29
   7 -11   0  163.94   13.07
   8 -11   0   -0.30    1.07
   9 -11   0   10.01    2.43
  10 -11   0    3.70    1.83
  11 -11   0   -0.09    1.42
  12 -11   0    0.06    1.68
  13 -11   0    0.81    1.98
  14 -11   0   -0.69    2.36
  -4 -10   0    3.50    2.35
  -3 -10   0    3.11    2.08
  -2 -10   0   46.47    6.00
  -1 -10   0    3.41    1.58
   0 -10   0    0.95    1.22
   1 -10   0    8.12    1.98
   2 -10   0    0.06    0.84
   3 -10   0   26.12    2.86
   4 -10   0   12.91    1.94
   5 -10   0    1.43    0.87
   6 -10   0   45.85    3.81
   7 -10   0    9.90    1.80
   8 -10   0   12.14    2.43
   9 -10   0    4.11    1.59
  10 -10   0    1.51    1.56
  11 -10   0    4.37    2.00
  12 -10   0   31.07    4.36
  13 -10   0   -2.49    1.54
  14 -10   0    0.61    2.16
  -5  -9   0   11.37    2.48
  -4  -9   0    3.94    1.67
  -3  -9   0    0.10    1.26
  -2  -9   0   11.33    2.20
  -1  -9   0    5.87    1.55
   0  -9   0  102.92    7.07
   1  -9   0    0.05    0.72
   2  -9   0   44.09    3.29
   3  -9   0  123.76    6.65
   4  -9   0    0.77    0.61
   5  -9   0   39.48    3.02
   6  -9   0    4.86    1.09
   7  -9   0   29.22    2.81
   8  -9   0   10.37    2.24
   9  -9   0  112.20    8.77
  10  -9   0    9.43    2.28
  11  -9   0    7.68    2.38
  12  -9   0   11.13    2.96
  13  -9   0   -0.31    1.71
  14  -9   0    2.44    2.27
  -7  -8   0    5.33    4.23
  -6  -8   0   -0.58    1.77
  -5  -8   0   -0.57    1.23
  -4  -8   0   11.74    2.36
  -3  -8   0    0.57    1.04
  -2  -8   0    8.05    1.69
  -1  -8   0   13.29    2.02
   0  -8   0   92.77    5.25
   1  -8   0    4.21    0.94
   2  -8   0    8.20    1.08
   3  -8   0   28.68    2.30
   4  -8   0    0.33    0.46
   5  -8   0  116.05    6.04
   6  -8   0    4.90    0.84
   7  -8   0   27.38    2.18
   8  -8   0   92.28    5.91
   9  -8   0    1.71    0.86
  10  -8   0    0.61    0.91
  11  -8   0   14.69    2.20
  12  -8   0    6.85    1.77
  13  -8   0   71.12    6.22
  14  -8   0    4.65    2.72
  15  -8   0    5.36    4.02
  -7  -7   0   -0.67    1.91
  -6  -7   0    3.99    2.07
  -5  -7   0   -0.36    1.07
  -4  -7   0  196.16   11.23
  -3  -7   0   10.63    1.92
  -2  -7   0   34.33    3.30
  -1  -7   0   28.51    2.94
   0  -7   0    6.48    1.11
   1  -7   0   24.68    2.10
   2  -7   0   57.98    3.31
   3  -7   0   42.50    2.69
   4  -7   0  130.97    6.47
   5  -7   0  173.24    8.26
   6  -7   0   89.35    4.69
   7  -7   0    8.81    1.08
   8  -7   0    5.74    1.17
   9  -7   0   44.73    3.85
  10  -7   0   30.47    3.16
  11  -7   0   24.46    2.96
  12  -7   0    0.34    1.22
  13  -7   0   15.49    2.73
  14  -7   0    0.06    1.53
  15  -7   0    7.11    2.87
  -8  -6   0   10.96    3.29
  -7  -6   0   17.71    3.90
  -6  -6   0    0.96    1.50
  -5  -6   0   18.13    2.68
  -4  -6   0   45.86    4.29
  -3  -6   0    7.57    1.56
  -2  -6   0    4.87    1.17
  -1  -6   0   88.80    4.91
   0  -6   0   17.86    1.73
   1  -6   0  246.27   11.86
   2  -6   0    4.68    0.75
   3  -6   0   77.10    4.08
   4  -6   0    1.62    0.44
   5  -6   0    4.76    0.67
   6  -6   0   20.96    1.66
   7  -6   0   30.24    2.13
   8  -6   0    9.80    1.50
   9  -6   0  129.84    7.91
  10  -6   0   14.53    2.19
  11  -6   0   23.18    3.02
  12  -6   0    1.57    1.32
  13  -6   0    5.22    1.85
  14  -6   0   -0.64    1.51
  -9  -5   0    3.29    2.47
  -8  -5   0   64.68    7.77
  -7  -5   0    0.91    1.61
  -6  -5   0   21.87    2.92
  -5  -5   0   -0.59    0.63
  -4  -5   0   37.59    3.07
  -3  -5   0  121.35    6.28
  -2  -5   0  161.91    8.34
  -1  -5   0    5.84    0.72
   0  -5   0    0.68    0.27
   1  -5   0  147.03    7.30
   2  -5   0   46.00    2.55
   3  -5   0   24.84    1.61
   4  -5   0    6.84    0.75
   5  -5   0    0.25    0.32
   6  -5   0  248.03   11.79
   7  -5   0   58.07    3.30
   8  -5   0   28.60    2.78
   9  -5   0    0.97    0.78
  10  -5   0    0.24    0.87
  11  -5   0   18.30    2.53
  12  -5   0   -1.44    1.07
  13  -5   0   -0.32    1.38
  14  -5   0   15.26    2.96
 -10  -4   0    1.02    2.30
  -9  -4   0    0.69    1.40
  -8  -4   0    2.66    1.52
  -7  -4   0   21.30    2.94
  -6  -4   0   14.79    2.12
  -5  -4   0    0.25    0.54
  -4  -4   0    0.66    0.58
  -3  -4   0  129.99    5.86
  -2  -4   0    2.93    0.61
  -1  -4   0    5.84    0.69
   0  -4   0   82.60    3.62
   1  -4   0   89.66    4.52
   2  -4   0  781.08   35.38
   3  -4   0  668.70   29.94
   4  -4   0   78.87    4.59
   5  -4   0  149.99    7.25
   6  -4   0    4.84    0.71
   7  -4   0   43.71    2.79
   8  -4   0    0.91    0.65
   9  -4   0   42.24    3.82
  10  -4   0   39.27    4.03
  11  -4   0  171.47   11.05
  12  -4   0   10.37    2.00
  13  -4   0    3.95    1.86
  14  -4   0    4.73    2.27
 -11  -3   0    0.40    2.74
 -10  -3   0   -0.25    1.39
  -9  -3   0    7.01    1.87
  -8  -3   0    9.54    2.09
  -7  -3   0   24.90    3.10
  -6  -3   0  126.13    8.06
  -5  -3   0   28.14    2.29
  -4  -3   0   45.97    2.55
  -3  -3   0   78.35    3.71
  -2  -3   0   25.75    1.50
  -1  -3   0  662.24   26.86
   0  -3   0    0.05    0.18
   1  -3   0   20.66    1.20
   2  -3   0  138.00    6.45
   3  -3   0   -0.27    0.17
   4  -3   0   91.96    4.49
   5  -3   0   46.13    2.58
   6  -3   0   81.26    4.87
   7  -3   0  128.56    7.70
   8  -3   0  128.96    7.39
   9  -3   0    7.09    2.01
  10  -3   0    7.16    1.98
  11  -3   0    1.09    1.74
  12  -3   0    1.08    1.46
  13  -3   0    2.63    1.86
  14  -3   0    4.59    2.56
 -11  -2   0    0.97    1.97
 -10  -2   0   17.43    3.58
  -9  -2   0    6.17    1.76
  -8  -2   0    1.90    1.17
  -7  -2   0   43.79    4.24
  -6  -2   0    9.85    1.34
  -5  -2   0   54.88    3.52
  -4  -2   0    4.93    0.71
  -3  -2   0   48.00    2.41
  -2  -2   0  782.81   31.71
  -1  -2   0  139.13    5.30
   0  -2   0   61.74    2.65
   1  -2   0    1.65    0.26
   2  -2   0   63.39    2.95
   3  -2   0   19.75    1.25
   4  -2   0  801.16   40.98
   5  -2   0   24.26    2.18
   6  -2   0    2.07    0.75
   7  -2   0  161.77    9.77
   8  -2   0    4.79    1.20
   9  -2   0   34.01    4.17
  10  -2   0    4.60    1.96
  11  -2   0    9.21    2.75
  12  -2   0   43.00    6.00
  13  -2   0   23.39    4.48
 -12  -1   0    2.39    2.19
 -11  -1   0    3.38    2.05
 -10  -1   0    3.88    1.88
  -9  -1   0   11.75    2.25
  -8  -1   0    0.57    0.73
  -7  -1   0    4.39    0.95
  -6  -1   0   29.54    2.40
  -5  -1   0  252.03   10.63
  -4  -1   0  154.85    6.56
  -3  -1   0   90.86    3.72
  -2  -1   0   20.95    1.07
  -1  -1   0    1.59    0.22
   0  -1   0   27.95    1.92
   1  -1   0   27.51    1.34
   2  -1   0    2.35    0.38
   3  -1   0  133.44    7.58
   4  -1   0  657.11   34.77
   5  -1   0    4.43    0.92
   6  -1   0    4.36    0.94
   7  -1   0   89.91    5.79
   8  -1   0   31.55    3.18
   9  -1   0   17.82    3.30
  10  -1   0    3.42    1.79
  11  -1   0    2.51    1.72
  12  -1   0   17.04    3.53
  13  -1   0   -0.88    2.03
 -12   0   0   -0.28    1.91
 -11   0   0    1.68    1.84
 -10   0   0    0.52    1.54
  -9   0   0  105.91    7.11
  -8   0   0   99.30    6.19
  -7   0   0    6.23    1.11
  -6   0   0   22.70    1.61
  -5   0   0    0.30    0.31
  -4   0   0   81.36    4.10
  -3   0   0    0.12    0.23
  -2   0   0   60.94    2.68
  -1   0   0   27.20    1.59
   1   0   0   29.15    1.95
   2   0   0   62.77    3.42
   3   0   0    0.07    0.24
   4   0   0   82.14    4.12
   5   0   0    0.30    0.34
   6   0   0   18.72    1.75
   7   0   0    7.44    1.43
   8   0   0   92.35    6.23
   9   0   0  114.32    7.54
  10   0   0    3.60    1.92
  11   0   0    1.20    1.72
  12   0   0    3.55    2.49
 -13   1   0    0.82    2.03
 -12   1   0   15.80    3.56
 -11   1   0    1.82    1.28
 -10   1   0    4.69    1.51
  -9   1   0   13.62    2.13
  -8   1   0   25.80    2.77
  -7   1   0   90.32    4.81
  -6   1   0    5.81    0.84
  -5   1   0    5.42    0.78
  -4   1   0  652.59   30.02
  -3   1   0  141.01    6.53
  -2   1   0    2.07    0.32
  -1   1   0   27.50    1.37
   0   1   0   26.75    1.95
   1   1   0    2.27    0.35
   2   1   0   22.00    1.53
   3   1   0   96.98    5.23
   4   1   0  150.41    8.38
   5   1   0  253.51   13.64
   6   1   0   27.53    2.22
   7   1   0    4.04    1.24
   8   1   0    1.38    0.97
   9   1   0    8.00    1.89
  10   1   0    0.14    1.60
  11   1   0    0.28    1.89
  12   1   0    0.38    2.14
 -13   2   0   12.33    3.28
 -12   2   0   50.21    4.94
 -11   2   0   14.42    2.31
 -10   2   0    8.32    1.73
  -9   2   0   27.75    3.08
  -8   2   0    5.52    1.24
  -7   2   0  175.58    8.43
  -6   2   0    2.89    0.66
  -5   2   0   27.50    1.93
  -4   2   0  776.15   35.47
  -3   2   0   20.28    1.17
  -2   2   0   60.08    3.00
  -1   2   0    1.87    0.39
   0   2   0   58.59    3.42
   1   2   0  133.69    7.49
   2   2   0  774.10   40.85
   3   2   0   46.21    2.53
   4   2   0    6.57    0.79
   5   2   0   58.77    3.88
   6   2   0   10.37    1.94
   7   2   0   49.10    4.30
   8   2   0    3.89    1.30
   9   2   0    5.30    1.64
  10   2   0   20.53    4.10
  11   2   0    2.22    2.30
 -14   3   0    2.04    3.59
 -13   3   0    3.25    1.72
 -12   3   0    0.17    1.21
 -11   3   0   -0.55    0.99
 -10   3   0    7.68    1.58
  -9   3   0    4.85    1.30
  -8   3   0  114.63    6.20
  -7   3   0  127.77    6.62
  -6   3   0   80.83    4.23
  -5   3   0   48.37    2.54
  -4   3   0   93.02    4.05
  -3   3   0   -0.03    0.24
  -2   3   0  138.87    6.52
  -1   3   0   21.84    1.68
   0   3   0    0.30    0.28
   1   3   0  658.37   29.94
   2   3   0   26.86    2.12
   3   3   0   83.58    4.73
   4   3   0   42.51    2.67
   5   3   0   31.22    2.75
   6   3   0  126.73    9.68
   7   3   0   23.49    3.45
   8   3   0   10.33    2.16
   9   3   0    9.74    2.30
  10   3   0    0.29    1.96
  11   3   0    2.10    3.56
 -14   4   0    3.27    1.81
 -13   4   0    4.14    1.74
 -12   4   0    7.90    2.00
 -11   4   0  178.77   10.99
 -10   4   0   38.24    3.90
  -9   4   0   33.89    2.89
  -8   4   0    1.68    0.67
  -7   4   0   41.13    3.02
  -6   4   0    5.22    0.66
  -5   4   0  152.51    7.33
  -4   4   0   81.18    4.14
  -3   4   0  657.48   34.59
  -2   4   0  774.30   35.43
  -1   4   0   92.17    5.31
   0   4   0   82.97    4.73
   1   4   0    7.11    0.74
   2   4   0    3.95    0.55
   3   4   0  132.09    6.40
   4   4   0    0.45    0.60
   5   4   0    0.81    0.73
   6   4   0   10.93    2.33
   7   4   0   24.52    3.66
   8   4   0    4.63    1.74
   9   4   0    0.67    1.47
  10   4   0    1.71    2.23
 -14   5   0    8.94    2.48
 -13   5   0    1.07    1.41
 -12   5   0   -1.43    0.97
 -11   5   0   14.89    2.35
 -10   5   0   -0.34    0.64
  -9   5   0    0.34    0.66
  -8   5   0   27.16    2.34
  -7   5   0   57.41    3.46
  -6   5   0  247.81   11.89
  -5   5   0    0.24    0.36
  -4   5   0    6.87    0.82
  -3   5   0   25.94    1.71
  -2   5   0   50.95    3.19
  -1   5   0  149.66    8.50
   0   5   0    0.39    0.38
   1   5   0    4.92    0.67
   2   5   0  173.85    9.66
   3   5   0  119.07    7.05
   4   5   0   37.39    3.38
   5   5   0    0.27    0.80
   6   5   0   26.71    3.89
   7   5   0    1.59    1.62
   8   5   0   69.56    7.75
   9   5   0    1.90    1.81
 -14   6   0   -1.25    1.63
 -13   6   0    1.12    1.94
 -12   6   0    0.46    1.42
 -11   6   0   20.39    3.42
 -10   6   0   13.66    2.09
  -9   6   0  131.17    7.96
  -8   6   0    8.07    1.52
  -7   6   0   22.86    2.03
  -6   6   0   21.41    1.78
  -5   6   0    4.47    0.76
  -4   6   0    3.00    0.58
  -3   6   0   75.62    4.94
  -2   6   0    4.74    0.96
  -1   6   0  250.82   13.74
   0   6   0   21.17    1.67
   1   6   0   96.51    6.96
   2   6   0    3.65    1.02
   3   6   0    5.67    1.49
   4   6   0   36.86    3.58
   5   6   0   17.41    2.37
   6   6   0   -1.24    1.46
   7   6   0   16.60    3.50
   8   6   0    9.22    2.94
 -14   7   0    1.94    1.95
 -13   7   0   13.59    2.84
 -12   7   0   -0.32    1.37
 -11   7   0   20.35    2.73
 -10   7   0   25.03    2.94
  -9   7   0   40.41    3.88
  -8   7   0    5.61    1.21
  -7   7   0    8.68    1.17
  -6   7   0   90.76    4.86
  -5   7   0  170.88    8.40
  -4   7   0  135.76    7.84
  -3   7   0   46.50    3.45
  -2   7   0   65.62    4.33
  -1   7   0   28.39    2.70
   0   7   0    5.72    1.20
   1   7   0   24.76    2.64
   2   7   0   24.15    3.40
   3   7   0   10.66    2.28
   4   7   0  187.15   10.84
   5   7   0   -0.80    1.03
   6   7   0    0.89    1.94
   7   7   0    0.19    1.86
   8   7   0    1.26    3.75
 -15   8   0   -4.36    3.20
 -14   8   0   10.15    2.96
 -13   8   0   60.25    7.40
 -12   8   0    5.49    2.23
 -11   8   0   14.66    2.36
 -10   8   0    2.35    1.18
  -9   8   0    1.39    0.97
  -8   8   0   96.62    6.34
  -7   8   0   30.62    3.09
  -6   8   0    3.07    1.07
  -5   8   0  117.81    7.35
  -4   8   0    1.52    0.77
  -3   8   0   31.65    2.87
  -2   8   0    7.76    1.41
  -1   8   0    5.47    1.23
   0   8   0   88.27    6.00
   1   8   0   14.95    1.99
   2   8   0    7.04    1.80
   3   8   0   -0.39    1.00
   4   8   0   11.71    2.18
   5   8   0    0.75    1.87
   6   8   0    0.52    2.10
 -14   9   0    4.27    2.60
 -13   9   0   -1.34    1.95
 -12   9   0    6.82    2.53
 -11   9   0    6.96    2.24
 -10   9   0   10.63    2.74
  -9   9   0  115.11    9.24
  -8   9   0   11.72    2.06
  -7   9   0   32.49    3.37
  -6   9   0    5.37    1.29
  -5   9   0   37.56    3.58
  -4   9   0    1.19    0.87
  -3   9   0  135.59    8.07
  -2   9   0   51.38    4.25
  -1   9   0    0.66    0.82
   0   9   0  116.20    7.19
   1   9   0    5.19    1.73
   2   9   0    7.92    2.24
   3   9   0    1.79    1.67
   4   9   0    2.24    1.39
   5   9   0   13.58    3.37
 -14  10   0    1.97    2.83
 -13  10   0    1.03    2.16
 -12  10   0   21.83    4.05
 -11  10   0    2.66    1.98
 -10  10   0    0.43    1.63
  -9  10   0    4.56    1.86
  -8  10   0   12.06    2.03
  -7  10   0   11.51    1.99
  -6  10   0   44.32    4.00
  -5  10   0   -0.05    1.14
  -4  10   0   12.70    1.97
  -3  10   0   24.29    3.00
  -2  10   0   -0.11    0.83
  -1  10   0    7.96    1.66
   0  10   0    1.40    1.29
   1  10   0    5.75    1.92
   2  10   0   44.61    5.69
   3  10   0    5.17    2.32
   4  10   0    7.55    2.21
 -13  11   0    1.38    2.29
 -12  11   0    2.95    2.30
 -11  11   0   -0.77    1.57
 -10  11   0    1.85    1.87
  -9  11   0    9.49    2.58
  -8  11   0    0.29    1.20
  -7  11   0  176.07   10.99
  -6  11   0   11.08    2.74
  -5  11   0   25.00    3.01
  -4  11   0   22.55    2.89
  -3  11   0   14.29    2.25
  -2  11   0    6.66    1.71
  -1  11   0    1.50    1.16
   0  11   0    2.03    1.51
   1  11   0   16.05    3.26
   2  11   0   19.26    3.72
   3  11   0    0.29    2.69
 -13  12   0    2.58    2.52
 -12  12   0    2.38    2.20
 -11  12   0   13.95    3.24
 -10  12   0   47.64    6.16
  -9  12   0    1.08    1.83
  -8  12   0    8.81    2.94
  -7  12   0   -0.44    1.38
  -6  12   0    2.28    1.29
  -5  12   0    1.13    1.18
  -4  12   0   10.54    2.06
  -3  12   0    7.32    1.87
  -2  12   0   23.11    2.98
  -1  12   0    0.70    1.67
   0  12   0    3.86    2.21
   1  12   0    1.03    2.10
 -12  13   0    2.32    2.19
 -11  13   0   21.37    4.10
 -10  13   0    4.06    3.59
  -9  13   0   -0.81    2.56
  -8  13   0   -0.20    1.73
  -7  13   0    3.13    2.10
  -6  13   0   15.63    2.69
  -5  13   0   66.06    6.12
  -4  13   0   -0.49    1.24
  -3  13   0   -2.03    1.10
  -2  13   0    0.61    1.62
  -1  13   0    1.42    1.98
 -10  14   0    1.58    4.08
  -9  14   0    2.48    3.91
  -8  14   0    0.84    2.20
  -7  14   0    0.77    2.06
  -6  14   0    2.42    2.32
  -5  14   0    3.05    1.75
  -4  14   0    0.87    1.67
  -3  14   0   -1.23    2.76
  -8  15   0    0.15    3.32
   3 -14   1    1.39    2.47
   4 -14   1   16.07    3.37
   5 -14   1    0.94    1.58
   6 -14   1    1.46    1.50
   7 -14   1    2.49    1.80
   8 -14   1    0.70    1.54
   9 -14   1   -1.60    1.45
  10 -14   1    0.40    2.57
   1 -13   1    1.13    1.79
   2 -13   1    4.32    2.23
   3 -13   1    2.86    1.87
   4 -13   1    3.15    1.88
   5 -13   1    0.71    1.37
   6 -13   1   -0.39    1.22
   7 -13   1    9.80    2.56
   8 -13   1    0.16    1.35
   9 -13   1    8.26    2.44
  10 -13   1    2.04    1.95
  11 -13   1    1.12    2.93
  12 -13   1    2.93    3.27
  -1 -12   1    2.60    2.03
   0 -12   1    9.49    2.78
   1 -12   1    6.16    2.20
   2 -12   1    3.06    1.76
   3 -12   1    1.76    1.45
   4 -12   1   24.16    3.70
   5 -12   1    0.35    1.17
   6 -12   1    6.51    1.94
   7 -12   1    9.25    2.37
   8 -12   1    1.65    1.40
   9 -12   1    2.10    1.49
  10 -12   1    3.06    1.78
  11 -12   1    1.48    1.82
  12 -12   1   18.68    5.69
  13 -12   1   -3.02    2.37
  -2 -11   1    5.41    2.40
  -1 -11   1    3.42    1.87
   0 -11   1    2.53    1.69
   1 -11   1   10.14    2.46
   2 -11   1   13.69    2.83
   3 -11   1   17.15    2.95
   4 -11   1    9.37    2.20
   5 -11   1   41.61    4.65
   6 -11   1    3.68    1.52
   7 -11   1    2.64    1.56
   8 -11   1    7.27    1.98
   9 -11   1   18.49    3.26
  10 -11   1    4.85    2.05
  11 -11   1    6.75    2.19
  12 -11   1    2.45    3.33
  13 -11   1    0.70    2.83
  -4 -10   1    4.26    1.89
  -3 -10   1    1.33    1.41
  -2 -10   1    0.76    1.28
  -1 -10   1    8.32    1.97
   0 -10   1   39.92    4.01
   1 -10   1   17.73    2.46
   2 -10   1   54.26    4.76
   3 -10   1   -0.44    0.71
   4 -10   1    1.73    0.90
   5 -10   1   14.93    1.65
   6 -10   1    4.51    1.18
   7 -10   1    0.35    0.75
   8 -10   1   10.92    1.75
   9 -10   1    2.01    1.07
  10 -10   1   42.56    4.05
  11 -10   1    7.33    2.21
  12 -10   1   -1.32    1.34
  13 -10   1    8.22    4.12
  14 -10   1   16.74    5.88
  -5  -9   1    0.34    1.91
  -4  -9   1    9.30    2.34
  -3  -9   1    1.25    1.32
  -2  -9   1   18.99    2.86
  -1  -9   1    3.42    1.35
   0  -9   1    3.16    1.21
   1  -9   1   19.46    2.42
   2  -9   1    3.35    1.03
   3  -9   1    1.46    0.78
   4  -9   1    2.23    0.76
   5  -9   1   57.78    4.12
   6  -9   1   15.30    1.69
   7  -9   1   70.63    4.57
   8  -9   1    8.97    1.46
   9  -9   1    3.59    1.12
  10  -9   1   20.27    2.54
  11  -9   1   17.94    2.55
  12  -9   1    1.47    1.35
  13  -9   1    3.51    2.28
  14  -9   1    1.99    2.27
  -6  -8   1    0.04    1.87
  -5  -8   1    2.79    1.77
  -4  -8   1    2.79    1.48
  -3  -8   1    7.73    1.73
  -2  -8   1   12.12    2.16
  -1  -8   1    5.92    1.43
   0  -8   1    2.96    1.07
   1  -8   1   79.18    5.66
   2  -8   1   41.74    3.25
   3  -8   1  133.86    6.61
   4  -8   1   46.77    2.99
   5  -8   1    2.34    0.65
   6  -8   1    3.72    0.79
   7  -8   1   14.56    1.86
   8  -8   1    3.31    0.96
   9  -8   1   17.33    2.25
  10  -8   1   59.97    4.92
  11  -8   1   22.99    2.87
  12  -8   1   23.70    3.07
  13  -8   1   -0.11    1.38
  14  -8   1    3.12    2.30
  -7  -7   1    6.67    2.57
  -6  -7   1   11.42    3.10
  -5  -7   1    8.79    2.08
  -4  -7   1    3.73    1.40
  -3  -7   1    0.78    1.00
  -2  -7   1   74.21    5.65
  -1  -7   1   16.20    2.14
   0  -7   1   36.34    3.38
   1  -7   1   57.14    4.11
   2  -7   1   21.80    2.12
   3  -7   1  116.85    5.76
   4  -7   1    0.90    0.35
   5  -7   1   19.65    1.42
   6  -7   1  206.24    9.59
   7  -7   1   40.91    3.35
   8  -7   1   79.09    5.62
   9  -7   1    4.97    1.21
  10  -7   1    0.29    0.83
  11  -7   1   12.28    2.18
  12  -7   1    2.51    1.44
  13  -7   1   -1.17    1.42
  14  -7   1    5.28    2.61
  -8  -6   1    5.19    2.50
  -7  -6   1   -0.75    1.50
  -6  -6   1    8.17    2.65
  -5  -6   1    7.36    1.75
  -4  -6   1    5.57    1.48
  -3  -6   1   12.60    2.16
  -2  -6   1    5.42    0.96
  -1  -6   1  212.84    9.81
   0  -6   1   16.76    1.60
   1  -6   1   16.31    1.41
   2  -6   1  104.43    4.42
   3  -6   1  151.57    6.56
   4  -6   1   26.90    1.67
   5  -6   1   12.99    1.17
   6  -6   1   17.13    1.52
   7  -6   1   62.25    4.04
   8  -6   1   44.68    3.41
   9  -6   1    1.83    0.85
  10  -6   1    2.82    1.16
  11  -6   1   49.33    4.34
  12  -6   1    6.80    1.85
  13  -6   1   12.43    2.52
  14  -6   1    0.57    1.76
  -9  -5   1   -0.62    2.00
  -8  -5   1    0.71    1.75
  -7  -5   1    0.24    1.33
  -6  -5   1   36.51    3.82
  -5  -5   1   17.86    2.25
  -4  -5   1   67.31    4.71
  -3  -5   1    2.86    0.90
  -2  -5   1   21.42    1.93
  -1  -5   1   14.12    1.35
   0  -5   1  105.17    5.76
   1  -5   1    5.11    0.64
   2  -5   1   66.17    3.45
   3  -5   1   30.66    1.58
   4  -5   1  249.19   11.60
   5  -5   1  111.08    5.67
   6  -5   1   15.81    1.24
   7  -5   1   22.79    2.23
   8  -5   1  133.94    7.76
   9  -5   1    3.39    1.12
  10  -5   1   13.71    2.02
  11  -5   1    3.65    1.33
  12  -5   1   11.10    2.20
  13  -5   1    3.83    1.77
  14  -5   1    1.48    2.04
 -10  -4   1   17.81    4.06
  -9  -4   1    3.18    1.72
  -8  -4   1   18.34    2.98
  -7  -4   1   18.37    2.73
  -6  -4   1    1.54    1.07
  -5  -4   1    3.87    1.19
  -4  -4   1   46.24    3.51
  -3  -4   1    0.68    0.52
  -2  -4   1   24.67    2.17
  -1  -4   1  251.96   11.78
   0  -4   1   88.04    4.70
   1  -4   1  316.35   14.79
   2  -4   1   16.30    1.20
   3  -4   1    4.34    0.48
   4  -4   1   87.21    4.59
   5  -4   1    4.77    0.52
   6  -4   1  101.04    5.83
   7  -4   1  115.69    6.74
   8  -4   1   49.03    3.93
   9  -4   1   54.53    5.28
  10  -4   1    5.49    1.49
  11  -4   1    3.09    1.38
  12  -4   1    3.99    1.58
  13  -4   1    7.42    2.21
  14  -4   1    3.32    2.60
 -11  -3   1    2.60    3.18
 -10  -3   1    3.49    1.84
  -9  -3   1    1.23    1.38
  -8  -3   1   15.21    2.59
  -7  -3   1    0.40    0.83
  -6  -3   1   -0.06    0.86
  -5  -3   1  128.47    7.95
  -4  -3   1  109.67    5.79
  -3  -3   1  151.61    6.70
  -2  -3   1   32.49    2.26
  -1  -3   1    4.35    0.67
   0  -3   1  230.69   10.43
   1  -3   1   64.88    2.93
   2  -3   1  103.26    4.75
   3  -3   1  234.81   12.02
   4  -3   1  314.92   17.12
   5  -3   1   67.92    4.56
   6  -3   1  149.03    7.38
   7  -3   1    1.85    0.78
   8  -3   1    2.29    0.95
   9  -3   1   12.47    2.09
  10  -3   1    0.06    0.97
  11  -3   1    7.22    1.93
  12  -3   1    0.16    1.34
  13  -3   1    2.36    1.80
 -11  -2   1    4.01    2.43
 -10  -2   1   -0.01    1.37
  -9  -2   1   13.64    2.53
  -8  -2   1   61.62    5.36
  -7  -2   1    5.92    1.49
  -6  -2   1   44.71    3.02
  -5  -2   1   21.18    1.90
  -4  -2   1  111.13    5.92
  -3  -2   1   68.46    3.58
  -2  -2   1   15.83    1.12
  -1  -2   1  102.42    4.32
   0  -2   1  261.02   11.62
   1  -2   1   83.60    3.69
   2  -2   1  252.10   16.35
   3  -2   1   68.78    3.44
   4  -2   1   14.20    1.44
   5  -2   1   27.68    1.92
   6  -2   1   24.19    1.96
   7  -2   1   20.21    1.82
   8  -2   1    4.17    1.45
   9  -2   1   69.23    6.79
  10  -2   1   11.86    2.15
  11  -2   1   23.78    3.25
  12  -2   1   -0.23    1.30
  13  -2   1    1.73    1.78
 -12  -1   1   -0.91    1.74
 -11  -1   1    3.80    2.19
 -10  -1   1    9.86    2.51
  -9  -1   1   18.11    2.63
  -8  -1   1   13.84    2.36
  -7  -1   1   77.75    5.19
  -6  -1   1   61.77    3.97
  -5  -1   1   15.96    1.57
  -4  -1   1    4.03    0.72
  -3  -1   1  315.72   14.97
  -2  -1   1   68.30    3.12
  -1  -1   1   83.71    3.74
   0  -1   1   34.21    1.93
   1  -1   1   33.98    2.23
   2  -1   1   84.06    5.23
   3  -1   1  103.12    4.78
   4  -1   1    4.50    0.68
   5  -1   1  263.91   13.60
   6  -1   1   13.58    1.05
   7  -1   1  205.51   11.38
   8  -1   1   15.34    2.73
   9  -1   1    7.78    2.26
  10  -1   1    1.73    1.42
  11  -1   1    7.68    2.55
  12  -1   1   -0.30    1.53
  13  -1   1    2.29    1.79
 -12   0   1   16.17    3.51
 -11   0   1    5.40    2.20
 -10   0   1   27.42    4.57
  -9   0   1    1.13    1.09
  -8   0   1    1.29    0.76
  -7   0   1   32.22    2.89
  -6   0   1   14.23    1.71
  -5   0   1  110.93    6.86
  -4   0   1   80.70    4.81
  -3   0   1  232.32   10.60
  -2   0   1  252.38   10.44
  -1   0   1   31.74    2.23
   0   0   1    0.01    0.16
   1   0   1   33.00    2.22
   2   0   1  263.11   16.48
   3   0   1  235.97   12.07
   4   0   1   88.69    5.47
   5   0   1  113.43    5.77
   6   0   1   16.61    1.58
   7   0   1   37.49    3.45
   8   0   1    3.54    1.55
   9   0   1    3.53    1.72
  10   0   1   42.19    5.56
  11   0   1    5.03    2.39
  12   0   1   13.15    3.53
 -13   1   1    1.23    1.88
 -12   1   1    2.74    2.04
 -11   1   1    2.59    1.87
 -10   1   1    2.85    1.24
  -9   1   1    4.85    1.47
  -8   1   1   13.27    1.99
  -7   1   1  212.00   11.51
  -6   1   1   14.24    1.22
  -5   1   1  247.49   10.53
  -4   1   1    2.91    0.50
  -3   1   1  100.65    4.90
  -2   1   1   83.41    3.82
  -1   1   1   33.88    2.25
   0   1   1   32.79    2.19
   3   1   1  318.46   20.92
   4   1   1    3.96    0.69
   5   1   1   15.77    1.44
   6   1   1   57.46    3.57
   7   1   1   75.32    5.89
   8   1   1   14.86    2.27
   9   1   1   18.00    3.42
  10   1   1    6.91    2.31
  11   1   1    4.31    2.38
  12   1   1    1.63    2.24
 -13   2   1    0.66    1.96
 -12   2   1   -0.70    1.36
 -11   2   1   23.81    3.01
 -10   2   1    4.63    1.49
  -9   2   1   72.66    5.34
  -8   2   1    5.32    1.27
  -7   2   1   18.04    1.74
  -6   2   1   26.97    2.15
  -5   2   1   30.19    2.09
  -4   2   1   16.10    1.39
  -3   2   1   65.68    3.10
  -2   2   1  254.43   11.68
  -1   2   1   82.80    4.36
   0   2   1  252.64   13.42
   1   2   1  102.39    9.43
   3   2   1   69.39    5.49
   4   2   1  103.59    5.74
   5   2   1   22.55    2.05
   6   2   1   42.03    2.89
   7   2   1    3.40    1.23
   8   2   1   54.86    5.01
   9   2   1   20.46    3.81
  10   2   1    1.19    1.86
  11   2   1    1.55    2.25
 -14   3   1    4.32    3.26
 -13   3   1    3.00    1.61
 -12   3   1    1.36    1.34
 -11   3   1    7.39    1.72
 -10   3   1    0.90    0.99
  -9   3   1   14.22    2.19
  -8   3   1    2.87    1.00
  -7   3   1    0.87    0.54
  -6   3   1  148.75    6.64
  -5   3   1   69.92    4.05
  -4   3   1  312.55   14.94
  -3   3   1  227.31   10.50
  -2   3   1  101.17    5.69
  -1   3   1   68.59    3.47
   0   3   1  236.04   12.01
   1   3   1    3.51    0.64
   2   3   1   28.12    2.88
   3   3   1  153.24    8.57
   4   3   1  120.78    5.74
   5   3   1  134.18    6.55
   6   3   1    1.50    1.08
   7   3   1    0.80    1.00
   8   3   1   21.52    2.71
   9   3   1    2.53    1.83
  10   3   1    3.91    2.19
  11   3   1    9.51    4.14
 -14   4   1    1.92    1.76
 -13   4   1    7.77    2.08
 -12   4   1    3.93    1.56
 -11   4   1    2.33    1.24
 -10   4   1    4.72    1.31
  -9   4   1   57.38    5.42
  -8   4   1   45.28    3.29
  -7   4   1  113.23    5.88
  -6   4   1  105.90    4.53
  -5   4   1    4.28    0.60
  -4   4   1   84.83    4.78
  -3   4   1    3.65    0.67
  -2   4   1   19.42    1.45
  -1   4   1  314.32   14.85
   0   4   1   91.51    4.66
   1   4   1  251.44   13.49
   2   4   1   25.53    2.27
   3   4   1    0.87    0.47
   4   4   1   47.40    3.48
   5   4   1    3.60    1.04
   6   4   1    2.50    1.28
   7   4   1   14.68    2.85
   8   4   1   28.39    3.58
   9   4   1    1.98    2.03
  10   4   1   13.71    3.54
 -14   5   1    0.59    1.69
 -13   5   1   -0.37    1.47
 -12   5   1    7.46    1.83
 -11   5   1    6.54    1.61
 -10   5   1   15.96    2.29
  -9   5   1    6.71    1.16
  -8   5   1  131.02    6.73
  -7   5   1   25.65    1.73
  -6   5   1   14.33    1.50
  -5   5   1  106.50    5.89
  -4   5   1  251.98   11.81
  -3   5   1   28.07    1.95
  -2   5   1   69.43    4.56
  -1   5   1    4.50    0.52
   0   5   1  109.08    5.70
   1   5   1   12.39    1.43
   2   5   1   19.19    1.72
   3   5   1    1.44    0.73
   4   5   1   59.89    6.07
   5   5   1   13.11    1.93
   6   5   1   48.34    5.17
   7   5   1    1.42    1.75
   8   5   1   -0.05    1.41
   9   5   1    5.43    2.52
 -14   6   1    2.90    2.25
 -13   6   1   12.02    2.39
 -12   6   1    7.92    1.82
 -11   6   1   40.99    3.89
 -10   6   1    2.96    1.02
  -9   6   1    1.75    0.77
  -8   6   1   38.55    3.42
  -7   6   1   57.67    3.68
  -6   6   1   18.81    1.82
  -5   6   1   14.10    1.41
  -4   6   1   24.81    1.98
  -3   6   1  149.46    7.45
  -2   6   1  100.58    6.01
  -1   6   1   13.26    1.67
   0   6   1   18.19    1.88
   1   6   1  215.39   11.26
   2   6   1    3.57    1.03
   3   6   1   14.70    1.97
   4   6   1    3.38    1.29
   5   6   1    4.64    1.38
   6   6   1   10.76    2.58
   7   6   1    0.17    1.71
   8   6   1    1.04    1.89
 -14   7   1    1.21    2.23
 -13   7   1   -0.15    1.65
 -12   7   1    1.98    1.75
 -11   7   1   10.05    2.51
 -10   7   1   -0.14    0.93
  -9   7   1    4.27    1.30
  -8   7   1   76.30    5.88
  -7   7   1   37.07    2.87
  -6   7   1  218.12    9.92
  -5   7   1   21.96    1.76
  -4   7   1    1.41    0.78
  -3   7   1  106.63    6.87
  -2   7   1   19.90    2.26
  -1   7   1   52.73    4.22
   0   7   1   32.13    3.99
   1   7   1   13.83    1.95
   2   7   1   76.32    4.80
   3   7   1    0.84    1.08
   4   7   1    4.14    1.57
   5   7   1   12.69    2.14
   6   7   1    9.23    2.73
   7   7   1    4.24    2.43
 -14   8   1   -0.45    1.78
 -13   8   1   -0.50    1.65
 -12   8   1   21.42    3.80
 -11   8   1   13.93    2.46
 -10   8   1   57.66    5.03
  -9   8   1   14.18    2.16
  -8   8   1    3.20    1.21
  -7   8   1   18.26    2.30
  -6   8   1    4.78    1.29
  -5   8   1    2.08    0.96
  -4   8   1   46.18    4.02
  -3   8   1  137.57    7.97
  -2   8   1   43.70    3.57
  -1   8   1   83.01    7.20
   0   8   1    4.95    1.33
   1   8   1    5.39    1.40
   2   8   1   13.05    2.41
   3   8   1    9.10    2.13
   4   8   1    2.28    1.55
   5   8   1    2.04    1.94
   6   8   1   -1.15    1.77
 -14   9   1    0.61    3.09
 -13   9   1    7.28    3.78
 -12   9   1   -0.87    1.89
 -11   9   1   16.68    3.19
 -10   9   1   16.59    3.31
  -9   9   1    5.16    1.99
  -8   9   1    9.34    1.85
  -7   9   1   80.15    5.61
  -6   9   1   11.65    2.09
  -5   9   1   61.08    5.60
  -4   9   1    2.80    1.10
  -3   9   1    1.41    1.24
  -2   9   1    7.87    2.08
  -1   9   1   14.64    2.83
   0   9   1    1.81    1.02
   1   9   1    2.26    1.17
   2   9   1   23.91    3.68
   3   9   1    1.89    1.51
   4   9   1   14.71    2.37
   5   9   1    0.67    2.07
 -14  10   1   18.11    5.81
 -13  10   1    5.99    3.80
 -12  10   1    1.76    1.79
 -11  10   1   12.08    3.09
 -10  10   1   44.68    5.59
  -9  10   1    1.84    1.73
  -8  10   1    7.47    1.78
  -7  10   1    1.55    1.15
  -6  10   1    4.07    1.39
  -5  10   1   15.03    2.34
  -4  10   1    2.95    1.64
  -3  10   1   -0.86    1.09
  -2  10   1   60.54    6.42
  -1  10   1   17.83    2.54
   0  10   1   41.22    4.10
   1  10   1    9.41    2.26
   2  10   1    1.18    1.50
   3  10   1   -1.98    1.35
   4  10   1    2.95    1.84
 -13  11   1    0.85    3.30
 -12  11   1    6.74    2.49
 -11  11   1    5.86    2.62
 -10  11   1   12.55    3.12
  -9  11   1   17.38    3.56
  -8  11   1    5.25    1.72
  -7  11   1    3.22    1.37
  -6  11   1    5.15    1.94
  -5  11   1   30.48    4.61
  -4  11   1   12.20    2.92
  -3  11   1   19.04    3.56
  -2  11   1   20.96    2.70
  -1  11   1    9.58    2.08
   0  11   1    5.30    2.13
   1  11   1   -0.33    1.55
   2  11   1    2.98    2.16
   3  11   1    4.41    2.93
 -13  12   1    0.88    2.16
 -12  12   1   20.22    3.85
 -11  12   1    3.13    2.34
 -10  12   1   -1.14    1.72
  -9  12   1    1.89    2.02
  -8  12   1    0.02    1.29
  -7  12   1    4.66    2.33
  -6  12   1   10.29    2.70
  -5  12   1    0.37    1.42
  -4  12   1   22.35    3.18
  -3  12   1    1.17    1.32
  -2  12   1    3.08    1.53
  -1  12   1    4.08    2.04
   0  12   1   13.53    3.23
   1  12   1    2.29    2.02
 -12  13   1    6.07    2.99
 -11  13   1    3.34    2.51
 -10  13   1    2.98    2.17
  -9  13   1    7.65    4.45
  -8  13   1   -0.74    1.75
  -7  13   1   14.25    3.43
  -6  13   1   -0.68    1.66
  -5  13   1    1.12    1.45
  -4  13   1    5.29    1.80
  -3  13   1    6.34    2.00
  -2  13   1    3.38    1.77
  -1  13   1    0.83    1.86
 -10  14   1    5.01    4.26
  -9  14   1    0.91    3.63
  -8  14   1   -0.38    2.01
  -7  14   1    1.21    1.86
  -6  14   1    1.54    1.74
  -5  14   1    2.28    1.80
  -4  14   1   11.58    2.71
  -3  14   1    4.59    3.17
   5 -14   2   -1.45    1.85
   6 -14   2    3.29    2.83
   7 -14   2    3.05    2.91
   8 -14   2    2.85    3.11
   9 -14   2    4.81    3.68
   1 -13   2    0.58    2.51
   2 -13   2    2.69    1.97
   3 -13   2    0.54    1.63
   4 -13   2    6.36    2.14
   5 -13   2   11.09    2.62
   6 -13   2    0.61    2.02
   7 -13   2   15.37    4.88
   8 -13   2    3.50    3.00
   9 -13   2    1.12    2.59
  10 -13   2    5.70    3.38
  11 -13   2    8.16    4.08
  -1 -12   2    0.92    2.63
   0 -12   2    3.84    2.16
   1 -12   2   -0.12    1.58
   2 -12   2   11.36    2.86
   3 -12   2    3.47    1.69
   4 -12   2    4.00    1.57
   5 -12   2    1.65    1.35
   6 -12   2   19.81    3.26
   7 -12   2    1.14    1.89
   8 -12   2    4.63    2.72
   9 -12   2   15.05    4.76
  10 -12   2    2.34    2.55
  11 -12   2    8.35    3.86
  12 -12   2    3.37    3.13
  -2 -11   2    5.35    2.01
  -1 -11   2    8.41    2.11
   0 -11   2    4.74    1.78
   1 -11   2    3.44    1.43
   2 -11   2    6.71    1.71
   3 -11   2    7.35    1.66
   4 -11   2   48.43    4.38
   5 -11   2   19.50    2.51
   6 -11   2   -0.71    0.82
   7 -11   2   71.86    5.63
   8 -11   2    1.81    1.35
   9 -11   2   13.04    2.67
  10 -11   2   -0.37    1.31
  11 -11   2    0.42    1.56
  12 -11   2    2.23    3.02
  13 -11   2    1.26    3.39
  -4 -10   2    5.36    3.59
  -3 -10   2   -0.12    1.50
  -2 -10   2    1.21    1.37
  -1 -10   2    1.27    1.24
   0 -10   2   36.45    3.83
   1 -10   2    7.04    1.67
   2 -10   2   15.41    2.35
   3 -10   2   19.90    2.63
   4 -10   2    7.97    1.54
   5 -10   2   21.29    2.55
   6 -10   2    0.68    0.85
   7 -10   2    0.76    0.91
   8 -10   2   79.48    7.03
   9 -10   2    3.44    1.64
  10 -10   2   41.47    4.79
  11 -10   2    1.80    1.57
  12 -10   2   20.21    3.67
  13 -10   2    0.39    1.79
  14 -10   2    2.08    3.38
  -5  -9   2    7.10    2.89
  -4  -9   2    5.84    2.56
  -3  -9   2    8.31    2.04
  -2  -9   2   11.26    2.32
  -1  -9   2    5.26    1.53
   0  -9   2    5.53    1.56
   1  -9   2    1.49    0.96
   2  -9   2    9.88    1.64
   3  -9   2   46.44    3.74
   4  -9   2   45.79    3.74
   5  -9   2   14.86    1.92
   6  -9   2   25.08    2.63
   7  -9   2   19.16    2.25
   8  -9   2   28.46    2.85
   9  -9   2    6.75    1.84
  10  -9   2    8.83    2.19
  11  -9   2    8.37    2.26
  12  -9   2    4.56    2.11
  13  -9   2    5.34    2.50
  14  -9   2   -0.70    2.10
  -6  -8   2    0.47    1.95
  -5  -8   2    6.54    2.53
  -4  -8   2    9.23    2.09
  -3  -8   2    0.12    1.12
  -2  -8   2   75.71    6.24
  -1  -8   2   25.92    3.04
   0  -8   2   25.84    2.91
   1  -8   2    4.36    1.19
   2  -8   2    6.32    1.25
   3  -8   2   68.24    4.57
   4  -8   2   24.52    2.48
   5  -8   2    5.19    1.06
   6  -8   2   22.48    1.94
   7  -8   2   50.88    3.34
   8  -8   2   28.10    2.39
   9  -8   2    0.79    1.07
  10  -8   2   19.50    3.06
  11  -8   2    5.01    1.84
  12  -8   2    2.83    1.91
  13  -8   2   11.85    3.01
  14  -8   2    8.00    2.91
  -7  -7   2    3.44    2.51
  -6  -7   2   15.41    3.52
  -5  -7   2   -1.01    1.40
  -4  -7   2   80.21    6.55
  -3  -7   2    2.30    1.16
  -2  -7   2   21.76    2.67
  -1  -7   2   45.70    4.24
   0  -7   2   29.73    3.02
   1  -7   2    4.38    1.04
   2  -7   2   31.83    2.46
   3  -7   2   55.63    3.23
   4  -7   2   60.08    3.39
   5  -7   2   59.87    3.09
   6  -7   2   53.98    3.16
   7  -7   2   36.64    2.60
   8  -7   2    2.61    0.94
   9  -7   2    7.93    1.46
  10  -7   2   22.88    3.55
  11  -7   2   50.89    5.84
  12  -7   2    0.83    1.66
  13  -7   2    0.48    1.66
  14  -7   2    3.76    2.61
  -8  -6   2    4.36    2.66
  -7  -6   2    3.26    2.16
  -6  -6   2   19.30    3.85
  -5  -6   2    0.31    1.30
  -4  -6   2    0.97    1.29
  -3  -6   2   25.61    2.50
  -2  -6   2   25.87    2.37
  -1  -6   2   50.55    3.65
   0  -6   2   12.95    1.40
   1  -6   2  138.88    6.84
   2  -6   2    0.84    0.42
   3  -6   2  151.25    7.65
   4  -6   2    9.56    1.03
   5  -6   2  174.36    8.39
   6  -6   2   12.06    1.26
   7  -6   2    3.78    0.97
   8  -6   2   10.49    1.55
   9  -6   2   45.99    3.77
  10  -6   2    9.76    2.31
  11  -6   2   18.67    3.30
  12  -6   2   18.80    3.58
  13  -6   2   25.55    4.26
  14  -6   2    0.93    2.11
  -9  -5   2    2.66    2.22
  -8  -5   2    9.61    3.01
  -7  -5   2    0.13    1.26
  -6  -5   2   19.85    2.86
  -5  -5   2   22.84    2.97
  -4  -5   2   14.81    2.12
  -3  -5   2    5.86    1.07
  -2  -5   2   58.44    3.48
  -1  -5   2  175.17    8.59
   0  -5   2    0.21    0.40
   1  -5   2   97.87    4.87
   2  -5   2   30.75    1.77
   3  -5   2   18.46    1.42
   4  -5   2   35.28    2.36
   5  -5   2    0.23    0.36
   6  -5   2  129.04    7.83
   7  -5   2   37.03    3.06
   8  -5   2   70.06    4.62
   9  -5   2   42.68    3.94
  10  -5   2   24.25    2.92
  11  -5   2   -0.37    1.12
  12  -5   2    1.17    1.53
  13  -5   2    5.63    2.42
  14  -5   2    7.78    2.82
  -9  -4   2    7.22    2.08
  -8  -4   2    3.64    1.60
  -7  -4   2   46.25    4.81
  -6  -4   2    8.24    1.84
  -5  -4   2   44.68    4.26
  -4  -4   2   26.14    2.94
  -3  -4   2   60.73    3.92
  -2  -4   2    9.31    1.24
  -1  -4   2   34.98    2.67
   0  -4   2   81.51    3.57
   1  -4   2  211.66    9.73
   2  -4   2  131.03    5.78
   3  -4   2   47.54    2.64
   4  -4   2   79.79    4.00
   5  -4   2   97.57    5.61
   6  -4   2   -0.17    0.40
   7  -4   2   55.77    3.92
   8  -4   2   19.28    2.37
   9  -4   2   17.04    2.20
  10  -4   2    1.69    1.07
  11  -4   2   89.27    7.69
  12  -4   2    5.21    2.20
  13  -4   2    4.65    2.42
 -10  -3   2    2.28    1.68
  -9  -3   2    3.03    1.59
  -8  -3   2    5.65    1.77
  -7  -3   2   22.45    3.04
  -6  -3   2   42.23    3.98
  -5  -3   2   71.06    5.52
  -4  -3   2   55.57    4.32
  -3  -3   2  150.40    7.80
  -2  -3   2   18.56    1.27
  -1  -3   2   50.14    2.44
   0  -3   2   60.61    2.83
   1  -3   2   74.12    3.67
   2  -3   2  190.48    8.79
   3  -3   2   57.76    3.14
   4  -3   2  210.44   11.18
   5  -3   2   27.58    2.03
   6  -3   2  150.06    8.93
   7  -3   2   58.20    4.10
   8  -3   2    5.85    1.26
   9  -3   2   21.65    2.76
  10  -3   2    2.93    1.30
  11  -3   2   -0.68    1.25
  12  -3   2   11.83    3.08
  13  -3   2    0.29    1.90
 -11  -2   2    3.31    2.29
 -10  -2   2   18.01    2.95
  -9  -2   2    6.86    1.89
  -8  -2   2   12.92    2.36
  -7  -2   2    9.12    1.90
  -6  -2   2    3.80    1.21
  -5  -2   2   36.70    2.79
  -4  -2   2    0.27    0.46
  -3  -2   2   29.84    2.06
  -2  -2   2  127.71    5.89
  -1  -2   2  177.57    8.82
   0  -2   2  462.54   18.91
   1  -2   2  252.74   12.17
   2  -2   2  470.18   21.10
   3  -2   2   74.44    3.64
   4  -2   2  131.67    6.68
   5  -2   2   17.83    1.72
   6  -2   2   10.10    1.37
   7  -2   2   62.31    3.92
   8  -2   2   22.20    2.59
   9  -2   2   19.96    2.58
  10  -2   2   70.59    6.20
  11  -2   2   15.64    3.30
  12  -2   2    4.31    2.38
  13  -2   2    6.58    2.81
 -11  -1   2    5.51    2.29
 -10  -1   2    0.72    1.54
  -9  -1   2    7.94    1.90
  -8  -1   2    1.79    1.04
  -7  -1   2    5.01    1.43
  -6  -1   2    5.69    1.04
  -5  -1   2  144.16    7.10
  -4  -1   2   99.25    5.08
  -3  -1   2  199.72    9.87
  -2  -1   2   73.38    3.79
  -1  -1   2  251.70   12.23
   0  -1   2   62.26    3.09
   1  -1   2   65.12    3.57
   2  -1   2  251.15   14.11
   3  -1   2  187.79   10.15
   4  -1   2   47.74    3.15
   5  -1   2   36.18    2.50
   6  -1   2  171.69    8.46
   7  -1   2   50.11    4.27
   8  -1   2   51.50    4.51
   9  -1   2   25.94    3.21
  10  -1   2    5.86    1.69
  11  -1   2    3.27    1.58
  12  -1   2   15.63    3.65
 -12   0   2    5.28    2.48
 -11   0   2    3.48    2.04
 -10   0   2   38.52    4.95
  -9   0   2    6.60    1.93
  -8   0   2   27.49    2.57
  -7   0   2   35.61    2.87
  -6   0   2   11.51    1.46
  -5   0   2    0.07    0.46
  -4   0   2   77.16    3.67
  -3   0   2   60.86    2.93
  -2   0   2  464.88   21.24
  -1   0   2   62.08    3.09
   0   0   2  423.29   18.44
   1   0   2   60.02    3.51
   2   0   2  454.45   24.42
   3   0   2   58.93    3.68
   4   0   2   76.30    4.72
   5   0   2    0.09    0.37
   6   0   2   13.17    1.38
   7   0   2   34.59    3.35
   8   0   2   23.10    2.88
   9   0   2    6.36    1.64
  10   0   2   31.39    3.65
  11   0   2    3.61    1.70
  12   0   2    3.28    2.40
 -13   1   2    4.63    5.15
 -12   1   2    7.73    2.66
 -11   1   2    2.13    1.72
 -10   1   2    4.27    1.97
  -9   1   2   23.17    2.73
  -8   1   2   51.26    4.38
  -7   1   2   56.07    4.45
  -6   1   2  165.56    8.69
  -5   1   2   37.73    2.37
  -4   1   2   44.69    2.53
  -3   1   2  183.04    7.97
  -2   1   2  255.88   14.19
  -1   1   2   60.57    3.58
   0   1   2   60.27    3.55
   1   1   2  256.15   14.05
   2   1   2   78.57    4.29
   3   1   2  210.01   13.87
   4   1   2   95.62    7.06
   5   1   2  140.60    7.99
   6   1   2    6.34    1.00
   7   1   2    6.11    1.80
   8   1   2    2.57    1.42
   9   1   2    6.77    2.10
  10   1   2    3.17    1.65
  11   1   2    2.57    1.66
 -13   2   2    4.47    2.35
 -12   2   2    2.10    1.85
 -11   2   2   10.47    2.14
 -10   2   2   78.08    6.27
  -9   2   2   17.84    2.54
  -8   2   2   21.17    2.57
  -7   2   2   58.75    4.20
  -6   2   2   10.18    1.21
  -5   2   2   20.98    1.72
  -4   2   2  132.60    6.00
  -3   2   2   73.13    3.82
  -2   2   2  466.34   21.22
  -1   2   2  254.11   14.06
   0   2   2  462.11   24.37
   1   2   2  188.56   10.13
   2   2   2  132.65    8.13
   4   2   2    0.09    0.54
   5   2   2   38.93    2.72
   6   2   2    5.92    1.01
   7   2   2    8.46    1.63
   8   2   2   14.86    3.11
   9   2   2    9.18    2.60
  10   2   2   12.53    3.38
  11   2   2    2.54    2.05
 -13   3   2    1.24    1.78
 -12   3   2    9.85    2.08
 -11   3   2   -0.11    1.07
 -10   3   2    2.10    1.22
  -9   3   2   21.08    2.73
  -8   3   2    3.66    1.17
  -7   3   2   64.47    3.84
  -6   3   2  153.13    7.89
  -5   3   2   30.88    2.15
  -4   3   2  203.27    9.85
  -3   3   2   59.99    3.28
  -2   3   2  184.72   10.34
  -1   3   2   72.26    3.67
   0   3   2   59.47    3.17
   1   3   2   49.55    3.20
   2   3   2   22.29    2.15
   4   3   2   59.48    4.61
   5   3   2   67.09    3.90
   6   3   2   47.48    3.91
   7   3   2   24.72    2.95
   8   3   2    7.30    2.50
   9   3   2    0.31    1.80
  10   3   2    0.35    1.97
 -14   4   2    5.25    3.55
 -13   4   2    8.78    2.09
 -12   4   2    7.44    1.92
 -11   4   2   76.75    6.32
 -10   4   2    1.55    1.06
  -9   4   2   17.29    2.24
  -8   4   2   24.70    2.24
  -7   4   2   62.90    3.71
  -6   4   2    0.31    0.47
  -5   4   2  101.42    5.04
  -4   4   2   78.30    4.12
  -3   4   2   52.83    3.53
  -2   4   2  130.31    6.86
  -1   4   2  214.08    9.68
   0   4   2   77.20    4.69
   1   4   2   37.61    2.91
   2   4   2    8.73    1.21
   3   4   2   59.66    4.05
   4   4   2   23.47    2.06
   5   4   2   51.73    3.54
   6   4   2   13.10    2.35
   7   4   2   44.46    4.43
   8   4   2    2.17    1.89
   9   4   2    6.55    2.53
  10   4   2    2.45    2.36
 -14   5   2    2.93    2.18
 -13   5   2    2.49    2.09
 -12   5   2    1.13    1.24
 -11   5   2    0.69    1.14
 -10   5   2   16.54    2.63
  -9   5   2   44.49    4.12
  -8   5   2   68.93    4.26
  -7   5   2   40.02    2.75
  -6   5   2  141.84    7.02
  -5   5   2    1.25    0.74
  -4   5   2   35.28    3.30
  -3   5   2   21.76    2.06
  -2   5   2   31.73    2.23
  -1   5   2  100.92    5.68
   0   5   2    0.36    0.39
   1   5   2  172.55    8.45
   2   5   2   63.49    3.26
   3   5   2    5.91    1.00
   4   5   2   14.59    1.92
   5   5   2   25.59    2.78
   6   5   2   22.91    3.44
   7   5   2    0.11    1.19
   8   5   2    9.07    2.88
   9   5   2    0.04    2.04
 -14   6   2    1.04    2.11
 -13   6   2   18.16    3.61
 -12   6   2   12.09    3.05
 -11   6   2   19.77    3.63
 -10   6   2   12.68    2.66
  -9   6   2   49.67    4.10
  -8   6   2    3.47    1.20
  -7   6   2    4.79    1.01
  -6   6   2   12.19    1.46
  -5   6   2  174.96    8.69
  -4   6   2   11.09    1.34
  -3   6   2  154.97    7.91
  -2   6   2    0.70    0.49
  -1   6   2  139.22    8.19
   0   6   2   11.76    1.64
   1   6   2   55.86    4.13
   2   6   2   23.59    2.49
   3   6   2   28.65    2.97
   4   6   2    0.41    1.08
   5   6   2    0.38    0.96
   6   6   2   22.31    3.71
   7   6   2    0.76    1.47
   8   6   2    2.08    2.01
 -14   7   2    5.16    2.42
 -13   7   2    0.81    1.74
 -12   7   2   -0.61    1.46
 -11   7   2   45.61    5.75
 -10   7   2   28.72    3.20
  -9   7   2    6.66    1.64
  -8   7   2    4.28    1.24
  -7   7   2   31.76    2.73
  -6   7   2   58.98    3.73
  -5   7   2   58.84    3.57
  -4   7   2   62.59    4.72
  -3   7   2   53.54    4.52
  -2   7   2   31.68    3.27
  -1   7   2    3.70    1.19
   0   7   2   30.94    3.12
   1   7   2   64.09    6.02
   2   7   2   19.95    2.54
   3   7   2    3.18    1.16
   4   7   2   86.16    7.26
   5   7   2    2.59    1.27
   6   7   2   23.75    4.05
   7   7   2    4.60    2.04
 -14   8   2    1.39    2.10
 -13   8   2    4.26    2.05
 -12   8   2    4.01    2.04
 -11   8   2    5.49    1.97
 -10   8   2   15.79    2.51
  -9   8   2    0.92    1.08
  -8   8   2   25.57    4.01
  -7   8   2   57.60    4.74
  -6   8   2   23.66    2.80
  -5   8   2    4.68    1.28
  -4   8   2   21.15    2.75
  -3   8   2   75.72    5.68
  -2   8   2    3.80    1.17
  -1   8   2    3.50    1.18
   0   8   2   25.49    3.75
   1   8   2   22.04    3.52
   2   8   2   79.94    5.98
   3   8   2    1.31    1.38
   4   8   2    7.41    2.23
   5   8   2    7.29    2.38
   6   8   2    0.16    2.01
 -14   9   2    1.29    3.51
 -13   9   2    6.83    3.96
 -12   9   2    6.06    3.23
 -11   9   2    7.47    2.24
 -10   9   2   15.03    3.17
  -9   9   2   12.30    2.70
  -8   9   2   29.40    3.33
  -7   9   2   22.72    2.79
  -6   9   2   21.27    2.88
  -5   9   2   17.80    2.49
  -4   9   2   50.85    4.55
  -3   9   2   45.65    4.14
  -2   9   2    5.16    1.85
  -1   9   2    3.05    1.45
   0   9   2    7.06    1.98
   1   9   2    4.25    1.33
   2   9   2   14.42    2.82
   3   9   2   15.80    3.01
   4   9   2   11.94    2.96
   5   9   2   11.14    3.21
 -13  10   2    3.66    3.18
 -12  10   2   20.95    5.87
 -11  10   2    2.40    1.94
 -10  10   2   27.20    4.55
  -9  10   2    5.32    2.11
  -8  10   2   83.47    6.66
  -7  10   2    3.49    1.37
  -6  10   2    2.19    1.32
  -5  10   2   21.29    3.04
  -4  10   2    7.43    1.79
  -3  10   2   18.12    3.45
  -2  10   2   20.81    3.64
  -1  10   2   12.92    2.81
   0  10   2   34.75    3.66
   1  10   2    2.93    1.76
   2  10   2    3.03    1.88
   3  10   2    0.88    1.81
   4  10   2    5.02    2.74
 -13  11   2   -0.12    3.02
 -12  11   2    2.32    2.14
 -11  11   2    7.01    2.58
 -10  11   2    3.03    2.04
  -9  11   2    9.59    2.83
  -8  11   2   -0.18    1.23
  -7  11   2   76.46    6.56
  -6  11   2    0.15    1.11
  -5  11   2   15.24    3.32
  -4  11   2   37.04    5.62
  -3  11   2    8.23    2.72
  -2  11   2    4.25    2.13
  -1  11   2    1.41    1.41
   0  11   2    3.93    1.67
   1  11   2   11.92    3.12
   2  11   2    4.01    2.23
 -12  12   2    7.25    2.86
 -11  12   2    9.15    3.14
 -10  12   2    3.14    2.17
  -9  12   2    9.18    2.94
  -8  12   2    8.35    2.28
  -7  12   2    0.72    1.74
  -6  12   2   27.57    4.61
  -5  12   2   -1.22    1.39
  -4  12   2    5.65    2.43
  -3  12   2    4.60    2.29
  -2  12   2   12.18    2.56
  -1  12   2    0.24    1.50
   0  12   2    4.69    2.36
 -12  13   2   -1.91    2.20
 -11  13   2    4.63    2.70
 -10  13   2    0.87    2.16
  -9  13   2   11.12    3.38
  -8  13   2    4.87    2.56
  -7  13   2   20.01    4.29
  -6  13   2    1.87    2.27
  -5  13   2    6.28    2.71
  -4  13   2    3.93    2.34
  -3  13   2   -0.96    1.39
  -2  13   2    5.41    2.02
  -9  14   2    4.48    4.18
  -8  14   2    0.70    2.31
  -7  14   2    3.93    2.52
  -6  14   2    4.68    2.83
  -5  14   2    1.41    1.83
  -4  14   2    1.69    2.80
   3 -13   3    5.11    3.40
   4 -13   3    2.79    2.53
   5 -13   3    0.50    1.94
   6 -13   3    1.18    2.55
   7 -13   3   14.54    4.73
   8 -13   3    4.96    3.04
   9 -13   3   16.13    5.03
  10 -13   3    4.11    3.40
   0 -12   3    1.41    3.55
   1 -12   3    3.26    2.26
   2 -12   3    3.29    1.92
   3 -12   3    1.98    1.81
   4 -12   3   20.25    3.65
   5 -12   3    2.25    1.71
   6 -12   3    3.20    1.90
   7 -12   3    7.45    2.40
   8 -12   3    0.76    1.36
   9 -12   3    2.53    1.79
  10 -12   3   -0.30    1.69
  11 -12   3    8.90    2.56
  -2 -11   3    0.39    2.05
  -1 -11   3    2.70    1.74
   0 -11   3    5.84    1.80
   1 -11   3   -0.01    1.12
   2 -11   3   14.29    3.08
   3 -11   3    4.79    1.99
   4 -11   3    5.97    2.03
   5 -11   3   17.28    3.28
   6 -11   3    4.53    1.81
   7 -11   3    2.20    1.33
   8 -11   3    5.85    2.06
   9 -11   3   25.24    3.65
  10 -11   3    3.85    1.89
  11 -11   3    3.74    2.22
  12 -11   3    2.37    1.99
  13 -11   3    6.72    3.42
  -3 -10   3    2.27    2.12
  -2 -10   3    0.29    1.46
  -1 -10   3    6.18    1.86
   0 -10   3   27.40    3.52
   1 -10   3   12.75    2.33
   2 -10   3   37.17    3.83
   3 -10   3    0.48    1.01
   4 -10   3    1.91    1.32
   5 -10   3    7.73    2.27
   6 -10   3    2.15    1.33
   7 -10   3    4.01    1.70
   8 -10   3    8.33    2.22
   9 -10   3   -0.47    1.05
  10 -10   3   24.60    4.03
  11 -10   3    3.29    1.94
  12 -10   3    2.10    1.86
  13 -10   3    8.69    2.88
  -4  -9   3   12.06    3.23
  -3  -9   3    2.84    2.02
  -2  -9   3   21.04    3.03
  -1  -9   3    0.56    1.08
   0  -9   3    2.40    1.16
   1  -9   3   25.58    2.95
   2  -9   3    7.53    1.52
   3  -9   3    1.32    0.88
   4  -9   3    0.76    1.13
   5  -9   3  111.90    7.87
   6  -9   3   22.24    3.17
   7  -9   3   30.11    4.01
   8  -9   3    3.41    1.42
   9  -9   3    1.99    1.32
  10  -9   3   15.42    2.36
  11  -9   3    8.30    1.92
  12  -9   3   -0.45    1.16
  13  -9   3    1.49    1.61
  -5  -8   3    4.96    2.38
  -4  -8   3   -0.92    1.55
  -3  -8   3    7.47    2.57
  -2  -8   3    6.58    1.75
  -1  -8   3    1.71    1.16
   0  -8   3    1.26    0.97
   1  -8   3   88.08    5.49
   2  -8   3   25.83    2.83
   3  -8   3   93.35    6.29
   4  -8   3   23.86    3.37
   5  -8   3   10.36    1.53
   6  -8   3    1.06    0.73
   7  -8   3   11.79    1.72
   8  -8   3    1.68    0.91
   9  -8   3   24.18    2.72
  10  -8   3   45.63    4.15
  11  -8   3    9.55    2.06
  12  -8   3   20.67    2.99
  13  -8   3   -2.60    1.65
  -6  -7   3   16.70    3.62
  -5  -7   3    1.97    1.89
  -4  -7   3    0.70    1.47
  -3  -7   3    1.26    1.44
  -2  -7   3   32.74    3.56
  -1  -7   3    7.73    1.64
   0  -7   3   40.52    3.56
   1  -7   3   46.08    3.14
   2  -7   3    8.65    1.20
   3  -7   3   52.58    3.30
   4  -7   3   13.94    1.73
   5  -7   3   12.27    1.58
   6  -7   3  124.70    8.31
   7  -7   3   42.80    3.44
   8  -7   3   88.85    5.41
   9  -7   3    6.28    1.30
  10  -7   3    0.96    1.00
  11  -7   3    8.69    2.46
  12  -7   3   -0.08    1.44
  13  -7   3    0.08    1.94
  -7  -6   3   -0.31    1.80
  -6  -6   3    5.90    2.14
  -5  -6   3    7.08    2.38
  -4  -6   3    3.37    1.81
  -3  -6   3   23.91    2.85
  -2  -6   3    0.48    0.68
  -1  -6   3  124.10    7.32
   0  -6   3   43.50    2.84
   1  -6   3   16.13    1.61
   2  -6   3   32.28    2.51
   3  -6   3  105.91    5.16
   4  -6   3   44.47    2.65
   5  -6   3    9.65    1.53
   6  -6   3   36.09    2.97
   7  -6   3   42.13    3.57
   8  -6   3   19.96    2.66
   9  -6   3    2.95    1.27
  10  -6   3   -1.30    0.94
  11  -6   3   19.54    3.49
  12  -6   3    3.96    2.05
  13  -6   3   11.08    3.08
  -8  -5   3   -0.51    1.72
  -7  -5   3    1.67    1.41
  -6  -5   3   19.22    2.79
  -5  -5   3    4.05    1.44
  -4  -5   3  116.96    6.72
  -3  -5   3    8.17    1.66
  -2  -5   3   11.34    1.75
  -1  -5   3   10.07    1.42
   0  -5   3   85.15    4.26
   1  -5   3    7.55    0.76
   2  -5   3   62.37    3.32
   3  -5   3   21.08    1.56
   4  -5   3  137.38    6.95
   5  -5   3   79.53    4.85
   6  -5   3   17.36    2.00
   7  -5   3   10.66    1.59
   8  -5   3   77.45    7.66
   9  -5   3    1.88    1.32
  10  -5   3    6.29    1.95
  11  -5   3    5.02    2.10
  12  -5   3    4.17    2.00
  13  -5   3    5.00    2.37
  -9  -4   3    3.11    1.76
  -8  -4   3   17.59    2.89
  -7  -4   3    9.15    2.03
  -6  -4   3    0.79    1.03
  -5  -4   3    2.70    1.15
  -4  -4   3   27.83    3.08
  -3  -4   3    9.04    1.60
  -2  -4   3   46.82    3.69
  -1  -4   3  139.64    6.95
   0  -4   3  101.58    4.07
   1  -4   3  189.93    9.69
   2  -4   3    8.10    0.89
   3  -4   3   20.44    1.46
   4  -4   3   90.60    5.26
   5  -4   3    6.79    1.12
   6  -4   3   31.27    2.93
   7  -4   3   54.11    5.34
   8  -4   3   22.71    3.30
   9  -4   3  101.54    7.76
  10  -4   3    2.36    1.47
  11  -4   3    0.74    1.56
  12  -4   3    1.93    1.93
  13  -4   3   13.46    3.36
 -10  -3   3    6.01    1.97
  -9  -3   3    0.10    1.21
  -8  -3   3    7.16    1.97
  -7  -3   3    2.45    1.22
  -6  -3   3    1.26    0.98
  -5  -3   3   88.35    6.77
  -4  -3   3   49.28    4.45
  -3  -3   3   99.32    6.30
  -2  -3   3   21.48    1.74
  -1  -3   3   24.94    1.80
   0  -3   3   89.90    5.05
   1  -3   3   21.06    1.99
   2  -3   3   77.21    4.84
   3  -3   3   94.30    5.87
   4  -3   3  195.29   11.29
   5  -3   3   61.55    3.95
   6  -3   3  102.82    6.12
   7  -3   3    9.01    1.83
   8  -3   3    6.67    1.76
   9  -3   3   22.94    3.35
  10  -3   3    1.25    1.39
  11  -3   3    4.46    2.05
  12  -3   3    0.27    1.71
  13  -3   3    1.99    2.03
 -11  -2   3    5.40    3.55
 -10  -2   3    5.20    1.91
  -9  -2   3    8.89    2.09
  -8  -2   3   40.53    4.37
  -7  -2   3    4.33    1.36
  -6  -2   3   24.73    3.13
  -5  -2   3    6.24    1.45
  -4  -2   3   32.24    2.70
  -3  -2   3   65.10    3.71
  -2  -2   3    7.00    0.93
  -1  -2   3   81.66    4.22
   0  -2   3  220.35    9.14
   1  -2   3   35.85    2.34
   2  -2   3  215.68   10.52
   3  -2   3   20.22    1.93
   4  -2   3    7.90    0.78
   5  -2   3   21.26    1.67
   6  -2   3   49.97    4.42
   7  -2   3    7.66    1.80
   8  -2   3   -0.64    0.82
   9  -2   3   36.20    4.46
  10  -2   3    5.99    2.08
  11  -2   3   24.60    4.10
  12  -2   3    0.48    1.75
  13  -2   3    1.31    4.35
 -11  -1   3    3.28    2.15
 -10  -1   3   -0.33    1.40
  -9  -1   3    6.96    2.00
  -8  -1   3   21.16    2.81
  -7  -1   3   88.95    6.00
  -6  -1   3   41.73    3.19
  -5  -1   3   16.43    1.82
  -4  -1   3    6.36    0.97
  -3  -1   3  192.96    9.84
  -2  -1   3   20.69    1.73
  -1  -1   3   32.21    2.06
   0  -1   3   28.04    1.83
   1  -1   3   29.51    2.12
   2  -1   3   32.82    2.36
   3  -1   3   76.11    4.82
   4  -1   3   23.14    1.61
   5  -1   3  133.12    6.93
   6  -1   3    8.67    1.51
   7  -1   3  119.89   10.38
   8  -1   3   13.04    2.45
   9  -1   3    2.93    1.54
  10  -1   3    2.55    1.71
  11  -1   3    2.81    2.12
  12  -1   3    3.88    2.39
 -12   0   3   10.90    4.23
 -11   0   3    7.48    2.61
 -10   0   3   19.33    3.88
  -9   0   3    2.61    1.78
  -8   0   3   -0.65    0.83
  -7   0   3   40.71    3.12
  -6   0   3   33.20    2.71
  -5   0   3   82.94    4.41
  -4   0   3   97.22    4.18
  -3   0   3   96.20    5.19
  -2   0   3  218.20    9.16
  -1   0   3   29.17    1.81
   0   0   3    0.15    0.20
   1   0   3   28.99    1.81
   2   0   3  215.40   10.47
   3   0   3   94.98    5.01
   4   0   3  102.88    4.58
   5   0   3   84.06    4.90
   6   0   3   31.11    2.91
   7   0   3   40.07    3.64
   8   0   3    0.22    1.19
   9   0   3    2.51    1.44
  10   0   3   27.13    4.42
  11   0   3    7.18    2.54
  12   0   3   10.72    4.58
 -12   1   3    2.48    2.27
 -11   1   3    6.00    2.41
 -10   1   3    0.61    1.40
  -9   1   3    0.70    1.08
  -8   1   3   11.55    1.86
  -7   1   3  133.10    8.64
  -6   1   3   10.11    1.71
  -5   1   3  135.72    6.30
  -4   1   3   21.35    1.57
  -3   1   3   84.08    5.03
  -2   1   3   32.27    2.53
  -1   1   3   28.84    2.17
   0   1   3   29.86    2.17
   1   1   3   34.14    2.19
   2   1   3   18.16    1.75
   3   1   3  193.12   11.21
   4   1   3    7.89    0.97
   5   1   3   18.68    2.06
   6   1   3   46.38    3.78
   7   1   3   92.95    5.64
   8   1   3   17.73    3.24
   9   1   3   15.73    3.20
  10   1   3   -0.75    1.39
  11   1   3    1.26    1.99
 -13   2   3    0.36    2.90
 -12   2   3   -0.64    1.59
 -11   2   3   26.13    4.13
 -10   2   3    8.64    1.89
  -9   2   3   35.19    3.55
  -8   2   3    0.23    0.83
  -7   2   3   13.22    1.87
  -6   2   3   42.42    2.86
  -5   2   3   25.18    2.00
  -4   2   3    7.74    1.08
  -3   2   3   19.19    1.75
  -2   2   3  213.47   10.55
  -1   2   3   34.65    2.39
   0   2   3  213.75    8.97
   1   2   3   80.74    4.12
   2   2   3    7.42    0.91
   3   2   3   63.20    3.89
   4   2   3   35.27    2.59
   5   2   3    9.29    1.51
   6   2   3   27.37    3.02
   7   2   3    6.41    1.49
   8   2   3   33.11    4.94
   9   2   3    7.14    2.43
  10   2   3    5.64    2.53
  11   2   3    2.42    3.58
 -13   3   3    0.93    2.00
 -12   3   3    2.69    1.91
 -11   3   3    7.00    1.77
 -10   3   3    1.52    1.21
  -9   3   3   23.27    2.76
  -8   3   3    5.73    1.50
  -7   3   3   12.63    1.89
  -6   3   3  106.50    5.42
  -5   3   3   65.44    3.65
  -4   3   3  194.05    9.87
  -3   3   3   94.84    5.17
  -2   3   3   80.95    4.23
  -1   3   3   19.93    1.60
   0   3   3   90.03    5.71
   1   3   3   23.02    1.84
   2   3   3   22.19    1.90
   3   3   3   99.40    5.16
   4   3   3   50.51    3.85
   5   3   3   89.35    4.84
   6   3   3    0.92    0.77
   7   3   3    2.76    1.26
   8   3   3    7.69    2.32
   9   3   3   -0.45    1.70
  10   3   3    5.76    2.71
 -13   4   3   13.77    4.99
 -12   4   3    5.10    2.13
 -11   4   3    2.15    1.72
 -10   4   3    3.10    1.33
  -9   4   3  122.11    6.65
  -8   4   3   29.86    3.05
  -7   4   3   57.31    3.76
  -6   4   3   34.66    2.76
  -5   4   3    6.08    0.94
  -4   4   3   95.87    4.67
  -3   4   3   17.64    2.06
  -2   4   3    7.84    1.21
  -1   4   3  190.76    9.69
   0   4   3   99.47    4.56
   1   4   3  136.82    6.94
   2   4   3   46.43    2.71
   3   4   3   11.67    1.37
   4   4   3   26.69    2.07
   5   4   3    1.27    0.52
   6   4   3    0.07    0.70
   7   4   3    5.97    1.67
   8   4   3   22.37    3.87
   9   4   3    2.51    2.14
 -13   5   3    4.56    2.22
 -12   5   3    4.56    2.22
 -11   5   3    2.89    1.84
 -10   5   3    2.29    1.77
  -9   5   3    0.27    1.17
  -8   5   3   90.55    6.92
  -7   5   3    8.49    1.64
  -6   5   3   12.77    2.01
  -5   5   3   80.09    5.36
  -4   5   3  131.38    8.33
  -3   5   3   25.08    2.42
  -2   5   3   61.92    4.23
  -1   5   3    7.94    1.22
   0   5   3   75.47    5.05
   1   5   3   10.52    1.54
   2   5   3   13.33    1.36
   3   5   3    7.47    1.08
   4   5   3  113.11    4.48
   5   5   3    5.18    1.08
   6   5   3   22.59    2.48
   7   5   3    0.53    1.33
   8   5   3   -0.72    2.46
 -14   6   3    0.37    3.01
 -13   6   3   13.99    3.07
 -12   6   3    4.65    2.18
 -11   6   3   25.68    3.98
 -10   6   3    1.99    1.48
  -9   6   3    3.07    1.66
  -8   6   3   21.31    2.90
  -7   6   3   41.84    3.89
  -6   6   3   34.43    3.39
  -5   6   3   10.57    1.82
  -4   6   3   46.11    3.81
  -3   6   3  103.26    6.28
  -2   6   3   32.94    3.07
  -1   6   3   17.62    1.99
   0   6   3   39.53    4.14
   1   6   3  122.65    8.50
   2   6   3    0.01    0.78
   3   6   3   24.97    2.76
   4   6   3    2.33    1.19
   5   6   3    4.65    1.50
   6   6   3    5.06    1.75
   7   6   3    0.11    1.85
   8   6   3    4.19    5.46
 -14   7   3    3.45    3.36
 -13   7   3    0.11    1.89
 -12   7   3    0.71    1.79
 -11   7   3    4.43    2.12
 -10   7   3    3.99    1.87
  -9   7   3    8.64    1.76
  -8   7   3   87.34    6.19
  -7   7   3   44.65    3.95
  -6   7   3  124.00    8.67
  -5   7   3    9.89    1.84
  -4   7   3   15.75    2.80
  -3   7   3   58.74    6.03
  -2   7   3    6.03    1.93
  -1   7   3   48.10    4.13
   0   7   3   45.37    3.85
   1   7   3    8.96    1.73
   2   7   3   35.85    4.49
   3   7   3    2.78    1.23
   4   7   3   -0.08    1.15
   5   7   3    1.23    1.51
   6   7   3   19.72    3.71
   7   7   3    6.90    4.47
 -14   8   3   -1.29    2.30
 -13   8   3    0.82    1.89
 -12   8   3   14.78    3.41
 -11   8   3    7.74    2.39
 -10   8   3   40.44    4.19
  -9   8   3   27.49    3.77
  -8   8   3    3.78    1.67
  -7   8   3   12.99    2.16
  -6   8   3    0.02    0.87
  -5   8   3    8.50    1.75
  -4   8   3   27.43    3.16
  -3   8   3   87.86    7.07
  -2   8   3   23.91    3.06
  -1   8   3   88.45    5.91
   0   8   3    0.60    1.09
   1   8   3    0.26    1.34
   2   8   3    6.14    2.20
   3   8   3    4.61    2.00
   4   8   3    0.53    1.46
   5   8   3    5.62    2.47
   6   8   3    0.62    2.30
 -13   9   3    2.23    3.57
 -12   9   3    0.85    2.89
 -11   9   3    6.83    3.81
 -10   9   3   15.50    3.45
  -9   9   3    2.96    1.96
  -8   9   3    3.78    1.41
  -7   9   3   30.52    3.58
  -6   9   3   28.22    3.16
  -5   9   3  112.37    7.12
  -4   9   3    2.05    1.20
  -3   9   3    1.81    1.12
  -2   9   3    5.25    1.51
  -1   9   3   24.69    3.89
   0   9   3    3.45    1.70
   1   9   3    0.79    1.45
   2   9   3   25.51    3.17
   3   9   3    2.29    1.79
   4   9   3    9.27    2.70
 -13  10   3    7.46    4.14
 -12  10   3    4.77    3.76
 -11  10   3    3.57    1.99
 -10  10   3   24.15    4.25
  -9  10   3    3.24    1.97
  -8  10   3   12.10    2.26
  -7  10   3    0.46    1.22
  -6  10   3    2.83    1.45
  -5  10   3    3.94    1.56
  -4  10   3    0.26    1.02
  -3  10   3    0.95    1.38
  -2  10   3   37.04    5.16
  -1  10   3   11.76    2.94
   0  10   3   20.34    3.93
   1  10   3    0.81    1.39
   2  10   3    0.14    1.72
   3  10   3   -0.33    1.91
 -12  11   3    6.01    3.82
 -11  11   3    6.76    2.78
 -10  11   3    4.96    2.26
  -9  11   3   25.74    4.42
  -8  11   3    3.38    1.58
  -7  11   3    2.08    1.52
  -6  11   3    5.90    1.99
  -5  11   3   20.96    3.15
  -4  11   3    6.77    2.46
  -3  11   3    4.61    2.15
  -2  11   3   10.27    2.82
  -1  11   3    3.17    1.96
   0  11   3    8.79    2.25
   1  11   3    5.48    2.48
   2  11   3    2.49    4.16
 -12  12   3    9.43    4.59
 -11  12   3    5.57    2.74
 -10  12   3   -1.33    1.83
  -9  12   3    1.40    2.12
  -8  12   3    0.31    1.54
  -7  12   3    2.59    1.80
  -6  12   3    3.35    2.06
  -5  12   3    2.58    2.04
  -4  12   3   18.53    3.99
  -3  12   3   -0.08    1.73
  -2  12   3    1.05    1.87
  -1  12   3    3.09    1.83
 -11  13   3   -0.95    2.74
 -10  13   3    1.92    2.38
  -9  13   3   12.10    3.47
  -8  13   3    3.80    2.65
  -7  13   3   16.53    3.76
  -6  13   3    1.49    2.27
  -5  13   3    0.03    1.92
  -4  13   3    1.86    2.41
  -3  13   3    9.45    3.10
  -2  13   3    3.48    3.76
  -8  14   3    1.57    3.13
  -7  14   3   10.00    4.83
   4 -13   4    8.08    4.07
   5 -13   4   20.65    4.27
   6 -13   4    6.98    2.66
   7 -13   4   -0.26    1.65
   8 -13   4    1.98    2.46
   9 -13   4    6.01    3.86
   2 -12   4   11.94    3.39
   3 -12   4    0.44    1.81
   4 -12   4    6.63    2.50
   5 -12   4    0.85    1.62
   6 -12   4    2.57    1.87
   7 -12   4    0.21    1.53
   8 -12   4    8.03    2.58
   9 -12   4    1.62    1.76
  10 -12   4   23.36    4.05
  11 -12   4    4.70    3.68
   0 -11   4    2.18    2.05
   1 -11   4    1.05    1.71
   2 -11   4    3.45    1.93
   3 -11   4    7.10    2.40
   4 -11   4    4.88    2.01
   5 -11   4    8.36    2.43
   6 -11   4    7.34    2.33
   7 -11   4   43.12    5.65
   8 -11   4   -1.57    1.34
   9 -11   4    5.76    2.24
  10 -11   4    1.73    1.81
  11 -11   4    3.08    2.00
  -2 -10   4   22.39    4.44
  -1 -10   4   -0.17    1.53
   0 -10   4    8.01    2.53
   1 -10   4    0.74    1.57
   2 -10   4    6.25    2.18
   3 -10   4   11.31    2.74
   4 -10   4    5.96    2.05
   5 -10   4    6.71    2.27
   6 -10   4   14.52    3.02
   7 -10   4    4.90    1.87
   8 -10   4    3.84    1.87
   9 -10   4    0.47    1.44
  10 -10   4    3.34    1.87
  11 -10   4    0.39    1.71
  12 -10   4   14.78    3.27
  -4  -9   4   -0.75    3.53
  -3  -9   4    3.32    2.07
  -2  -9   4    5.61    2.41
  -1  -9   4    1.37    1.71
   0  -9   4   22.55    3.87
   1  -9   4    3.34    1.63
   2  -9   4   33.84    4.34
   3  -9   4   26.41    3.92
   4  -9   4    2.28    1.53
   5  -9   4   18.70    3.12
   6  -9   4    1.87    1.40
   7  -9   4   17.50    2.96
   8  -9   4    8.47    2.20
   9  -9   4   28.16    4.21
  10  -9   4    4.94    1.52
  11  -9   4    3.19    1.56
  12  -9   4    2.43    1.56
  13  -9   4    1.50    2.69
  -5  -8   4    4.71    3.17
  -4  -8   4   12.89    3.27
  -3  -8   4    0.04    1.69
  -2  -8   4    1.96    1.65
  -1  -8   4    6.66    2.23
   0  -8   4   39.15    5.25
   1  -8   4   10.99    2.39
   2  -8   4   11.61    2.31
   3  -8   4    8.60    2.03
   4  -8   4    2.57    1.33
   5  -8   4   70.59    5.28
   6  -8   4    1.52    0.95
   7  -8   4    1.79    0.98
   8  -8   4   45.98    4.28
   9  -8   4    7.25    1.73
  10  -8   4    5.12    1.45
  11  -8   4    5.65    1.76
  12  -8   4    2.35    1.45
  13  -8   4   16.27    3.46
  -6  -7   4    1.85    2.57
  -5  -7   4   -2.18    1.48
  -4  -7   4   38.86    5.77
  -3  -7   4    6.51    2.18
  -2  -7   4   10.52    2.56
  -1  -7   4    0.84    1.26
   0  -7   4    5.85    1.36
   1  -7   4   21.30    2.53
   2  -7   4    7.23    1.45
   3  -7   4   15.67    2.08
   4  -7   4   61.93    4.60
   5  -7   4   30.07    2.94
   6  -7   4   36.22    3.36
   7  -7   4    6.77    1.39
   8  -7   4   10.62    1.80
   9  -7   4   26.32    3.09
  10  -7   4   15.02    2.32
  11  -7   4    4.99    1.68
  12  -7   4    0.62    1.40
  13  -7   4    7.24    2.49
  -7  -6   4    6.79    3.59
  -6  -6   4    1.87    1.88
  -5  -6   4    9.86    2.68
  -4  -6   4   22.79    3.28
  -3  -6   4    5.23    1.59
  -2  -6   4    1.38    0.98
  -1  -6   4   38.57    3.68
   0  -6   4    0.07    0.70
   1  -6   4  125.70    7.74
   2  -6   4    0.79    0.76
   3  -6   4   32.20    2.64
   4  -6   4    4.68    1.08
   5  -6   4   20.65    2.09
   6  -6   4   -0.23    0.62
   7  -6   4   22.21    2.47
   8  -6   4    6.19    1.46
   9  -6   4   33.76    3.43
  10  -6   4    8.32    1.81
  11  -6   4    7.91    1.99
  12  -6   4    1.62    1.39
  13  -6   4   -0.13    1.81
  -8  -5   4   10.19    4.60
  -7  -5   4   -0.43    1.31
  -6  -5   4    5.77    1.86
  -5  -5   4    5.23    1.56
  -4  -5   4   19.93    2.74
  -3  -5   4   64.23    5.72
  -2  -5   4   25.62    3.02
  -1  -5   4   19.26    2.26
   0  -5   4   -0.19    0.63
   1  -5   4   20.67    1.83
   2  -5   4   29.15    2.69
   3  -5   4   28.54    2.60
   4  -5   4   26.13    2.40
   5  -5   4   -0.14    0.57
   6  -5   4  122.28    7.67
   7  -5   4    6.75    1.44
   8  -5   4   11.64    1.86
   9  -5   4    4.38    1.33
  10  -5   4    2.99    1.33
  11  -5   4    6.65    1.70
  12  -5   4    1.29    1.45
  13  -5   4    0.59    2.63
  -9  -4   4    4.18    2.24
  -8  -4   4    4.48    1.80
  -7  -4   4    7.32    1.99
  -6  -4   4    7.75    1.96
  -5  -4   4    1.66    1.13
  -4  -4   4    2.88    1.31
  -3  -4   4   56.23    4.97
  -2  -4   4    8.69    1.53
  -1  -4   4   28.25    2.63
   0  -4   4   26.21    2.09
   1  -4   4   30.61    2.23
   2  -4   4  146.45    8.56
   3  -4   4  243.33   14.21
   4  -4   4   28.18    2.54
   5  -4   4   21.98    2.31
   6  -4   4    1.69    0.80
   7  -4   4   18.16    2.23
   8  -4   4    2.54    1.04
   9  -4   4   16.93    2.30
  10  -4   4   20.26    2.74
  11  -4   4   43.32    4.69
  12  -4   4    5.58    2.00
  13  -4   4   -0.21    2.71
  -9  -3   4   -1.49    1.27
  -8  -3   4    5.07    1.80
  -7  -3   4   14.63    2.61
  -6  -3   4   30.63    3.58
  -5  -3   4    7.83    1.64
  -4  -3   4   19.49    2.42
  -3  -3   4   23.71    2.49
  -2  -3   4   29.95    2.31
  -1  -3   4  256.13   12.33
   0  -3   4   14.72    1.42
   1  -3   4    2.35    0.58
   2  -3   4   65.15    4.04
   3  -3   4   12.86    1.55
   4  -3   4   32.82    2.68
   5  -3   4   32.93    2.78
   6  -3   4   26.57    2.49
   7  -3   4   58.20    4.75
   8  -3   4   64.18    5.43
   9  -3   4    2.24    1.11
  10  -3   4    3.19    1.29
  11  -3   4    0.36    1.18
  12  -3   4    1.21    1.57
 -10  -2   4   13.09    3.23
  -9  -2   4    3.90    1.63
  -8  -2   4    5.57    1.71
  -7  -2   4   32.51    3.60
  -6  -2   4    7.32    1.66
  -5  -2   4    9.08    1.70
  -4  -2   4    1.69    0.96
  -3  -2   4   34.25    2.48
  -2  -2   4  139.23    7.43
  -1  -2   4   61.83    3.50
   0  -2   4   21.60    1.60
   1  -2   4   27.86    1.95
   2  -2   4   22.99    1.86
   3  -2   4    1.07    0.57
   4  -2   4  153.00    8.55
   5  -2   4   30.51    2.70
   6  -2   4    3.86    1.05
   7  -2   4   27.03    2.85
   8  -2   4    0.46    0.77
   9  -2   4   11.43    2.02
  10  -2   4    2.82    1.35
  11  -2   4    3.88    1.72
  12  -2   4   20.90    3.42
 -10  -1   4    0.56    1.63
  -9  -1   4    7.76    2.44
  -8  -1   4    1.90    1.33
  -7  -1   4   13.16    2.15
  -6  -1   4   21.98    2.82
  -5  -1   4  137.53    6.91
  -4  -1   4   17.70    1.91
  -3  -1   4   30.92    2.34
  -2  -1   4    1.67    0.59
  -1  -1   4   26.20    1.84
   0  -1   4   16.24    1.37
   1  -1   4   15.60    1.34
   2  -1   4   27.43    2.08
   3  -1   4   67.88    4.03
   4  -1   4  248.40   14.19
   5  -1   4   27.09    2.36
   6  -1   4   16.61    1.98
   7  -1   4   33.53    3.32
   8  -1   4    1.65    0.99
   9  -1   4    8.40    1.87
  10  -1   4    0.75    1.20
  11  -1   4   -0.30    1.29
  12  -1   4    5.23    3.63
 -11   0   4    1.20    1.87
 -10   0   4    8.85    2.60
  -9   0   4   22.96    3.95
  -8   0   4   51.37    6.00
  -7   0   4    7.42    1.66
  -6   0   4   -0.47    0.68
  -5   0   4    0.25    0.63
  -4   0   4   28.64    2.01
  -3   0   4   14.41    1.83
  -2   0   4   20.77    1.96
  -1   0   4   16.39    1.71
   0   0   4  934.12   50.42
   1   0   4   10.56    1.44
   2   0   4   21.73    1.95
   3   0   4   12.87    1.49
   4   0   4   28.37    2.46
   5   0   4   -0.94    0.51
   6   0   4    0.03    0.69
   7   0   4    6.57    1.45
   8   0   4   46.45    4.39
   9   0   4   21.65    3.07
  10   0   4    1.99    1.46
  11   0   4    2.41    1.69
 -12   1   4    1.08    3.01
 -11   1   4   -1.45    1.36
 -10   1   4   -1.07    1.38
  -9   1   4   13.03    2.76
  -8   1   4    1.45    1.12
  -7   1   4   39.29    3.77
  -6   1   4   21.00    2.38
  -5   1   4   24.90    2.64
  -4   1   4  258.15   12.50
  -3   1   4   62.74    4.31
  -2   1   4   28.16    2.42
  -1   1   4   15.23    1.67
   0   1   4   12.69    1.55
   1   1   4   24.86    2.19
   2   1   4    1.71    0.64
   3   1   4   32.77    2.73
   4   1   4   22.71    2.25
   5   1   4  128.67    7.67
   6   1   4   21.54    2.39
   7   1   4   12.09    1.93
   8   1   4    5.88    1.51
   9   1   4    3.98    1.52
  10   1   4    0.14    1.51
 -12   2   4   27.31    6.91
 -11   2   4    3.84    2.19
 -10   2   4    4.29    1.95
  -9   2   4   13.17    2.24
  -8   2   4    0.97    1.07
  -7   2   4   32.93    3.35
  -6   2   4    5.37    1.36
  -5   2   4   30.15    2.46
  -4   2   4  136.66    7.51
  -3   2   4    1.73    0.66
  -2   2   4   24.60    2.00
  -1   2   4   29.87    2.34
   0   2   4   21.35    1.82
   1   2   4   58.10    3.95
   2   2   4  141.77    8.45
   3   2   4   29.00    2.52
   4   2   4    1.01    0.71
   5   2   4    5.92    1.59
   6   2   4    7.53    1.66
   7   2   4   24.10    3.54
   8   2   4    4.84    1.85
   9   2   4    5.37    2.00
  10   2   4   14.64    3.42
 -12   3   4    3.78    3.34
 -11   3   4    3.43    2.37
 -10   3   4    7.94    2.23
  -9   3   4    1.85    1.55
  -8   3   4   83.83    7.72
  -7   3   4   57.01    5.09
  -6   3   4   30.92    2.44
  -5   3   4   32.49    2.53
  -4   3   4   31.43    2.43
  -3   3   4   11.66    1.43
  -2   3   4   62.88    3.65
  -1   3   4    1.14    0.54
   0   3   4   13.16    1.45
   1   3   4  262.46   14.15
   2   3   4   31.96    2.64
   3   3   4   29.84    2.42
   4   3   4   16.45    1.96
   5   3   4   11.67    1.68
   6   3   4   25.72    2.87
   7   3   4   13.19    2.09
   8   3   4    7.36    2.18
   9   3   4    2.41    1.72
 -12   4   4    7.72    2.83
 -11   4   4   54.32    6.38
 -10   4   4   23.88    3.85
  -9   4   4   13.98    2.98
  -8   4   4    1.71    1.44
  -7   4   4   15.68    2.33
  -6   4   4    1.33    0.90
  -5   4   4   18.86    2.45
  -4   4   4   26.16    2.84
  -3   4   4  249.84   14.52
  -2   4   4  133.63    8.69
  -1   4   4   28.74    2.74
   0   4   4   25.72    2.61
   1   4   4   31.41    2.72
   2   4   4    7.24    1.31
   3   4   4   56.56    4.53
   4   4   4    3.35    1.13
   5   4   4    3.69    1.21
   6   4   4    8.90    1.80
 -13   5   4    3.96    3.45
 -12   5   4    1.00    1.87
 -11   5   4    9.75    2.72
 -10   5   4    5.31    2.13
  -9   5   4    3.81    1.83
  -8   5   4   10.92    2.60
  -7   5   4    7.55    1.64
  -6   5   4  130.47    8.09
  -5   5   4    0.38    0.83
  -4   5   4   28.36    2.89
  -3   5   4   28.53    2.91
  -2   5   4   29.21    2.87
  -1   5   4   19.78    2.36
   0   5   4   -0.52    0.55
   1   5   4   21.49    2.23
   2   5   4   27.45    2.90
   3   5   4   69.04    5.30
   4   5   4   14.49    2.30
   5   5   4    5.14    1.30
 -13   6   4    0.93    2.23
 -12   6   4    2.31    2.04
 -11   6   4    8.07    2.59
 -10   6   4   10.36    2.69
  -9   6   4   28.92    4.33
  -8   6   4    9.67    1.87
  -7   6   4   27.41    3.14
  -6   6   4    0.82    0.96
  -5   6   4   20.57    2.53
  -4   6   4    4.12    1.20
  -3   6   4   26.30    2.67
  -2   6   4    1.01    0.81
  -1   6   4  130.34    8.05
   0   6   4   -0.28    1.02
   1   6   4   31.24    4.38
   2   6   4    0.27    1.14
   3   6   4    4.90    1.48
   4   6   4   17.74    3.31
   5   6   4    9.32    2.32
 -13   7   4    2.97    2.28
 -12   7   4    0.37    1.77
 -11   7   4    6.70    2.41
 -10   7   4   12.70    3.06
  -9   7   4   34.29    4.71
  -8   7   4   11.96    2.09
  -7   7   4    4.99    1.59
  -6   7   4   30.76    3.57
  -5   7   4   30.00    4.20
  -4   7   4   57.30    6.48
  -3   7   4   20.09    3.21
  -2   7   4    5.79    2.01
  -1   7   4   27.53    3.81
   0   7   4    7.56    2.02
   1   7   4    1.53    1.20
   2   7   4   10.35    2.04
   3   7   4    5.90    2.05
   4   7   4   53.18    5.01
   5   7   4    2.43    2.95
 -13   8   4    8.04    4.53
 -12   8   4    4.19    2.20
 -11   8   4    3.32    2.46
 -10   8   4    4.59    3.42
  -9   8   4    5.73    2.21
  -8   8   4   39.87    5.54
  -7   8   4    0.35    1.63
  -6   8   4    1.82    1.53
  -5   8   4   80.42    8.02
  -4   8   4   -0.57    1.30
  -3   8   4   14.35    3.06
  -2   8   4    7.86    1.86
  -1   8   4   11.23    2.19
   0   8   4   41.05    4.42
   1   8   4    6.03    2.13
   2   8   4    1.62    1.54
   3   8   4    2.61    1.50
   4   8   4    5.88    2.35
   5   8   4    0.18    3.30
 -12   9   4    2.72    3.35
 -11   9   4    2.55    3.23
 -10   9   4    5.52    2.41
  -9   9   4   34.26    4.78
  -8   9   4   10.23    2.33
  -7   9   4   12.95    2.39
  -6   9   4    3.69    1.52
  -5   9   4   15.25    2.43
  -4   9   4    3.88    1.52
  -3   9   4   28.34    3.62
  -2   9   4   26.28    3.37
  -1   9   4    3.38    1.31
   0   9   4   23.55    4.17
   1   9   4    0.54    1.58
   2   9   4    5.80    2.12
   3   9   4    4.74    2.23
   4   9   4    1.69    2.17
 -12  10   4   15.26    5.82
 -11  10   4   -0.32    2.63
 -10  10   4    3.25    2.14
  -9  10   4    1.22    1.95
  -8  10   4    3.29    1.64
  -7  10   4    6.92    1.84
  -6  10   4   18.99    3.06
  -5  10   4    4.72    1.61
  -4  10   4    7.58    2.10
  -3  10   4   13.38    2.61
  -2  10   4    6.40    2.41
  -1  10   4    3.85    2.04
   0  10   4    3.61    2.03
   1  10   4    0.67    1.72
   2  10   4   25.44    4.22
 -11  11   4    0.64    2.22
 -10  11   4    0.08    2.03
  -9  11   4    3.86    2.48
  -8  11   4    0.58    1.51
  -7  11   4   47.30    5.15
  -6  11   4    7.38    2.16
  -5  11   4    6.74    2.08
  -4  11   4    6.33    2.47
  -3  11   4    5.51    2.60
  -2  11   4    4.87    2.58
  -1  11   4   -0.04    1.68
   0  11   4    1.43    1.96
 -11  12   4   14.39    5.39
 -10  12   4   25.80    4.60
  -9  12   4    4.20    2.85
  -8  12   4    9.59    2.59
  -7  12   4   -0.15    1.79
  -6  12   4    1.78    1.90
  -5  12   4    0.75    1.87
  -4  12   4    3.14    2.26
  -3  12   4    2.13    2.10
  -2  12   4   16.21    3.87
  -1  12   4   -0.69    3.66
  -9  13   4    5.25    4.01
  -8  13   4    0.78    2.35
  -7  13   4    3.70    3.51
  -6  13   4    6.91    4.12
   4 -12   5   15.40    4.52
   5 -12   5   -0.33    1.77
   6 -12   5    6.53    2.51
   7 -12   5   13.63    3.32
   8 -12   5    7.12    3.86
   1 -11   5    3.49    3.21
   2 -11   5    0.54    1.84
   3 -11   5    2.29    2.10
   4 -11   5    4.06    1.96
   5 -11   5   12.46    2.92
   6 -11   5    3.42    2.03
   7 -11   5    4.36    2.19
   8 -11   5    7.15    2.42
   9 -11   5    6.80    2.62
  10 -11   5    0.27    2.35
  -1 -10   5    1.96    2.94
   0 -10   5   15.67    3.69
   1 -10   5   18.70    3.80
   2 -10   5   14.52    3.09
   3 -10   5    0.79    1.45
   4 -10   5    0.61    1.41
   5 -10   5    8.51    2.40
   6 -10   5    5.96    2.20
   7 -10   5    4.34    1.77
   8 -10   5    3.50    1.87
   9 -10   5    1.88    1.78
  10 -10   5   23.11    4.16
  11 -10   5    4.06    3.40
  -2  -9   5    7.53    2.95
  -1  -9   5    0.26    1.57
   0  -9   5    0.60    1.68
   1  -9   5   -1.55    1.22
   2  -9   5   -0.38    1.14
   3  -9   5   -0.19    1.32
   4  -9   5    8.22    2.31
   5  -9   5    0.02    1.39
   6  -9   5    2.36    1.46
   7  -9   5   24.27    3.74
   8  -9   5    8.92    2.48
   9  -9   5    1.20    1.51
  10  -9   5   14.97    2.56
  11  -9   5    1.01    1.38
  -3  -8   5   18.89    5.67
  -2  -8   5    3.26    2.19
  -1  -8   5    5.68    2.15
   0  -8   5    2.69    1.62
   1  -8   5   13.16    3.08
   2  -8   5   43.59    4.93
   3  -8   5   73.17    6.81
   4  -8   5   15.69    2.23
   5  -8   5    5.71    1.46
   6  -8   5   11.01    1.93
   7  -8   5    5.26    1.51
   8  -8   5   -0.63    0.92
   9  -8   5   -0.48    1.03
  10  -8   5   15.63    2.58
  11  -8   5    2.27    1.57
  12  -8   5    6.56    2.48
  -4  -7   5    2.92    2.84
  -3  -7   5    5.56    3.75
  -2  -7   5   21.93    3.86
  -1  -7   5    1.45    1.59
   0  -7   5    0.72    1.14
   1  -7   5    1.85    1.08
   2  -7   5   10.74    1.82
   3  -7   5   12.46    1.79
   4  -7   5    4.74    1.36
   5  -7   5    6.25    1.48
   6  -7   5  124.53    7.44
   7  -7   5   -0.27    0.85
   8  -7   5   18.45    2.65
   9  -7   5    0.04    1.07
  10  -7   5    0.76    1.16
  11  -7   5    0.67    1.36
  12  -7   5   -0.44    1.72
  -5  -6   5    6.70    3.75
  -4  -6   5    8.25    3.06
  -3  -6   5    5.33    2.28
  -2  -6   5    9.68    2.64
  -1  -6   5  117.37    7.73
   0  -6   5    4.07    1.33
   1  -6   5   15.74    2.21
   2  -6   5   17.55    2.23
   3  -6   5   51.58    3.55
   4  -6   5    0.66    0.81
   5  -6   5   25.60    2.68
   6  -6   5    1.66    1.00
   7  -6   5    1.23    0.95
   8  -6   5   40.51    3.82
   9  -6   5   -0.75    0.95
  10  -6   5    0.74    1.18
  11  -6   5   10.36    2.28
  -6  -5   5   15.10    3.40
  -5  -5   5    5.91    2.51
  -4  -5   5    1.40    1.66
  -3  -5   5    2.18    1.60
  -2  -5   5    2.56    1.66
  -1  -5   5   21.46    3.51
   0  -5   5    4.57    1.71
   1  -5   5    8.81    2.01
   2  -5   5   32.17    3.27
   3  -5   5    0.73    0.89
   4  -5   5   81.33    5.36
   5  -5   5    5.38    1.30
   6  -5   5   15.93    2.16
   7  -5   5   12.57    1.86
   8  -5   5   71.99    5.81
   9  -5   5    8.94    1.98
  10  -5   5    9.24    2.46
  11  -5   5    5.64    2.37
  -8  -4   5    8.95    4.06
  -7  -4   5    6.61    2.72
  -6  -4   5    0.16    1.62
  -5  -4   5   13.12    3.21
  -4  -4   5   11.23    2.84
  -3  -4   5    7.11    2.19
  -2  -4   5   -0.45    1.07
  -1  -4   5   75.19    7.30
   0  -4   5    1.28    0.80
   1  -4   5  124.50    7.70
   2  -4   5    4.59    1.08
   3  -4   5    7.67    1.74
   4  -4   5    1.90    1.04
   5  -4   5    4.93    1.42
   6  -4   5   15.91    2.48
   7  -4   5   11.39    2.25
   8  -4   5   12.88    2.68
   9  -4   5    4.70    1.79
  10  -4   5    7.52    2.24
  11  -4   5    2.01    1.76
  -8  -3   5    3.45    2.15
  -7  -3   5   -0.20    1.70
  -6  -3   5   -0.94    1.43
  -5  -3   5   78.43    8.04
  -4  -3   5   10.54    2.65
  -3  -3   5   49.57    5.59
  -2  -3   5    0.30    1.07
  -1  -3   5    6.01    1.28
   0  -3   5   45.80    3.70
   1  -3   5   42.61    3.39
   2  -3   5   41.56    3.56
   3  -3   5   42.75    4.40
   4  -3   5  121.74    9.49
   5  -3   5   39.05    4.38
   6  -3   5   49.03    5.06
   7  -3   5    7.36    1.89
   8  -3   5    4.63    1.75
   9  -3   5    2.13    1.44
  10  -3   5    3.40    1.74
  11  -3   5    9.30    2.52
  -9  -2   5    1.62    2.07
  -8  -2   5   16.07    3.49
  -7  -2   5    1.38    1.65
  -6  -2   5   38.45    5.20
  -5  -2   5   11.92    2.71
  -4  -2   5   14.68    2.86
  -3  -2   5   35.41    3.60
  -2  -2   5    4.03    1.14
  -1  -2   5   50.31    3.88
   0  -2   5   43.33    3.20
   1  -2   5   27.70    2.57
   2  -2   5   45.33    3.27
   3  -2   5   36.84    3.23
   4  -2   5    3.84    1.26
   5  -2   5    1.22    0.99
   6  -2   5    0.38    0.97
   7  -2   5    6.09    1.81
   8  -2   5    8.48    2.18
   9  -2   5   20.35    3.48
  10  -2   5    5.21    2.19
  11  -2   5    3.79    1.99
 -10  -1   5    4.98    3.46
  -9  -1   5   17.32    3.61
  -8  -1   5    0.74    1.64
  -7  -1   5   19.11    3.58
  -6  -1   5    0.25    1.41
  -5  -1   5   16.38    3.25
  -4  -1   5    5.81    1.44
  -3  -1   5  129.77    7.90
  -2  -1   5   39.24    3.32
  -1  -1   5   31.12    2.75
   0  -1   5   31.37    2.99
   1  -1   5   33.24    3.01
   2  -1   5   29.04    2.60
   3  -1   5   49.04    3.81
   4  -1   5    5.40    1.44
   5  -1   5   79.37    6.38
   6  -1   5   22.86    3.24
   7  -1   5  112.88    9.01
   8  -1   5    1.29    1.30
   9  -1   5    6.34    2.00
  10  -1   5   -2.03    1.29
  11  -1   5    2.16    4.00
 -10   0   5   18.49    3.73
  -9   0   5    2.88    1.90
  -8   0   5    1.29    1.53
  -7   0   5    0.37    1.34
  -6   0   5    1.02    1.11
  -5   0   5    7.13    1.73
  -4   0   5    0.45    0.87
  -3   0   5   44.99    3.82
  -2   0   5   45.84    3.37
  -1   0   5   33.10    3.02
   0   0   5    0.69    0.61
   1   0   5   38.35    3.15
   2   0   5   48.26    3.30
   3   0   5   45.81    3.64
   4   0   5    0.91    0.75
   5   0   5    4.69    1.48
   6   0   5    4.49    1.70
   7   0   5    0.38    1.06
   8   0   5    1.88    1.44
   9   0   5    0.79    1.56
  10   0   5   19.42    3.78
 -10   1   5    2.30    2.96
  -9   1   5    4.82    2.37
  -8   1   5    3.53    1.97
  -7   1   5  120.49    7.86
  -6   1   5   27.63    3.18
  -5   1   5   82.92    5.67
  -4   1   5    5.38    1.12
  -3   1   5   45.97    3.87
  -2   1   5   25.66    2.50
  -1   1   5   34.07    3.02
   0   1   5   30.10    2.89
   1   1   5   23.29    2.34
   2   1   5   39.86    3.23
   3   1   5  125.95    7.70
   4   1   5    5.61    1.24
   5   1   5   16.43    2.18
   6   1   5    0.73    1.10
   7   1   5   16.75    3.08
   8   1   5   -0.11    1.35
   9   1   5   13.24    2.95
  10   1   5    0.35    2.13
 -11   2   5    4.79    3.45
 -10   2   5    6.59    3.42
  -9   2   5   23.16    5.74
  -8   2   5    6.53    2.21
  -7   2   5    2.32    1.56
  -6   2   5    1.05    1.35
  -5   2   5    1.34    0.97
  -4   2   5    4.65    1.35
  -3   2   5   39.60    3.57
  -2   2   5   38.36    3.99
  -1   2   5   32.92    2.92
   0   2   5   44.63    3.15
   1   2   5   41.13    3.31
   2   2   5    4.72    1.07
   3   2   5   37.95    3.41
   4   2   5   15.80    2.07
   5   2   5    9.72    1.69
   6   2   5   43.25    3.83
   7   2   5    0.29    1.03
   8   2   5   17.95    2.71
   9   2   5   -0.90    1.47
 -11   3   5    9.71    4.05
 -10   3   5    4.75    2.25
  -9   3   5    1.70    1.61
  -8   3   5    3.33    1.76
  -7   3   5    5.56    1.95
  -6   3   5   43.58    5.53
  -5   3   5   34.45    3.70
  -4   3   5  121.43    7.99
  -3   3   5   44.96    4.01
  -2   3   5   49.96    4.14
  -1   3   5   39.19    4.12
   0   3   5   43.23    4.52
   1   3   5    4.02    1.40
   2   3   5    0.80    0.93
   3   3   5   48.84    5.03
   4   3   5   10.57    2.22
   5   3   5   70.87    6.93
   6   3   5    0.90    1.30
   7   3   5    0.78    1.42
   8   3   5    4.10    2.01
 -11   4   5    1.98    2.15
 -10   4   5    3.59    2.10
  -9   4   5    1.40    1.83
  -8   4   5    9.31    2.58
  -7   4   5    9.03    2.51
  -6   4   5   13.56    2.24
  -5   4   5    5.37    1.50
  -4   4   5   -0.33    0.83
  -3   4   5    4.68    1.37
  -2   4   5    3.60    1.19
  -1   4   5  120.39    7.93
   0   4   5    0.79    0.88
   1   4   5   78.54    5.53
   2   4   5   -0.44    0.86
   3   4   5    5.47    1.68
   4   4   5   12.41    2.15
   5   4   5   15.17    2.34
   6   4   5    0.32    1.40
 -12   5   5   11.20    3.92
 -11   5   5    6.58    2.50
 -10   5   5   10.05    3.00
  -9   5   5    9.23    2.64
  -8   5   5   77.98    8.02
  -7   5   5   11.14    2.16
  -6   5   5   18.23    2.63
  -5   5   5    7.00    1.72
  -4   5   5   81.08    6.03
  -3   5   5    0.23    0.81
  -2   5   5   29.38    3.47
  -1   5   5    5.81    1.35
   0   5   5    6.73    1.56
   1   5   5   23.55    2.76
   2   5   5    6.06    1.58
   3   5   5    3.24    1.82
   4   5   5    4.59    1.90
   5   5   5    8.26    2.03
 -12   6   5    3.10    2.37
 -11   6   5   11.06    2.99
 -10   6   5    2.00    1.72
  -9   6   5    1.62    1.59
  -8   6   5   38.71    5.16
  -7   6   5    1.65    1.28
  -6   6   5    1.70    1.17
  -5   6   5   26.12    3.18
  -4   6   5    0.21    0.90
  -3   6   5   49.83    4.54
  -2   6   5   16.12    2.34
  -1   6   5   20.33    3.46
   0   6   5    4.39    1.88
   1   6   5  114.58   10.03
   2   6   5   10.31    2.64
   3   6   5    1.86    1.65
   4   6   5    4.62    1.84
   5   6   5    4.38    2.23
 -12   7   5    0.74    2.27
 -11   7   5    2.16    1.87
 -10   7   5    1.30    1.77
  -9   7   5   -0.23    1.60
  -8   7   5   21.37    3.09
  -7   7   5   -0.10    1.15
  -6   7   5  103.31    9.87
  -5   7   5    8.27    2.34
  -4   7   5    5.60    2.07
  -3   7   5   13.64    2.94
  -2   7   5   14.13    2.97
  -1   7   5    3.62    1.72
   0   7   5    1.92    1.63
   1   7   5    2.74    1.87
   2   7   5   23.32    3.11
   3   7   5    8.40    2.69
   4   7   5    1.60    1.84
 -11   8   5    0.86    3.24
 -10   8   5   30.39    7.08
  -9   8   5   -3.05    1.78
  -8   8   5    0.19    1.54
  -7   8   5    2.97    2.07
  -6   8   5    6.24    2.40
  -5   8   5    1.85    1.78
  -4   8   5   16.63    3.52
  -3   8   5   71.17    8.03
  -2   8   5   43.39    5.57
  -1   8   5   15.37    3.41
   0   8   5    0.03    1.23
   1   8   5    4.27    1.71
   2   8   5    4.98    2.19
   3   8   5    7.44    2.81
   4   8   5    3.89    3.19
 -11   9   5   -1.12    3.07
 -10   9   5   21.62    6.07
  -9   9   5    0.89    1.99
  -8   9   5    9.89    2.97
  -7   9   5   24.08    4.01
  -6   9   5    1.14    1.86
  -5   9   5    2.16    2.01
  -4   9   5   11.61    3.09
  -3   9   5   -1.08    1.29
  -2   9   5    0.21    1.35
  -1   9   5   -0.28    1.46
   0   9   5    1.17    1.78
   1   9   5    1.19    1.93
   2   9   5    5.49    2.36
 -10  10   5   22.77    6.73
  -9  10   5   -2.03    1.83
  -8  10   5    6.00    2.71
  -7  10   5    7.82    2.29
  -6  10   5    4.15    1.99
  -5  10   5    8.56    2.23
  -4  10   5   -0.54    1.40
  -3  10   5    2.73    1.77
  -2  10   5   16.21    3.27
  -1  10   5   16.01    3.65
   0  10   5   19.21    4.16
   1  10   5    2.30    3.31
 -10  11   5   -2.30    3.09
  -9  11   5    4.94    2.87
  -8  11   5    9.66    3.29
  -7  11   5    5.30    2.01
  -6  11   5    4.92    1.94
  -5  11   5    6.81    2.26
  -4  11   5    4.97    2.12
  -3  11   5    2.06    2.09
  -2  11   5   -1.32    1.92
  -8  12   5    5.47    5.28
  -7  12   5   10.31    3.22
  -6  12   5    3.41    2.35
  -5  12   5    3.86    4.97
   3 -10   6   19.37    5.58
   4 -10   6    5.29    3.29
   5 -10   6    9.85    4.22
   6 -10   6    2.16    2.97
   7 -10   6    1.49    2.51
   0  -9   6    6.01    5.58
   1  -9   6   -3.42    2.10
   2  -9   6    2.85    2.57
   3  -9   6    7.86    3.33
   4  -9   6    3.47    2.83
   5  -9   6   -0.47    2.24
   6  -9   6    8.42    3.80
   7  -9   6    0.98    2.50
   8  -9   6   13.76    4.75
   9  -9   6    4.84    5.13
  -1  -8   6   21.11    5.97
   0  -8   6   13.72    4.85
   1  -8   6    0.83    2.58
   2  -8   6    0.27    2.16
   3  -8   6   12.52    4.07
   4  -8   6    7.89    2.50
   5  -8   6   11.38    2.53
   6  -8   6    0.23    1.48
   7  -8   6   18.07    3.37
   8  -8   6    5.90    2.24
   9  -8   6   -0.53    1.43
  10  -8   6    5.43    3.12
  -3  -7   6    5.71    3.84
  -2  -7   6   -0.82    2.39
  -1  -7   6   20.77    5.48
   0  -7   6    3.24    1.94
   1  -7   6    0.57    1.45
   2  -7   6   11.32    2.62
   3  -7   6    6.20    2.02
   4  -7   6   28.87    4.06
   5  -7   6   14.75    2.87
   6  -7   6    4.65    1.86
   7  -7   6    7.44    2.35
   8  -7   6    6.41    2.10
   9  -7   6    0.98    1.61
  10  -7   6   11.75    2.96
  -4  -6   6    3.00    3.57
  -3  -6   6   10.35    2.96
  -2  -6   6    0.61    1.86
  -1  -6   6    3.36    2.06
   0  -6   6    4.02    1.82
   1  -6   6   50.37    5.96
   2  -6   6    2.21    1.44
   3  -6   6   57.97    6.41
   4  -6   6    2.06    1.06
   5  -6   6   27.79    4.13
   6  -6   6    2.95    1.53
   7  -6   6    0.87    1.21
   8  -6   6    0.43    1.33
   9  -6   6    6.97    2.25
  10  -6   6    6.76    2.40
  -5  -5   6    5.97    2.78
  -4  -5   6    1.11    2.07
  -3  -5   6   11.16    3.02
  -2  -5   6   19.13    3.64
  -1  -5   6   39.56    5.27
   0  -5   6    4.12    1.86
   1  -5   6   38.11    4.81
   2  -5   6    1.12    1.21
   3  -5   6    3.41    1.16
   4  -5   6   17.94    2.45
   5  -5   6    4.61    1.79
   6  -5   6   58.96    6.06
   7  -5   6   13.56    2.88
   8  -5   6    5.89    2.11
   9  -5   6    5.87    2.09
  10  -5   6    4.94    2.19
  -6  -4   6    9.90    3.10
  -5  -4   6    7.38    2.75
  -4  -4   6    5.45    2.43
  -3  -4   6   13.20    3.15
  -2  -4   6    2.84    1.69
  -1  -4   6   15.69    3.11
   0  -4   6    0.77    1.28
   1  -4   6   19.83    2.50
   2  -4   6   24.08    2.64
   3  -4   6   19.04    2.42
   4  -4   6    2.89    1.12
   5  -4   6   36.58    4.66
   6  -4   6    2.38    1.54
   7  -4   6    4.87    1.83
   8  -4   6    6.20    2.00
   9  -4   6    2.09    1.65
  10  -4   6    1.18    1.51
  -7  -3   6   14.49    3.42
  -6  -3   6   13.10    3.35
  -5  -3   6    8.24    2.67
  -4  -3   6    3.59    1.94
  -3  -3   6   52.38    6.62
  -2  -3   6    4.25    1.80
  -1  -3   6   23.64    3.38
   0  -3   6   14.17    2.02
   1  -3   6    6.27    1.46
   2  -3   6   65.46    4.95
   3  -3   6   11.99    1.86
   4  -3   6   22.89    2.68
   5  -3   6    3.06    1.38
   6  -3   6   56.29    6.16
   7  -3   6   14.35    2.89
   8  -3   6   10.88    2.49
   9  -3   6    3.45    1.88
  10  -3   6   -0.58    1.57
  -8  -2   6    4.23    2.65
  -7  -2   6    2.37    2.09
  -6  -2   6   -0.83    1.61
  -5  -2   6   12.28    3.01
  -4  -2   6    1.65    1.72
  -3  -2   6    1.14    1.42
  -2  -2   6   29.68    3.01
  -1  -2   6   66.38    5.02
   0  -2   6   47.29    4.35
   1  -2   6   51.79    4.34
   2  -2   6   53.30    4.49
   3  -2   6    6.07    1.41
   4  -2   6   26.22    2.75
   5  -2   6    2.52    1.09
   6  -2   6    1.55    1.28
   7  -2   6   18.21    2.99
   8  -2   6    2.04    1.54
   9  -2   6   -0.17    1.39
  10  -2   6   25.92    6.16
  -8  -1   6   -0.18    1.72
  -7  -1   6    1.12    1.71
  -6  -1   6    0.74    1.64
  -5  -1   6   71.20    7.36
  -4  -1   6   33.06    4.88
  -3  -1   6   20.10    2.67
  -2  -1   6    5.68    1.47
  -1  -1   6   43.51    4.18
   0  -1   6   12.70    1.86
   1  -1   6    9.44    1.68
   2  -1   6   48.54    4.23
   3  -1   6   57.48    4.48
   4  -1   6   15.28    2.12
   5  -1   6   15.76    2.37
   6  -1   6   34.99    4.32
   7  -1   6    3.18    1.52
   8  -1   6   27.81    4.06
   9  -1   6   12.11    2.97
  -9   0   6    8.34    4.72
  -8   0   6   14.69    5.04
  -7   0   6    2.12    3.34
  -6   0   6    5.02    2.27
  -5   0   6    6.21    1.76
  -4   0   6    3.37    1.28
  -3   0   6   11.85    2.07
  -2   0   6   55.72    4.60
  -1   0   6   10.18    1.74
   0   0   6   49.95    3.76
   1   0   6    9.46    1.63
   2   0   6   52.96    4.48
   3   0   6   10.13    1.74
   4   0   6    1.29    0.94
   5   0   6    2.23    1.08
   6   0   6    2.36    1.23
   7   0   6    2.86    1.28
   8   0   6    7.74    1.84
   9   0   6    6.61    2.33
  -9   1   6   15.14    5.38
  -8   1   6   24.18    6.71
  -7   1   6    3.67    2.87
  -6   1   6   35.96    5.08
  -5   1   6   15.97    3.10
  -4   1   6   20.00    3.36
  -3   1   6   62.99    6.41
  -2   1   6   51.00    5.55
  -1   1   6    8.09    2.10
   0   1   6    9.75    2.21
   1   1   6   55.53    5.54
   2   1   6    3.91    1.50
   3   1   6   18.50    2.98
   4   1   6   42.33    4.98
   5   1   6   58.26    6.20
   6   1   6    1.08    1.36
   7   1   6    4.65    1.91
   8   1   6    1.80    1.66
  -9   2   6    1.81    2.58
  -8   2   6    1.04    2.70
  -7   2   6   16.36    3.38
  -6   2   6    0.45    1.66
  -5   2   6    5.27    1.97
  -4   2   6   22.22    2.84
  -3   2   6    4.67    1.41
  -2   2   6   50.07    5.56
  -1   2   6   45.80    5.37
   0   2   6   46.44    5.38
   1   2   6   58.37    5.93
   2   2   6   24.78    3.34
   3   2   6    2.04    1.32
   4   2   6    4.49    1.73
   5   2   6   10.13    2.41
   6   2   6   -0.35    1.21
   7   2   6    0.86    1.58
   8   2   6   12.59    2.80
 -10   3   6    2.33    3.35
  -9   3   6    7.55    2.58
  -8   3   6   10.85    3.09
  -7   3   6   17.12    3.59
  -6   3   6   63.21    6.97
  -5   3   6    3.00    1.42
  -4   3   6   18.09    2.77
  -3   3   6   10.77    2.09
  -2   3   6   63.65    5.25
  -1   3   6    4.80    1.65
   0   3   6   10.60    2.37
   1   3   6   14.23    2.60
   2   3   6    4.84    1.69
   3   3   6   56.43    6.17
   4   3   6    5.93    1.94
   5   3   6    5.98    2.19
   6   3   6   13.55    2.84
   7   3   6   12.75    2.87
 -10   4   6    0.45    2.06
  -9   4   6    0.85    1.92
  -8   4   6    5.81    2.37
  -7   4   6    2.12    1.88
  -6   4   6    2.41    1.85
  -5   4   6   49.38    4.61
  -4   4   6    5.77    1.73
  -3   4   6   24.10    2.94
  -2   4   6   20.27    2.70
  -1   4   6   17.62    2.58
   0   4   6    2.48    1.23
   1   4   6   13.76    2.28
   2   4   6    1.14    1.09
   3   4   6   24.83    3.03
   4   4   6    3.95    1.54
   5   4   6    5.35    2.38
   6   4   6    6.58    2.59
 -10   5   6    3.83    2.69
  -9   5   6    3.67    2.24
  -8   5   6    6.55    2.48
  -7   5   6   13.20    3.26
  -6   5   6   59.71    5.56
  -5   5   6    1.86    1.47
  -4   5   6   18.78    2.76
  -3   5   6    3.26    1.37
  -2   5   6    1.83    1.20
  -1   5   6   49.31    4.48
   0   5   6    0.31    1.06
   1   5   6   33.04    3.63
   2   5   6    7.87    2.47
   3   5   6    5.59    2.29
   4   5   6   -0.75    1.64
   5   5   6    5.21    2.37
 -10   6   6    8.43    2.96
  -9   6   6    9.72    2.92
  -8   6   6    3.20    1.99
  -7   6   6    2.08    2.03
  -6   6   6    2.84    1.62
  -5   6   6   42.26    4.45
  -4   6   6    1.24    1.20
  -3   6   6   61.85    5.60
  -2   6   6    1.63    1.61
  -1   6   6   71.68    7.45
   0   6   6    1.67    1.69
   1   6   6    3.75    2.04
   2   6   6    1.40    1.73
   3   6   6    4.63    2.28
   4   6   6    0.48    1.91
 -10   7   6    6.08    2.69
  -9   7   6    5.32    2.52
  -8   7   6    5.35    2.85
  -7   7   6    6.10    2.53
  -6   7   6   -1.03    1.58
  -5   7   6   14.47    3.23
  -4   7   6   25.48    4.24
  -3   7   6    5.09    2.19
  -2   7   6   11.33    3.11
  -1   7   6    0.39    1.54
   0   7   6    5.13    2.28
   1   7   6   20.46    3.90
   2   7   6    1.06    2.02
   3   7   6    2.27    2.20
  -9   8   6    5.07    3.44
  -8   8   6    7.99    2.85
  -7   8   6   22.11    4.35
  -6   8   6    1.50    2.02
  -5   8   6    8.75    2.87
  -4   8   6    6.74    2.82
  -3   8   6    7.22    2.67
  -2   8   6   -1.26    1.64
  -1   8   6    4.84    2.27
   0   8   6    8.85    2.89
   1   8   6   15.89    2.90
   2   8   6   23.31    4.63
  -9   9   6   12.36    7.18
  -8   9   6   14.79    3.48
  -7   9   6    0.29    2.07
  -6   9   6    9.13    3.24
  -5   9   6    1.55    2.08
  -4   9   6    5.52    2.61
  -3   9   6   17.51    3.91
  -2   9   6    5.32    2.73
  -1   9   6    1.05    1.81
   0   9   6    5.08    2.91
  -8  10   6   21.89    6.79
  -7  10   6    0.51    1.76
  -6  10   6    1.71    1.90
  -5  10   6    6.39    2.42
  -4  10   6    6.81    2.42
  -3  10   6   16.83    3.22
  -2  10   6   13.84    5.13
   2  -8   7   -0.82    2.58
   3  -8   7    8.72    4.20
   4  -8   7    3.57    2.78
   5  -8   7   -0.10    1.75
   6  -8   7    0.57    2.01
   7  -8   7    0.57    2.56
   0  -7   7    5.04    3.83
   1  -7   7    1.66    2.11
   2  -7   7    3.26    2.07
   3  -7   7    4.68    2.20
   4  -7   7    0.74    1.65
   5  -7   7    1.44    1.64
   6  -7   7    9.80    2.72
   7  -7   7    3.45    1.65
   8  -7   7   25.94    5.78
  -2  -6   7    3.60    2.38
  -1  -6   7   10.32    2.99
   0  -6   7    9.59    2.84
   1  -6   7   -1.29    1.51
   2  -6   7    5.18    2.06
   3  -6   7   21.62    3.78
   4  -6   7    6.28    2.22
   5  -6   7    1.63    1.45
   6  -6   7   14.98    2.49
   7  -6   7    3.59    1.87
   8  -6   7    0.51    1.65
  -4  -5   7   12.19    6.23
  -3  -5   7    0.90    1.97
  -2  -5   7    2.60    2.07
  -1  -5   7    3.38    2.01
   0  -5   7    6.99    2.34
   1  -5   7    2.43    1.79
   2  -5   7   17.40    3.34
   3  -5   7    1.42    1.46
   4  -5   7   19.64    2.81
   5  -5   7    9.16    1.94
   6  -5   7   -0.80    1.12
   7  -5   7    0.08    1.21
   8  -5   7    7.27    2.38
  -4  -4   7    5.93    2.50
  -3  -4   7    1.06    1.86
  -2  -4   7    5.07    2.29
  -1  -4   7   21.80    3.92
   0  -4   7    7.41    2.29
   1  -4   7   27.18    4.18
   2  -4   7    1.16    1.10
   3  -4   7   -0.55    1.01
   4  -4   7   13.24    2.31
   5  -4   7    2.89    1.49
   6  -4   7    7.65    1.91
   7  -4   7    2.45    1.52
   8  -4   7    4.43    2.05
  -5  -3   7    9.41    2.96
  -4  -3   7    2.10    2.20
  -3  -3   7   18.18    3.73
  -2  -3   7    0.97    1.52
  -1  -3   7    0.54    1.46
   0  -3   7    7.38    2.25
   1  -3   7    0.06    1.02
   2  -3   7    2.53    1.27
   3  -3   7   12.18    2.22
   4  -3   7   28.86    3.39
   5  -3   7   22.42    2.88
   6  -3   7   14.24    2.48
   7  -3   7    0.68    1.25
   8  -3   7    0.97    1.33
  -6  -2   7    0.13    2.86
  -5  -2   7    2.35    2.15
  -4  -2   7    3.38    2.19
  -3  -2   7   29.27    4.32
  -2  -2   7    0.95    1.58
  -1  -2   7    3.22    1.39
   0  -2   7   38.72    3.73
   1  -2   7    5.78    1.56
   2  -2   7   25.73    3.15
   3  -2   7    1.86    1.18
   4  -2   7    1.64    1.14
   5  -2   7    3.17    1.32
   6  -2   7    5.23    1.53
   7  -2   7    0.35    1.22
   8  -2   7    1.84    1.73
  -6  -1   7    7.46    4.13
  -5  -1   7    2.27    2.94
  -4  -1   7    3.64    3.27
  -3  -1   7   25.08    6.46
  -2  -1   7   -0.67    1.25
  -1  -1   7    5.99    1.62
   0  -1   7   13.38    2.09
   1  -1   7   13.90    2.15
   2  -1   7    4.65    1.46
   3  -1   7    3.19    1.37
   4  -1   7    1.66    1.20
   5  -1   7   18.76    2.67
   6  -1   7    0.59    1.16
   7  -1   7    5.99    1.86
  -7   0   7   11.15    4.84
  -6   0   7    9.90    4.81
  -5   0   7   10.19    4.16
  -4   0   7   12.49    2.87
  -3   0   7    6.47    2.31
  -2   0   7   28.76    4.26
  -1   0   7   14.75    2.95
   0   0   7   -1.04    1.14
   1   0   7   13.23    2.76
   2   0   7   34.04    4.47
   3   0   7    9.14    2.48
   4   0   7   10.22    2.49
   5   0   7    6.92    2.23
   6   0   7    5.71    2.30
   7   0   7    4.10    2.06
  -7   1   7    5.69    3.89
  -6   1   7   -0.09    2.62
  -5   1   7   22.35    4.11
  -4   1   7    0.17    1.57
  -3   1   7    5.07    1.65
  -2   1   7    5.79    2.14
  -1   1   7   13.38    2.81
   0   1   7   14.11    2.91
   1   1   7    2.68    1.62
   2   1   7    1.25    1.36
   3   1   7   30.50    4.02
   4   1   7    2.26    1.54
   5   1   7   -1.64    1.41
   6   1   7    2.47    1.80
   7   1   7   11.54    4.71
  -8   2   7    0.31    3.00
  -7   2   7   -0.04    2.74
  -6   2   7    6.30    2.70
  -5   2   7    1.92    1.88
  -4   2   7   -0.28    1.56
  -3   2   7    2.99    1.45
  -2   2   7   30.00    3.57
  -1   2   7    2.09    1.61
   0   2   7   29.57    4.26
   1   2   7    5.23    1.86
   2   2   7   -0.03    1.29
   3   2   7   18.43    3.36
   4   2   7   13.04    2.91
   5   2   7    0.70    1.46
   6   2   7    0.27    1.68
  -8   3   7    0.45    1.99
  -7   3   7   -1.96    1.80
  -6   3   7   13.53    3.40
  -5   3   7   19.61    3.91
  -4   3   7   28.76    3.65
  -3   3   7    6.28    1.95
  -2   3   7    1.01    1.14
  -1   3   7   -0.65    1.06
   0   3   7   11.04    2.64
   1   3   7    0.88    1.48
   2   3   7    0.41    1.39
   3   3   7   21.01    3.42
   4   3   7    3.80    1.84
   5   3   7   11.42    2.67
  -9   4   7   31.30    7.20
  -8   4   7    3.42    2.73
  -7   4   7    5.15    2.79
  -6   4   7    7.38    2.73
  -5   4   7    3.94    1.89
  -4   4   7    8.71    2.24
  -3   4   7    0.21    1.27
  -2   4   7   -0.78    1.10
  -1   4   7   32.52    3.76
   0   4   7    9.18    2.17
   1   4   7   22.16    3.26
   2   4   7    2.08    1.58
   3   4   7    1.15    1.39
   4   4   7    1.86    2.03
  -8   5   7    6.88    2.80
  -7   5   7    2.12    2.14
  -6   5   7    1.54    1.97
  -5   5   7   13.75    2.86
  -4   5   7   18.90    3.00
  -3   5   7    0.42    1.37
  -2   5   7   19.50    3.09
  -1   5   7    4.14    1.61
   0   5   7    8.88    2.06
   1   5   7    1.02    1.85
   2   5   7   -0.16    1.75
   3   5   7   -0.98    1.91
  -8   6   7    1.75    2.33
  -7   6   7    4.30    2.33
  -6   6   7   12.67    2.69
  -5   6   7    1.76    1.70
  -4   6   7    8.40    3.00
  -3   6   7   21.08    3.84
  -2   6   7    8.88    2.72
  -1   6   7   -0.50    1.70
   0   6   7   10.45    3.05
   1   6   7    3.47    2.46
   2   6   7    0.66    2.09
  -7   7   7   10.06    4.98
  -6   7   7   12.53    3.65
  -5   7   7    0.83    2.24
  -4   7   7    0.86    2.05
  -3   7   7    2.40    2.27
  -2   7   7    0.13    1.92
  -1   7   7    4.44    2.39
   0   7   7    2.22    2.13
   1   7   7   -1.17    2.56
  -7   8   7   -1.74    2.94
  -6   8   7    1.95    2.35
  -5   8   7    0.30    2.05
  -4   8   7    0.94    2.51
  -3   8   7    7.73    3.04
  -2   8   7   -0.22    2.39
  -1   8   7   30.60    7.60
   0  -5   8    0.33    3.17
   1  -5   8    6.93    2.87
   2  -5   8    2.76    2.12
   3  -5   8    0.49    1.77
   4  -5   8   17.33    3.70
   5  -5   8    1.24    2.09
  -1  -4   8   16.42    3.93
   0  -4   8    1.45    2.02
   1  -4   8    2.31    1.97
   2  -4   8    6.99    2.65
   3  -4   8   20.18    3.34
   4  -4   8    2.28    1.54
   5  -4   8    6.67    2.47
  -2  -3   8    1.29    3.19
  -1  -3   8   31.31    5.14
   0  -3   8    4.80    2.15
   1  -3   8   -1.99    1.47
   2  -3   8    9.02    2.19
   3  -3   8    5.14    1.83
   4  -3   8    4.97    1.80
   5  -3   8    6.03    2.29
   6  -3   8   13.13    4.51
  -3  -2   8   11.38    5.42
  -2  -2   8   10.85    4.65
  -1  -2   8    5.41    3.38
   0  -2   8    1.97    2.03
   1  -2   8   20.73    3.62
   2  -2   8    4.47    2.12
   3  -2   8   -0.22    1.51
   4  -2   8   13.29    3.35
   5  -2   8    1.01    2.90
  -3  -1   8    1.42    3.37
  -2  -1   8    3.61    3.13
  -1  -1   8   20.76    3.66
   0  -1   8   -1.33    1.44
   1  -1   8    1.03    1.61
   2  -1   8   10.79    2.89
   3  -1   8    7.19    2.35
   4  -1   8   31.02    4.65
  -4   0   8    0.75    3.34
  -3   0   8    1.46    1.97
  -2   0   8   -0.93    1.78
  -1   0   8    1.45    1.87
   0   0   8   92.64    9.64
   1   0   8   -0.47    1.67
   2   0   8    1.90    1.79
   3   0   8    8.01    2.62
   4   0   8    4.58    2.31
  -4   1   8   26.69    4.78
  -3   1   8   12.25    3.29
  -2   1   8   15.00    2.71
  -1   1   8   -0.35    1.45
   0   1   8    0.03    1.50
   1   1   8   20.08    3.69
   2   1   8    1.28    1.80
   3   1   8    3.81    2.13
   4   1   8   11.36    4.22
  -5   2   8    1.85    2.28
  -4   2   8   10.76    3.23
  -3   2   8    0.39    1.83
  -2   2   8    3.33    1.80
  -1   2   8   13.57    2.70
   0   2   8    2.14    1.94
   1   2   8    8.52    2.76
   2   2   8    9.95    3.05
   3   2   8    3.20    2.37
  -6   3   8   10.28    5.05
  -5   3   8    6.48    2.94
  -4   3   8    2.52    2.41
  -3   3   8    2.12    1.67
  -2   3   8    9.47    2.35
  -1   3   8   -0.25    1.45
   0   3   8    4.34    1.85
   1   3   8   20.57    3.40
   2   3   8    0.12    1.74
   3   3   8   18.80    5.25
  -5   4   8    5.26    3.06
  -4   4   8    3.03    1.88
  -3   4   8   24.86    3.57
  -2   4   8   14.53    3.05
  -1   4   8    3.83    1.91
   0   4   8    4.64    1.91
   1   4   8   14.60    4.74
  -5   5   8    2.40    3.31
  -4   5   8   15.01    3.60
  -3   5   8    2.05    2.01
  -2   5   8    5.58    2.50
   0   0   0    0.00    0.00
;
_shelx_hkl_checksum              11809
loop_
_space_group_symop_operation_xyz
'x, y, z'
'-y, x-y, z'
'-x+y, -x, z'
'-x, -y, z+1/2'
'y, -x+y, z+1/2'
'x-y, x, z+1/2'
loop_
_atom_site_label
_atom_site_type_symbol
_atom_site_fract_x
_atom_site_fract_y
_atom_site_fract_z
_atom_site_U_iso_or_equiv
_atom_site_adp_type
_atom_site_occupancy
_atom_site_site_symmetry_order
_atom_site_calc_flag
_atom_site_refinement_flags_posn
_atom_site_refinement_flags_adp
_atom_site_refinement_flags_occupancy
_atom_site_disorder_assembly
_atom_site_disorder_group
Y Y 0.13099(9) 0.35711(9) 0.0286(2) 0.0256(2) Uani 1 1 d . . . . .
PdA Pd 0.0000 0.0000 0.2459(6) 0.0269(6) Uani 0.443(3) 3 d S T P . .
PdB Pd 0.0000 0.0000 -0.063(5) 0.0269(6) Uani 0.057(3) 3 d S T P . .
Si Si 0.3333 0.6667 0.6140(7) 0.0202(8) Uani 1 3 d S T P . .
S1 S 0.2524(3) 0.1591(3) 0.0000(6) 0.0382(6) Uani 1 1 d . . . . .
S2 S 0.5233(3) 0.1048(3) 0.2631(4) 0.0226(4) Uani 1 1 d . . . . .
S3 S 0.3333 0.6667 0.2455(7) 0.0239(7) Uani 1 3 d S T P . .
loop_
_atom_site_aniso_label
_atom_site_aniso_U_11
_atom_site_aniso_U_22
_atom_site_aniso_U_33
_atom_site_aniso_U_23
_atom_site_aniso_U_13
_atom_site_aniso_U_12
Y 0.0269(4) 0.0278(4) 0.0228(4) 0.0032(4) 0.0017(4) 0.0143(3)
PdA 0.0267(7) 0.0267(7) 0.0273(14) 0.000 0.000 0.0134(4)
PdB 0.0267(7) 0.0267(7) 0.0273(14) 0.000 0.000 0.0134(4)
Si 0.0254(12) 0.0254(12) 0.0098(14) 0.000 0.000 0.0127(6)
S1 0.0549(15) 0.0351(12) 0.0366(15) 0.0077(12) 0.0060(14) 0.0314(12)
S2 0.0264(10) 0.0232(9) 0.0146(8) 0.0011(8) -0.0008(8) 0.0097(8)
S3 0.0307(11) 0.0307(11) 0.0104(13) 0.000 0.000 0.0153(6)
loop_
_atom_type_symbol
_atom_type_description
_atom_type_scat_dispersion_real
_atom_type_scat_dispersion_imag
_atom_type_scat_source
Si Si 0.0817 0.0704 'International Tables Vol C Tables 4.2.6.8 and 6.1.1.4'
S S 0.1246 0.1234 'International Tables Vol C Tables 4.2.6.8 and 6.1.1.4'
Y Y -2.7962 3.5667 'International Tables Vol C Tables 4.2.6.8 and 6.1.1.4'
Pd Pd -0.9988 1.0072 'International Tables Vol C Tables 4.2.6.8 and 6.1.1.4'
loop_
_geom_angle_atom_site_label_1
_geom_angle_atom_site_label_2
_geom_angle_atom_site_label_3
_geom_angle
_geom_angle_site_symmetry_1
_geom_angle_site_symmetry_3
S1 Y S1 86.61(12) 2 .
S1 Y S2 104.62(9) 2 5_564
S1 Y S2 140.46(10) . 5_564
S1 Y S1 80.07(9) 2 6
S1 Y S1 79.84(9) . 6
S2 Y S1 138.95(8) 5_564 6
S1 Y S2 140.02(10) 2 6_554
S1 Y S2 73.80(8) . 6_554
S2 Y S2 73.68(9) 5_564 6_554
S1 Y S2 128.04(8) 6 6_554
S1 Y S3 148.06(9) 2 .
S1 Y S3 116.61(7) . .
S2 Y S3 72.16(7) 5_564 .
S1 Y S3 82.80(9) 6 .
S2 Y S3 70.86(7) 6_554 .
S1 Y S2 70.85(8) 2 2
S1 Y S2 145.53(9) . 2
S2 Y S2 72.32(4) 5_564 2
S1 Y S2 71.02(7) 6 2
S2 Y S2 139.44(6) 6_554 2
S3 Y S2 78.15(6) . 2
S1 Y PdB 43.57(8) 2 .
S1 Y PdB 43.50(8) . .
S2 Y PdB 130.4(4) 5_564 .
S1 Y PdB 81.1(5) 6 .
S2 Y PdB 106.6(3) 6_554 .
S3 Y PdB 156.6(3) . .
S2 Y PdB 112.1(2) 2 .
S1 Y S1 74.72(8) 2 6_554
S1 Y S1 74.54(8) . 6_554
S2 Y S1 72.32(8) 5_564 6_554
S1 Y S1 144.77(11) 6 6_554
S2 Y S1 66.67(7) 6_554 6_554
S3 Y S1 130.39(9) . 6_554
S2 Y S1 121.26(7) 2 6_554
PdB Y S1 63.7(5) . 6_554
S1 Y PdA 49.46(7) 2 .
S1 Y PdA 49.40(7) . .
S2 Y PdA 154.01(6) 5_564 .
S1 Y PdA 49.48(8) 6 .
S2 Y PdA 123.19(5) 6_554 .
S3 Y PdA 129.78(9) . .
S2 Y PdA 96.67(6) 2 .
PdB Y PdA 31.6(5) . .
S1 Y PdA 95.30(8) 6_554 .
S1 Y PdA 47.96(7) 2 4_554
S1 Y PdA 47.92(7) . 4_554
S2 Y PdA 114.36(7) 5_564 4_554
S1 Y PdA 99.12(8) 6 4_554
S2 Y PdA 95.24(6) 6_554 4_554
S3 Y PdA 162.91(3) . 4_554
S2 Y PdA 118.63(5) 2 4_554
PdB Y PdA 18.0(5) . 4_554
S1 Y PdA 45.65(7) 6_554 4_554
PdA Y PdA 49.643(13) . 4_554
PdB PdA PdB 180.0 4 .
PdB PdA S1 122.87(9) 4 3
PdB PdA S1 57.13(9) . 3
PdB PdA S1 122.87(9) 4 2
PdB PdA S1 57.13(9) . 2
S1 PdA S1 93.34(13) 3 2
PdB PdA S1 122.87(9) 4 .
PdB PdA S1 57.13(9) . .
S1 PdA S1 93.34(13) 3 .
S1 PdA S1 93.34(13) 2 .
PdB PdA S1 56.28(9) 4 6
PdB PdA S1 123.72(9) . 6
S1 PdA S1 179.14(17) 3 6
S1 PdA S1 87.25(5) 2 6
S1 PdA S1 87.25(5) . 6
PdB PdA S1 56.28(9) 4 5
PdB PdA S1 123.72(9) . 5
S1 PdA S1 87.25(5) 3 5
S1 PdA S1 179.14(17) 2 5
S1 PdA S1 87.25(5) . 5
S1 PdA S1 92.16(13) 6 5
PdB PdA S1 56.28(9) 4 4
PdB PdA S1 123.72(9) . 4
S1 PdA S1 87.25(5) 3 4
S1 PdA S1 87.25(5) 2 4
S1 PdA S1 179.14(17) . 4
S1 PdA S1 92.16(13) 6 4
S1 PdA S1 92.16(13) 5 4
PdB PdA PdA 180.0 4 4_554
PdB PdA PdA 0.0 . 4_554
S1 PdA PdA 57.13(9) 3 4_554
S1 PdA PdA 57.13(9) 2 4_554
S1 PdA PdA 57.13(9) . 4_554
S1 PdA PdA 123.72(9) 6 4_554
S1 PdA PdA 123.72(9) 5 4_554
S1 PdA PdA 123.72(9) 4 4_554
PdB PdA PdA 0.000(4) 4 4
PdB PdA PdA 180.0 . 4
S1 PdA PdA 122.87(9) 3 4
S1 PdA PdA 122.87(9) 2 4
S1 PdA PdA 122.87(9) . 4
S1 PdA PdA 56.28(9) 6 4
S1 PdA PdA 56.28(9) 5 4
S1 PdA PdA 56.28(9) 4 4
PdA PdA PdA 180.0 4_554 4
PdB PdA Y 111.96(6) 4 .
PdB PdA Y 68.04(6) . .
S1 PdA Y 125.17(13) 3 .
S1 PdA Y 53.51(6) 2 .
S1 PdA Y 53.82(6) . .
S1 PdA Y 55.69(7) 6 .
S1 PdA Y 126.55(6) 5 .
S1 PdA Y 126.24(6) 4 .
PdA PdA Y 68.04(6) 4_554 .
PdA PdA Y 111.96(6) 4 .
PdB PdA Y 111.96(6) 4 2
PdB PdA Y 68.04(6) . 2
S1 PdA Y 53.51(6) 3 2
S1 PdA Y 53.82(6) 2 2
S1 PdA Y 125.17(13) . 2
S1 PdA Y 126.55(6) 6 2
S1 PdA Y 126.24(6) 5 2
S1 PdA Y 55.69(7) 4 2
PdA PdA Y 68.04(6) 4_554 2
PdA PdA Y 111.96(6) 4 2
Y PdA Y 106.87(6) . 2
PdA PdB PdA 180.0 4_554 .
PdA PdB S1 99.4(7) 4_554 3
PdA PdB S1 80.6(7) . 3
PdA PdB S1 99.4(7) 4_554 2
PdA PdB S1 80.6(7) . 2
S1 PdB S1 117.4(4) 3 2
PdA PdB S1 99.4(7) 4_554 .
PdA PdB S1 80.6(7) . .
S1 PdB S1 117.4(4) 3 .
S1 PdB S1 117.4(4) 2 .
PdA PdB PdB 0.0 4_554 4_554
PdA PdB PdB 180.0 . 4_554
S1 PdB PdB 99.4(7) 3 4_554
S1 PdB PdB 99.4(7) 2 4_554
S1 PdB PdB 99.4(7) . 4_554
PdA PdB PdB 180.0 4_554 4
PdA PdB PdB 0.0 . 4
S1 PdB PdB 80.6(7) 3 4
S1 PdB PdB 80.6(7) 2 4
S1 PdB PdB 80.6(7) . 4
PdB PdB PdB 180.0 4_554 4
PdA PdB Y 99.7(5) 4_554 .
PdA PdB Y 80.3(5) . .
S1 PdB Y 160.9(12) 3 .
S1 PdB Y 58.90(13) 2 .
S1 PdB Y 59.27(13) . .
PdB PdB Y 99.7(5) 4_554 .
PdB PdB Y 80.3(5) 4 .
PdA PdB Y 99.7(5) 4_554 2
PdA PdB Y 80.3(5) . 2
S1 PdB Y 58.90(13) 3 2
S1 PdB Y 59.26(13) 2 2
S1 PdB Y 160.9(12) . 2
PdB PdB Y 99.7(5) 4_554 2
PdB PdB Y 80.3(5) 4 2
Y PdB Y 117.2(3) . 2
PdA PdB Y 99.7(5) 4_554 3
PdA PdB Y 80.3(5) . 3
S1 PdB Y 59.26(13) 3 3
S1 PdB Y 160.9(12) 2 3
S1 PdB Y 58.90(13) . 3
PdB PdB Y 99.7(5) 4_554 3
PdB PdB Y 80.3(5) 4 3
Y PdB Y 117.2(3) . 3
Y PdB Y 117.2(3) 2 3
S3 Si S2 113.41(12) . 6
S3 Si S2 113.41(12) . 4_665
S2 Si S2 105.26(13) 6 4_665
S3 Si S2 113.41(12) . 5_565
S2 Si S2 105.26(13) 6 5_565
S2 Si S2 105.26(13) 4_665 5_565
PdB S1 PdA 42.3(7) . .
PdB S1 PdA 24.3(7) . 4_554
PdA S1 PdA 66.59(7) . 4_554
PdB S1 Y 77.53(11) . 3
PdA S1 Y 77.03(8) . 3
PdA S1 Y 80.96(8) 4_554 3
PdB S1 Y 77.23(11) . .
PdA S1 Y 76.78(8) . .
PdA S1 Y 80.70(8) 4_554 .
Y S1 Y 152.36(12) 3 .
PdB S1 Y 99.1(7) . 5_554
PdA S1 Y 141.42(14) . 5_554
PdA S1 Y 74.83(10) 4_554 5_554
Y S1 Y 97.63(10) 3 5_554
Y S1 Y 97.31(9) . 5_554
PdB S1 Y 116.1(7) . 5
PdA S1 Y 73.80(10) . 5
PdA S1 Y 140.39(13) 4_554 5
Y S1 Y 90.66(9) 3 5
Y S1 Y 90.41(9) . 5
Y S1 Y 144.77(11) 5_554 5
Si S2 Y 91.79(10) 4_664 6_655
Si S2 Y 89.26(9) 4_664 5
Y S2 Y 109.42(9) 6_655 5
Si S2 Y 120.72(13) 4_664 3
Y S2 Y 142.18(8) 6_655 3
Y S2 Y 91.15(7) 5 3
Si S3 Y 114.82(7) . 3_565
Si S3 Y 114.82(7) . .
Y S3 Y 103.63(8) 3_565 .
Si S3 Y 114.82(7) . 2_665
Y S3 Y 103.63(8) 3_565 2_665
Y S3 Y 103.63(8) . 2_665
loop_
_geom_bond_atom_site_label_1
_geom_bond_atom_site_label_2
_geom_bond_distance
_geom_bond_site_symmetry_2
Y S1 2.725(3) 2
Y S1 2.739(3) .
Y S2 2.781(2) 5_564
Y S1 2.827(3) 6
Y S2 2.875(2) 6_554
Y S3 2.9366(18) .
Y S2 2.975(2) 2
Y PdB 3.107(5) .
Y S1 3.136(4) 6_554
Y PdA 3.3027(15) .
Y PdA 3.4588(18) 4_554
PdA PdB 1.08(3) 4
PdA PdB 1.76(3) .
PdA S1 2.576(3) 3
PdA S1 2.576(3) 2
PdA S1 2.576(3) .
PdA S1 2.601(4) 6
PdA S1 2.601(4) 5
PdA S1 2.601(4) 4
PdA PdA 2.8420(2) 4_554
PdA PdA 2.8420(2) 4
PdA Y 3.3027(15) 2
PdB PdA 1.08(3) 4_554
PdB S1 2.193(5) 3
PdB S1 2.193(5) 2
PdB S1 2.193(5) .
PdB PdB 2.8420(2) 4_554
PdB PdB 2.8420(2) 4
PdB Y 3.107(5) 2
PdB Y 3.107(5) 3
Si S3 2.094(5) .
Si S2 2.134(3) 6
Si S2 2.134(3) 4_665
Si S2 2.134(3) 5_565
S1 PdA 2.601(4) 4_554
S1 Y 2.725(3) 3
S1 Y 2.827(3) 5_554
S1 Y 3.136(4) 5
S2 Si 2.134(3) 4_664
S2 Y 2.781(2) 6_655
S2 Y 2.875(2) 5
S2 Y 2.975(2) 3
S3 Y 2.9366(18) 3_565
S3 Y 2.9366(18) 2_665
