#------------------------------------------------------------------------------
#$Date: 2021-02-11 14:24:51 +0200 (Thu, 11 Feb 2021) $
#$Revision: 261891 $
#$URL: file:///home/coder/svn-repositories/cod/cif/1/56/03/1560337.cif $
#------------------------------------------------------------------------------
#
# This file is available in the Crystallography Open Database (COD),
# http://www.crystallography.net/
#
# All data on this site have been placed in the public domain by the
# contributors.
#
data_1560337
loop_
_publ_author_name
'Hamchaoui, Farida'
'Alonzo, V\'eronique'
'Marlart, Isabelle'
'Auguste, Sandy'
'Galven, Cyrille'
'Rebbah, Houria'
'Le Fur, Eric'
_publ_section_title
;
 Hydrothermal synthesis, structural and thermal characterizations of three
 open-framework gallium phosphites
;
_journal_name_full               'Journal of Solid State Chemistry'
_journal_page_first              8
_journal_page_last               12
_journal_paper_doi               10.1016/j.jssc.2017.07.030
_journal_volume                  255
_journal_year                    2017
_chemical_formula_sum            'Ga H2 O6 P2 Rb'
_chemical_formula_weight         315.15
_space_group_crystal_system      hexagonal
_space_group_IT_number           186
_space_group_name_Hall           'P 6c -2c'
_space_group_name_H-M_alt        'P 63 m c'
_atom_sites_solution_hydrogens   difmap
_cell_angle_alpha                90
_cell_angle_beta                 90
_cell_angle_gamma                120
_cell_formula_units_Z            2
_cell_length_a                   5.27020(10)
_cell_length_b                   5.27020(10)
_cell_length_c                   12.7619(5)
_cell_measurement_reflns_used    3716
_cell_measurement_temperature    293(2)
_cell_measurement_theta_max      34.97
_cell_measurement_theta_min      2.91
_cell_volume                     306.973(15)
_computing_cell_refinement       'DIRAX/LSQ (Duisenberg, 1992)'
_computing_data_collection       'COLLECT (Nonius, 1998)'
_computing_data_reduction        'EVALCCD (Duisenberg, 1998)'
_computing_molecular_graphics    'DIAMOND (Brandenburg, 2005)'
_computing_publication_material  'WinGX (Farrugia, 1999)'
_computing_structure_refinement  'SHELXL97 (Sheldrick, 2008)'
_computing_structure_solution    'SIR97 (Altomare <i>et al.</i>,  1999)'
_diffrn_ambient_temperature      293(2)
_diffrn_measured_fraction_theta_full 0.993
_diffrn_measured_fraction_theta_max 0.997
_diffrn_measurement_device_type  'Nonius KappaCCD'
_diffrn_measurement_method       'CCD rotation images, thick slices'
_diffrn_radiation_monochromator  graphite
_diffrn_radiation_source         'fine-focus sealed tube'
_diffrn_radiation_type           MoK\a
_diffrn_radiation_wavelength     0.71069
_diffrn_reflns_av_R_equivalents  0.0269
_diffrn_reflns_av_unetI/netI     0.0317
_diffrn_reflns_Laue_measured_fraction_full 0.993
_diffrn_reflns_Laue_measured_fraction_max 0.997
_diffrn_reflns_limit_h_max       8
_diffrn_reflns_limit_h_min       -6
_diffrn_reflns_limit_k_max       8
_diffrn_reflns_limit_k_min       -6
_diffrn_reflns_limit_l_max       20
_diffrn_reflns_limit_l_min       -20
_diffrn_reflns_number            4432
_diffrn_reflns_point_group_measured_fraction_full 0.949
_diffrn_reflns_point_group_measured_fraction_max 0.966
_diffrn_reflns_theta_full        25.240
_diffrn_reflns_theta_max         34.958
_diffrn_reflns_theta_min         4.465
_exptl_absorpt_coefficient_mu    12.846
_exptl_absorpt_correction_T_max  0.773
_exptl_absorpt_correction_T_min  0.358
_exptl_absorpt_correction_type   multi-scan
_exptl_absorpt_process_details   '(SADABS; Sheldrick, 2002)'
_exptl_crystal_colour            colorless
_exptl_crystal_density_diffrn    3.409
_exptl_crystal_description       block
_exptl_crystal_F_000             304
_exptl_crystal_size_max          0.08
_exptl_crystal_size_mid          0.05
_exptl_crystal_size_min          0.02
_refine_diff_density_max         0.411
_refine_diff_density_min         -0.369
_refine_diff_density_rms         0.083
_refine_ls_abs_structure_details
;
 Flack x determined using 229 quotients [(I+)-(I-)]/[(I+)+(I-)]
 (Parsons, Flack and Wagner, Acta Cryst. B69 (2013) 249-259).
;
_refine_ls_abs_structure_Flack   0.015(6)
_refine_ls_extinction_coef       0.006(3)
_refine_ls_extinction_expression Fc^*^=kFc[1+0.001xFc^2^\l^3^/sin(2\q)]^-1/4^
_refine_ls_extinction_method     SHELXL
_refine_ls_goodness_of_fit_ref   0.807
_refine_ls_hydrogen_treatment    refxyz
_refine_ls_matrix_type           full
_refine_ls_number_parameters     28
_refine_ls_number_reflns         562
_refine_ls_number_restraints     3
_refine_ls_restrained_S_all      0.805
_refine_ls_R_factor_all          0.0198
_refine_ls_R_factor_gt           0.0158
_refine_ls_shift/su_max          0.000
_refine_ls_shift/su_mean         0.000
_refine_ls_structure_factor_coef Fsqd
_refine_ls_weighting_details
'w=1/[\s^2^(Fo^2^)+(0.0329P)^2^+0.1567P] where P=(Fo^2^+2Fc^2^)/3'
_refine_ls_weighting_scheme      calc
_refine_ls_wR_factor_gt          0.0426
_refine_ls_wR_factor_ref         0.0446
_reflns_Friedel_coverage         0.867
_reflns_Friedel_fraction_full    0.902
_reflns_Friedel_fraction_max     0.932
_reflns_number_gt                517
_reflns_number_total             562
_reflns_threshold_expression     'I > 2\s(I)'
_cod_data_source_file            RbGa.cif
_cod_data_source_block           3
_cod_original_cell_volume        306.973(17)
_cod_database_code               1560337
_shelx_space_group_comment
;
The symmetry employed for this shelxl refinement is uniquely defined
by the following loop, which should always be used as a source of
symmetry information in preference to the above space-group names.
They are only intended as comments.
;
_shelxl_version_number           2014/6
_shelx_res_file
;
TITL import in P 63 m c
CELL  0.71069   5.27020   5.27020  12.7619   90.000   90.000  120.000
ZERR    2   0.0001   0.0001   0.0005    0.00    0.0    0.00
LATT  -1
SYMM  - X, - Y, 1/2 + Z
SYMM  - Y,   X - Y,   Z
SYMM  - X + Y, - X,   Z
SYMM    X - Y,   X, 1/2 + Z
SYMM    Y, - X + Y, 1/2 + Z
SYMM  - X + Y,   Y,   Z
SYMM    X,   X - Y,   Z
SYMM  - Y, - X,   Z
SYMM    Y,   X, 1/2 + Z
SYMM  - X, - X + Y, 1/2 + Z
SYMM    X - Y, - Y, 1/2 + Z
SFAC  O    P    GA    RB    H
UNIT  12   4    2    2    12
MERG   2
OMIT     0.00 180.00
ACTA
FMAP   2
L.S. 24
DFIX   H1 P1 1.3 0.05
DFIX H2 P2 1.3 0.05
DFIX   HN1 N1 1.0 0.05
DFIX   HN2 N1 1.2 0.05
PLAN   -20
LIST   1
WGHT    0.032900    0.156700
EXTI    0.006229
FVAR       0.72353
GA    3    0.666667    0.333333    0.408600    10.16667    0.00509    0.00509 =
         0.01169    0.00000    0.00000    0.00255
P1    2    0.333333    0.666667    0.531386    10.16667    0.00556    0.00556 =
         0.00856    0.00000    0.00000    0.00278
P2    2    1.000000    1.000000    0.357339    10.16667    0.00533    0.00533 =
         0.00900    0.00000    0.00000    0.00266
O2    1    0.841360    0.682721    0.318351    10.50000    0.01232    0.00689 =
         0.01380   -0.00043   -0.00021    0.00344
O1    1    0.493604    0.506396    0.501249    10.50000    0.01282    0.01282 =
         0.02053   -0.00149    0.00149    0.00944
RB1   4    0.333333    0.666667    0.202968    10.16667    0.01467    0.01467 =
         0.01398    0.00000    0.00000    0.00733
H2    5    1.000000    1.000000    0.455543    10.16667   -1.20000
H1    5    0.333333    0.666667    0.633291    10.16667   -1.20000

HKLF    4

REM  import in P 63 m c
REM R1 =  0.0158 for     517 Fo > 4sig(Fo)  and  0.0198 for all     562 data
REM     28 parameters refined using      3 restraints

END

WGHT      0.0000      0.0000

REM Highest difference peak  0.411,  deepest hole -0.369,  1-sigma level  0.083
Q1    1   0.3333  0.6667  0.1460  10.16667  0.05    0.41
Q2    1   0.4959 -0.0082  0.4487  10.50000  0.05    0.34
Q3    1   0.3333  0.6667  0.2530  10.16667  0.05    0.32
Q4    1   0.6667  0.3333  0.4672  10.16667  0.05    0.29
Q5    1   1.0000  1.0000  0.5131  10.16667  0.05    0.28
Q6    1   0.8500  0.7001  0.2638  10.50000  0.05    0.27
Q7    1   1.1809  1.3618  0.2837  10.50000  0.05    0.26
Q8    1   0.8500  0.6999  0.1911  10.50000  0.05    0.25
Q9    1   0.6667  0.3333  0.3621  10.16667  0.05    0.25
Q10   1   1.1987  1.3974  0.3689  10.50000  0.05    0.25
Q11   1   0.4139  0.8279  0.2060  10.50000  0.05    0.25
Q12   1   0.3352  0.2583  0.3172  11.00000  0.05    0.24
Q13   1   0.7252  0.4504  0.5318  10.50000  0.05    0.24
Q14   1   0.9148  0.5258  0.5009  11.00000  0.05    0.22
Q15   1   0.6724  0.8362  0.5953  10.50000  0.05    0.22
Q16   1   0.1849  0.3698  0.1067  10.50000  0.05    0.22
Q17   1   0.4310  0.8621  0.5025  10.50000  0.05    0.22
Q18   1   0.7003  0.8502  0.5283  10.50000  0.05    0.21
Q19   1   0.9144  0.8287  0.3314  10.50000  0.05    0.21
Q20   1   0.6331 -0.0237  0.4095  11.00000  0.05    0.21
;
_shelx_res_checksum              76329
_shelx_hkl_file
;
   1  -1   0 1377.74   89.75   4
   0  -1   0 1367.59   98.91   3
  -1   0   0 1395.24   99.23   3
  -1   1   0 1335.02   89.77   4
   0   1   0 1421.71   98.95   3
  -1   1   0 1455.14   97.55   1
   1  -1   0 1303.57   94.29   2
   0  -1   0 1409.82   97.88   1
   1   0   0 1397.45   99.28   3
   1  -1   0 1229.56   97.53   1
  -1  -1   0 7641.53  536.77   1
  -1   2   0 7185.53  536.56   1
   1  -2   0 8144.81  536.61   1
   2  -1   0 7794.89  544.13   3
   1   1   0 7288.17  543.94   3
   2  -1   0 7155.72  491.88   4
  -1   2   0 7540.52  516.88   2
  -1  -1   0 7992.18  543.92   3
   1   1   0 6973.22  536.75   1
  -2   2   0  301.91   21.29   4
  -2   0   0  294.80   22.41   1
   2   0   0  313.84   23.34   3
   2   0   0  298.19   22.41   1
  -2   2   0  302.26   21.97   1
   2  -2   0  303.84   22.77   3
   0  -2   0  295.14   22.76   1
   0  -2   0  299.41   22.34   3
   0   2   0  303.93   22.77   1
   0   2   0  300.00   22.48   3
  -2   2   0  315.66   21.93   1
   2  -2   0  318.41   22.18   2
   3  -1   0  925.85   67.59   3
   1   2   0  920.88   66.45   1
   2  -3   0  924.07   65.75   1
   2  -3   0  935.24   66.37   3
   3  -1   0  927.62   65.63   1
  -3   1   0  892.37   65.53   1
  -2   3   0  861.77   61.11   4
   2  -3   0  925.70   64.26   2
  -1  -2   0  904.58   66.26   1
  -1  -2   0  912.58   66.72   3
  -2   3   0  902.76   63.93   2
   1   2   0  911.10   66.86   3
  -2   3   0  924.47   65.76   1
  -1   3   0  907.07   64.10   2
  -1   3   0  943.59   66.17   1
   1  -3   0  888.27   65.98   1
   3  -2   0  926.83   67.15   3
   3  -2   0  933.20   60.90   4
  -2  -1   0  909.26   66.09   1
   2   1   0  888.65   66.19   1
   2   1   0  898.44   67.18   3
   0  -3   0 5363.69  375.91   1
   3  -3   0 5230.63  362.22   2
  -3   0   0 5364.86  375.52   1
   3   0   0 5273.52  375.58   1
   0   3   0 5063.04  380.16   3
   0   3   0 5256.25  376.01   1
  -3   3   0 5058.58  344.70   4
   3   0   0 5390.10  381.35   3
   3  -3   0 5360.44  380.60   3
   1   3   0  449.81   34.64   3
  -4   1   0  451.80   33.64   1
   4  -1   0  462.53   33.82   1
   3  -4   0  437.42   33.59   1
  -3   4   0  459.62   33.56   1
   3  -4   0  480.36   34.09   3
   1   3   0  469.62   35.38   1
  -1  -3   0  456.73   34.77   1
   3  -4   0  459.74   34.04   2
  -3   4   0  467.52   32.94   4
   4  -1   0  458.19   35.68   3
   4  -2   0 9010.78  672.80   1
   2  -4   0 9719.30  673.70   1
   4  -2   0 8935.17  617.80   4
  -2  -2   0 9486.10  674.00   1
   2   2   0 9697.80  683.16   3
  -2   4   0 9108.63  649.14   2
   2   2   0 9540.66  674.20   1
  -2   4   0 9594.42  673.64   1
   4  -2   0 9997.61  683.57   3
  -3  -1   0  464.19   34.65   1
   1  -4   0  463.72   34.60   1
   3   1   0  474.00   34.91   1
   4  -3   0  440.79   32.03   4
  -1   4   0  447.19   34.15   2
   4  -3   0  480.74   35.56   3
  -1   4   0  481.74   34.98   1
   3   1   0  436.84   35.56   3
   4  -4   0  190.37   16.10   3
   4   0   0  190.04   18.49   3
  -4   4   0  195.66   16.94   4
   0  -4   0  193.29   16.27   1
   4  -4   0  190.73   17.61   2
  -4   0   0  197.03   15.74   1
   0   4   0  185.95   14.97   3
   4   0   0  204.90   16.37   1
   0   4   0  201.26   17.75   1
   5  -1   0 2860.25  201.80   1
   4  -5   0 2780.00  195.74   2
   5  -1   0 2848.13  206.27   3
   1   4   0 2761.11  203.04   1
  -5   1   0 2681.82  201.53   1
  -4   5   0 2802.18  201.21   1
   1   4   0 2872.95  204.65   3
  -4   5   0 2846.28  201.06   1
   4  -5   0 2858.91  204.19   3
  -4   5   0 2863.33  186.73   4
   2   3   0  252.46   21.83   3
  -5   2   0  264.84   19.61   1
   2   3   0  263.53   22.60   1
   3  -5   0  265.08   20.54   1
   5  -2   0  255.19   22.31   3
  -3   5   0  259.45   20.48   1
  -3   5   0  280.16   21.94   4
   5  -2   0  278.14   19.77   1
   2  -5   0  266.76   20.51   1
   3   2   0  239.57   21.49   1
   3   2   0  253.34   22.32   3
  -2   5   0  253.83   20.62   1
   5  -3   0  263.54   22.07   3
   5  -4   0 2807.63  204.21   3
   5  -4   0 2791.03  194.95   2
   4   1   0 2864.26  205.02   3
  -1   5   0 2819.24  201.67   1
   4   1   0 2843.13  201.62   1
  -4  -1   0 2690.13  201.17   1
   5  -5   0  296.56   24.94   2
   5   0   0  296.06   25.23   3
   5   0   0  305.41   23.44   1
  -5   0   0  257.40   22.46   1
   5  -5   0  292.98   23.22   3
  -5   5   0  279.90   23.35   4
   0   5   0  300.13   24.56   1
   1   5   0  182.22   18.40   1
  -5   6   0  187.18   19.30   4
   5  -6   0  208.66   16.02   3
   6  -1   0  208.50   16.61   1
   1   5   0  200.19   16.12   3
   6  -1   0  178.59   21.23   3
   2   4   0   97.80   11.56   3
  -4   6   0  110.94    9.70   1
   6  -2   0  106.78    9.09   1
  -4   6   0  117.30   13.52   4
   6  -2   0  119.48   16.31   3
   2   4   0   95.30   14.02   1
   3   3   0 2046.26  150.75   3
   6  -3   0 2042.58  151.46   3
   3  -6   0 2054.94  148.13   1
   3   3   0 2021.69  149.14   1
  -3   6   0 2075.74  147.93   1
  -3   6   0 2077.82  137.47   4
   6  -4   0  107.69   13.36   3
   6  -4   0   97.54   12.36   2
   4   2   0  100.96   12.75   1
  -2   6   0  108.24   10.85   1
   4   2   0   97.94   14.09   3
  -1   6   0  211.94   19.92   1
   5   1   0  214.75   18.84   1
   6  -5   0  203.39   18.14   3
   5   1   0  203.30   20.18   3
   6  -5   0  207.89   19.03   2
   6  -6   0 2698.66  196.49   3
   6   0   0 2636.46  198.87   3
   0   6   0 2610.31  195.28   1
   6   0   0 2829.81  194.56   1
   6  -6   0 2703.87  188.67   2
   1   6   0   71.04   15.69   1
  -6   7   0   70.87   12.56   4
   7  -1   0   90.42   16.31   3
  -5   7   0 1281.81   91.03   4
   7  -2   0 1361.33  100.51   3
   2   5   0 1325.84   97.71   3
   2   5   0 1317.38   98.62   1
   3   4   0  155.45   16.75   1
   7  -3   0  160.83   19.23   3
  -4   7   0  165.83   14.49   1
  -4   7   0  164.71   19.42   4
   3   4   0  161.86   17.07   3
  -3   7   0  166.63   17.26   4
   4   3   0  171.76   19.01   1
   4   3   0  174.41   18.34   3
   7  -4   0  163.02   17.33   3
  -3   7   0  169.46   16.43   1
  -2   7   0 1283.59   95.96   1
   5   2   0 1331.01   98.90   3
   7  -5   0 1346.36   93.90   2
   5   2   0 1251.75   96.11   1
   7  -5   0 1302.39   97.78   3
  -1   7   0   69.42   13.98   1
   7  -6   0   92.42   11.74   3
   7  -6   0   85.90   16.17   2
   6   1   0   79.69   10.47   1
   7   0   0   37.54   13.48   3
   0   7   0   37.56   13.63   1
  -6   8   0   15.34   18.37   4
   8  -2   0   32.08   14.59   3
  -5   8   0   81.30   13.89   4
   3   5   0   86.75   14.05   1
   4   4   0 1551.51  118.30   3
   4   4   0 1631.69  117.57   1
   8  -4   0 1629.67  119.64   3
  -4   8   0 1529.68  109.04   4
   8  -5   0   81.35   16.20   2
  -3   8   0   74.36   17.52   4
   8  -5   0   81.28   15.48   3
  -3   8   0   95.22   13.81   1
  -2   8   0   48.55   20.17   1
   8  -6   0   40.49   11.97   2
   6   2   0   18.93   16.12   3
   8  -6   0   45.36   15.69   3
  -1   1   1  698.58   56.94   3
   0  -1   1  709.65   56.29   1
   1  -1  -1  895.21   51.76   4
   0  -1   1  717.51   57.00   3
  -1   1   1  699.04   51.64   4
  -1   1   1  716.73   56.19   1
   1   0   1  704.28   56.25   1
  -1   0  -1  845.64   56.27   1
  -1   1   1  709.12   56.18   1
   0   1  -1  893.06   57.13   3
   1  -1  -1  874.74   54.33   2
   0   1  -1  862.17   56.40   1
   1  -1  -1  873.67   57.04   3
   1   0  -1  860.00   54.49   3
   1  -1   1  698.36   51.70   2
   1  -1   1  649.12   53.14   1
  -1   0   1  695.15   54.30   3
   0   1   1  711.33   53.62   1
   0  -1  -1  859.64   53.66   1
  -1   0   1  672.81   53.41   1
   1  -1   1  695.12   49.14   4
  -1   1  -1  863.90   49.31   4
  -2   1   1   -1.94    3.14   3
  -2   1   1   -0.05    1.41   1
  -1   2  -1    0.39    2.96   2
  -1  -1  -1    0.49    2.37   1
   2  -1  -1    7.07    3.34   4
   1   1   1    4.63    3.18   3
   2  -1  -1    3.46    4.23   3
   1   1   1    7.32    3.61   1
  -1   2  -1    0.22    2.34   1
   1  -2   1   -1.74    2.15   1
   2  -1  -1    2.70    1.55   1
  -3   2   1  535.73   45.44   1
   3  -2  -1  701.93   45.66   1
  -1   3  -1  691.98   45.32   2
  -1   3  -1  694.93   46.44   1
   3  -2  -1  695.37   47.21   3
  -2  -1  -1  697.22   46.53   1
   1  -3   1  544.58   46.17   3
   1  -3   1  540.33   46.17   1
   2   1   1  526.90   47.12   3
   3  -2  -1  730.75   42.98   4
   2   0   1 1186.09   80.89   3
   0   2  -1  951.08   79.49   1
   2  -2  -1 1004.72   76.70   2
   0  -2   1 1167.11   80.23   3
   0   2  -1  978.00   80.26   3
   0  -2   1 1210.34   79.64   1
   2  -2  -1  992.47   80.30   3
  -2   2   1 1153.38   79.09   1
  -2   2   1 1218.23   73.24   4
   2   0   1 1212.84   79.46   1
  -2   0  -1  993.80   79.25   1
  -2   2   1 1194.83   79.09   1
  -1  -1   1    3.00    2.82   3
  -1   2   1    5.09    2.14   1
   1   1  -1   -1.38    2.54   1
   2  -1   1    0.12    0.88   1
  -1   2   1    4.02    3.46   2
  -1  -1   1    1.14    2.24   1
   2   0  -1 1025.50   78.62   1
   0   2   1 1187.24   79.29   3
   0  -2  -1  978.54   78.76   1
   0   2   1 1157.36   79.03   1
  -2   0   1 1160.68   80.03   3
   2   0  -1  984.52   79.98   3
   2  -2   1 1175.39   76.33   2
  -2   2  -1 1006.61   72.47   4
  -2   0   1 1174.35   78.66   1
   2  -3   1  516.35   42.78   2
   3  -1  -1  662.68   44.97   3
  -1  -2  -1  690.57   44.23   1
   2  -3   1  518.29   43.29   1
  -2   3  -1  671.67   43.42   1
  -3   1   1  521.38   43.24   1
   1   2   1  531.82   44.17   3
  -2   3  -1  691.93   41.17   4
   1   2   1  536.40   44.22   1
  -2   3  -1  665.26   42.83   2
   2  -4   1    5.89    3.56   1
  -2   4  -1    9.62    6.33   2
  -2  -2  -1   15.55    4.14   1
   4  -2  -1    8.09    5.60   4
   4  -2  -1   -0.47    6.65   3
   2   2   1   22.71    5.83   3
   3   2   1  142.91   13.51   1
   2  -5   1  143.06   12.79   1
  -2   5  -1  167.55   13.56   1
   3   2   1  133.42   14.79   3
  -1   4  -1  333.43   24.53   1
   3   1   1  269.51   24.15   1
   3   1   1  257.28   24.56   3
  -3  -1  -1  325.28   24.02   1
   4  -3  -1  327.11   22.44   4
  -1   4  -1  335.86   23.92   2
   4  -3  -1  334.00   24.87   3
   3  -3  -1   19.65    6.45   2
  -3   3   1   13.55    2.39   1
  -3   0  -1   13.58    3.62   1
   0   3  -1    6.75    3.78   3
   3   0   1   18.73    5.30   3
   0  -3   1    2.21    4.33   1
  -3   3   1   14.18    2.27   1
   3  -3  -1   11.15    4.04   3
   0  -3   1   10.24    2.61   3
   3  -1   1  539.42   40.59   1
  -2   3   1  554.56   40.94   1
   3  -1   1  531.88   42.25   3
  -1  -2   1  519.39   41.51   3
   1   2  -1  674.05   41.77   1
   2  -3  -1  687.30   41.14   1
  -2   3   1  526.48   39.83   2
  -1  -2   1  513.78   41.21   1
  -2   3   1  514.80   38.33   4
   3  -2   1  541.61   36.42   4
  -2  -1   1  522.37   39.77   3
   3  -2   1  538.37   39.92   3
  -1   3   1  535.40   39.33   1
  -1   3   1  529.32   38.20   2
  -2  -1   1  532.19   39.22   1
   3   0  -1   13.38    4.28   1
   3  -3   1   13.94    3.92   3
   3  -3   1    7.07    4.98   2
  -3   3  -1   20.58    5.26   4
   0   3   1   16.23    2.62   3
  -3   0   1    7.71    3.49   1
   3  -4   1  250.77   21.12   1
   4  -1  -1  338.18   24.34   3
   3  -4   1  251.72   23.03   2
  -3   4  -1  330.79   21.30   1
  -4   1   1  249.97   21.34   1
  -1  -3  -1  330.93   22.82   1
   1   3   1  255.29   22.10   3
  -3   4  -1  333.65   22.25   4
   3  -4   1  264.62   21.70   3
   1   3   1  269.83   22.72   1
   2   3   1  147.65   14.61   3
   5  -2  -1  185.90   16.78   3
   2   3   1  131.15   15.52   1
   3  -5   1  150.54   13.06   1
  -5   2   1  154.42   12.24   1
   3  -5   1  157.08   12.36   3
   3  -5   1  157.04   12.20   3
  -3   5  -1  188.93   13.23   1
   6  -3  -1  -12.19   10.75   3
  -3   6  -1    5.49   10.69   4
   3   3   1   -2.43    8.09   3
   3   3   1   30.41   10.06   1
   3  -6   1  -10.36    8.62   1
  -3   7  -1  147.00   13.77   1
   7  -4  -1  128.43   16.25   3
  -3   7  -1  135.00   15.82   4
   6  -4  -1  137.09   14.27   3
   4   2   1  164.68   15.28   1
  -2   6  -1  134.62   14.09   1
   6  -4  -1  133.48   14.48   2
   4   2   1  160.48   17.09   3
   4   1   1   16.47   10.52   3
  -4  -1  -1    1.39    4.99   1
   5  -4  -1   21.01    7.50   3
  -1   5  -1    6.80    8.44   1
   4   1   1   20.16    7.15   1
   5  -4  -1   -0.02    8.86   2
  -4   0  -1  310.53   23.92   1
   4   0   1  321.34   25.79   3
   0  -4   1  338.50   23.40   3
   0  -4   1  331.85   24.74   1
   4   0   1  356.34   24.40   1
   4  -4  -1  285.87   24.23   3
   0   4  -1  279.27   23.67   3
   0   4  -1  280.03   25.15   1
  -4   4   1  341.06   24.23   4
   4  -4  -1  285.47   24.56   2
   1   3  -1  327.44   23.44   3
   3  -4  -1  336.84   22.61   3
   1   3  -1  335.07   24.35   1
   3  -4  -1  345.44   23.97   2
  -3   4   1  241.35   22.29   4
   4  -1   1  265.24   22.37   1
  -3   4   1  250.11   22.29   1
  -1  -3   1  263.83   23.35   1
   3  -4  -1  332.09   22.59   1
   4  -1   1  264.69   24.80   3
  -4   1  -1  333.05   22.46   1
  -2   4   1   15.69    4.54   2
   2   2  -1    4.07    5.89   3
   4  -2   1   28.20    7.39   3
   2  -4  -1   19.45    4.59   1
   4  -2   1    5.62    5.86   4
  -2   4   1   29.78    5.58   1
  -1   4   1  244.19   20.14   2
   4  -3   1  251.64   19.12   4
  -3  -1   1  257.65   20.51   1
  -1   4   1  253.65   20.90   1
   3   1  -1  305.19   22.31   3
   4  -3   1  252.51   21.16   3
   4   0  -1  294.43   26.46   3
   4   0  -1  291.31   25.26   1
   0  -4  -1  276.11   25.29   1
   4  -4   1  351.29   25.49   3
   0   4   1  348.67   26.07   1
   4  -4   1  368.50   26.46   2
  -4   0   1  381.80   25.08   1
  -4   4  -1  295.36   24.78   4
   5  -1  -1   -9.07   10.67   3
   5  -1  -1    9.00    3.55   1
   1   4   1   21.13    9.62   1
   1   4   1   17.67    4.98   3
  -5   1   1    4.04    3.56   1
  -4   5  -1    9.18    9.25   4
   4  -5   1   17.29   11.36   2
   6  -2  -1  156.68   18.28   3
   2   4   1  168.35   17.17   1
  -4   6  -1  140.91   12.40   1
   6  -2  -1  137.03   12.27   1
  -4   6  -1  150.17   14.70   4
   2   4   1  163.76   14.25   3
  -4   7  -1  124.06   18.08   4
  -4   7  -1  155.00   13.32   1
   7  -3  -1  140.27   16.54   3
  -4   8  -1  -20.25   15.86   4
   4   4   1   11.03   25.89   3
   8  -4  -1    7.13   10.92   3
  -3   8  -1   82.61   14.61   1
  -3   8  -1   57.03   16.83   4
   8  -5  -1   68.85   17.83   2
   8  -5  -1   60.59   15.33   3
   7  -5  -1    9.89   10.83   3
   7  -5  -1   17.80   13.53   2
   5   2   1   11.45   10.61   1
  -2   7  -1    1.62    7.65   1
   5   2   1   10.01   10.38   3
   6  -5  -1  163.92   17.05   2
   5   1   1  116.97   14.53   1
   6  -5  -1  143.07   14.85   3
  -1   6  -1  165.40   16.23   1
   0   5  -1  240.18   19.68   1
  -5   5   1  168.00   17.56   4
   5  -5  -1  232.19   17.86   3
   5  -5  -1  235.70   20.06   2
   5   0   1  170.98   19.17   3
   5   0   1  183.57   17.44   1
  -5   0  -1  240.28   18.38   1
   1   4  -1   -4.63    6.30   1
   4  -5  -1   -2.10    3.47   3
   1   4  -1    0.51    5.29   3
   5  -1   1   27.61   11.10   3
   5  -1   1   12.69    4.30   1
  -4   5   1    3.05    3.20   1
  -4   5   1    0.61    9.27   4
  -3   5   1  152.98   15.85   4
   3  -5  -1  190.69   14.08   1
   2   3  -1  189.40   15.52   3
   2   3  -1  175.41   16.11   1
  -5   2  -1  184.92   12.59   1
  -3   5   1  142.37   13.73   1
   5  -2   1  144.47   16.81   3
   5  -2   1  146.82   12.50   1
   2  -5  -1  198.94   15.61   1
   5  -3   1  140.05   17.23   3
   3   2  -1  189.42   17.69   3
   3   2  -1  189.34   16.74   1
  -1   5   1   18.20    8.08   1
   4   1  -1    0.84    5.46   1
   4   1  -1   -5.46    7.64   3
   5  -4   1    8.04   10.33   2
   0   5   1  161.12   16.23   1
  -5   0   1  167.72   16.15   1
   5  -5   1  157.25   16.40   2
   5   0  -1  218.54   17.93   3
   5  -5   1  172.44   15.33   3
   1   5   1  104.04   15.04   1
   5  -6   1  107.11    9.66   3
   1   5   1   99.29    9.54   3
   7  -2  -1   41.60   15.43   3
  -5   7  -1   13.55   13.28   4
   2   5   1   16.67   12.80   1
   8  -3  -1   73.22   16.75   3
  -5   8  -1   70.63   14.02   4
   8  -6  -1   32.58   20.57   3
   8  -6  -1   33.71   15.85   2
  -2   8  -1   52.99   23.70   1
  -1   7  -1   29.87   11.25   1
   7  -6  -1   59.29   14.06   2
   6   1   1   53.60   10.73   1
   6   1   1   33.09   13.91   3
   7  -6  -1   58.44   10.14   3
   0   6  -1   -0.40   11.77   1
   6   0   1   15.95    7.65   1
   6   0   1    6.78   13.54   3
   6  -6  -1   46.79   13.60   2
   1   5  -1  155.74   12.65   3
   1   5  -1  149.03   14.74   1
   6  -1   1  111.87   11.95   1
   6  -1   1  101.17   17.49   3
  -5   6   1  111.94   13.89   4
   5  -6  -1  152.38   11.55   3
   6  -2   1  158.93   11.98   1
  -4   6   1  165.17   14.93   4
   2   4  -1  131.42   16.09   1
   2   4  -1  130.10   14.85   3
  -4   6   1  157.25   12.67   1
   6  -2   1  157.46   18.34   3
  -3   6   1   -7.40    7.89   4
   3  -6  -1   17.03   13.59   1
  -3   6   1   -1.28    5.95   1
   6  -3   1   -3.19   11.04   3
   3   3  -1    8.60   10.41   3
   3   3  -1  -10.22    9.73   1
   4   2  -1  123.51   15.67   1
   4   2  -1  138.51   17.56   3
   6  -4   1  155.79   15.83   2
   6  -4   1  167.30   16.18   3
  -2   6   1  160.21   15.25   1
  -1   6   1  107.53   14.51   1
   6  -5   1  117.20   15.40   2
   5   1  -1  153.53   13.91   1
   6  -5   1  120.36   13.56   3
   6   0  -1  -14.54   13.13   3
   6  -6   1    4.87    6.39   3
   6   0  -1   -9.55    7.64   1
   0   6   1   17.57    8.85   1
   6  -6   1   -6.92   12.85   2
  -6   7  -1   48.73   11.59   4
   1   6   1   43.05   10.55   1
   7  -1  -1   24.15   16.13   3
  -6   8  -1   90.51   18.64   4
   0   7  -1   12.93   10.11   1
   1   6  -1   52.32   12.28   1
  -6   7   1   23.52   13.15   4
   2   5  -1   -6.40    8.05   3
   7  -2   1   16.13   15.33   3
   2   5  -1  -13.15    9.93   1
  -5   7   1   12.09    9.56   4
  -4   7   1  106.60   10.45   1
   7  -3   1   91.34   16.70   3
  -4   7   1   98.80   15.69   4
  -3   7   1   98.76   12.97   4
   7  -4   1   83.30   12.31   3
  -3   7   1   96.54   10.83   1
   5   2  -1   17.13   13.75   3
   5   2  -1   10.25   10.44   1
  -2   7   1    2.56    8.98   1
   7  -5   1   12.47    9.97   2
   7  -5   1   -4.31   10.78   3
   7  -6   1   72.36   15.18   2
   6   1  -1   79.28   15.10   3
  -1   7   1   48.07   12.47   1
   7  -6   1   37.03   10.85   3
   6   1  -1   53.06   11.52   1
   0   7   1   35.40   10.16   1
   2   6  -1   49.14   12.57   1
  -5   8   1   50.60   12.97   4
  -4   8   1   24.27   14.66   4
   8  -4   1   20.50   13.92   3
   4   4  -1    2.20   25.40   3
   5   3  -1   40.57   15.03   3
   8  -5   1   43.38   13.81   2
  -3   8   1   27.36   10.58   1
   8  -5   1   17.89   10.04   3
   8  -6   1   57.12   18.03   2
   8  -6   1   58.11   14.05   3
   6   2  -1   40.45   17.24   3
  -2   8   1   34.86   14.09   1
   1  -1  -2  679.83   43.54   4
   0   1  -2  746.92   48.58   3
   1  -1  -2  731.40   45.73   2
  -1   1   2  582.27   47.54   1
   0   1  -2  746.94   47.75   1
   1   0   2  606.45   47.58   1
  -1   1   2  603.46   43.58   4
  -1   0  -2  702.76   47.56   1
   1  -1  -2  701.27   48.22   3
   1  -1  -2  687.07   47.67   1
   0  -1   2  637.06   48.39   3
   0  -1   2  582.02   47.50   1
  -1   1   2  581.38   48.10   3
   1  -1   2  597.88   46.37   1
   1   0  -2  717.96   46.81   1
   0  -1  -2  712.27   46.86   1
  -1   0   2  591.11   47.41   3
  -1   0   2  589.99   46.62   1
   1   0  -2  703.16   47.72   3
  -1   1  -2  726.66   46.47   1
   0   1   2  633.75   46.93   1
   1  -1   2  594.63   42.84   4
   1  -1   2  578.51   45.08   2
  -1   1  -2  679.73   42.98   4
   2  -1  -2  188.17   14.18   1
  -1   2  -2  188.55   14.27   2
  -1   2  -2  182.78   14.23   1
   2  -1  -2  176.56   15.16   3
   2  -1  -2  191.61   13.46   4
  -1  -1  -2  197.50   14.67   1
   1  -3   2  130.21   12.42   1
   3  -2  -2  182.63   12.24   1
   2   1   2  136.52   12.99   1
  -3   2   2  135.73   11.75   1
   1  -3   2  133.53   12.22   3
   3  -2  -2  181.38   13.49   3
  -1   3  -2  167.64   12.50   1
  -1   3  -2  172.74   13.19   2
  -2  -1  -2  175.41   12.67   1
   0  -2   2  852.25   60.57   1
  -2   2   2  857.70   55.69   4
  -2   0  -2  850.33   60.34   1
   2  -2  -2  841.05   61.09   3
   0   2  -2  832.84   61.22   3
  -2   2   2  828.60   60.19   1
  -2   2   2  840.96   61.03   3
  -2   2   2  829.89   60.21   1
   0  -2   2  834.95   61.07   3
   2   0   2  823.79   60.30   1
   0   2  -2  784.83   60.49   1
   2  -2  -2  859.77   58.39   2
  -1   2   2  323.32   23.42   1
   2  -1   2  308.64   21.62   4
  -1  -1   2  317.32   23.39   1
  -1  -1   2  315.27   23.71   3
  -1   2   2  306.65   22.51   2
   2  -1   2  317.91   22.77   1
   2  -2   2  851.25   60.24   1
   2   0  -2  828.78   62.22   3
  -2   0   2  857.93   62.04   3
   0   2   2  824.56   61.19   3
  -2   2  -2  857.72   56.26   4
   0  -2  -2  835.43   61.18   1
  -2   0   2  853.39   60.87   1
   2   0  -2  857.76   60.98   1
   2  -2   2  816.44   59.13   2
   0   2   2  865.20   61.32   1
  -2   2  -2  831.26   60.26   1
  -3   1   2  153.01   13.73   3
   3  -1  -2  189.99   13.12   1
  -1  -2  -2  184.73   13.77   1
  -2   3  -2  189.54   12.82   1
   2  -3   2  143.25   14.06   2
   1   2   2  137.75   13.84   1
   2  -3   2  135.38   12.53   1
   1   2   2  141.66   13.13   3
   3  -1  -2  175.68   14.04   3
  -2   3  -2  188.45   13.58   4
  -2   3  -2  180.11   13.36   2
   4  -2  -2  464.85   32.30   4
  -2  -2  -2  453.38   34.68   1
   4  -2  -2  466.32   35.94   3
  -2   4  -2  463.86   34.15   2
  -2   4  -2  455.86   34.29   1
   4  -2  -2  471.96   33.97   1
   3   2   2  106.24   13.47   3
   3   2   2  127.83   13.62   1
  -2   5  -2  152.64   12.25   1
   5  -3  -2  145.04   14.30   3
   2  -5   2  113.29   11.20   1
  -1   4  -2  149.34   12.30   1
  -4   3   2  133.48   10.84   1
  -4   3   2  122.49   10.57   1
  -1   4  -2  166.21   13.40   2
   4  -3  -2  164.55   12.20   4
   4  -3  -2  170.21   12.67   2
   3   1   2  131.34   14.35   3
   1  -4   2  127.38   12.21   1
  -3  -1  -2  152.75   12.45   1
   3   1   2  130.33   13.07   1
   4  -3  -2  156.37   12.74   3
   1  -4   2  122.71   11.03   3
  -3   3   2  258.88   19.18   1
   3   0   2  261.69   19.83   1
   0  -3   2  256.40   19.94   1
   3   0   2  266.84   21.11   3
  -3   3   2  246.53   19.23   4
  -3   3   2  252.13   19.14   1
   0  -3   2  254.20   19.56   3
  -2   3   2  119.48   11.49   4
   3  -1   2  132.01   12.15   3
  -1  -2   2  143.57   12.08   1
   2  -3  -2  171.89   11.54   1
   3  -1   2  140.03   10.77   1
  -1  -2   2  121.66   11.44   3
  -2   3   2  128.04   11.30   1
   3  -1   2  144.86   11.48   4
  -2   3   2  133.97   11.14   2
   1   2  -2  170.20   12.50   1
  -2  -1   2  130.29   11.14   1
  -1   3   2  138.55   11.29   2
  -1   3   2  117.52   11.40   1
  -2  -1   2  125.40   11.01   3
   3  -2   2  139.61   10.81   4
  -3   0   2  259.28   20.35   3
  -3   0   2  243.22   19.67   1
   3  -3   2  268.80   20.09   2
   0   3   2  259.54   20.76   1
   0   3   2  255.75   19.12   3
   4  -1  -2  145.85   14.86   3
  -4   1   2  120.12   11.11   1
   4  -1  -2  165.25   11.85   1
   1   3   2  127.02   11.69   3
   3  -4   2  133.37   14.70   2
  -1  -3  -2  171.91   13.10   1
   3  -4   2  123.73   10.71   1
   1   3   2  132.12   14.02   1
   3  -5   2  115.91   10.00   3
   2   3   2  101.84   11.68   3
  -3   5  -2  159.59   14.59   4
   2   3   2  115.14   12.44   1
   5  -2  -2  140.06   14.40   3
  -5   2   2  114.77    9.65   1
   3  -5   2  111.16   10.08   1
   6  -3  -2   78.65   10.54   3
  -3   6  -2   65.06    8.49   1
  -3   6  -2   60.80   13.45   4
  -3   7  -2   28.71    8.67   1
   4   3   2   30.53   11.59   3
   4   3   2    9.50   11.51   1
  -3   7  -2   16.64   13.29   4
   7  -4  -2   45.51   12.06   3
   7  -4  -2   24.91   10.05   2
  -2   6  -2   50.20    8.68   1
   4   2   2   55.30   12.14   3
   6  -4  -2   35.74   11.51   2
   4   2   2   46.04   10.01   1
   5  -4  -2  107.50   11.67   2
  -1   5  -2   87.70    9.72   1
  -4  -1  -2   68.21    9.37   1
   5  -4  -2   90.12   10.33   3
   4   0   2  131.93   11.19   1
  -4   4   2  115.74   11.77   4
  -4   0  -2  125.37   11.01   1
  -4   4   2  129.57   10.06   1
  -4   4   2  129.07    9.98   1
   4   0   2  131.91   14.78   3
   0   4  -2  120.06   12.58   1
   0  -4   2  128.70   10.47   3
   4  -4  -2  139.22   13.22   2
   0  -4   2  108.24   11.84   1
   4  -4  -2  140.80   11.81   3
  -3   4   2  140.75   12.61   4
  -1  -3   2  123.82   11.23   3
  -3   4   2  129.19   11.08   1
   1   3  -2  159.07   12.59   3
  -1  -3   2  117.20   12.18   1
   4  -1   2  118.01   13.90   3
   1   3  -2  164.83   13.52   1
  -3   4   2  119.64   10.86   1
   4  -1   2  124.84   10.68   1
  -2   4   2  685.49   49.16   1
  -2  -2   2  640.64   49.61   3
   4  -2   2  669.32   45.54   4
  -2   4   2  667.70   47.58   2
  -2  -2   2  669.51   49.25   1
   4  -2   2  666.37   50.50   3
  -1   4   2  134.05   12.24   2
  -3  -1   2  113.84   11.48   1
  -3  -1   2  127.02   30.37   3
  -1   4   2  127.18   12.11   1
   4  -3   2  133.22   11.84   3
   4  -3   2  125.39   11.51   4
   4   0  -2  141.63   12.42   1
   0  -4  -2  116.67   12.44   1
  -4   0   2  126.89   11.39   1
   4   0  -2  139.32   15.67   3
   0   4   2  131.97   14.22   1
   4  -4   2  129.55   14.93   2
   4  -4   2  126.44   12.13   3
  -4   4  -2  150.13   13.83   4
   4  -5   2  165.91   13.82   3
  -5   1   2  152.18   13.55   1
   1   4   2  161.75   13.64   3
   1   4   2  162.65   16.61   1
   4  -5   2  186.89   17.75   2
   4  -6   2   47.06    5.20   3
   2   4   2   44.16   11.81   1
   6  -2  -2   61.49   14.08   3
   2   4   2   46.73    7.97   3
   6  -2  -2   51.86    6.21   1
  -4   6  -2   56.49    9.64   4
   7  -3  -2   30.68   14.30   3
  -4   7  -2   44.32   10.82   4
  -4   7  -2   32.22    6.71   1
   8  -4  -2  124.62   19.36   3
   4   4   2  144.01   16.42   1
   8  -5  -2   -0.29   16.27   2
   5   3   2   30.17   11.99   3
  -3   8  -2   42.38   16.99   1
   8  -5  -2   35.19   15.09   3
  -3   8  -2   43.53   15.05   4
   7  -5  -2   67.60   14.25   2
   5   2   2   81.86   15.59   3
  -2   7  -2   41.11    9.95   1
   7  -5  -2   51.77    9.89   3
   5   1   2   52.68   13.34   3
   6  -5  -2   57.84   11.70   2
   5   1   2   40.46    9.45   1
   6  -5  -2   70.53   10.29   3
  -1   6  -2   54.84   10.59   1
   5  -5  -2   57.10   11.30   2
   0   5  -2   65.60   10.92   1
   5  -5  -2   47.26    7.11   3
  -5   0  -2   40.58   12.31   1
   5   0   2   36.04    6.62   1
  -5   5   2   42.29   10.85   4
   5   0   2   19.76    9.11   3
  -4   5   2  159.28   13.38   1
   5  -1   2  178.18   13.74   1
   5  -1   2  173.76   18.07   3
  -4   5   2  171.78   13.27   1
  -4   5   2  164.66   16.00   4
  -1  -4   2  153.15   13.61   3
   3  -5  -2  137.22   11.44   1
   5  -2   2  104.10   14.70   3
  -3   5   2  126.43   13.86   4
  -2  -3   2  105.69   10.89   3
  -3   5   2  124.27   11.43   1
   2   3  -2  145.75   13.63   1
   2   3  -2  140.37   13.74   3
   5  -3   2  116.16   13.76   3
   3   2  -2  152.74   13.59   1
   2  -5  -2  133.13   12.11   1
   3   2  -2  156.79   15.11   3
  -2   5   2  111.72   12.86   1
   5  -4   2  168.90   15.05   3
  -1   5   2  148.74   15.06   1
   5  -4   2  190.24   17.84   2
   5  -5   2   25.16    7.19   3
   5  -5   2   27.44    8.61   2
   5   0  -2   47.87    9.87   3
   0   5   2   27.03    8.18   1
   5  -6   2   40.25    6.62   3
   1   5   2   41.15   12.79   1
   6  -1  -2   72.74   13.58   3
  -5   6  -2   68.73   13.33   4
   1   5   2   42.19    5.52   3
  -5   7  -2   80.44   14.30   4
   2   5   2   89.64   14.55   1
   3   5   2   47.78   11.96   1
   8  -3  -2   38.40   14.13   3
   8  -6  -2  -20.71   22.69   2
   6   2   2    8.67   20.39   3
   6   2   2    6.31    7.46   1
  -2   8  -2   38.29   25.71   1
   7  -6  -2   55.00   13.34   2
  -1   7  -2   55.68   10.51   1
   6   1   2   41.13   10.60   1
   7  -6  -2   61.69   10.80   3
   6  -6  -2  152.26   16.09   2
   6  -6  -2  147.26   14.26   3
   0   6  -2  163.28   18.18   1
   1   5  -2   50.69   11.52   1
   1   5  -2   53.93    7.79   3
  -5   6   2   42.84    4.52   1
  -5   6   2   43.41   12.19   4
   6  -1   2   41.28    6.56   1
   6  -1   2   35.73   13.26   3
   2   4  -2   45.69    9.72   1
  -4   6   2   43.90    6.77   1
  -4   6   2   62.24   11.44   4
   6  -2   2   44.58   13.62   3
   2   4  -2   48.35    9.83   3
   6  -3   2  138.60   16.20   3
  -3   6   2  102.85   15.11   4
  -3   6   2  137.49   12.09   1
   4   2  -2   29.57   12.48   3
   6  -4   2   43.69   10.89   3
  -2   6   2   49.49   10.25   1
   6  -4   2   49.41    9.88   2
   4   2  -2   46.95   10.78   1
  -1   6   2   48.22   11.54   1
   6  -5   2   35.39    7.70   3
   5   1  -2   65.03   14.87   3
   6  -5   2   36.84   12.11   2
   6  -6   2  223.46   23.02   2
   6  -6   2  214.88   19.29   3
   0   6   2  239.70   22.03   1
  -6   7  -2   62.64   12.73   4
   7  -1  -2   74.14   14.36   3
   2   6   2   15.75   10.29   1
   0   7  -2   60.49   14.58   1
  -6   7   2   34.62   14.32   4
   7  -1   2   34.37   11.58   3
   1   6  -2   63.50   14.66   1
   2   5  -2   54.50   14.93   1
   7  -2   2   84.74   13.70   3
   2   5  -2   57.86   10.61   3
   7  -3   2   30.29   13.22   3
   3   4  -2   28.64   10.56   3
   3   4  -2   47.03   12.92   1
  -4   7   2   16.67    9.00   4
  -3   7   2   33.41    9.84   4
   4   3  -2   22.97   13.48   3
   4   3  -2   38.35   10.94   1
  -3   7   2   18.87    8.81   1
   7  -4   2   16.76   11.89   3
  -2   7   2  100.78   11.25   1
   7  -5   2   70.41   13.53   2
   5   2  -2   62.36   14.34   3
   5   2  -2   76.93   13.01   1
   6   1  -2   69.00   11.61   1
   7  -6   2   41.65   10.87   3
   6   1  -2   71.96   17.51   3
   7  -6   2   58.44   14.38   2
  -1   7   2   43.72    9.85   1
   7   0  -2   61.97   14.97   3
   8  -2   2   19.72   15.29   3
  -6   8   2   10.71   11.34   4
   8  -3   2   26.23   11.33   3
  -5   8   2   14.55   14.88   4
   4   4  -2  102.57   16.07   3
   4   4  -2   91.98   15.11   1
   5   3  -2   31.60   13.06   1
   8  -5   2   34.27   13.18   2
  -3   8   2   23.02   14.15   1
  -3   8   2   51.70   16.85   4
   8  -5   2   61.96   13.79   3
   8  -6   2   41.61   16.58   2
   6   2  -2   31.07   12.74   1
   8  -6   2   11.60   16.36   3
  -2   8   2  -11.03   20.74   1
   6   2  -2    2.69   17.64   3
   0   0   3    0.90    3.32   3
   0   0   3    0.51    2.31   1
  -1   1   3 6208.86  402.84   4
   1  -1  -3 5799.79  423.17   2
   0  -1   3 6008.34  439.92   1
  -1   1   3 6376.96  445.87   3
   0   1  -3 6501.78  440.03   1
   1   0   3 5711.25  439.92   1
  -1   0  -3 5984.30  439.92   1
   1  -1  -3 5637.36  440.01   1
   1  -1  -3 6605.17  445.96   3
   0  -1   3 6384.19  446.07   3
   0   1  -3 6571.96  446.13   3
  -1   1   3 6337.89  440.04   1
  -1   1  -3 5748.83  438.99   1
   1  -1   3 6154.51  422.90   2
  -1   0   3 6127.30  445.28   3
   1  -1   3 6085.30  438.97   1
   1   0  -3 6559.66  445.42   3
   0  -1  -3 6274.44  439.33   1
   0   1   3 6100.12  439.40   1
   1   0  -3 6216.65  439.28   1
  -1   0   3 6490.95  439.23   1
  -1   1  -3 5870.91  402.33   4
   1  -1   3 6204.70  402.33   4
   2  -1  -3   -7.84    3.76   3
   1  -2   3   -3.54    2.36   1
  -1   2  -3   -3.48    2.50   1
  -2   1   3   -3.11    2.41   3
   2  -1  -3   -6.79    3.07   1
  -2   1   3   -5.73    2.46   1
   1   1   3   -4.10    3.88   1
   2  -1  -3   -2.70    2.65   4
  -1  -1  -3   -4.15    2.28   1
  -1   2  -3    5.70    3.71   2
   2   1   3 3548.91  252.76   3
   3  -2  -3 3536.76  248.90   1
   1  -3   3 3416.78  252.22   3
  -3   2   3 3378.48  248.64   1
   3  -2  -3 3477.79  228.34   4
  -1   3  -3 3422.30  240.23   2
  -1   3  -3 3537.52  249.12   1
  -3   2   3 3415.25  252.51   3
   3  -2  -3 3399.16  252.60   3
   2   1   3 3612.17  249.44   1
  -2  -1  -3 3469.15  249.23   1
   1  -3   3 3623.71  249.11   1
  -2   2   3 4122.90  257.74   4
   2  -2  -3 3525.57  270.50   2
  -2   0  -3 3791.98  281.06   1
  -2   2   3 4126.09  284.80   3
   2   0   3 4166.59  281.17   1
   0  -2   3 4183.58  285.03   3
   0   2  -3 3762.30  281.24   1
   0  -2   3 4100.75  281.26   1
  -2   2   3 3972.69  281.09   1
   2  -2  -3 3742.28  284.79   3
   0   2  -3 3746.86  285.01   3
  -2   2   3 4042.00  281.09   1
  -1  -1   3    0.63    2.38   1
  -1   2   3   -1.55    1.43   3
   2  -1   3    0.21    1.71   1
   1   1  -3   -5.82    3.60   1
   1  -2  -3    0.67    2.38   1
   2  -1   3   -1.22    1.70   1
   2  -1   3   -2.83    2.43   4
   1   1  -3   -0.23    5.63   3
  -1   2   3   -4.21    3.54   1
  -1   2   3   -1.30    2.13   2
  -1  -1   3   -0.66    3.44   3
   2  -2   3 4111.00  267.15   2
   0  -2  -3 3879.47  277.20   1
  -2   2  -3 3683.62  276.37   1
  -2   2  -3 3614.43  253.96   4
  -2   0   3 3996.77  276.91   1
   2   0  -3 3771.26  281.06   3
   2   0  -3 3706.55  276.95   1
  -2   0   3 3970.59  280.91   3
   0   2   3 4136.95  277.34   1
   2  -2   3 3939.53  276.32   1
  -1  -2  -3 3562.72  250.53   1
   2  -3   3 3542.62  249.78   1
  -3   1   3 3445.86  249.92   1
  -3   1   3 3506.65  253.88   3
  -2   3  -3 3288.84  241.19   2
   1   2   3 3542.06  250.72   1
   1   2   3 3490.70  253.38   3
   3  -1  -3 3467.17  250.04   1
   3  -1  -3 3401.68  254.03   3
  -2   3  -3 3483.06  229.77   4
  -2   3  -3 3755.95  249.86   1
   2  -3   3 3535.63  241.65   2
   2  -4   3    2.74    3.75   3
  -4   2   3   -1.57    3.38   3
   2   2   3    6.53    6.83   1
  -4   2   3    0.54    2.51   1
   2  -4   3    3.41    3.61   1
   4  -2  -3   -6.15    4.08   1
  -2  -2  -3   -5.30    4.93   1
  -2   4  -3   -1.26    3.00   1
   4  -2  -3    6.61    4.00   4
   2   2   3   -5.31    6.28   3
  -2   4  -3    0.78    5.12   2
   4  -2  -3    5.16    5.49   3
   2  -5   3 1683.75  124.54   1
  -2   5  -3 1798.19  124.72   1
   2  -5   3 1663.99  125.26   3
  -5   3   3 1709.40  123.66   1
   3   2   3 1704.59  126.86   3
  -5   3   3 1782.30  123.50   1
   5  -3  -3 1788.12  127.22   3
   3   2   3 1682.47  125.36   1
   4  -3  -3 2442.22  173.40   3
   3   1   3 2477.96  171.26   1
  -1   4  -3 2420.24  171.01   1
   1  -4   3 2386.09  170.87   1
  -1   4  -3 2283.51  165.02   2
   4  -3  -3 2385.38  164.87   2
  -4   3   3 2285.43  170.06   1
   1  -4   3 2311.81  172.42   3
  -3  -1  -3 2435.77  170.98   1
  -4   3   3 2425.07  169.97   1
   3   1   3 2370.18  173.73   3
   4  -3  -3 2334.76  156.77   4
   3   0   3   30.19    6.71   3
   3  -3  -3   35.49    5.24   3
  -3   3   3   28.44    4.24   1
   0   3  -3   23.24    5.70   3
   0  -3   3   25.19    4.65   3
  -3   3   3   18.81    6.32   4
   3   0   3   24.45    5.07   1
  -3   3   3   29.05    4.15   1
  -3   0  -3   34.16    4.61   1
   3  -3  -3   27.81    6.12   2
   0  -3   3   23.49    4.94   1
   0   3  -3   26.06    4.83   1
  -1  -2   3 3449.53  250.18   1
  -1  -2   3 3530.98  253.40   3
   2  -3  -3 3540.45  250.01   1
   3  -1   3 3652.16  249.53   1
  -2   3   3 3513.25  250.00   1
  -3   1  -3 3499.01  249.52   1
  -2   3   3 3343.55  240.71   2
   2  -3  -3 3482.65  252.71   3
  -2   3   3 3472.44  229.39   4
   3  -1   3 3455.99  229.54   4
   1   2  -3 3520.08  253.71   3
   1   2  -3 3527.36  250.37   1
   2   1  -3 3558.76  250.42   1
   1  -3  -3 3519.50  250.33   1
   2   1  -3 3523.59  253.95   3
  -2  -1   3 3517.22  250.23   1
  -2  -1   3 3524.05  253.72   3
  -1   3   3 3449.45  250.36   1
  -1   3   3 3514.99  241.06   2
   3  -2   3 3395.81  229.50   4
  -3   0   3   27.24    4.86   1
  -3   0   3   30.91    6.15   3
   3  -3   3   28.97    8.18   2
   0  -3  -3   24.01    4.52   1
   3   0  -3   16.27    5.35   1
   0   3   3   21.22    6.71   1
   0   3   3   28.64    2.99   3
   3   0  -3   16.63    6.76   3
  -3   3  -3   33.21    6.84   4
   4  -1  -3 2438.17  171.60   1
   1   3   3 2374.92  173.53   3
  -4   1   3 2301.73  174.39   3
   4  -1  -3 2427.24  174.97   3
  -3   4  -3 2380.19  158.12   4
   3  -4   3 2275.40  170.84   1
  -3   4  -3 2454.87  170.89   1
  -1  -3  -3 2335.20  172.03   1
   1   3   3 2451.18  172.46   1
   3  -4   3 2433.42  166.56   2
  -4   1   3 2444.87  171.35   1
   3  -5   3 1748.83  129.45   3
   2   3   3 1713.29  129.99   3
   5  -2  -3 1806.27  131.29   3
  -3   5  -3 1815.08  127.80   1
   2   3   3 1732.07  129.20   1
   5  -2  -3 1873.74  127.96   1
  -3   5  -3 1763.03  118.81   4
  -5   2   3 1833.36  127.62   1
   3  -5   3 1717.47  127.76   1
   3   3   3    1.95    9.25   1
  -6   3   3    4.83    2.78   1
  -3   6  -3    3.96    6.04   1
  -3   6  -3   22.08   11.39   4
   6  -3  -3    8.33   10.64   3
   3   3   3   -0.79    7.96   3
   7  -4  -3  713.54   53.92   2
   7  -4  -3  742.20   56.46   3
  -3   7  -3  720.62   53.86   1
   4   3   3  690.95   55.28   3
  -3   7  -3  724.02   52.58   4
   6  -4  -3  918.44   71.58   3
   4   2   3  967.92   70.84   1
   4   2   3 1023.28   72.41   3
  -2   6  -3  931.93   70.31   1
   6  -4  -3  918.91   68.60   2
   5  -4  -3   17.48    8.52   2
  -1   5  -3    6.61    8.00   1
   4   1   3  -10.25   10.08   3
   4   1   3   -1.39    6.78   1
   4  -4  -3 1746.38  130.81   3
   4   0   3 1881.90  132.23   3
   0  -4   3 1804.79  130.41   3
   4  -4  -3 1686.36  124.94   2
  -4   4   3 1795.62  119.37   4
  -4   4   3 1883.98  128.57   1
   4   0   3 1882.94  129.29   1
   0   4  -3 1683.22  129.65   1
  -4   0  -3 1674.57  129.00   1
   0  -4   3 1819.25  129.61   1
  -4   4   3 1872.74  128.55   1
   4  -1   3 2354.42  174.13   3
  -4   1  -3 2461.12  170.41   1
   1   3  -3 2403.60  171.52   1
  -3   4   3 2340.66  170.68   1
  -3   4   3 2423.40  170.68   1
   3  -4  -3 2375.36  172.44   3
   1   3  -3 2415.64  173.51   3
  -1  -3   3 2307.06  171.18   1
  -3   4   3 2377.01  157.28   4
  -1  -3   3 2398.17  173.02   3
   4  -1   3 2414.12  170.34   1
   4  -1   3 2306.31  157.49   4
   2   2  -3   -2.14    4.71   1
   4  -2   3   -4.13    4.85   4
   2  -4  -3    4.40    3.41   1
  -2  -2   3    6.24    4.71   3
   2   2  -3   -2.58    5.35   3
  -2  -2   3   -6.79    5.02   1
  -3  -1   3 2372.82  171.13   1
  -1   4   3 2421.30  171.51   1
  -1   4   3 2303.36  165.11   2
   4  -3   3 2326.67  165.48   2
  -3  -1   3 2279.31  173.50   3
   1  -4  -3 2487.04  171.39   1
   3   1  -3 2491.53  171.40   1
   4  -3   3 2349.40  157.30   4
   3   1  -3 2406.47  174.19   3
   4   0  -3 1671.08  130.82   3
   4   0  -3 1727.83  128.21   1
   0   4   3 1933.04  129.30   1
  -4   0   3 1861.67  128.13   1
  -4   4  -3 1631.77  118.38   4
   4  -4   3 1839.14  124.81   2
   1   4   3    6.63    3.77   3
  -4   5  -3   -0.16    9.75   4
   5  -1  -3   -1.15    5.17   1
  -5   1   3    3.93    4.63   1
   5  -1  -3   19.50   11.44   3
   4  -5   3   -3.70   11.17   2
   1   4   3   12.60    9.80   1
  -4   6  -3  946.63   68.70   4
   6  -2  -3  958.40   72.13   1
   2   4   3 1041.54   73.62   3
   4  -6   3 1020.92   72.61   3
  -4   6  -3  974.06   71.61   1
   2   4   3 1033.40   74.42   1
   6  -2  -3  950.15   75.53   3
  -4   7  -3  721.43   51.23   1
  -4   7  -3  721.03   50.64   4
   3   4   3  659.73   52.86   3
   3   4   3  638.35   53.77   1
   7  -3  -3  719.44   55.70   3
   8  -4  -3   16.76   12.47   2
   4   4   3  -16.64   11.15   1
  -4   8  -3    6.33   10.09   4
   8  -4  -3   17.61   13.31   3
  -3   8  -3  456.11   36.55   4
   8  -5  -3  494.62   37.99   2
   8  -5  -3  451.61   39.54   3
  -3   8  -3  465.39   37.47   1
   7  -5  -3   10.06   10.71   3
  -2   7  -3   20.75   10.20   1
   5   2   3    6.12    9.57   1
   5   2   3   23.11   11.52   3
   7  -5  -3    6.24   10.42   2
   5   1   3  944.82   72.51   3
  -1   6  -3  953.24   70.44   1
   6  -5  -3  948.78   71.05   3
   5   1   3  917.07   70.09   1
   6  -5  -3  959.83   68.54   2
   5  -5  -3 1220.84   89.80   3
   5   0   3 1221.06   88.81   1
   5   0   3 1206.67   91.80   3
  -5   5   3 1204.71   82.67   4
   5  -5  -3 1220.51   86.35   2
   0   5  -3 1237.87   89.87   1
  -5   5   3 1264.84   87.41   1
   0  -5   3 1148.43   88.94   3
  -5   5   3 1229.56   87.37   1
  -5   0  -3 1235.89   88.81   1
  -1  -4   3    5.75    3.94   3
  -4   5   3    4.28    3.87   1
   1   4  -3    8.70    9.46   1
   5  -1   3    5.80   11.22   3
   5  -1   3    4.70    3.84   1
  -4   5   3   -0.34    3.64   1
   1   4  -3   14.99    6.43   3
  -5   1  -3    6.51    3.83   1
   2   3  -3 1806.08  128.68   3
  -2  -3   3 1700.00  127.79   3
   5  -2   3 1715.75  129.03   3
  -3   5   3 1709.25  116.60   4
  -3   5   3 1771.69  126.15   1
   2   3  -3 1796.58  127.28   1
   3  -5  -3 1740.94  126.17   1
   3   2  -3 1795.94  125.71   1
   3   2  -3 1741.00  127.55   3
   2  -5  -3 1750.94  125.06   1
  -2   5   3 1751.22  125.24   1
  -2   5   3 1625.18  120.61   2
   5  -3   3 1705.89  127.27   3
   5  -4   3    4.67    7.43   3
   4   1  -3    2.19   10.81   3
  -1   5   3  -10.14    8.70   1
   5  -4   3   11.14   10.65   2
  -5   5  -3 1263.67   84.33   4
   0   5   3 1222.07   91.56   1
   5   0  -3 1254.73   93.17   3
   5  -5   3 1224.77   88.48   2
   5   0  -3 1241.19   90.59   1
   5  -5   3 1226.41   91.65   3
   1   5   3  922.25   72.58   1
   5  -6   3  977.07   71.52   3
  -5   6  -3  970.80   67.01   4
   6  -1  -3  938.07   70.83   1
   6  -1  -3 1012.39   74.79   3
   7  -2  -3   16.46   15.40   3
  -5   7  -3   25.31   10.74   4
  -5   8  -3  445.62   37.22   4
   8  -3  -3  509.07   41.21   3
   3   5   3  429.33   38.05   1
   6   2   3  381.23   33.41   3
   8  -6  -3  341.33   34.57   2
  -2   8  -3  355.08   35.61   1
   6   1   3  590.47   45.55   1
   7  -6  -3  588.50   45.95   3
   6   1   3  557.26   47.37   3
   7  -6  -3  605.76   45.10   2
  -1   7  -3  593.82   46.25   1
   0   6  -3    0.57   11.77   1
   6  -6  -3   -2.87   12.30   2
   6  -6  -3    5.43    5.97   3
   6   0   3   -3.02    6.19   1
   6   0   3   -5.02   12.19   3
   6  -1   3  981.55   69.56   1
  -5   6   3  930.93   68.72   1
  -5   6   3  949.90   66.17   4
   5  -6  -3  969.40   69.80   3
   1   5  -3  949.52   70.89   3
   6  -1   3  891.84   72.70   3
   1   5  -3  986.11   72.00   1
  -4   6   3  993.96   68.55   4
   2   4  -3  955.75   74.44   3
   2   4  -3  948.65   73.97   1
   6  -2   3 1024.17   75.66   3
  -4   6   3 1033.58   72.45   1
  -3   6   3    2.75    7.28   1
   3   3  -3  -10.40   10.10   3
   3   3  -3    4.34    9.95   1
   4   2  -3  950.04   73.57   1
   4   2  -3  928.46   75.21   3
   6  -4   3  944.49   71.93   2
  -2   6   3 1019.73   73.32   1
   6  -4   3 1084.45   75.10   3
  -1   6   3  933.76   71.43   1
   6  -5   3  991.75   72.07   3
   5   1  -3  933.25   70.86   1
   6  -5   3  912.52   69.40   2
   5   1  -3  982.96   73.50   3
   6   0  -3    3.11    5.96   1
   6   0  -3   -1.08   14.21   3
   6  -6   3   16.34   14.28   2
   0   6   3   -9.27   11.21   1
   6  -6   3    1.99    6.43   3
   7  -1  -3  645.51   49.38   3
  -6   7  -3  578.54   43.48   4
   1   6   3  532.35   45.93   1
  -6   8  -3  397.40   33.62   4
   8  -2  -3  355.81   36.14   3
   7   0   3  437.93   40.63   3
   0   7  -3  512.26   40.45   1
   1   6  -3  604.04   47.69   1
   7  -1   3  581.70   48.90   3
  -6   7   3  584.75   43.82   4
   2   5  -3   15.97   13.29   1
   2   5  -3   31.95    8.97   3
  -5   7   3   11.89   12.96   4
   7  -2   3   14.61   14.83   3
   7  -3   3  718.74   56.69   3
  -4   7   3  713.87   51.28   4
   3   4  -3  712.75   54.71   1
   3   4  -3  721.39   55.07   3
  -4   7   3  676.22   52.81   1
   4   3  -3  741.84   57.28   3
  -3   7   3  726.47   54.76   1
   4   3  -3  697.31   56.16   1
   7  -4   3  722.44   54.72   2
  -3   7   3  678.37   52.18   4
   7  -4   3  764.93   57.33   3
   5   2  -3   -2.36   10.68   1
   7  -5   3    2.15    9.03   3
   7  -5   3   11.53   10.26   2
   5   2  -3   23.84   15.52   3
   7  -6   3  559.82   46.07   2
   6   1  -3  620.24   47.93   3
   6   1  -3  599.98   45.25   1
  -1   7   3  544.21   46.12   1
   7  -6   3  577.39   45.89   3
   0   7   3  448.47   39.60   1
   7   0  -3  507.65   43.33   3
  -6   8   3  394.30   32.44   4
   2   6  -3  353.64   32.57   1
   8  -2   3  383.11   34.31   3
  -5   8   3  455.51   36.95   4
   3   5  -3  495.76   39.39   1
   8  -3   3  412.00   39.86   3
   8  -4   3   -4.82   11.95   3
   4   4  -3    1.61   11.98   1
  -4   8   3   15.26   10.27   4
   5   3  -3  480.98   38.91   1
  -3   8   3  405.84   35.42   4
   8  -5   3  484.06   38.63   3
  -3   8   3  441.59   36.66   1
   5   3  -3  447.48   39.78   3
   8  -5   3  486.23   40.48   2
   6   2  -3  339.77   33.69   3
   6   2  -3  336.53   31.26   1
  -2   8   3  359.53   30.49   1
   8  -6   3  379.82   31.44   3
   8  -6   3  379.40   34.69   2
   0   0   4  766.21   51.27   2
   0   0   4  737.99   53.84   1
   0   0   4  728.20   54.65   3
   1   0   4 2016.30  139.69   1
  -1   1   4 2026.88  127.53   4
   0  -1   4 2048.62  139.64   1
   1   0   4 2026.91  139.75   1
  -1   1   4 2013.90  139.80   1
   1  -1  -4 1865.80  133.82   2
  -1   1   4 2011.34  141.59   3
   0   1  -4 1773.60  139.60   1
   1  -1  -4 1863.68  141.56   3
   0   1  -4 1877.80  134.27   2
   0  -1   4 2059.57  141.81   3
   1  -1  -4 1815.04  139.80   1
  -1   1  -4 1815.07  136.76   1
   0   1   4 2010.34  137.24   1
  -1   1  -4 1818.73  125.29   4
   1   0  -4 1804.42  136.97   1
   1   0  -4 1804.55  138.97   3
   1  -1   4 2072.51  131.94   2
  -1   0   4 1993.66  138.99   3
  -1   0   4 1982.34  136.96   1
   1  -1   4 1986.42  136.75   1
   0  -1  -4 1827.83  137.06   1
  -1  -1  -4 2985.99  204.25   1
  -2   1   4 2609.69  206.82   3
  -1   2  -4 3120.33  203.96   1
  -2   1   4 2598.81  203.84   1
  -1   2  -4 3060.84  196.62   2
   1  -2   4 2616.66  203.74   1
   2  -1  -4 3081.90  204.20   1
   2  -1  -4 3001.77  186.78   4
   1   1   4 2580.56  204.16   1
   2  -1  -4 2893.60  207.10   3
  -3   2   4  937.80   62.05   1
   3  -2  -4  779.46   62.19   1
  -3   2   4  961.84   63.37   3
   2   1   4  944.15   62.86   1
   3  -2  -4  801.53   57.05   4
  -1   3  -4  780.94   62.16   1
   3  -2  -4  794.77   63.35   3
   1  -3   4  907.52   63.24   3
  -2  -1  -4  821.04   62.41   1
   1  -3   4  916.54   62.23   1
  -1   3  -4  778.42   60.26   2
   2  -2  -4  488.91   31.60   3
   0  -2   4  389.17   30.88   1
   2   0   4  368.53   30.80   1
  -2   2   4  413.13   31.04   1
  -2   2   4  400.87   28.44   4
  -2   2   4  377.14   31.06   1
  -2   2   4  397.94   31.21   3
   2  -2  -4  484.01   29.61   2
   0  -2   4  373.31   31.53   3
   0   2  -4  492.05   31.88   3
  -1  -1   4 2717.32  199.69   3
   1   1  -4 3117.73  200.03   3
  -1   2   4 2667.34  199.07   3
   1   1  -4 2976.39  197.06   1
   1  -2  -4 3116.51  197.15   1
   2  -1   4 2659.31  196.48   1
   2  -1   4 2527.23  196.42   1
  -1   2   4 2612.30  189.17   2
   2  -1   4 2678.90  180.42   4
  -1  -1   4 2648.58  196.83   1
  -1   2   4 2572.21  196.98   1
   0   2   4  377.14   33.00   1
  -2   0   4  384.83   32.46   1
   2   0  -4  483.44   33.74   3
  -2   2  -4  506.43   30.43   4
   2  -2   4  388.02   31.99   1
  -2   2  -4  511.95   32.26   1
   2   0  -4  490.41   32.94   1
  -2   0   4  394.07   33.20   3
   0  -2  -4  482.92   33.05   1
   2  -2   4  399.47   32.00   2
  -2   3  -4  785.27   63.11   1
   3  -1  -4  813.03   65.07   3
  -3   1   4  941.30   63.47   1
  -3   1   4  930.55   64.92   3
  -1  -2  -4  851.86   64.00   1
   1   2   4  955.33   64.35   1
   2  -3   4  946.30   62.37   2
   3  -1  -4  811.36   63.57   1
   2  -3   4  917.97   63.14   1
  -2   3  -4  799.08   58.77   4
   4  -2  -4  359.97   26.22   4
   4  -2  -4  382.06   28.27   1
   4  -2  -4  369.11   29.41   3
  -2   4  -4  375.27   28.13   1
   2  -4   4  378.39   27.93   1
  -4   2   4  387.51   29.13   3
  -2  -2  -4  362.47   28.66   1
  -4   2   4  376.10   27.75   1
   2   2   4  384.65   29.49   1
  -2   4  -4  363.48   28.04   2
   2  -4   4  370.12   28.50   3
   2   2   4  365.49   29.05   3
   2  -5   4  568.58   41.16   3
   3   2   4  563.35   42.59   1
  -5   3   4  569.01   40.67   1
  -5   3   4  549.77   40.27   1
  -2   5  -4  492.88   41.32   1
   5  -3  -4  507.94   42.96   3
   2  -5   4  559.13   41.34   1
   3   2   4  610.59   43.13   3
   3   1   4  719.09   49.69   1
  -4   3   4  709.04   48.55   1
  -1   4  -4  586.30   47.66   2
  -1   4  -4  622.76   49.17   1
  -3  -1  -4  628.37   48.95   1
   1  -4   4  720.19   49.08   1
  -4   3   4  726.66   48.30   1
   1  -4   4  693.80   49.21   3
   4  -3  -4  603.41   47.42   2
   3   1   4  750.32   50.49   3
   4  -3  -4  591.93   44.95   4
   4  -3  -4  608.76   50.00   3
   3  -3  -4 1714.07  109.15   2
  -3   3   4 1470.98  104.06   4
  -3   3   4 1458.60  112.97   1
   3   0   4 1501.87  113.15   1
   0  -3   4 1507.69  113.38   1
  -3   3   4 1458.60  114.41   3
   0   3  -4 1736.68  115.13   3
   3  -3  -4 1738.35  114.79   3
  -3   0  -4 1719.69  113.28   1
   0   3  -4 1643.54  113.65   1
  -3   3   4 1471.75  112.96   1
   0  -3   4 1452.55  114.59   3
  -2   3   4  921.37   62.57   2
  -1  -2   4  916.86   65.28   1
   1   2  -4  817.52   65.35   1
  -2   3   4  904.19   65.08   1
  -2   3   4  926.64   59.93   4
  -3   1  -4  797.35   64.46   1
   3  -1   4  916.31   60.08   4
  -2   3   4  943.60   65.22   3
   1   2  -4  789.42   66.22   3
  -2   3   4  942.35   65.27   1
   2  -3  -4  829.03   65.23   3
  -1  -2   4  977.36   66.13   3
   3  -1   4  953.82   64.60   1
  -2  -1   4  931.81   66.32   3
   1  -3  -4  804.05   65.31   1
  -1   3   4  932.41   62.97   2
   2   1  -4  797.39   66.67   3
  -2  -1   4  922.51   65.29   1
   3  -2   4  957.74   64.18   1
  -1   3   4  941.97   65.62   1
   3  -2   4  920.83   64.18   1
   3  -2   4  953.14   60.13   4
   2   1  -4  798.73   65.36   1
   0  -3  -4 1702.50  114.00   1
  -3   3  -4 1672.48  112.56   1
  -3   3  -4 1758.75  104.82   4
   0   3   4 1467.96  114.06   1
   0   3   4 1463.08  114.14   3
  -3   0   4 1497.46  115.40   3
   3   0  -4 1709.52  113.84   1
   3  -3   4 1463.07  112.43   1
  -3   0   4 1475.29  113.38   1
   3  -3   4 1428.09  110.05   2
   3   0  -4 1705.58  116.04   3
  -4   1   4  700.47   48.92   1
   1   3   4  699.84   50.53   1
  -3   4  -4  618.72   46.18   4
   1   3   4  736.38   49.63   3
  -1  -3  -4  634.01   49.69   1
   3  -4   4  732.86   48.49   1
  -4   1   4  705.23   50.59   3
   4  -1  -4  591.06   48.99   1
   4  -1  -4  589.67   51.11   3
   3  -4   4  709.63   49.48   2
  -3   4  -4  632.14   48.43   1
   5  -2  -4  497.64   40.27   1
  -3   5  -4  519.39   38.95   4
   5  -2  -4  484.73   42.34   3
   2   3   4  572.98   41.20   3
   2   3   4  597.64   42.04   1
   3  -5   4  563.80   40.76   3
   3  -5   4  571.66   40.01   1
  -3   5  -4  498.99   39.90   1
  -5   2   4  560.20   39.89   1
   3   3   4  506.55   44.12   1
  -3   6  -4  617.07   42.96   1
  -3   6  -4  602.18   42.18   4
   3   3   4  474.38   43.83   3
   6  -3  -4  598.12   42.09   1
   6  -3  -4  624.38   46.00   3
  -3   7  -4  155.55   15.34   1
  -3   7  -4  138.61   16.62   4
   7  -4  -4  154.15   15.71   2
   7  -4  -4  138.72   16.31   3
   4   3   4  182.59   17.52   3
   6  -4  -4  135.50   14.70   2
   6  -4  -4  143.02   15.48   3
  -2   6  -4  123.96   13.65   1
   4   2   4  117.37   13.62   3
   4   2   4  120.38   14.40   1
   4   1   4  656.96   54.05   3
   5  -4  -4  759.41   53.00   3
   1  -5   4  639.10   51.56   3
   5  -4  -4  784.87   51.09   2
  -5   4   4  663.10   50.80   1
   4   1   4  652.34   52.44   1
  -5   4   4  649.56   50.64   1
  -1   5  -4  814.04   53.05   1
  -4   4   4  223.90   16.87   1
   0   4  -4  221.79   19.21   1
  -4   4   4  217.36   16.97   1
  -4   0  -4  234.89   17.63   1
   4   0   4  182.12   20.10   3
   0  -4   4  211.05   17.21   3
  -4   4   4  221.51   17.86   4
   4   0   4  211.51   17.37   1
   4  -4  -4  228.62   17.85   3
   4  -4  -4  208.67   18.01   2
  -1  -3   4  714.44   51.28   3
  -3   4   4  706.20   47.05   4
   1   3  -4  624.74   51.64   3
   3  -4  -4  628.42   50.50   3
   4  -1   4  692.38   52.47   3
   4  -1   4  723.09   47.43   4
  -3   4   4  734.64   50.68   1
  -4   1  -4  621.67   50.02   1
   4  -1   4  764.90   50.21   1
  -1  -3   4  763.72   51.32   1
   1   3  -4  604.13   51.02   1
  -3   4   4  689.42   50.49   1
   2  -4  -4  372.99   28.43   1
   2   2  -4  350.92   29.73   3
  -2   4   4  356.99   28.69   1
  -2  -2   4  357.19   28.56   3
   2   2  -4  382.03   29.28   1
   4  -2   4  377.22   26.69   4
  -2  -2   4  374.55   28.63   1
  -2   4   4  393.92   27.61   2
   4  -3   4  679.65   46.23   4
   3   1  -4  596.52   51.35   3
   1  -4  -4  585.69   49.85   1
  -3  -1   4  722.47   50.95   3
  -1   4   4  721.71   50.73   1
   4  -3   4  696.38   49.38   2
  -3  -1   4  711.18   49.97   1
  -1   4   4  712.72   48.49   2
   3   1  -4  639.35   50.20   1
   0   4   4  203.95   19.51   1
   4  -4   4  202.99   19.67   2
   4   0  -4  242.39   18.57   1
   4   0  -4  215.40   20.63   3
  -4   4  -4  211.26   17.25   4
  -4   0   4  210.45   17.51   1
   1   4   4  640.58   52.86   3
  -4   5  -4  794.22   50.32   4
   4  -5   4  664.46   53.37   2
   1   4   4  680.27   54.54   1
   5  -1  -4  774.81   53.21   1
   5  -1  -4  806.06   56.42   3
  -5   1   4  669.71   52.62   1
  -4   6  -4  155.91   16.46   4
   2   4   4  131.32   16.71   1
   6  -2  -4  128.02   12.23   1
   2   4   4  126.77   12.54   3
  -4   6  -4  124.16   11.04   1
   6  -2  -4  127.36   17.36   3
   3   4   4  192.78   18.25   1
  -4   7  -4  142.87   13.29   1
  -4   7  -4  111.39   17.75   4
   7  -3  -4  148.37   19.74   3
  -4   8  -4   80.97   16.88   4
   8  -4  -4   79.24   15.28   3
   8  -4  -4   68.23   16.25   2
   8  -5  -4   89.10   18.55   2
  -3   8  -4  118.43   18.40   4
   8  -5  -4  103.08   16.26   3
  -2   7  -4  313.78   25.42   1
   5   2   4  257.46   25.18   1
   5   2   4  236.04   26.67   3
   7  -5  -4  322.52   25.71   2
   7  -5  -4  319.90   26.16   3
   6  -5  -4  210.96   19.45   3
  -1   6  -4  224.23   20.58   1
  -5   5   4  300.73   21.41   1
  -5   5   4  314.77   21.43   1
   0   5  -4  242.18   23.79   1
  -5   5   4  319.90   23.86   4
   0  -5   4  284.80   22.04   3
   5   0   4  302.44   22.95   1
   5   0   4  311.24   26.56   3
  -5   0  -4  239.46   25.58   1
   5  -5  -4  251.71   22.35   2
   5  -5  -4  257.23   22.94   3
  -4   5   4  646.89   51.98   1
   1   4  -4  778.66   53.81   3
  -5   1  -4  798.24   52.03   1
   5  -1   4  641.71   51.71   1
   4  -5  -4  781.55   52.29   3
  -1  -4   4  664.44   52.82   3
  -4   5   4  678.18   49.31   4
   5  -1   4  635.92   54.78   3
  -4   5   4  675.44   51.99   1
   1   4  -4  785.15   53.71   1
  -2  -3   4  559.28   41.81   3
   2   3  -4  497.19   42.33   3
  -3   5   4  573.20   41.42   1
   2   3  -4  511.18   42.13   1
  -3   5   4  587.22   39.23   4
  -3   5   4  545.29   40.98   1
   5  -2   4  569.78   43.56   3
   5  -3   4  572.73   41.48   3
   3   2  -4  477.23   40.28   1
   2  -5  -4  483.98   39.53   1
  -2   5   4  585.71   40.28   1
  -2   5   4  546.08   38.56   2
   3   2  -4  475.54   41.42   3
   4   1  -4  773.13   53.17   1
  -1   5   4  659.90   53.40   1
   5  -4   4  695.30   52.29   2
   4   1  -4  772.86   55.40   3
   5  -4   4  635.38   53.74   3
   5  -5   4  301.65   22.94   2
  -5   5  -4  238.44   21.96   4
   5   0  -4  225.95   21.49   1
   5   0  -4  223.23   23.73   3
   0   5   4  292.28   24.12   1
   6  -1  -4  197.70   18.62   1
  -5   6  -4  215.18   20.87   4
   6  -1  -4  206.37   23.95   3
   1   5   4  274.73   22.86   1
  -5   7  -4  337.86   29.32   4
   7  -2  -4  338.54   30.30   3
  -5   8  -4  133.11   18.10   4
   8  -3  -4  103.27   18.16   3
  -2   8  -4   49.53   30.28   1
   8  -6  -4   70.71   21.28   2
  -1   7  -4  175.84   19.75   1
   7  -6  -4  160.05   19.68   2
   6   1   4  221.38   19.16   1
   6   1   4  196.45   22.42   3
   6   0   4   98.20   17.06   3
   6  -6  -4  123.15   11.44   3
   0   6  -4  119.70   15.80   1
   6   0   4  103.50   11.52   1
   6  -1   4  272.87   26.42   3
   1   5  -4  228.85   24.69   1
  -5   6   4  282.57   20.96   1
   6  -1   4  286.58   21.29   1
  -5   6   4  265.59   22.98   4
   6  -2   4  118.98   17.00   3
   2   4  -4  127.03   14.08   1
  -4   6   4  131.75   13.25   4
  -4   6   4  118.90   11.71   1
   2   4  -4  113.12   13.77   3
   6  -3   4  480.08   41.88   3
   3   3  -4  620.97   42.68   1
  -3   6   4  478.16   40.21   1
   3   3  -4  595.31   42.99   3
  -3   6   4  493.94   38.27   4
   6  -4   4  108.93   16.05   2
   4   2  -4  128.81   17.15   3
  -2   6   4  136.83   14.92   1
   6  -4   4  123.37   15.25   3
   4   2  -4  123.83   15.04   1
   6  -5   4  257.12   22.83   3
   5   1  -4  209.01   21.15   1
   5   1  -4  235.76   25.03   3
  -1   6   4  258.38   22.35   1
   6  -5   4  296.82   23.21   2
   6   0  -4  122.01   19.10   3
   6  -6   4  134.78   13.87   3
   6  -6   4  117.50   19.15   2
   6   0  -4  120.91   13.48   1
   0   6   4  131.45   16.81   1
   7  -1  -4  155.42   21.60   3
  -6   7  -4  178.23   20.16   4
   7   0   4  162.98   20.08   3
   0   7  -4  133.22   17.54   1
   7  -1   4  203.02   22.99   3
  -6   7   4  202.63   21.08   4
   7  -2   4  264.92   28.14   3
   2   5  -4  338.01   26.55   1
   2   5  -4  302.99   25.75   3
  -5   7   4  258.05   23.83   4
  -4   7   4  200.90   20.02   4
   7  -3   4  197.07   21.35   3
   3   4  -4  131.57   19.72   1
  -4   7   4  187.99   16.38   1
   7  -4   4  189.56   19.23   3
  -3   7   4  177.56   18.41   1
   7  -4   4  189.28   22.66   2
  -3   7   4  214.37   21.00   4
   5   2  -4  317.24   25.24   1
   7  -5   4  266.59   26.03   3
   5   2  -4  328.63   29.57   3
   7  -5   4  266.28   27.79   2
  -2   7   4  256.01   25.32   1
   6   1  -4  163.98   19.09   1
   7  -6   4  195.00   22.02   2
  -1   7   4  204.38   19.08   1
   7  -6   4  204.93   19.50   3
   6   1  -4  167.26   24.34   3
   0   7   4  155.91   19.34   1
   7   0  -4  139.70   20.24   3
   2   6  -4   59.66   16.37   1
  -6   8   4   30.06   19.56   4
   3   5  -4  131.59   17.61   1
  -5   8   4  167.02   16.94   4
   4   4  -4   74.59   13.43   1
   4   4  -4   88.13   16.29   3
   8  -4   4   90.75   17.26   3
   8  -4   4   97.97   19.01   2
  -4   8   4   72.81   17.02   4
  -3   8   4  139.05   19.95   4
   5   3  -4  114.00   20.18   3
   8  -5   4  174.30   23.71   2
   8  -5   4  161.11   19.25   3
  -3   8   4  138.78   15.58   1
   6   2  -4   28.70   19.23   3
  -2   8   4   62.02   23.90   1
   8  -6   4   60.37   20.29   3
   6   2  -4   32.06   13.95   1
   0   0   5   -9.18    3.80   1
   0   0  -5   -8.91    2.98   1
   0   0   5   -6.84    3.22   3
   0   0   5   -4.11    1.39   2
  -1   1   5   82.89    8.28   3
  -1   1   5   88.14    8.09   1
   0  -1   5   75.21    8.71   3
   0  -1   5   86.43    7.59   1
   1   0   5   80.61    7.70   1
   1   0   5   81.37    7.63   1
   0   1   5   80.07    8.72   1
  -1   0   5   97.12    8.24   3
   0   1   5   81.00    8.21   1
  -1   0   5   85.51    7.91   1
   1  -1   5   87.78    7.57   1
   1  -1   5   81.80    7.48   2
   1   1   5   -5.59    5.30   1
   1  -2   5   -6.85    4.86   3
  -2   1   5    3.02    3.63   1
   2  -1  -5   -1.61    4.60   1
  -1   2  -5   -0.81    2.50   1
  -2   1   5   -4.49    4.60   3
  -1   2  -5   -0.79    3.76   2
   2  -1  -5   -3.50    2.12   4
   2  -1  -5   -4.16    5.41   3
  -1  -1  -5    0.72    3.76   1
   1  -2   5   -6.91    3.22   1
  -2  -1  -5  109.97   10.56   1
   3  -2  -5  123.23   10.88   1
   3  -2  -5  115.87    9.22   4
  -1   3  -5  109.60   10.03   2
   3  -2  -5  116.22   10.84   3
  -1   3  -5  125.28   10.50   1
   0  -2   5  609.82   48.08   3
  -2   2   5  601.93   47.35   1
   0  -2   5  567.25   47.05   1
  -2   2   5  580.04   42.92   4
  -2   2   5  617.34   47.64   3
   0   2  -5  724.48   47.53   1
   2  -2  -5  746.31   48.03   3
   2   0   5  587.69   47.17   1
  -2   2   5  612.80   47.26   1
   2  -2  -5  718.19   44.94   2
  -2   0  -5  723.89   47.21   1
  -1  -1   5    1.66    5.33   3
   2  -1   5   -0.08    2.13   1
  -1   2   5   -3.03    2.39   2
   1   1  -5    1.03    6.14   3
  -1   2   5   -0.94    4.14   1
  -1   2   5  -10.32    5.80   1
   2  -1   5   -5.05    2.60   4
   1   1  -5   -2.86    3.10   1
  -1  -1   5    1.38    2.74   1
   2  -1   5   -2.84    3.45   1
  -1   2   5   -4.56    2.74   3
  -2   0   5  590.98   49.32   1
   2   0  -5  746.46   51.05   3
   0  -2  -5  769.75   49.99   1
   2  -2   5  638.07   48.89   1
  -2   0   5  583.75   50.29   3
   2  -2   5  616.70   48.08   2
   2   0  -5  758.02   49.83   1
  -2   2  -5  737.05   45.62   4
  -2   2  -5  733.40   49.12   1
   0   2   5  591.91   49.86   1
  -2   3  -5  115.62    9.93   1
   3  -1  -5  110.97   12.29   3
  -2   3  -5  127.28   10.80   4
  -1  -2  -5  116.76   10.56   1
   3  -1  -5  111.65   10.67   1
   3  -1  -5  118.31    9.52   4
   2  -4   5    2.82    4.81   3
   4  -2  -5    2.24    5.41   1
  -4   2   5   -3.72    5.10   3
   4  -2  -5    5.83    3.82   4
   4  -2  -5    2.30    5.90   3
  -2   4  -5   -0.28    5.58   2
  -4   2   5   -3.70    3.24   1
  -2   4  -5    0.50    4.13   1
   2   2   5    2.00    8.51   1
   2  -4   5    5.83    2.91   1
  -2  -2  -5   -1.89    4.47   1
  -5   3   5   74.18    6.93   1
   3   2   5   70.42   10.98   1
   2  -5   5   66.93    7.43   3
   3   2   5   52.78   10.64   3
   2  -5   5   68.69    7.99   1
  -4   3   5   67.51    7.92   3
   3   1   5   49.59    8.75   1
   3   1   5   46.40    9.77   3
   1  -4   5   69.38    7.55   3
  -4   3   5   64.95    7.50   1
   1  -4   5   64.78    7.39   1
  -4   3   5   74.03    6.69   1
  -3   3   5    1.20    5.21   1
  -3   0  -5    4.30    3.46   1
   0  -3   5    3.61    4.56   3
   3  -3  -5   -0.28    5.24   3
   0   3  -5   -3.59    6.33   1
   0  -3   5    2.24    3.32   1
  -3   3   5    2.32    3.73   3
  -3   3   5    8.15    4.24   1
  -3   3   5    5.98    5.57   4
   3  -3  -5   -0.44    4.35   2
   3   0   5   -1.19    4.94   1
  -1  -2   5   59.71    7.96   3
   3  -1   5   65.08    6.49   1
  -2   3   5   72.58    7.96   1
  -2   3   5   69.49    7.30   4
  -2   3   5   69.49    6.20   3
   3  -1   5   74.03    7.56   4
  -2   3   5   67.09    8.51   1
  -1  -2   5   69.87    7.56   1
   3  -1   5   63.63    6.48   1
  -1   3   5   63.32    6.42   2
  -1   3   5   70.75    8.92   1
  -2  -1   5   59.36    6.73   1
  -1   3   5   69.89    5.90   3
  -2  -1   5   72.93    8.31   3
   3  -2   5   67.65    5.84   1
   3  -2   5   68.24    6.61   4
   3  -2   5   68.81    5.74   1
  -3   3  -5    6.37    2.71   1
  -3   3  -5    1.67    6.52   4
   0   3   5   -4.45    6.04   1
   0  -3  -5    1.05    3.75   1
   3   0  -5   -3.11    5.62   1
  -3   0   5   -5.81    5.74   3
  -3   0   5   -1.33    3.33   1
   3  -3   5   -2.48    5.57   2
   3   0  -5    2.64    7.47   3
   3  -3   5    4.96    1.93   1
  -4   1   5   63.60    6.83   1
  -4   1   5   57.98    8.30   3
   3  -4   5   59.16    5.83   1
   1   3   5   61.84    6.95   3
   3  -4   5   56.36   11.49   2
   1   3   5   65.82   10.45   1
   2   3   5   77.45   11.72   1
   2   3   5   61.09    7.94   3
  -5   2   5   56.44    6.96   1
   3  -5   5   60.03    6.67   1
   3  -5   5   68.93    7.81   3
   6  -3  -5    4.46    4.46   1
   3   3   5    5.49   10.11   1
  -3   6  -5   -1.85   10.29   4
   6  -3  -5    8.64   11.46   3
   3   3   5  -11.34    8.24   3
   4   3   5   13.37   10.84   3
   7  -4  -5   29.79    9.55   3
   4   3   5   25.72   10.86   1
  -3   7  -5   44.99    8.40   1
   7  -4  -5   20.99   11.35   2
  -6   4   5  146.26   12.79   1
   6  -4  -5  201.26   16.66   2
   4   2   5  140.35   17.41   3
   4   2   5  147.88   16.80   1
   6  -4  -5  180.41   16.55   3
  -5   4   5    1.49    4.00   1
   4   1   5    7.57    7.83   1
   4   1   5   -5.04   10.66   3
   1  -5   5    4.76    3.88   3
  -1   5  -5    4.18    6.45   1
   5  -4  -5   -4.89    5.52   3
   5  -4  -5    9.81    7.37   2
  -4   4   5  249.06   20.87   4
  -4   4   5  236.01   20.85   1
  -4   4   5  242.76   20.71   1
   4   0   5  234.07   23.57   3
   0   4  -5  314.10   23.14   1
  -4   0  -5  305.79   21.50   1
   4  -4  -5  314.13   22.05   3
   4   0   5  246.04   21.45   1
   0  -4   5  250.40   21.31   3
   4  -4  -5  318.16   21.34   2
  -3   4   5   64.36    7.92   4
  -3   4   5   64.01    8.12   1
  -3   4   5   55.65    7.41   1
   4  -1   5   60.47    7.21   4
  -1  -3   5   64.70    7.94   3
   4  -1   5   64.31    6.48   1
  -1  -3   5   57.78    8.09   1
  -2  -2   5   16.58    5.77   3
   2  -4  -5   10.10    4.83   1
   2   2  -5    8.40    7.77   1
   4  -2   5    1.83    4.80   4
  -2  -2   5    5.01    5.91   1
   2   2  -5   17.99    9.51   3
  -1   4   5   55.18   10.18   1
   4  -3   5   72.95    9.16   2
  -1   4   5   60.21    7.97   2
  -3  -1   5   63.60    7.52   1
   4  -3   5   72.29    8.36   4
  -3  -1   5   68.14    8.40   3
   0   4   5  236.07   23.36   1
  -4   4  -5  319.06   21.76   4
  -4   0   5  234.25   21.25   1
   4   0  -5  301.44   23.64   3
   4  -4   5  230.30   21.95   2
   4   0  -5  308.55   22.38   1
   4  -5   5   19.83   12.29   2
   5  -1  -5   12.62   11.05   3
   1   4   5   -3.11   26.18   1
  -5   1   5   -1.90    8.82   1
  -4   5  -5    3.27    2.59   1
  -4   5  -5    1.12    9.27   4
   5  -1  -5   -5.02    6.29   1
   4  -5   5    4.82    2.17   1
   1   4   5   12.41    4.00   3
  -4   6  -5  199.33   15.19   1
  -4   6  -5  180.41   18.14   4
   6  -2  -5  195.67   16.42   1
   6  -2  -5  198.37   21.01   3
   2   4   5  157.51   19.57   1
   3   4   5   47.13   13.53   1
   3   4   5   23.77    9.31   3
   7  -3  -5   54.97   14.68   3
  -4   7  -5   36.19   10.22   4
   8  -4  -5   24.81   16.71   2
   8  -4  -5  -14.50   10.94   3
  -4   8  -5   -6.28   14.42   4
   8  -5  -5   40.22   12.89   3
   8  -5  -5   51.17   24.62   2
   5   3   5   38.53   11.93   1
  -3   8  -5   37.99   11.72   4
   5   2   5   11.08    9.42   3
   7  -5  -5   -7.10   10.29   3
   7  -5  -5    7.33   10.97   2
  -2   7  -5  -14.40    9.85   1
   5   2   5    1.81    9.36   1
   5   1   5   38.23   13.32   3
  -1   6  -5   48.46   11.43   1
   6  -5  -5   43.65   10.10   2
   6  -5  -5   62.07   10.26   3
   0   5  -5   58.62   10.68   1
   5   0   5   39.41    6.82   1
  -5   5   5   37.04    5.22   1
   5   0   5   27.39    9.38   3
  -4   5   5    7.79    8.75   4
  -1  -4   5   -2.61    3.13   3
  -4   5   5    5.20    6.66   1
   5  -1   5   -1.56   12.84   3
   1   4  -5   -4.75    9.38   1
  -4   5   5   -0.25    5.25   1
   4  -5  -5    3.27    3.40   3
  -5   1  -5    3.78    4.83   1
   1   4  -5   -1.67    8.14   3
  -2  -3   5   60.30    8.41   3
  -3   5   5   60.80    9.63   4
   5  -2   5   72.97   12.54   3
  -3   5   5   56.18    7.41   1
  -3   5   5   68.64    7.96   1
   5  -2   5   67.95    5.73   1
   5  -2   5   66.95    5.60   1
   3   2  -5  103.16   11.27   1
  -2   5   5   67.28   11.18   1
  -2   5   5   81.60   11.74   2
   3   2  -5   98.49   11.81   3
   4   1  -5   18.33    9.33   3
   4   1  -5   -2.09    8.21   1
   5  -4   5   25.56   12.20   2
  -1   5   5   -0.42    6.77   1
   5  -5   5   43.66   14.10   2
   5   0  -5   58.66   10.02   1
  -5   5  -5   47.82   12.00   4
   5   0  -5   45.67   13.71   3
   1   5   5   50.48   10.23   1
  -5   6  -5   61.13   12.88   4
   6  -1  -5   48.52    8.62   1
   5  -6   5   36.75    7.74   3
   6  -1  -5   62.22   15.14   3
   2   5   5    0.65   10.12   1
   7  -2  -5   13.03   14.41   3
  -5   7  -5    4.55   13.75   4
   8  -3  -5   32.31   14.91   3
  -5   8  -5   24.04   14.45   4
  -1   7  -5   14.69   12.61   1
   6   1   5   57.37   15.48   3
   6   1   5   27.39    8.89   1
   0   6  -5   -0.07   11.46   1
   6   0   5   13.48   10.06   3
   6   0   5    3.22    5.26   1
   1   5  -5   41.51   12.75   1
  -5   6   5   30.52    5.77   1
   6  -1   5   24.30    5.33   1
  -5   6   5   26.91    8.08   4
   6  -1   5   15.45   13.33   3
   6  -2   5  151.80   16.73   3
  -4   6   5  151.52   14.69   1
  -4   6   5  142.02   16.48   4
   2   4  -5  172.65   16.71   1
   2   4  -5  199.19   17.29   3
   6  -3   5   -3.26   11.41   3
  -3   6   5   -3.88    6.82   1
   3   3  -5    0.64   11.54   3
   3   3  -5   -8.32   11.04   1
  -3   6   5   -2.19    9.88   4
   4   2  -5  175.73   16.86   1
   6  -4   5  138.37   16.81   3
   6  -4   5  138.12   15.94   2
  -2   6   5  134.84   16.49   1
   4   2  -5  183.35   19.46   3
   5   1  -5   50.34    9.72   1
  -1   6   5   34.58   12.69   1
   5   1  -5   57.32   15.66   3
   6  -5   5   34.47   14.43   2
   6   0  -5  -14.22   11.24   3
   0   6   5   -6.61   11.16   1
   6   0  -5   -7.42    8.51   1
   6  -6   5   19.51    8.15   3
   6  -6   5    3.34   15.09   2
   7  -1  -5   42.59   14.33   3
   7   0   5   40.01   17.75   3
   0   7  -5   75.00   15.92   1
   1   6  -5   64.31   11.84   1
   7  -2   5    8.55   10.76   3
   2   5  -5    2.33   10.59   3
   2   5  -5    6.24   12.37   1
  -5   7   5  -17.62   11.64   4
   7  -3   5   32.23   14.36   3
   3   4  -5   37.19   11.78   3
   3   4  -5   50.56   13.47   1
  -4   7   5   34.31    9.04   1
   4   3  -5   29.11   14.08   3
   4   3  -5   11.82   10.36   1
   7  -4   5   26.39   14.79   2
   7  -4   5   26.80   12.94   3
  -3   7   5   23.52    9.66   1
  -3   7   5   19.28   12.11   4
   5   2  -5    0.51   10.97   3
   7  -5   5  -22.54   15.49   2
  -2   7   5    0.21    9.33   1
   5   2  -5   -6.10   11.05   1
   6   1  -5   55.09   11.21   1
  -1   7   5   27.72   12.86   1
   6   1  -5   73.44   18.80   3
   7  -6   5   38.92   11.11   3
   7   0  -5   60.94   21.04   3
   3   5  -5   63.00   16.24   1
   8  -3   5   43.55   14.34   3
  -5   8   5    8.79   21.76   4
   4   4  -5   14.28   13.46   1
  -4   8   5    4.11   10.49   4
   8  -4   5  -10.55   18.27   2
   4   4  -5   -8.33   18.46   3
   8  -4   5    5.75   13.93   3
   5   3  -5   39.61   17.51   3
  -3   8   5   31.22   20.87   4
  -3   8   5   56.77   17.06   1
   5   3  -5   33.85   16.10   1
   8  -5   5   51.34   22.15   2
   8  -5   5   26.88   12.63   3
   0   0   6 3668.91  260.65   3
   0   0   6 3635.95  256.98   1
   0   0   6 3485.91  246.55   2
   0  -1   6  663.21   46.67   1
   1   0   6  635.07   46.62   1
   1   0   6  678.47   46.91   1
   0  -1   6  697.79   47.91   3
   0   1  -6  585.27   44.37   2
  -1   1   6  655.55   47.62   3
   1  -1  -6  598.70   46.97   1
   1  -1  -6  585.90   47.34   3
  -1   1   6  675.06   46.92   1
   0   1  -6  574.45   46.58   1
   1   0   6  664.50   42.27   4
   1   0  -6  590.95   46.03   1
   1  -1   6  652.35   44.07   2
  -1   0   6  654.88   46.00   1
   0   1   6  646.39   46.17   1
  -1   1  -6  600.18   45.83   1
  -1   1  -6  580.58   41.55   4
  -1   0   6  673.25   47.08   3
   0   1   6  638.36   46.21   1
   1   0  -6  584.52   46.96   3
   1  -1   6  644.57   45.71   1
   1  -2   6 4377.37  297.55   1
   2  -1  -6 4130.28  301.98   3
   1   1   6 4184.04  298.01   1
  -2   1   6 4302.58  301.98   3
  -1  -1  -6 4182.41  297.90   1
  -1   2  -6 3820.40  272.48   4
   2  -1  -6 4179.29  272.16   4
  -1   2  -6 4082.05  286.46   2
  -2   1   6 4285.47  297.78   1
  -1   2  -6 4166.33  297.61   1
   1  -2   6 4217.50  301.99   3
   2  -1  -6 4090.69  297.85   1
  -1   3  -6  271.75   23.12   2
  -2  -1  -6  308.40   23.95   1
  -3   2   6  347.47   23.82   1
   1  -3   6  334.37   23.65   1
   2   1   6  323.53   24.52   1
   3  -2  -6  276.95   23.77   1
   3  -2  -6  289.91   24.88   3
  -3   2   6  326.82   24.42   3
   3  -2  -6  292.85   21.38   4
   1  -3   6  340.89   24.37   3
  -1   3  -6  283.89   23.85   1
  -2   2   6  736.83   55.78   1
  -2   2   6  783.88   50.53   4
  -2   2   6  761.23   56.24   3
  -2   2   6  778.25   55.75   1
   0  -2   6  736.08   55.48   1
   2   0   6  779.49   55.67   1
   2   0   6  732.75   55.60   1
   0  -2   6  776.92   56.78   3
   1   1  -6 4225.45  305.38   3
  -1  -1   6 4179.54  305.18   3
  -1   2   6 4168.38  301.05   1
   2  -1   6 4155.94  300.63   1
   2  -1   6 4204.57  300.68   1
   2  -1   6 4312.52  275.55   4
  -1   2   6 4288.05  304.77   3
  -1  -1   6 4380.35  300.95   1
  -1   2   6 4058.70  288.87   2
   1   1  -6 4217.93  301.09   1
  -1   2   6 4145.47  301.16   1
   2  -2   6  760.06   47.72   2
  -2   0   6  735.26   48.92   1
   0   2   6  750.75   49.51   1
   0  -2  -6  580.64   48.97   1
   2   0  -6  579.38   48.79   1
  -2   2  -6  587.86   48.39   1
  -2   0   6  737.15   50.13   3
   2  -2   6  755.53   48.43   1
  -2   2  -6  596.43   44.69   4
   2   0  -6  574.16   50.20   3
   2  -3   6  335.57   23.35   1
   1   2   6  329.45   25.11   1
  -2   3  -6  274.80   22.36   4
   3  -1  -6  279.72   24.22   1
  -2   3  -6  296.53   23.53   1
   2  -3   6  334.48   24.44   2
  -3   1   6  332.72   24.57   3
   3  -1  -6  293.02   24.86   3
  -1  -2  -6  291.62   23.99   1
  -3   1   6  350.74   23.97   1
   3  -1  -6  295.45   21.63   4
   4  -2  -6 1948.45  128.94   3
   4  -2  -6 1901.56  115.77   4
  -2  -2  -6 1854.89  126.68   1
  -2   4  -6 1894.62  126.16   1
   2  -4   6 1520.69  127.77   3
   4  -2  -6 1918.60  126.53   1
  -2   4  -6 1882.21  116.50   4
  -4   2   6 1532.57  128.06   3
   2   2   6 1559.64  126.85   1
   2  -4   6 1611.48  125.81   1
  -4   2   6 1571.00  125.79   1
  -2   4  -6 1812.10  122.09   2
   3   2   6  252.55   21.25   1
   5  -3  -6  215.61   19.49   1
   2  -5   6  253.06   19.74   3
   2  -5   6  240.25   19.41   1
  -2   5  -6  218.55   19.80   1
  -5   3   6  259.13   18.98   1
   5  -3  -6  217.34   21.80   3
   3   2   6  265.20   21.54   3
  -1   4  -6  246.62   21.81   1
   4  -3  -6  243.59   22.28   3
   1  -4   6  294.93   22.02   3
  -4   3   6  292.21   21.96   3
   1  -4   6  295.53   21.74   1
   4  -3  -6  261.89   20.56   2
  -3  -1  -6  247.41   21.41   1
  -1   4  -6  234.48   21.14   2
   3   1   6  280.73   22.57   1
  -4   3   6  288.68   21.13   1
  -4   3   6  300.68   21.85   1
   3  -3  -6 2818.05  188.99   2
  -3   3   6 2804.82  196.73   1
   0  -3   6 2657.07  199.41   3
   0   3  -6 2692.23  196.97   1
   0   3  -6 2639.81  189.64   2
   3  -3  -6 2780.31  199.32   3
  -3   3   6 2868.76  180.30   4
  -3   3   6 2741.17  199.09   3
   0  -3   6 2738.08  196.77   1
  -3   0  -6 2731.72  196.63   1
   3   0   6 2783.22  196.74   1
  -3   3   6 2663.92  196.78   1
   1   2  -6  279.08   25.15   1
  -2   3   6  335.66   24.71   3
  -1  -2   6  338.70   25.70   3
  -2   3   6  318.10   25.38   1
  -2   3   6  354.49   23.05   4
  -2   3   6  340.47   25.87   1
   1   2  -6  298.93   26.39   3
   3  -1   6  331.44   24.68   1
   3  -1   6  336.54   23.40   4
  -1  -2   6  316.87   25.17   1
   3  -1   6  338.01   24.62   1
   3  -2   6  341.41   24.32   1
   2   1  -6  277.93   25.59   1
  -2  -1   6  329.93   24.95   1
   3  -2   6  353.91   23.37   4
  -1   3   6  338.67   25.62   1
  -1   3   6  324.34   24.52   3
   2   1  -6  291.95   26.13   3
  -2  -1   6  338.15   25.95   3
   3  -2   6  338.46   24.19   1
   1  -3  -6  302.44   25.36   1
  -1   3   6  342.44   23.97   2
   3   0  -6 2722.57  199.13   3
   3  -3   6 2804.66  189.33   2
  -3   3  -6 2726.43  179.76   4
   3  -3   6 2717.69  194.77   1
  -3   0   6 2693.71  198.75   3
  -3   3  -6 2800.66  195.00   1
   0   3   6 2664.18  196.25   1
  -3   0   6 2690.69  195.63   1
   0  -3  -6 2739.26  196.15   1
   3   0  -6 2731.20  196.01   1
   4  -1  -6  251.12   20.20   4
  -4   1   6  290.19   21.78   1
   3  -4   6  303.18   22.85   2
  -3   4  -6  260.40   20.84   4
   4  -1  -6  244.00   21.93   1
   1   3   6  305.43   23.36   1
  -3   4  -6  256.04   21.11   1
   3  -4   6  318.14   21.19   1
   4  -1  -6  249.54   24.86   3
   1   3   6  306.48   22.05   3
   5  -2  -6  195.75   21.97   3
   3  -5   6  257.92   19.75   3
   2   3   6  267.91   19.94   3
   3  -5   6  253.36   18.66   1
  -5   2   6  242.15   18.77   1
  -3   5  -6  214.55   18.72   1
   2   3   6  255.12   21.92   1
  -3   5  -6  202.18   18.72   4
   5  -2  -6  221.26   19.26   1
   3   3   6 1127.28   84.83   3
   6  -3  -6 1122.47   85.56   3
   6  -3  -6 1132.37   83.03   1
  -3   6  -6 1139.33   78.18   4
   3   3   6 1146.44   84.88   1
  -3   6  -6 1153.49   83.06   1
  -3   7  -6   62.69   10.47   1
   4   3   6   56.76   13.32   1
  -3   7  -6   40.83   10.66   4
   7  -4  -6   43.08   12.02   2
   7  -4  -6   51.75   13.21   3
   4   3   6   82.50   13.10   3
  -2   6  -6  144.18   16.44   1
   4   2   6  199.31   18.87   3
   6  -4  -6  152.00   16.43   2
  -6   4   6  199.76   14.75   1
   4   2   6  201.84   16.94   1
   6  -4  -6  157.02   18.53   3
   4   1   6 1452.73  107.47   3
   1  -5   6 1392.38  105.99   3
  -1   5  -6 1455.12  105.68   1
   5  -4  -6 1466.74  106.80   3
  -5   4   6 1424.73  104.30   1
  -5   4   6 1442.95  104.55   1
   5  -4  -6 1485.03  101.26   2
   4   1   6 1456.52  105.73   1
  -4   4   6  361.71   25.70   1
  -4   4   6  340.31   25.65   3
   4   0   6  345.13   25.93   1
   4  -4  -6  270.64   24.44   2
  -4   4   6  337.25   25.73   1
  -4   4   6  377.80   24.90   4
   0  -4   6  334.63   26.01   3
   4  -4  -6  283.61   26.01   3
  -1  -3   6  288.85   23.74   3
  -3   4   6  298.57   23.48   1
   1   3  -6  255.05   24.41   1
  -3   4   6  304.52   22.72   3
   4  -1   6  302.09   22.02   4
   4  -1   6  315.58   23.05   1
   4  -1   6  310.47   22.93   1
  -3   4   6  295.04   23.92   1
  -3   4   6  315.94   22.04   4
  -2   4   6 1499.37  110.95   1
  -2   4   6 1508.62  110.97   1
   4  -2   6 1548.96  101.92   4
   4  -2   6 1543.43  109.66   1
  -2   4   6 1609.97  106.49   2
   4  -2   6 1571.40  109.63   1
  -2  -2   6 1428.67  112.29   3
  -1   4   6  294.69   20.77   2
  -1   4   6  303.30   22.90   1
   3   1  -6  238.06   22.03   1
   1  -4  -6  241.54   21.63   1
   3   1  -6  227.21   22.56   3
   4  -3   6  281.91   20.42   4
  -3  -1   6  274.10   21.44   1
   0   4   6  354.68   28.77   1
   0   4   6  343.57   25.55   3
  -4   0   6  333.56   26.88   1
   4  -4   6  351.24   28.37   2
   0   4   6  343.50   25.68   3
  -4   5  -6 1465.84   97.23   4
   4  -5   6 1426.39  102.90   2
   1   4   6 1438.15  105.20   3
   4  -5   6 1364.06  103.27   1
   1   4   6 1477.75  106.29   1
   5  -1  -6 1483.70  105.08   1
  -4   5  -6 1504.72  103.42   1
   5  -1  -6 1373.07  107.41   3
   6  -2  -6  132.17   13.19   1
  -4   6  -6  137.31   11.63   1
  -4   6  -6  136.41   16.07   4
   6  -2  -6  127.59   17.93   3
  -4   7  -6   60.34   14.64   4
   7  -3  -6   85.10   16.14   3
   3   4   6   92.97   15.53   1
   3   4   6   74.09   10.83   3
   8  -4  -6  416.91   36.69   3
   8  -4  -6  422.47   34.54   2
  -4   8  -6  394.80   33.52   4
  -3   8  -6   51.33   16.26   4
   5   3   6   73.51   11.74   1
   8  -5  -6   71.98   33.12   2
   8  -5  -6   36.84   15.11   3
   5   3   6   79.10   22.30   3
  -2   7  -6  696.18   50.52   1
   7  -5  -6  682.12   48.90   2
   5   2   6  633.06   52.45   3
   5   2   6  609.80   50.29   1
   7  -5  -6  652.38   51.26   3
   5   1   6  109.44   12.59   1
   6  -5  -6   91.73   12.52   3
   5   1   6  106.61   16.05   3
   6  -5  -6   98.12   12.81   2
  -1   6  -6  103.28   14.12   1
   5   0   6  123.87   11.43   1
   5   0   6  143.88   16.08   3
   0   5  -6   79.57   13.23   1
   5  -5  -6   82.94   10.90   3
  -5   5   6  114.40   10.12   1
   5  -1   6 1411.67  104.46   1
   1   4  -6 1453.92  105.94   1
   1   4  -6 1427.25  106.82   3
  -4   5   6 1517.27   96.99   4
  -1  -4   6 1331.29  105.93   3
  -4   5   6 1376.14  104.57   1
   5  -1   6 1470.12  108.05   3
   5  -1   6 1511.13  104.40   1
  -4   5   6 1460.32  104.79   1
   4  -5  -6 1480.41  105.30   3
   2   3  -6  204.98   21.26   3
   5  -2   6  258.65   18.57   1
  -3   5   6  270.92   20.62   1
   5  -2   6  256.27   18.73   1
  -3   5   6  255.46   19.27   4
   2   3  -6  221.08   22.26   1
  -3   5   6  257.86   20.47   1
  -2   5   6  255.92   19.99   2
   3   2  -6  230.44   22.14   1
  -2   5   6  268.63   22.10   1
   3   2  -6  251.56   23.85   3
  -1   5   6 1508.49  109.25   1
   4   1  -6 1490.78  108.87   1
   4   1  -6 1480.60  110.95   3
   5  -4   6 1472.33  105.96   2
   5  -5   6  102.98   15.93   2
   0   5   6  125.92   15.20   1
   5   0  -6   79.50   16.96   3
  -5   5  -6  114.48   12.15   4
   5   0  -6   92.57   12.64   1
  -5   6  -6   83.34   11.47   4
   6  -1  -6   64.45   16.45   3
   1   5   6   76.85   15.03   1
   6  -1  -6   81.83   10.82   1
   2   5   6  628.56   50.99   1
   7  -2  -6  647.31   53.74   3
  -5   7  -6  666.88   48.18   4
  -5   8  -6   64.93   16.89   4
   3   5   6   54.74   15.15   1
   8  -3  -6   51.52   17.70   3
   6   1   6   86.64   12.78   1
  -1   7  -6   62.66   14.10   1
   7  -6  -6   62.06   12.75   2
   6   1   6  108.41   17.59   3
   6   0   6  462.89   39.42   3
   6   0   6  452.54   35.45   1
  -5   6   6   80.32   12.69   4
   6  -1   6  113.45   14.15   3
   1   5  -6   79.82   14.45   1
  -5   6   6  106.85   10.25   1
   6  -1   6   98.92    9.61   1
  -4   6   6  202.66   17.56   4
   2   4  -6  147.81   18.88   3
   6  -2   6  195.05   20.68   3
  -4   6   6  201.82   16.51   1
   3   3  -6 1136.52   83.74   1
  -3   6   6 1139.95   76.75   4
   3   3  -6 1144.25   84.75   3
  -3   6   6 1109.31   82.79   1
   6  -3   6 1082.62   84.78   3
  -2   6   6  210.08   19.06   1
   6  -4   6  200.28   20.49   2
   6  -4   6  203.62   19.98   3
   4   2  -6  162.66   21.03   3
   4   2  -6  158.94   18.67   1
   6  -5   6  105.49   13.72   3
  -1   6   6  105.21   13.18   1
   6  -5   6   77.47   16.02   2
   5   1  -6   87.97   14.18   3
   6   0  -6  632.65   47.31   3
   6  -6   6  526.26   43.56   2
   6   0  -6  633.39   43.74   1
   0   6   6  506.33   44.98   1
   6  -6   6  486.35   43.43   3
  -6   7  -6   89.39   13.03   4
   1   6   6   99.50   17.96   1
   7  -1  -6   61.20   19.76   3
   0   7  -6   57.29   14.94   1
   1   6  -6   63.68   15.99   1
   7  -1   6   95.58   14.88   3
   2   5  -6  691.57   50.69   3
  -5   7   6  573.19   46.46   4
   7  -2   6  625.69   52.75   3
   2   5  -6  674.08   51.66   1
  -4   7   6   72.51   10.67   1
  -4   7   6   61.78   10.48   4
   7  -3   6   53.16   15.08   3
   3   4  -6   44.35   14.19   1
   3   4  -6   50.62   14.27   3
   7  -4   6   90.58   15.14   3
   7  -4   6   42.01   16.02   2
  -3   7   6   57.47   12.81   4
   4   3  -6   80.09   15.76   3
   4   3  -6   37.49   12.04   1
  -3   7   6   68.77   11.80   1
   5   2  -6  672.00   52.03   1
  -2   7   6  650.82   51.76   1
   7  -5   6  657.21   51.13   2
   5   2  -6  678.85   54.74   3
   7  -5   6  649.92   52.85   3
   6   1  -6   78.57   14.37   1
   7  -6   6  107.55   14.48   3
   6   1  -6   83.93   17.17   3
  -1   7   6  100.65   15.41   1
   7  -6   6   88.15   18.88   2
   0   7   6  105.11   22.25   1
   7   0  -6   69.23   19.27   3
   8  -3   6   68.85   14.09   3
   3   5  -6   47.35   12.20   1
  -5   8   6   99.59   35.00   4
   8  -4   6  281.43   28.41   3
   8  -4   6  287.24   27.82   2
  -4   8   6  319.56   36.13   4
   5   3  -6   41.68   16.96   3
   8  -5   6   74.73   16.17   2
   8  -5   6   76.74   14.61   3
  -3   8   6   64.17   27.50   4
   5   3  -6   50.33   11.67   1
  -3   8   6   57.35   20.48   1
   0   0   7    2.28    3.11   1
   0   0   7   -0.10    5.69   3
   0   0  -7   -3.73    5.35   1
   1   0   7 2511.35  157.80   4
   1   0   7 2414.88  172.96   1
   0   1  -7 2294.45  165.86   2
   1   0   7 2521.20  173.24   1
   0   1  -7 2252.96  172.98   1
  -1   1   7 2555.21  175.61   3
  -1   1   7 2448.10  173.10   1
   0  -1   7 2441.11  175.70   3
   0  -1   7 2446.72  172.91   1
   1  -1  -7 2228.60  173.17   1
  -1   0   7 2437.28  170.52   3
  -1   1  -7 2240.35  153.12   4
   1   0  -7 2245.95  170.41   3
   0   1   7 2467.50  170.23   3
   1  -1   7 2497.02  161.31   2
   1   0  -7 2253.44  160.54   2
   0   1   7 2409.42  168.25   1
   1  -1   7 2340.12  167.64   1
   0   1   7 2337.38  167.95   1
  -1   1  -7 2210.78  167.68   1
  -1   0   7 2402.98  167.84   1
   1   0  -7 2228.94  167.94   1
   2  -1  -7   -0.92    6.24   1
   2  -1  -7    4.38    2.02   4
   2  -1  -7    1.04    5.18   3
  -1   2  -7    4.97    4.11   4
  -2   1   7   -7.09    4.87   1
   1  -2   7    7.36    3.98   1
   1   1   7    2.42    5.34   1
  -1   2  -7   -1.10    3.28   1
   1   1   7   -1.11    7.33   1
   1  -2   7    3.17    4.52   3
  -3   2   7 1442.20   96.45   1
   1  -3   7 1395.62   96.17   1
  -1   3  -7 1238.59   92.70   2
   3  -2  -7 1295.93   96.69   1
   3  -2  -7 1249.26   87.64   4
  -1   3  -7 1297.56   96.43   1
  -3   2   7 1433.31   97.93   3
   3  -2  -7 1303.09   98.13   3
   3  -2  -7 1276.06   91.89   2
   2   1   7 1377.78   96.88   1
   1  -3   7 1394.38   98.06   3
  -2  -1  -7 1257.63   96.41   1
   2   0   7 2379.05  170.91   1
   0  -2   7 2326.39  170.84   1
   2   0   7 2359.75  170.99   1
   0  -2   7 2374.11  173.63   3
   2  -2  -7 2401.11  173.13   3
  -2   2   7 2325.56  170.96   1
  -2   2   7 2308.91  171.16   1
  -2   2   7 2394.71  173.13   3
   0   2  -7 2427.07  164.29   2
   0   2  -7 2505.55  171.11   1
   1   1  -7    0.18    4.11   1
  -1  -1   7    4.35    5.09   3
  -1   2   7   -5.01    3.79   3
   2  -1   7   -3.58    5.09   1
   1   1  -7   -5.70    5.87   3
  -1   2   7    2.53    4.89   1
  -1  -1   7   -2.48    3.88   1
  -1   2   7    3.90    1.76   2
  -1   2   7    4.23    6.12   1
   2  -1   7    0.70    3.61   1
  -2   2  -7 2403.67  171.58   1
   0   2   7 2366.16  172.46   1
   0   2   7 2321.98  172.09   1
  -2   0   7 2413.43  171.89   1
  -2   0   7 2437.73  174.60   3
   2   0  -7 2359.06  174.78   3
   2  -2   7 2410.73  165.73   2
   2   0  -7 2436.24  172.15   1
   2  -2   7 2334.76  171.40   1
  -2   2  -7 2460.27  157.35   4
   3  -1  -7 1264.66   98.39   1
   2  -3   7 1416.68   97.80   1
   2  -3   7 1450.87   95.49   2
  -3   1   7 1427.73  100.05   3
  -2   3  -7 1275.61   97.91   1
   3  -1  -7 1301.41  100.37   3
   1   2   7 1452.74   99.17   1
  -2   3  -7 1282.81   90.06   4
  -3   1   7 1446.14   98.34   1
   3  -1  -7 1306.41   89.54   4
  -1  -2  -7 1303.87   98.55   1
   2   2   7   -0.07    8.30   1
   2  -4   7   -4.88    5.74   3
  -4   2   7   12.41    6.17   3
  -2   4  -7   -1.04    5.55   1
  -4   2   7   -4.52    3.91   1
   4  -2  -7   -6.04    4.64   1
   2  -4   7    7.16    3.53   1
   4  -2  -7    3.18    3.99   4
   4  -2  -7    4.25    9.37   3
   3   2   7  863.59   61.83   1
   5  -3  -7  774.03   58.11   2
  -5   3   7  858.66   60.11   1
  -2   5  -7  798.24   60.61   1
   3   2   7  875.63   62.33   3
   5  -3  -7  759.14   60.50   1
   5  -3  -7  791.85   62.35   3
   2  -5   7  834.50   61.45   3
   4  -3  -7 1003.61   73.78   2
  -4   3   7 1080.56   77.00   1
  -4   3   7 1112.06   78.49   3
  -1   4  -7 1011.23   77.43   1
   4  -3  -7 1011.95   78.65   3
  -3  -1  -7  982.78   77.28   1
   1  -4   7 1090.75   77.21   1
  -4   3   7 1112.29   77.40   1
   3   1   7 1093.07   77.93   1
   1  -4   7 1076.87   78.39   3
  -3   3   7   10.73    4.31   3
   0   3  -7   13.52    5.71   2
   0  -3   7    7.53    4.84   1
  -3   3   7   13.82    4.15   1
   3  -3  -7   10.71    6.17   3
   3   0   7   10.78    6.11   1
   0  -3   7   19.37    5.94   3
   0   3  -7    6.34    7.33   1
  -3   3   7   13.06    7.25   1
   3   0   7    3.77    4.62   1
   1   2  -7 1235.83  100.53   1
  -2   3   7 1409.28  100.81   1
  -1  -2   7 1397.86  102.02   3
   1   2  -7 1278.11  102.26   3
  -2   3   7 1420.70  101.17   3
  -1  -2   7 1358.01  100.29   1
  -2   3   7 1423.20   91.52   4
  -2   3   7 1438.69  100.60   1
   3  -1   7 1414.66   92.07   4
   3  -1   7 1415.59  100.00   1
   3  -1   7 1445.87  100.12   1
   3  -2   7 1382.57  100.01   1
   2   1  -7 1253.49  102.68   3
   2   1  -7 1284.21  100.85   1
  -1   3   7 1406.92  101.30   1
   3  -2   7 1423.38   99.93   1
  -1   3   7 1396.18   96.32   2
  -2  -1   7 1447.01  102.51   3
  -2  -1   7 1400.63  100.69   1
  -1   3   7 1423.04  101.04   1
   3  -2   7 1420.72   92.35   4
  -1   3   7 1444.59  101.42   3
   3  -3   7   11.21    3.07   1
   0  -3  -7    2.78    5.53   1
   3   0  -7    4.70    7.45   1
   3  -3   7   16.47    8.69   2
  -3   3  -7   16.94    4.30   1
   3   0  -7   -0.86   12.92   3
   0   3   7   15.02    4.21   3
  -3   0   7    7.71    6.01   3
   0   3   7    1.58    8.53   1
  -3   0   7    2.93    4.93   1
   1   3   7 1157.88   77.73   1
  -4   1   7 1101.42   76.10   1
   4  -1  -7  936.19   78.20   3
  -3   4  -7  975.57   75.39   1
  -3   4  -7 1005.54   70.27   4
   3  -4   7 1085.05   75.33   1
   4  -1  -7  966.87   69.62   4
   4  -1  -7 1035.62   76.57   1
   3  -4   7 1118.85   74.95   2
  -3   5  -7  799.22   59.84   1
   2   3   7  854.26   61.20   3
  -5   2   7  816.05   59.95   1
   2   3   7  865.53   62.06   1
   3  -5   7  826.80   61.37   3
  -3   5  -7  761.84   56.50   4
   5  -2  -7  778.95   62.71   3
   5  -2  -7  785.35   60.44   1
   3  -5   7  855.55   59.77   1
   6  -3  -7   -3.45    6.55   1
  -3   6  -7   -3.73    6.73   1
   3   3   7    9.40    9.90   1
   6  -3  -7  -13.81   11.26   3
  -3   6  -7    5.75    9.89   4
   3   3   7    3.54    6.92   3
   4   3   7  303.88   26.23   1
  -3   7  -7  253.09   23.37   1
   7  -4  -7  240.62   23.52   2
  -3   7  -7  281.31   25.00   4
   7  -4  -7  257.24   26.01   3
   4   3   7  327.13   25.11   3
   6  -4  -7  564.66   45.88   3
   4   2   7  562.58   46.32   3
  -6   4   7  570.01   43.31   1
  -2   6  -7  582.08   44.26   1
   4   2   7  611.19   45.54   1
   6  -4  -7  590.69   42.77   2
   1  -5   7   12.59    9.98   3
   4   1   7    9.64   10.92   3
  -5   4   7    4.69    5.77   1
   5  -4  -7    4.16    6.33   2
  -1   5  -7    0.87    8.11   1
   4   1   7   -4.96    7.96   1
   0  -4   7 1048.71   78.58   3
   4   0   7 1064.61   77.56   1
  -4   4   7 1079.07   77.45   1
  -4   0  -7 1050.53   77.40   1
   4  -4  -7 1098.65   78.59   3
   0   4  -7 1050.51   78.22   1
  -4   4   7 1050.43   78.16   3
  -4   4   7 1035.92   77.57   1
   1   3  -7 1005.73   80.68   3
   4  -1   7 1095.54   78.40   1
  -3   4   7 1118.76   79.06   3
  -3   4   7 1134.87   72.36   4
  -3   4   7 1104.46   79.02   1
   4  -1   7 1105.23   78.44   1
  -3   4   7 1075.40   79.07   1
   1   3  -7  976.31   79.11   1
   4  -1   7 1086.25   72.85   4
  -1  -3   7 1087.95   80.09   3
   2   2  -7   -7.30    8.93   1
   4  -2   7    1.59    2.88   1
   2   2  -7   -3.85   11.13   3
   4  -2   7    0.31    5.24   4
  -2   4   7    5.97    3.93   2
  -2   4   7   -0.80    5.57   4
  -2   4   7   13.37    6.67   1
  -2   4   7    1.71    2.08   3
  -1   4   7 1118.23   75.70   2
   4  -3   7 1143.27   77.28   1
   3   1  -7  970.59   81.06   3
   4  -3   7 1086.97   77.04   2
   3   1  -7  999.27   79.05   1
   4  -3   7 1094.55   77.33   1
  -1   4   7 1123.65   79.77   1
  -4   4  -7 1057.82   71.80   4
   4   0  -7 1061.94   80.25   3
   0   4   7 1051.90   77.24   3
   0   4   7 1055.03   77.07   3
   0   4   7 1081.11   78.79   1
   4   0  -7 1059.10   77.76   1
   4  -4   7 1036.56   75.64   2
   4  -5   7   -2.48    9.06   2
   5  -1  -7   -0.87    7.51   1
   5  -1  -7  -13.17   13.69   3
   1   4   7    3.15    4.66   3
  -4   5  -7    4.19    3.47   1
  -4   5  -7   10.26    8.45   4
   6  -2  -7  607.87   45.13   1
   2   4   7  592.69   47.10   1
  -4   6  -7  603.89   43.75   1
   2   4   7  579.36   44.94   3
   6  -2  -7  569.95   47.76   3
  -4   6  -7  594.38   43.55   4
  -4   7  -7  274.72   24.84   4
   7  -3  -7  252.38   27.91   3
   3   4   7  315.77   27.69   1
   3   4   7  303.08   25.02   3
   8  -4  -7  -21.39   21.94   3
   4   4   7    1.10   12.99   1
  -4   8  -7   -7.05   26.30   4
   5   2   7    6.06   10.23   1
  -2   7  -7    5.87    7.25   1
   7  -5  -7    7.98    7.22   2
   5   2   7  -18.55   12.90   3
   7  -5  -7   22.26   11.91   3
   6  -5  -7  361.43   29.42   2
   6  -5  -7  355.71   31.06   3
  -1   6  -7  335.01   30.98   1
  -6   5   7  392.75   29.29   1
   5   1   7  415.07   32.82   3
   5   1   7  448.11   31.83   1
   5   0   7  506.41   39.94   3
   5  -5  -7  436.67   36.87   3
  -5   5   7  520.75   36.48   1
   0   5  -7  415.70   37.67   1
   5   0   7  517.40   36.90   1
  -4   5   7   -1.48    6.41   1
  -4   5   7    3.60   29.70   1
   1   4  -7  -14.58   10.03   1
   5  -1   7    0.39    4.52   1
   5  -1   7   -7.09   10.97   3
   2   3  -7  772.06   63.03   1
   2   3  -7  774.31   63.96   3
  -3   5   7  891.97   57.50   4
   5  -2   7  876.76   60.97   1
   5  -2   7  861.86   60.78   1
  -3   5   7  857.33   62.61   1
   3   2  -7  799.19   61.04   1
  -2   5   7  819.97   57.60   2
  -2   5   7  837.50   60.58   1
   3   2  -7  773.35   62.35   3
  -1   5   7    4.26    7.43   1
   4   1  -7    0.68    9.45   3
   5  -4   7   21.57   12.33   2
   4   1  -7    9.41    9.28   1
   5   0  -7  494.24   39.99   3
   0   5   7  482.46   37.69   1
  -5   5  -7  425.67   34.95   4
   5   0  -7  423.81   36.72   1
   5  -5   7  516.84   37.03   2
  -5   6  -7  364.37   30.80   4
   1   5   7  455.33   33.95   1
   6  -1  -7  375.28   31.00   1
   6  -1  -7  349.89   34.58   3
   7  -2  -7    9.99   16.39   3
   2   5   7   15.25   13.27   1
  -5   7  -7   43.17   14.79   4
  -1   7  -7  242.25   24.82   1
   6   1   7  263.46   23.71   1
   6   1   7  268.93   26.49   3
   0   6  -7  -14.73   10.88   1
   6   0   7   11.20    7.46   1
   6   0   7    4.52   14.05   3
   6  -1   7  413.90   31.27   1
   6  -1   7  443.81   36.39   3
   1   5  -7  346.61   33.85   1
  -5   6   7  429.48   32.08   1
  -5   6   7  423.63   31.12   4
   6  -2   7  585.96   47.36   3
  -4   6   7  573.33   41.57   4
  -4   6   7  567.88   44.29   1
   2   4  -7  580.83   45.98   3
   2   4  -7  596.51   45.46   1
   3   3  -7  -16.52   11.85   3
  -3   6   7    5.89    8.40   4
   6  -3   7   -3.45   10.94   3
   3   3  -7  -13.45   11.42   1
  -3   6   7    0.53    9.43   1
   4   2  -7  601.49   47.81   3
  -2   6   7  553.19   45.49   1
   6  -4   7  602.00   44.75   2
   4   2  -7  565.99   45.77   1
   5   1  -7  373.27   34.04   3
   5   1  -7  340.91   32.00   1
   6  -5   7  389.52   32.98   2
  -1   6   7  439.30   33.46   1
   6   0  -7    6.10   16.60   3
   0   6   7    8.91   13.74   1
   6  -6   7   15.92   15.45   2
   6  -6   7   10.72    7.08   3
   6   0  -7    3.19    9.98   1
   1   6   7  303.08   27.47   1
  -6   7  -7  224.34   24.50   4
   7  -1  -7  260.23   28.98   3
   1   6  -7  297.70   29.20   1
   7  -1   7  319.21   29.22   3
   2   5  -7   11.30   13.37   1
   7  -2   7  -14.07   14.95   3
  -5   7   7  -13.31   11.38   4
   7  -3   7  282.63   25.24   3
  -4   7   7  282.06   22.47   1
   3   4  -7  237.03   25.19   3
   3   4  -7  231.32   23.67   1
   4   3  -7  253.82   26.74   1
   7  -4   7  281.10   26.78   3
  -3   7   7  320.33   24.64   4
  -3   7   7  330.30   25.54   1
   7  -4   7  295.75   27.51   2
   4   3  -7  230.83   25.72   3
   7  -5   7   23.80    9.70   3
   7  -5   7   22.75   15.82   2
  -2   7   7    7.16   11.77   1
   5   2  -7   11.25   16.29   3
   5   2  -7   15.87    9.43   1
   6   1  -7  239.19   25.50   1
  -1   7   7  281.21   25.99   1
   7  -6   7  308.60   26.12   2
   7  -6   7  290.71   25.45   3
   6   1  -7  213.24   28.89   3
   8  -4   7   14.88   12.12   3
   4   4  -7   17.58   30.40   3
   4   4  -7   10.01   15.12   1
  -4   8   7   -6.75   30.11   4
   0   0   8  293.03   23.66   1
   0   0   8  315.61   24.58   3
  -1   1   8  417.22   35.13   1
   1   0   8  426.32   31.13   4
   0  -1   8  436.99   34.90   1
   1   0   8  430.34   34.89   1
  -1   1   8  455.47   36.09   3
   0   1  -8  551.17   35.72   1
   0  -1   8  443.37   35.91   3
   1   0   8  435.71   35.39   1
   0   1  -8  548.24   33.00   2
   0   1  -8  524.24   31.19   4
   1  -1   8  413.05   31.46   1
  -1   0   8  413.01   31.53   1
   0   1   8  420.93   31.88   1
  -1   0   8  418.34   32.95   3
   1  -1   8  420.24   29.90   2
   0   1   8  412.13   32.06   1
   0   1   8  431.03   32.13   3
  -2   1   8  279.16   21.90   1
   1  -2   8  260.49   22.10   3
  -2   1   8  282.25   22.64   3
   1  -2   8  274.14   21.31   1
   1   1   8  264.79   22.50   1
   1   1   8  283.40   22.11   1
   2   1   8  339.92   29.75   1
   3  -2  -8  443.07   31.30   3
   1  -3   8  342.97   29.10   1
   3  -2  -8  445.48   27.33   2
   1  -3   8  330.21   30.36   3
  -3   2   8  354.57   30.15   3
  -1   3  -8  437.90   29.73   1
   3  -2  -8  426.62   30.24   1
  -1   3  -8  449.44   28.82   2
   2   1   8  341.07   29.89   1
  -3   2   8  335.19   29.37   1
   0  -2   8 1282.23   94.90   1
  -2   2   8 1324.97   95.23   1
  -2   2   8 1276.92   95.41   1
  -2   2   8 1236.29   96.21   3
   0  -2   8 1312.87   96.87   3
   0   2  -8 1319.62   95.21   1
   2   0   8 1331.61   95.22   1
   2   0   8 1234.50   94.90   1
   2  -2  -8 1357.69   96.45   3
   0   2  -8 1378.46   91.10   2
   2   0   8 1353.67   86.74   4
  -1   2   8  299.39   22.99   3
  -1   2   8  275.37   22.62   1
   2  -1   8  284.05   22.08   1
   2  -1   8  287.24   19.99   4
  -1   2   8  271.33   23.51   1
  -1   2   8  285.13   19.20   4
   2  -1   8  290.10   22.60   1
  -1  -1   8  301.31   23.80   3
  -1  -1   8  266.30   22.04   1
   2  -2   8 1323.91   93.54   2
   2   0  -8 1394.37   99.01   3
  -2   2  -8 1385.78   96.87   1
  -2   2  -8 1397.00   88.67   4
  -2   0   8 1345.35   97.07   1
   0   2   8 1338.96   97.84   1
   2  -2   8 1284.79   96.52   1
   0   2   8 1269.50   97.32   1
  -2   0   8 1319.66   98.70   3
   2   0  -8 1403.05   97.57   1
   0   2   8 1261.32   98.01   3
  -3   1   8  346.17   30.54   1
   2  -3   8  354.53   30.02   1
  -2   3  -8  427.78   28.36   4
   3  -1  -8  398.38   32.57   3
   3  -1  -8  433.29   27.45   4
   3  -1  -8  453.00   31.84   1
  -1  -2  -8  458.48   31.47   1
   1   2   8  346.37   31.98   1
  -2   3  -8  454.69   30.50   1
  -3   1   8  346.67   31.07   3
  -2   4  -8  201.53   17.05   1
   4  -2  -8  204.85   14.97   4
   4  -2  -8  205.88   17.99   1
  -2   4  -8  206.00   16.11   4
  -2   5  -8  249.25   19.09   4
   5  -3  -8  211.88   17.46   4
   5  -3  -8  252.74   18.14   2
  -2   5  -8  260.34   19.92   1
  -5   3   8  189.92   21.93   1
   3   2   8  186.85   19.63   3
   5  -3  -8  256.85   21.57   3
   3   2   8  187.93   19.70   1
   5  -3  -8  246.75   19.82   1
  -4   3   8  249.21   20.55   1
  -4   3   8  240.24   20.71   3
  -4   3   8  243.89   19.74   1
   1  -4   8  229.82   20.45   3
   3   1   8  252.20   21.03   1
  -3   3   8  183.56   16.68   1
   0  -3   8  174.53   15.50   1
   3   0   8  205.93   15.93   1
   3   0   8  192.28   16.00   1
  -3   3   8  185.19   15.91   1
   0  -3   8  178.40   16.33   3
  -3   3   8  170.85   15.53   3
   3  -1   8  338.28   23.94   4
   3  -1   8  320.88   25.77   1
   3  -1   8  323.12   25.96   1
  -1  -2   8  344.17   26.31   1
  -2   3   8  351.57   23.34   4
  -2   3   8  328.99   27.34   1
  -2   3   8  339.83   26.28   1
  -2   3   8  362.23   26.23   3
  -1  -2   8  320.78   26.92   3
  -1   3   8  351.77   27.31   3
   3  -2   8  354.94   27.21   2
  -2  -1   8  349.09   27.64   1
  -1   3   8  345.43   28.74   1
   2   1  -8  417.81   28.63   1
   3  -2   8  350.47   26.97   1
   3  -2   8  341.83   25.07   4
  -1   3   8  333.88   25.41   2
   3  -2   8  361.87   26.72   1
  -1   3   8  346.67   27.59   1
  -2  -1   8  349.17   28.41   3
   0   3   8  192.94   15.28   3
   0   3   8  183.17   17.77   1
  -3   0   8  173.90   15.84   1
   3  -3   8  182.65   14.50   1
   3  -3   8  193.43   16.98   2
  -4   1   8  240.12   22.14   1
   4  -1  -8  328.53   23.49   1
   3  -4   8  233.60   22.38   2
   3  -4   8  249.93   21.17   1
   4  -1  -8  310.63   25.48   3
   4  -1  -8  311.46   20.32   4
  -3   4  -8  320.30   21.08   4
   1   3   8  236.96   24.32   1
   5  -2  -8  241.31   19.76   1
  -3   5  -8  252.11   19.59   4
   5  -2  -8  248.89   22.80   3
   2   3   8  185.09   19.48   3
   6  -3  -8  149.72   17.18   3
   3   3   8   96.79   16.39   1
   6  -3  -8  132.87   13.67   1
  -3   6  -8  135.27   13.28   1
  -3   6  -8  127.29   13.65   4
  -3   7  -8  126.66   17.09   4
  -3   7  -8  153.31   15.71   1
   7  -4  -8  136.98   18.28   3
   4   3   8  121.38   16.66   3
   4   3   8  117.90   17.38   1
   7  -4  -8  149.15   14.04   2
  -6   4   8  349.20   29.08   1
   4   2   8  337.96   31.18   1
   6  -4  -8  372.88   31.28   3
   6  -4  -8  392.41   28.53   2
  -2   6  -8  386.25   29.57   4
   4   2   8  367.77   31.16   3
  -2   6  -8  399.13   30.47   1
   4   1   8   84.61   11.20   1
  -5   4   8   86.48   10.07   1
   4   1   8   63.89   12.32   3
   4  -4  -8  672.34   46.29   3
  -4   4   8  575.78   45.41   1
  -4   4   8  615.52   45.88   1
   4   0   8  599.97   45.68   1
   4   0   8  606.04   45.64   1
  -4   4   8  574.16   45.73   3
   0   4  -8  658.01   46.59   1
   0  -4   8  555.24   46.25   3
   1   3  -8  309.58   22.72   1
  -3   4   8  267.52   21.82   1
   4  -1   8  243.63   19.97   4
   4  -1   8  234.71   20.19   1
  -3   4   8  269.29   20.23   3
  -3   4   8  259.01   19.07   4
   4  -1   8  237.44   20.25   1
  -3   4   8  241.98   20.88   1
   4  -2   8  122.60   12.39   4
  -2   4   8  125.82   10.68   2
  -2   4   8  141.59   11.45   4
   4  -2   8  134.90   11.21   1
   4  -2   8  145.75   11.23   1
  -2   4   8  129.69   14.51   1
  -2   4   8  131.37   11.01   3
   3   1  -8  313.04   24.75   3
   4  -3   8  245.99   19.22   1
  -1   4   8  233.88   19.14   2
  -1   4   8  247.01   19.41   3
   4  -3   8  257.22   19.09   1
  -1   4   8  251.69   21.69   1
   4  -3   8  252.15   22.09   2
  -4   4  -8  655.45   43.72   4
   0   4   8  585.74   47.62   1
   4   0  -8  657.61   47.47   1
   4   0  -8  645.57   49.14   3
   4  -4   8  590.37   45.07   1
   0   4   8  615.39   45.94   3
   0   4   8  608.85   45.75   3
   4  -4   8  609.37   44.91   1
   4  -4   8  615.05   46.54   2
  -4   5  -8  165.40   13.31   1
   5  -1  -8  160.06   16.03   1
  -4   5  -8  178.34   16.38   4
   5  -1  -8  139.69   19.49   3
   2   4   8  332.98   31.31   1
  -4   6  -8  406.91   29.02   1
   6  -2  -8  391.09   33.24   3
  -4   6  -8  388.56   29.95   4
   6  -2  -8  406.01   30.55   1
   2   4   8  344.12   29.65   3
  -4   7  -8  142.01   17.23   4
   7  -3  -8  173.28   20.71   3
   3   4   8  144.73   19.21   1
  -2   7  -8   65.48   14.06   4
   5   2   8   53.88   15.05   3
   5   2   8   50.24   14.13   1
   7  -5  -8   63.80   13.45   3
  -6   5   8  144.73   14.29   1
   5   1   8  138.03   15.73   1
   5   1   8  142.17   18.13   3
   6  -5  -8  158.48   14.65   2
   6  -5  -8  190.36   16.65   3
  -1   6  -8  166.43   16.00   1
  -5   5   8  186.43   16.83   1
   5   0   8  172.73   19.24   3
   0   5  -8  207.64   18.13   1
   5   0   8  189.35   17.24   1
  -4   5   8   89.53   11.33   1
  -4   5   8   93.33   10.70   4
   5  -1   8   87.05    9.44   1
  -3   5   8  193.63   16.98   1
   5  -2   8  190.34   14.95   1
  -3   5   8  183.12   15.79   4
  -2   5   8  178.69   16.01   2
  -2   5   8  200.40   18.94   1
   3   2  -8  219.85   19.61   1
   5  -3   8  172.94   19.10   2
   5  -4   8   96.59   12.73   2
  -1   5   8  107.52   14.95   1
   0   5   8  194.95   19.63   1
   5   0  -8  210.66   22.02   3
   5   0  -8  216.50   19.42   1
   5  -5   8  180.79   20.85   2
   6  -1  -8  196.85   23.90   3
   6  -1  -8  204.00   18.92   1
  -5   6  -8  210.50   20.42   4
   7  -2  -8   52.29   17.09   3
   2   5   8   54.35   13.90   1
   6   1   8   78.06   22.69   1
   6   1   8   87.48   17.59   3
  -1   7  -8  116.19   16.35   1
   6   0   8   31.11    7.45   1
   6   0   8   45.61   15.99   3
  -5   6   8  126.79   13.55   1
   6  -1   8  135.46   19.71   3
   1   5  -8  172.05   17.77   1
   6  -2   8  355.40   33.52   3
  -4   6   8  352.90   30.32   1
  -4   6   8  374.99   28.58   4
   2   4  -8  400.17   31.41   1
   2   4  -8  402.69   32.85   3
  -3   6   8   71.96   11.54   1
  -3   6   8   75.04   11.06   4
   4   2  -8  380.46   31.51   1
   6  -4   8  321.18   31.50   2
  -2   6   8  344.54   30.81   1
   4   2  -8  408.47   32.14   3
   5   1  -8  187.22   21.18   3
   6  -5   8  150.17   19.02   2
  -1   6   8  119.25   17.76   1
   5   1  -8  143.57   16.68   1
   0   6   8   76.54   15.94   1
   6  -6   8   35.30   16.80   2
   6   0  -8   43.66   18.21   3
   6   0  -8   69.46   12.04   1
   7  -1  -8   91.24   16.86   3
   1   6   8   71.05   17.68   1
  -6   7  -8  122.12   14.19   4
   7  -1   8   67.00   15.06   3
  -5   7   8   39.76   14.70   4
   2   5  -8   73.04   13.24   1
   7  -2   8   41.53   16.38   3
  -4   7   8  118.93   15.13   1
   3   4  -8  121.87   17.26   1
   3   4  -8  148.85   18.67   3
   7  -3   8  128.38   16.25   3
  -4   7   8  122.02   13.96   4
   7  -4   8  101.89   19.29   2
   4   3  -8  154.79   18.45   1
   7  -4   8  108.65   15.46   3
  -3   7   8  102.90   15.45   4
   4   3  -8  156.00   20.05   3
  -3   7   8  124.39   15.74   1
   7  -5   8   71.61   13.69   3
   5   2  -8   83.40   16.80   3
   7  -5   8   55.62   13.18   2
   5   2  -8   97.25   16.19   1
   7  -6   8   62.00   16.49   2
   7  -6   8   76.39   13.65   3
  -1   7   8   59.09   15.02   1
   0   0   9    3.83    5.43   1
   0   0  -9    1.34    7.15   1
   0   0   9    2.58    7.33   3
   1   0   9  463.70   30.00   4
   0   1  -9  430.92   29.92   4
  -1   1   9  447.84   34.22   1
   1   0   9  468.03   34.31   1
   1   0   9  452.74   34.72   1
   0   1  -9  415.37   34.17   1
   0  -1   9  454.56   34.09   1
   0  -1   9  461.70   35.42   3
  -1   1   9  467.64   35.41   3
   1  -1  -9  435.47   34.78   1
   1   0  -9  431.18   33.81   1
   0   1   9  431.83   33.57   1
   0   1   9  473.08   34.38   1
   1  -1   9  441.96   34.02   3
   1  -1   9  407.96   32.88   1
  -1   0   9  444.05   34.28   3
   1  -1   9  433.47   31.28   2
  -1   0   9  442.35   33.20   1
  -1   1  -9  420.46   33.51   1
   0   1   9  463.79   34.20   3
  -1   2  -9   -0.08    6.60   1
   2  -1  -9    1.97    7.67   1
   1   1   9   -8.33    5.51   1
   1  -2   9    2.55    5.19   3
   1  -2   9   -5.68    4.09   1
  -1   2  -9    2.83    3.53   4
   1   1   9    2.01    7.90   1
  -2   1   9   -1.85    6.44   3
   2  -1  -9    8.13    7.03   3
  -2   1   9   -0.27    4.89   1
   2   1   9  345.55   28.63   1
   1  -3   9  373.20   27.27   1
   3  -2  -9  344.33   28.80   3
   1  -3   9  340.65   28.42   3
  -1   3  -9  333.52   26.18   2
   2   1   9  355.64   27.62   1
   3  -2  -9  347.22   28.46   1
  -3   2   9  349.42   27.84   3
  -1   3  -9  347.48   27.86   1
  -3   2   9  373.22   27.46   1
  -1   3  -9  358.45   24.95   4
  -2   2   9  957.28   70.65   1
  -2   2   9 1004.19   71.30   1
   0  -2   9  980.67   70.50   1
   0   2  -9  965.13   70.83   1
   2   0   9  960.60   70.81   1
   2   0   9  926.37   70.35   1
   2   0   9  950.51   63.95   4
   0   2  -9  973.18   67.28   2
   0  -2   9  951.70   72.11   3
  -2   2   9  951.36   71.56   3
  -1   2   9   -7.87    6.05   1
  -1  -1   9    0.09    5.27   1
   1   1  -9    0.89    2.95   2
  -1  -1   9    7.38    7.54   3
   2  -1   9   -2.73    3.55   2
   1   1  -9   -3.14    9.27   3
   2  -1   9    3.85    4.74   1
  -1   2   9   -4.89    4.01   1
  -1   2   9    2.36    6.40   3
   2  -1   9   -2.23    6.76   1
   2  -1   9    0.21    3.71   4
   1   1  -9   -6.64    7.55   1
  -2   2  -9  939.06   69.41   1
   0   2   9  982.29   70.56   1
   2   0  -9  975.79   71.18   3
  -2   0   9  937.37   70.88   3
  -2   0   9  935.16   69.57   1
   2   0  -9  924.45   69.74   1
   0   2   9  944.73   70.33   3
   0   2   9  926.20   69.79   1
   2  -2   9  942.02   69.06   1
  -2   2  -9  987.93   63.29   4
   2  -2   9  930.81   66.88   2
   2  -3   9  352.97   25.82   1
   3  -1  -9  326.47   22.93   4
   1   2   9  338.83   28.11   1
   2  -3   9  343.33   26.95   3
  -3   1   9  328.60   26.89   3
  -2   3  -9  331.75   25.94   1
  -3   1   9  348.33   26.17   1
   3  -1  -9  331.68   28.45   3
  -2   3  -9  337.12   23.90   4
   3  -1  -9  316.37   26.77   1
   4  -2  -9    8.04    7.41   1
  -2   4  -9   -2.00    6.40   1
   4  -2  -9   -0.26    3.09   4
   4  -2  -9    0.03    9.06   3
   2   2   9   -2.11    8.93   1
   2  -4   9    0.85    4.46   1
  -2   4  -9   -2.75    6.68   4
  -2   5  -9  166.70   16.09   1
   3   2   9  169.19   17.80   1
  -2   5  -9  172.25   14.97   4
   5  -3  -9  174.19   16.86   3
   5  -3  -9  178.40   16.54   1
   5  -3  -9  169.32   14.22   2
   4  -3  -9  230.80   17.55   2
  -1   4  -9  233.85   20.55   1
   3   1   9  255.97   21.37   1
  -4   3   9  255.39   20.87   1
   4  -3  -9  239.10   21.44   3
  -4   3   9  216.38   21.64   1
   3   0   9    6.93    7.28   1
  -3   3   9    3.63    6.03   1
   3   0   9   11.00    5.05   1
   0   3  -9   -5.32    8.50   1
   0  -3   9    1.74    6.49   3
  -3   3   9   14.37    5.45   1
  -3   3   9   -2.61    5.71   3
   3  -3  -9    2.98    6.37   3
   0   3  -9    9.53    5.45   2
  -2   3   9  359.79   24.16   4
  -2   3   9  353.57   27.82   3
  -2   3   9  326.28   27.98   1
   1   2  -9  342.00   25.99   2
   1   2  -9  341.41   28.33   1
   3  -1   9  356.82   27.56   1
   1   2  -9  312.98   29.46   3
  -1  -2   9  356.13   28.56   3
   3  -1   9  359.77   27.28   1
   3  -1   9  411.25   25.29   4
  -2   3   9  352.11   27.86   1
   3  -2   9  336.50   26.51   2
   3  -2   9  351.79   26.66   1
  -1   3   9  340.40   24.52   2
   3  -2   9  346.07   26.26   1
  -1   3   9  341.89   28.34   1
   2   1  -9  348.62   28.19   1
   2   1  -9  331.79   29.27   3
  -1   3   9  350.99   26.95   3
  -3   3  -9   10.81    5.79   4
   0   3   9   15.95   10.05   1
   0   3   9   14.91    5.29   3
   3  -3   9   -4.37    8.39   2
   3   0  -9  -14.42    9.87   3
  -3   3  -9    5.46    4.86   1
   3  -3   9   14.45    3.94   1
   3   0  -9    6.53    8.48   1
   4  -1  -9  222.90   22.74   3
  -3   4  -9  235.62   18.93   1
   4  -1  -9  263.53   21.02   1
  -3   4  -9  221.82   18.54   4
   4  -1  -9  224.66   16.97   4
   3  -4   9  229.74   18.38   1
   1   3   9  249.01   21.97   1
   2   3   9  173.64   17.30   1
  -3   5  -9  185.20   15.49   1
  -3   5  -9  162.74   15.96   4
   5  -2  -9  168.23   19.70   3
   5  -2  -9  168.50   16.36   1
   2   3   9  182.34   16.60   3
   6  -3  -9   -8.53   12.54   3
  -3   6  -9    5.13    7.35   4
   3   3   9   -1.14    6.38   3
   6  -3  -9   18.11    7.12   1
   3   3   9   10.20   13.00   1
   6  -3  -9    5.94    7.14   2
  -3   6  -9   -2.74    6.65   1
   7  -4  -9  100.75   16.91   3
   4   3   9  104.37   16.34   1
   4   3   9   81.22   17.25   3
  -3   7  -9  101.00   13.49   1
  -3   7  -9   87.21   15.55   4
   4   2   9  225.11   23.70   3
  -2   6  -9  237.65   21.98   4
  -6   4   9  246.83   21.37   1
   6  -4  -9  269.94   20.37   2
  -2   6  -9  270.52   22.63   1
   6  -4  -9  284.15   24.22   3
   4   2   9  242.27   23.35   1
   5  -4  -9    7.74    5.14   2
   4   1   9    2.58    7.49   3
  -5   4   9   11.16    6.34   1
   5  -4  -9   17.70    8.33   3
   4   1   9   -9.42    6.52   1
  -1   5  -9   -1.42    9.14   1
   0   4  -9  432.40   35.27   1
   4  -4  -9  466.73   34.95   3
   4   0   9  448.22   34.74   1
  -4   4   9  445.30   34.70   3
  -4   4   9  432.90   34.41   1
   1   3  -9  232.19   21.55   1
   4  -1   9  244.23   19.32   1
  -3   4   9  231.52   17.56   4
   4  -1   9  236.35   19.13   1
  -3   4   9  239.29   19.07   3
  -3   4   9  233.60   20.66   1
   2   2  -9    1.99    7.00   1
  -2   4   9    0.87    3.94   3
  -2   4   9   13.18    4.90   4
  -2   4   9   -5.94    9.43   1
   4  -2   9   -0.33    4.40   1
   4  -2   9    7.97    3.73   1
   2   2  -9   11.18   10.94   3
  -1   4   9  254.79   21.01   1
   3   1  -9  239.35   23.81   3
   4  -3   9  240.60   18.14   1
   3   1  -9  225.51   20.95   1
  -1   4   9  242.98   18.68   3
   4  -3   9  243.92   18.46   1
   4  -3   9  213.97   20.80   2
  -1   4   9  225.16   18.08   2
   4  -4   9  440.32   33.23   1
   0   4   9  452.31   36.19   1
   4  -4   9  437.53   33.48   1
   0   4   9  438.47   34.14   3
  -4   4  -9  465.57   32.87   4
   4  -4   9  460.40   35.66   2
   4   0  -9  449.66   35.82   1
   4   0  -9  470.82   37.17   3
   1   4   9    7.50    5.36   3
   1   4   9   14.39    8.90   1
   5  -1  -9   -5.51   13.49   3
  -4   5  -9    3.19    4.59   1
  -4   5  -9   16.63    9.12   4
  -4   6  -9  275.16   21.40   4
  -4   6  -9  274.75   20.80   1
   6  -2  -9  259.69   25.39   3
   2   4   9  239.95   21.53   3
   6  -2  -9  255.61   22.24   1
   2   4   9  228.57   23.27   1
  -4   7  -9   82.60   14.99   4
   7  -3  -9   96.20   16.95   3
   3   4   9   63.19   17.05   1
   5   2   9   -3.61   16.71   3
  -2   7  -9   -3.66   13.19   1
   7  -5  -9   10.82   12.37   3
  -2   7  -9   22.22   12.52   4
   5   1   9  107.65   12.18   1
  -1   6  -9  120.53   14.08   1
  -6   5   9  100.95   12.19   1
   6  -5  -9  100.86   13.06   3
   5   1   9  104.79   16.29   3
   5  -5  -9  136.81   14.27   3
  -5   5   9  171.75   14.90   1
   5   0   9  152.69   14.84   1
   5   0   9  162.78   16.99   3
   0   5  -9  141.75   15.62   1
  -4   5   9   11.88    6.15   4
  -4   5   9   -1.90    8.16   1
   1   4  -9    0.73    7.51   1
   5  -1   9   -2.04    5.46   1
   5  -2   9  170.64   14.15   1
  -3   5   9  169.03   17.06   1
   2   3  -9  194.66   19.72   3
   2   3  -9  191.24   18.55   1
  -3   5   9  160.20   14.62   4
  -2   5   9  166.27   14.07   4
   3   2  -9  161.60   18.01   1
   5  -3   9  159.22   17.74   2
   3   2  -9  159.35   17.25   3
  -2   5   9  164.82   17.33   1
   4   1  -9   -5.22    9.62   3
  -1   5   9    9.06   11.83   1
   5  -4   9    3.04    8.02   2
   4   1  -9   -9.80    8.65   1
   5   0  -9  157.55   17.92   3
   5   0  -9  137.36   16.45   1
   0   5   9  139.05   16.58   1
   5  -5   9  169.04   19.20   2
   1   5   9  103.70   17.40   1
   6  -1  -9  125.20   17.64   3
  -5   6  -9   92.53   13.98   4
   6  -1  -9   97.69   13.97   1
   7  -2  -9   22.82   11.86   3
  -5   7  -9   10.26   12.25   4
   2   5   9    4.77   10.01   1
   6   1   9   78.98   17.95   3
  -1   7  -9   66.75   17.46   1
   0   6  -9  -12.25    8.69   1
   6   0   9   25.76   14.98   3
   6  -1   9  104.33   17.30   3
  -5   6   9  101.69   12.00   1
  -4   6   9  243.47   20.40   4
   2   4  -9  264.81   24.21   3
   2   4  -9  249.73   23.82   1
  -4   6   9  257.08   22.33   1
   6  -2   9  242.38   25.81   3
  -3   6   9   10.36    7.61   1
   3   3  -9   -4.74    8.06   1
  -3   6   9   -9.26    7.98   4
  -2   6   9  270.79   24.98   1
  -2   6   9  252.31   21.66   4
   4   2  -9  284.45   24.47   1
   6  -4   9  278.62   26.43   2
   4   2  -9  262.93   27.32   3
   5   1  -9   94.11   18.25   3
   6  -5   9  117.15   17.82   2
  -1   6   9  102.46   16.06   1
   5   1  -9  106.01   13.86   1
   6  -6   9   14.94   15.92   2
   6   0  -9  -13.44   11.79   3
   0   6   9   10.79   14.60   1
   7  -1  -9   80.86   22.02   3
   1   6  -9   47.80   11.57   1
   7  -1   9   71.40   17.31   3
  -5   7   9   18.25   13.24   4
   2   5  -9   24.58   12.36   1
   3   4  -9   97.84   16.53   1
   7  -3   9   90.90   15.73   3
  -4   7   9   72.55   14.34   1
   3   4  -9   95.02   14.46   3
  -4   7   9  110.72   14.03   4
   7  -4   9   60.65   17.42   2
  -3   7   9  113.05   13.84   4
   7  -4   9   81.54   15.46   3
   4   3  -9   77.18   17.34   3
  -3   7   9   92.70   14.32   1
   4   3  -9   82.71   13.53   1
   7  -5   9   10.47   13.90   3
   5   2  -9   12.87   16.89   3
   7  -5   9    4.62   14.35   2
   5   2  -9    8.95   12.60   1
  -2   7   9   15.97   14.38   4
   7  -6   9   39.52   31.38   3
   6   1  -9   63.84   19.58   3
  -1   7   9   49.94   17.52   1
   7  -6   9   88.58   16.16   2
   6   1  -9   65.37   16.05   1
   0   0 -10 3192.88  242.44   1
   0   0  10 3489.88  245.92   3
   0   0  10 3451.80  242.37   1
   0   1 -10 1194.89   80.19   4
  -1   1  10 1267.33   90.89   3
   1   0  10 1238.17   89.11   1
   1  -1 -10 1175.66   89.44   1
   0   1 -10 1212.98   89.37   1
   0  -1  10 1260.22   89.13   1
  -1   1  10 1190.52   89.18   1
   1   0  10 1223.50   84.74   2
   1   0  10 1249.69   89.44   1
   0  -1  10 1215.66   90.96   3
  -1   0  10 1249.68   91.99   3
   1  -1  10 1229.98   90.17   1
   0   1  10 1255.71   91.76   3
  -1   1 -10 1186.76   90.45   1
   1  -1  10 1226.81   91.88   3
  -1   0  10 1228.03   90.32   1
   0   1  10 1310.03   91.14   1
   1  -1  10 1294.53   86.23   2
   0   1  10 1225.69   90.39   1
   1   0 -10 1188.42   90.67   1
   1   1  10 1001.65   70.10   1
   2  -1 -10  824.57   69.53   1
  -2   1  10  989.79   69.44   1
  -1   2 -10  875.65   62.48   4
  -1   2 -10  886.73   69.23   1
   1   1  10  981.59   69.51   1
   1  -2  10 1023.75   69.23   1
   1  -2  10  969.02   70.78   3
   2  -1 -10  832.09   70.23   3
  -2   1  10 1036.60   70.94   3
  -1   3 -10  932.36   68.87   1
   2   1  10  959.12   69.21   1
   3  -2 -10  937.69   69.38   1
  -1   3 -10  905.35   62.44   4
   3  -2 -10  894.96   69.76   3
   1  -3  10  937.29   68.44   1
  -3   2  10  949.78   69.79   3
  -2   2  10  850.32   61.23   3
   0  -2  10  830.25   60.14   1
  -2   2  10  819.42   60.63   1
   0   2 -10  732.20   60.14   1
   2   0  10  814.54   60.01   1
   2   0  10  851.10   54.26   4
   2   0  10  898.75   60.80   1
   0  -2  10  838.77   61.75   3
   0   2 -10  694.77   56.91   2
  -2   2  10  800.81   60.24   1
  -1   2  10 1047.10   73.15   3
  -1   2  10 1028.82   72.89   1
   2  -1  10  959.58   71.55   1
   2  -1  10 1012.34   68.80   2
   1   1 -10  855.66   67.92   2
   1   1 -10  883.90   72.34   1
   2  -1  10 1031.85   72.28   1
  -1   2  10  994.70   72.26   1
  -1  -1  10  999.38   73.64   3
  -1  -1  10  990.74   72.00   1
   0   2  10  835.02   58.81   3
   2  -2  10  821.28   57.64   1
   2  -2  10  855.82   55.92   2
   2   0 -10  735.29   59.44   3
   2   0 -10  728.32   58.59   1
   0   2  10  846.78   58.89   1
   2   0 -10  710.09   54.19   2
  -2   2 -10  730.43   57.88   1
   3  -1 -10  887.05   60.53   4
  -2   3 -10  908.33   67.32   1
   3  -1 -10  924.41   69.23   3
   2  -3  10  932.96   66.99   1
  -2   3 -10  912.98   61.50   4
   3  -1 -10  887.83   68.06   1
   1   2  10  958.38   68.81   1
   4  -2 -10 1415.82  105.41   3
  -2   4 -10 1428.35  103.23   1
   4  -2 -10 1378.55  103.75   1
  -2   4 -10 1394.19   94.67   4
   4  -2 -10 1383.69   97.84   2
   4  -2 -10 1339.48   93.47   4
   2   2  10 1581.52  104.57   1
  -5   3  10  457.20   36.19   1
   5  -3 -10  446.62   32.99   2
  -2   5 -10  456.98   33.67   4
   3   2  10  496.10   37.66   1
  -2   5 -10  457.28   36.14   1
   5  -3 -10  450.01   38.01   3
  -1   4 -10  620.47   47.89   1
   4  -3 -10  628.30   49.16   3
   3   1  10  616.89   48.44   1
  -4   3  10  668.27   48.18   1
  -3   3  10  725.60   52.68   3
   0   3 -10  601.25   49.49   2
   3   0  10  709.22   51.82   1
   3  -3 -10  606.60   52.19   3
   3   0  10  755.23   52.47   1
   3   0  10  754.82   47.51   4
   0   3 -10  644.38   52.32   1
  -3   3  10  761.94   52.77   1
   3  -1  10  970.89   69.95   1
   1   2 -10  952.84   70.64   1
   1   2 -10  852.71   66.49   2
   3  -1  10  919.20   69.53   1
  -2   3  10  993.86   62.74   4
  -2   3  10  957.07   70.88   1
  -2   3  10  984.86   70.66   3
   3  -1  10  962.36   63.68   4
  -1   3  10  955.91   70.04   1
   2   1 -10  922.77   71.43   3
   3  -2  10  971.22   67.09   2
  -1   3  10  934.94   62.17   4
  -1   3  10  955.37   69.94   3
   3  -2  10  919.78   68.54   1
   2   1 -10  909.09   69.82   1
   3  -2  10  949.15   68.90   1
  -1   3  10  933.38   65.02   2
  -3   3 -10  647.26   51.65   1
   0   3  10  733.27   53.87   1
   3  -3  10  737.64   51.24   2
   3  -3  10  750.75   51.64   1
   3   0 -10  614.34   54.52   3
   0   3  10  773.96   52.88   3
   3   0 -10  636.37   52.92   1
   4  -1 -10  604.79   49.27   3
   4  -1 -10  666.34   48.34   1
  -3   4 -10  633.07   43.81   4
   3  -4  10  616.79   46.43   1
   1   3  10  620.74   49.00   1
  -3   4 -10  632.55   46.84   1
   4  -1 -10  617.50   42.48   4
  -3   5 -10  438.98   32.97   4
  -3   5 -10  467.88   35.24   1
   2   3  10  487.74   37.06   1
   5  -2 -10  430.85   37.97   3
   5  -2 -10  450.88   36.20   1
  -3   6 -10  214.27   20.18   4
   6  -3 -10  220.09   19.09   2
  -3   6 -10  248.75   20.75   1
   6  -3 -10  254.20   21.44   1
   6  -3 -10  246.93   24.23   3
   4   3  10  284.30   29.62   3
   7  -4 -10  283.33   27.16   3
  -3   7 -10  253.75   24.45   4
   4   3  10  284.10   27.00   1
  -2   6 -10  243.51   23.04   4
  -2   6 -10  233.06   23.99   1
   4   2  10  308.51   25.88   3
   4   2  10  300.84   25.76   1
   6  -4 -10  282.44   26.17   3
  -6   4  10  300.33   23.79   1
   5  -4 -10  338.71   30.21   3
   4   1  10  395.58   30.47   1
  -5   4  10  414.90   29.75   1
  -1   5 -10  305.71   28.86   1
   4  -4 -10  403.14   33.39   3
   0   4 -10  387.52   34.33   1
  -4   4  10  457.73   34.24   1
   4   0  10  465.30   33.71   1
   4  -1  10  651.95   48.81   1
  -3   4  10  662.69   50.31   1
  -3   4  10  658.07   49.16   3
   4  -1  10  618.28   48.82   1
  -3   4  10  698.75   44.37   4
   1   3 -10  632.68   50.30   1
   4  -2  10 1530.55  111.28   1
   4  -2  10 1591.48  111.48   1
   2   2 -10 1405.66  114.70   3
  -2   4  10 1581.21  112.65   3
  -2   4  10 1634.62  101.90   4
   2   2 -10 1398.54  112.34   1
  -2   4  10 1637.96  113.18   1
   3   1 -10  649.33   51.44   3
   3   1 -10  653.42   49.74   1
  -1   4  10  604.98   45.64   2
  -1   4  10  633.01   50.11   1
   4  -3  10  661.43   47.63   1
   4  -3  10  648.36   47.45   1
  -1   4  10  671.13   48.35   3
   4  -3  10  644.35   48.03   2
   4  -4  10  498.26   34.14   1
   4   0 -10  433.40   36.60   1
   4   0 -10  395.08   37.00   3
   0   4  10  458.66   36.71   1
   4  -4  10  473.84   36.03   2
   5  -1 -10  316.27   27.88   1
   5  -1 -10  303.23   29.68   3
  -4   5 -10  324.40   25.30   4
  -4   5 -10  338.36   25.12   1
   6  -2 -10  232.74   22.88   1
   6  -2 -10  260.46   26.47   3
  -4   6 -10  232.08   21.39   4
   2   4  10  313.98   23.19   3
   2   4  10  301.82   26.46   1
  -4   7 -10  254.35   23.34   4
   7  -3 -10  246.78   25.17   3
   3   4  10  275.57   26.90   1
   7  -5 -10  142.12   17.51   3
  -2   7 -10  138.24   17.39   4
  -2   7 -10  137.69   21.05   1
   6  -5 -10  311.90   27.62   3
  -1   6 -10  324.12   28.43   1
   5   1  10  332.54   29.21   3
  -6   5  10  321.88   27.17   1
   5   1  10  356.97   28.18   1
   0   5 -10  408.55   34.90   1
   5   0  10  455.60   33.80   1
  -5   5  10  407.36   33.57   1
   5  -5 -10  407.31   33.43   3
   5   0  10  443.82   36.41   3
   5  -1  10  403.39   29.66   1
   1   4 -10  315.48   30.82   1
  -4   5  10  420.75   31.38   1
  -3   5  10  467.73   36.30   1
   2   3 -10  432.01   38.04   3
   5  -2  10  454.63   34.38   1
  -3   5  10  476.51   32.28   4
   2   3 -10  457.17   37.57   1
   5  -3  10  457.89   33.73   1
  -2   5  10  465.79   32.34   4
   5  -3  10  463.09   36.54   2
   3   2 -10  455.74   37.34   1
  -2   5  10  436.54   37.06   1
   3   2 -10  469.19   38.99   3
  -1   5  10  397.83   31.84   1
   4   1 -10  320.59   30.12   1
   4   1 -10  362.73   33.32   3
   5  -4  10  382.27   30.79   2
   5   0 -10  446.11   35.77   1
   5  -5  10  461.09   35.14   2
   5   0 -10  385.05   36.05   3
   0   5  10  422.14   35.48   1
   1   5  10  350.40   31.70   1
   6  -1 -10  357.23   29.12   1
  -5   6 -10  310.31   26.28   4
   6  -1 -10  334.58   30.64   3
   2   5  10  182.95   21.15   1
  -5   7 -10  158.17   16.46   4
   7  -2 -10  157.28   21.87   3
   0   6 -10  450.99   39.55   1
   6   0  10  537.62   42.31   3
   1   5 -10  355.22   30.40   1
  -5   6  10  339.43   28.22   1
   6  -1  10  326.44   30.46   3
   2   4 -10  246.55   26.23   1
  -4   6  10  283.88   24.32   1
  -4   6  10  278.73   21.08   4
   3   3 -10  266.77   27.03   1
  -3   6  10  327.90   23.09   4
  -3   6  10  303.34   25.42   1
   6  -3  10  300.30   27.39   2
   3   3 -10  274.86   28.95   3
  -2   6  10  298.25   22.32   4
   4   2 -10  226.73   25.50   1
   6  -4  10  295.36   26.70   2
  -2   6  10  323.40   26.61   1
   4   2 -10  242.42   27.60   3
  -1   6  10  327.79   29.53   1
   6  -5  10  321.69   29.27   2
   5   1 -10  304.51   28.52   1
   5   1 -10  324.63   31.20   3
   6   0 -10  472.10   43.36   3
   0   6  10  518.29   42.32   1
   6   0 -10  458.84   40.68   1
   6  -6  10  536.05   40.45   2
   7  -2  10  202.20   21.20   3
   2   5 -10  170.83   22.35   1
   7  -3  10  261.88   24.84   2
  -4   7  10  268.64   23.65   1
  -4   7  10  263.26   23.25   4
   7  -3  10  289.12   27.29   3
   3   4 -10  217.22   27.10   3
   3   4 -10  246.56   26.05   1
   7  -4  10  266.52   28.63   3
   4   3 -10  270.20   29.10   3
   7  -4  10  287.61   26.38   2
   4   3 -10  250.19   26.73   1
  -3   7  10  297.06   26.10   1
  -3   7  10  289.62   24.61   4
   5   2 -10  153.71   20.39   1
   7  -5  10  205.24   23.71   2
  -2   7  10  208.94   17.55   4
   7  -5  10  211.28   20.94   3
  -2   7  10  206.75   21.59   1
   5   2 -10  159.61   21.56   3
   0   0 -11    8.25    6.26   1
   0   0  11   15.43    5.94   3
   0  -1  11  725.48   59.03   3
   0  -1  11  758.55   57.69   1
   1   0  11  792.53   58.50   1
  -1   1  11  788.71   59.21   3
   1   0  11  801.85   54.31   2
   1   0  11  764.87   57.81   1
   1   0  11  806.49   58.82   3
   0   1  11  799.10   58.88   3
   1  -1  11  721.58   58.77   3
  -1   0  11  789.40   59.23   3
   0   1  11  799.17   58.32   1
   1  -1  11  772.99   57.49   1
  -1   2 -11    3.73    3.27   4
   1   1  11   -3.96    6.20   1
   2  -1 -11   -1.94    8.75   1
   1   1  11    0.07    2.48   4
  -1   2 -11   -0.15    7.47   1
   1  -2  11    5.55    5.18   1
   2   1  11  674.14   51.74   4
   3  -2 -11  767.49   58.99   3
  -1   3 -11  795.66   52.09   4
  -1   3 -11  824.89   58.10   1
   3  -2 -11  798.34   58.14   1
   2   0  11  343.49   29.65   1
   0   2 -11  423.35   26.97   2
  -2   2  11  361.95   30.31   1
   2   0  11  339.78   25.31   4
   0   2 -11  432.20   30.23   1
  -2   2  11  323.26   29.52   3
   0   2 -11  412.77   25.40   4
   2   0  11  310.00   28.62   1
  -1   2  11  -11.16    7.67   3
   2  -1  11    2.65    5.73   2
   1   1 -11   -2.06    6.70   1
   2  -1  11    3.85    3.64   1
  -1   2  11   -6.16    9.75   1
   1   1 -11    0.96    2.76   2
   2  -2  11  347.50   27.87   2
   2   0 -11  408.10   30.58   3
   2  -2  11  326.50   28.50   1
   2   0 -11  427.55   30.91   1
   0   2  11  343.27   29.21   3
  -2   2 -11  414.30   29.63   1
   0   2  11  341.02   30.73   1
   3  -1 -11  825.85   59.76   3
  -2   3 -11  828.24   52.71   4
   1   2  11  646.25   58.43   1
  -2   3 -11  803.92   58.05   1
   3  -1 -11  777.68   51.43   4
   3  -1 -11  785.61   58.92   1
   4  -2 -11    5.43    9.19   1
   2   2  11    3.89   10.49   1
   4  -2 -11    2.01   11.28   3
  -2   4 -11   -5.61    8.08   1
   3   2  11  273.14   28.21   1
  -2   5 -11  359.11   28.46   1
  -2   5 -11  369.78   26.24   4
   5  -3 -11  356.09   30.29   3
   5  -3 -11  348.16   24.56   2
  -1   4 -11  536.53   36.01   4
   4  -3 -11  548.66   41.19   3
  -4   3  11  422.51   40.03   1
  -1   4 -11  550.77   40.34   1
   0   3 -11    3.53    7.12   1
   0   3 -11    6.01   10.18   2
   3   0  11   -0.47    8.07   1
  -3   3  11    7.28    6.97   1
  -3   3  11   17.77   11.17   3
   3   0  11   -3.54    6.47   4
  -2   3  11  609.14   47.74   1
   3  -1  11  618.69   46.26   1
   3  -1  11  640.34   46.49   1
  -2   3  11  607.80   46.91   3
   3  -1  11  602.60   41.96   4
   3  -2  11  615.12   47.86   1
   3  -2  11  629.96   48.30   1
  -1   3  11  633.14   42.84   4
  -1   3  11  616.49   49.07   3
  -1   3  11  634.67   50.13   1
   2   1 -11  769.10   51.51   3
   3  -2  11  628.79   46.91   2
  -3   3 -11    1.19    5.01   1
   0   3  11    4.51    7.92   1
   3  -3  11    3.54    5.71   1
   0   3  11   -5.41    5.84   3
   3  -3  11   -0.20    8.18   2
   3   0 -11   -3.67    6.98   1
   3   0 -11   24.90   12.20   3
  -3   4 -11  542.49   38.91   1
  -3   4 -11  517.01   35.97   4
   4  -1 -11  530.67   41.47   3
   4  -1 -11  538.87   40.73   1
   1   3  11  427.36   41.02   1
   5  -2 -11  360.57   31.24   1
  -3   5 -11  392.63   30.10   1
  -3   5 -11  363.88   28.45   4
   5  -2 -11  394.32   33.21   3
   6  -3 -11  -11.68   13.51   3
   6  -3 -11   10.69    8.12   1
   3   3  11   15.18    9.84   3
  -3   6 -11   -1.30    9.86   4
  -3   6 -11  -10.06    8.64   1
   3   3  11   -1.11    8.69   1
   4   3  11  181.73   38.74   3
   7  -4 -11  258.04   25.59   3
   4   3  11  190.30   25.49   1
  -3   7 -11  289.62   23.09   4
   6  -4 -11  169.42   17.87   3
  -6   4  11  120.65   15.43   1
  -2   6 -11  163.14   16.06   4
   4   2  11  122.00   16.32   3
   4   2  11  116.37   17.19   1
  -2   6 -11  175.33   16.09   1
  -1   5 -11   -7.33    8.43   1
  -5   4  11    6.20    9.33   1
   4   1  11    5.45    9.23   1
   5  -4 -11   26.14    9.80   3
   0   4 -11  233.81   19.92   1
   4   0  11  176.10   17.27   1
  -4   4  11  186.85   19.16   1
  -3   4  11  400.53   32.14   1
   4  -1  11  409.52   30.85   1
  -3   4  11  367.02   30.59   3
  -2   4  11   16.36    7.52   1
   4  -2  11    3.36    7.97   2
  -2   4  11   -3.67    3.80   4
  -2   4  11   -6.28   10.05   3
   4  -2  11    7.38    6.34   1
   2   2 -11    6.76    8.95   3
   2   2 -11   -0.57    9.43   1
  -1   4  11  404.65   34.44   1
   4  -3  11  422.67   32.57   2
   4  -3  11  409.92   31.34   1
   4   0 -11  250.26   20.06   1
   0   4  11  181.34   21.61   1
   4  -4  11  201.93   20.50   2
   4   0 -11  258.71   22.63   3
   4  -4  11  185.63   17.18   1
   5  -1 -11   10.65   13.91   3
   5  -1 -11   10.86    9.49   1
   1   4  11   13.27    6.84   3
  -4   5 -11   -2.78    5.39   1
   1   4  11   -4.79   13.58   1
  -4   5 -11    1.20    6.36   4
   6  -2 -11  171.98   20.74   3
  -4   6 -11  175.78   16.60   4
   6  -2 -11  154.13   16.60   1
   2   4  11  116.19   19.90   1
   7  -3 -11  266.62   25.44   3
  -4   7 -11  256.34   24.15   4
   6  -5 -11  274.84   22.68   3
  -1   6 -11  260.67   23.06   1
   5   1  11  202.78   24.40   3
   5   1  11  214.95   21.28   1
  -5   5  11  293.79   25.03   1
   5   0  11  286.04   24.63   1
   1   4 -11   12.44    8.33   1
   5  -1  11    8.41    6.56   1
   5  -2  11  272.29   23.32   1
  -3   5  11  301.99   21.92   4
  -3   5  11  277.75   26.26   1
   2   3 -11  356.17   27.45   1
   3   2 -11  337.73   27.25   3
   5  -3  11  247.23   20.94   1
   5  -3  11  270.48   24.78   2
  -2   5  11  272.99   20.27   4
  -2   5  11  255.42   23.84   1
  -1   5  11   -2.31    8.69   1
   4   1 -11   -1.55   11.95   1
   4   1 -11    6.70   14.81   3
   5  -4  11    3.85   11.89   2
   5   0 -11  406.23   34.05   3
   5  -5  11  298.43   30.31   2
   0   5  11  306.35   32.02   1
   5   0 -11  409.69   30.74   1
   1   5  11  206.48   24.76   1
   6  -1 -11  280.58   27.35   3
   6  -1 -11  264.71   23.90   1
   6   0  11   -0.74   14.74   3
   0   6 -11    4.92   12.44   1
   6  -1  11  257.43   27.75   3
   1   5 -11  291.11   26.64   1
  -4   6  11  103.49   11.98   4
  -4   6  11  121.93   14.86   1
   3   3 -11   11.10   12.14   1
   3   3 -11    3.11   13.97   3
  -3   6  11   -0.65    7.68   4
   6  -3  11   10.62   12.46   2
  -3   6  11   -0.61   10.27   1
  -2   6  11  126.56   17.80   1
   4   2 -11  136.59   17.52   3
   6  -4  11  150.34   18.64   2
   4   2 -11  146.35   18.44   1
  -2   6  11  112.50   14.10   4
  -1   6  11  201.29   20.60   1
   6  -5  11  191.98   19.97   2
   0   6  11   -0.36   11.48   1
   6   0 -11   22.86   14.69   1
   6   0 -11    4.22   16.97   3
   3   4 -11  235.20   21.32   1
   7  -3  11  197.28   24.69   3
  -4   7  11  182.37   22.15   1
   7  -3  11  183.35   20.87   2
   7  -4  11  168.05   22.64   3
   4   3 -11  213.61   21.67   1
  -3   7  11  172.67   24.15   1
   7  -4  11  165.65   19.42   2
   0   0 -12   49.17   10.53   1
   0   1 -12   17.25    9.09   1
   1   0  12   31.23    9.73   1
   1   0  12   29.18    3.85   2
   1  -1 -12   25.11   10.39   1
   0   1  12   41.32   10.99   1
   0   1  12   12.76    8.77   3
   1   0 -12   23.67    7.27   1
  -1   1 -12   15.19    7.92   1
  -1   2 -12  413.08   26.96   4
  -1   2 -12  416.28   31.74   1
   1   1  12  361.47   31.94   1
   1   1  12  364.84   26.32   4
   2  -1 -12  425.78   32.64   1
   3  -2 -12   41.71   11.16   1
   2   1  12   35.71   10.11   1
   2   1  12   40.24    5.61   4
  -1   3 -12   21.22    9.63   1
  -2   2  12  179.71   16.30   1
   2   0  12  177.77   11.99   4
   0   2 -12  137.67   11.68   4
   2   0  12  157.39   15.73   1
   0   2 -12  151.93   16.63   1
   1   1 -12  418.44   31.52   1
  -1   2  12  359.26   30.72   1
   2  -1  12  372.87   29.94   1
  -1   2  12  369.94   30.51   3
   2  -1  12  381.03   28.10   2
  -2   2 -12  150.13   15.89   1
   2  -2  12  198.02   14.83   2
   0   2  12  161.91   16.10   3
   2   0 -12  149.25   17.75   1
   0   2  12  183.22   18.77   1
   1   2  12   31.12   11.91   1
   3  -1 -12   16.93    8.36   3
  -2   3 -12   15.27    7.26   1
   3  -1 -12   13.64    9.86   1
  -2   3 -12   12.46    4.80   4
   2   2  12   25.60    8.25   1
  -2   4 -12   47.47    9.54   1
  -2   4 -12   29.34    7.39   4
   4  -2 -12   30.73   12.21   3
  -2   5 -12   24.55    8.25   4
   3   2  12   16.40   12.10   1
   5  -3 -12   -1.97   11.62   3
  -5   3  12   31.36    9.44   1
  -1   4 -12   17.71    6.31   4
  -4   3  12   22.74   10.92   1
   3   1  12   38.31    8.10   1
  -1   4 -12   31.35   10.32   1
   4  -3 -12    4.10    9.80   3
  -3   3  12  249.79   23.95   1
   0   3 -12  311.73   24.39   1
   3   0  12  245.24   19.84   4
   0   3 -12  281.81   27.08   2
   3   0  12  268.85   23.19   1
   3  -1  12   20.34    6.51   2
   1   2 -12   11.75   11.43   1
   1   2 -12   24.27    5.96   2
  -2   3  12   38.02   10.55   3
   3  -1  12   23.70    7.21   4
   3  -1  12   43.70    8.75   1
   3  -2  12   29.34   15.37   1
   2   1 -12   34.05    8.64   1
   3  -2  12   39.03    8.10   2
  -1   3  12   32.85   11.35   3
   2   1 -12   23.06    4.39   2
  -1   3  12   26.70   11.91   1
  -3   3 -12  319.60   22.97   1
   3  -3  12  245.85   21.80   1
   0   3  12  240.31   28.87   3
   3   0 -12  304.05   25.27   1
   3  -3  12  254.30   22.40   2
   3   0 -12  312.22   25.24   3
   0   3  12  255.09   25.61   1
  -3   4 -12   23.56    7.64   1
   4  -1 -12    6.85    9.00   3
  -3   4 -12    2.00    6.38   4
   2   3  12   40.48   14.33   1
   5  -2 -12   13.40    9.88   1
  -3   5 -12    0.00    7.24   1
  -3   5 -12   -1.47    7.14   4
   5  -2 -12    1.75   12.56   3
  -6   3  12   99.68   15.26   1
  -3   6 -12  119.14   14.89   1
   3   3  12  104.21   16.92   1
   3   3  12  120.54   15.02   3
   6  -3 -12   91.49   17.56   3
  -3   6 -12  122.47   14.43   4
  -2   6 -12   44.03   11.15   1
   4   2  12   53.25   12.98   3
  -6   4  12   75.82   11.64   1
   6  -4 -12   53.34   13.24   3
   4   2  12   56.73   14.29   1
  -2   6 -12   55.59   10.60   4
  -1   5 -12  151.64   14.97   4
   4   1  12  130.34   15.90   1
  -1   5 -12  170.72   16.34   1
   5  -4 -12  161.99   16.71   3
  -5   4  12  131.49   16.18   1
  -4   4  12   91.73   13.88   1
   0   4 -12   84.64   14.61   1
   4   0  12   97.56   12.60   1
   4  -1  12   19.48    5.96   1
   1   3 -12    7.19   11.24   1
  -3   4  12   33.64   11.65   1
   2   2 -12   40.44   12.22   1
   4  -2  12   38.04    9.70   2
  -2   4  12   23.82   11.76   1
   4  -3  12   19.57    9.24   2
   4  -3  12   16.57    5.66   1
   3   1 -12   28.16   11.99   1
  -1   4  12   33.57   11.63   1
  -1   4  12   19.85    4.97   4
   3   1 -12   -7.08   11.63   3
   4  -4  12   87.58   14.77   2
   4   0 -12  116.31   15.76   1
   4   0 -12   89.72   16.77   3
   0   4  12   95.74   14.08   1
   4  -4  12  101.47   10.26   1
  -4   5 -12  173.67   16.11   4
   5  -1 -12  166.69   20.81   3
   1   4  12  143.53   20.18   1
   5  -1 -12  158.09   18.14   1
  -4   5 -12  184.29   15.21   1
   6  -2 -12   57.56   11.30   1
   2   4  12   54.36   12.47   1
   6  -2 -12   27.48   16.12   3
  -4   6 -12   53.27   11.76   4
  -1   6 -12   26.86   11.78   1
   5   1  12   45.19   13.44   1
  -1   6 -12    7.59    9.87   4
   5   0  12   35.92    9.34   1
  -5   5  12   31.40   10.53   1
   1   4 -12  160.54   17.13   1
  -4   5  12  124.87   16.32   1
   5  -1  12  132.21   13.86   1
  -3   5  12   23.29    5.66   4
   2   3 -12    3.60   12.87   1
  -3   5  12    3.93   10.35   1
   5  -2  12   16.30    6.01   1
   3   2 -12   -3.92    8.81   1
   5  -3  12    1.55   10.87   2
  -2   5  12   13.75   12.47   1
   3   2 -12    3.74    9.67   3
  -2   5  12   10.07    5.60   4
  -1   5  12  136.61   19.27   1
   5  -4  12  138.36   17.33   2
   4   1 -12  181.22   19.51   1
   4   1 -12  172.31   21.59   3
   0   5  12   32.71   14.16   1
   5  -5  12   40.31   13.53   2
   5   0 -12    5.28   12.92   1
   5   0 -12   34.58   17.30   3
   1   5  12   47.88   15.65   1
   6  -1 -12   28.42   13.51   1
   6  -1  12   11.67   16.98   3
  -5   6  12   13.40   13.72   1
   1   5 -12   25.36   10.18   1
   2   4 -12   33.15   13.60   1
  -4   6  12   44.39   11.68   1
  -3   6  12   96.00   15.72   1
   6  -3  12   89.64   14.05   2
   3   3 -12  127.50   17.71   1
   4   2 -12  102.28   19.00   3
  -2   6  12   79.75   14.00   1
   6  -4  12   44.87   16.38   2
   4   2 -12   64.57   12.56   1
   6  -5  12    6.47   10.27   2
  -1   6  12   36.05   15.40   1
   5   1 -12   26.21   18.18   3
   5   1 -12   13.74   14.27   1
   0   0 -13   -4.59    9.36   1
   1   0  13 1055.32   76.35   1
   1   0  13 1094.07   71.22   2
   0   1 -13  911.88   75.76   1
   1  -1 -13  954.43   76.20   1
  -1   1  13 1109.26   76.76   1
   0   1  13 1125.82   75.63   1
  -1   1 -13  961.20   74.43   1
   1   0 -13  925.25   74.78   1
  -1   2 -13  -11.13    8.87   1
   1   1  13    6.84    2.84   2
   2  -1 -13   10.76   10.94   1
   1   1  13  -10.54    8.71   1
   2   1  13  898.11   59.77   1
   3  -2 -13  724.29   59.00   1
  -1   3 -13  761.66   58.75   1
  -1   3 -13  718.21   52.01   4
   2   0  13  631.18   46.54   1
   0   2 -13  507.44   40.04   4
   0   2 -13  529.58   46.35   1
  -2   2  13  679.37   47.57   1
   2   0  13  669.36   43.13   2
   2  -1  13   -1.38    4.99   2
   1   1 -13   14.45   10.19   1
   2  -1  13   -0.08    8.34   1
  -2   2 -13  509.70   39.35   1
   2   0 -13  498.39   39.76   1
   3  -1 -13  756.46   58.53   3
   3  -1 -13  721.22   57.23   1
  -2   3 -13  699.62   56.17   1
   1   2  13  827.61   58.12   1
  -2   3 -13  734.97   50.48   4
  -2   4 -13    9.84    8.60   1
  -2   4 -13    7.22    5.93   4
   4  -2 -13   11.93   10.71   3
   4  -2 -13    8.91   10.48   1
   2   2  13    4.49   11.41   1
  -2   5 -13  392.02   33.68   1
   5  -3 -13  395.44   35.26   3
  -5   3  13  436.44   34.47   1
   3   2  13  464.64   35.48   1
  -2   5 -13  375.89   30.07   4
  -1   4 -13  549.31   39.60   4
  -4   3  13  595.04   45.23   1
  -1   4 -13  519.46   44.20   1
   3   1  13  628.33   45.41   1
   0   3 -13    4.45    4.54   4
  -3   3  13   -1.26   10.80   1
   3   0  13   13.97    9.47   1
   0   3 -13   25.97   11.00   1
   3  -1  13  838.63   61.96   1
  -2   3  13  874.04   63.22   1
   3  -1  13  859.17   59.15   2
   1   2 -13  724.30   62.33   1
   2   1 -13  770.23   63.71   1
   3  -2  13  876.48   62.75   1
  -1   3  13  877.05   64.48   1
   3  -2  13  830.25   60.17   2
   3  -3  13    6.27    7.82   1
   3  -3  13   12.62    8.97   2
   0   3  13   -0.65   12.38   1
   3   0 -13   -5.97   12.55   3
   1   3  13  632.69   44.58   1
   4  -1 -13  511.56   44.25   3
   4  -1 -13  499.44   42.74   1
  -3   4 -13  527.57   41.45   1
  -3   4 -13  532.46   37.96   4
   5  -2 -13  355.75   32.83   1
  -3   5 -13  385.49   29.22   4
   5  -2 -13  394.03   34.74   3
   2   3  13  440.50   34.53   1
  -3   5 -13  392.07   31.10   1
  -6   3  13   -2.27   14.40   1
   6  -3 -13   -5.96   12.50   3
  -3   6 -13   -3.30   13.66   1
  -3   6 -13   -2.92    9.44   4
   3   3  13  -17.06   13.56   3
  -2   6 -13  177.60   20.77   1
   4   2  13  265.29   23.98   3
   4   2  13  247.37   22.05   1
  -2   6 -13  209.14   19.83   4
   6  -4 -13  187.73   22.42   3
  -6   4  13  270.48   21.96   1
  -1   5 -13    7.15    7.46   4
  -5   4  13  -10.88   10.25   1
   4   1  13    7.54   10.53   1
  -4   4  13  379.32   30.81   1
   0   4 -13  291.96   30.12   1
   4   0  13  391.52   30.03   1
  -3   4  13  606.22   46.76   1
   4  -1  13  603.91   45.26   1
   1   3 -13  549.47   46.64   1
   4  -2  13    7.04    8.37   2
  -2   4  13   -5.25   11.71   1
   4  -2  13    7.50    6.25   1
   2   2 -13    5.40   11.97   1
  -1   4  13  617.97   39.11   4
  -1   4  13  600.82   47.38   1
   4  -3  13  615.18   44.08   1
   3   1 -13  503.85   47.11   3
   3   1 -13  540.33   46.16   1
   4  -3  13  597.53   44.13   2
   4  -4  13  408.35   31.50   2
   4  -4  13  394.70   29.40   1
   0   4  13  397.64   33.33   1
   4   0 -13  304.27   30.92   1
   1   4  13   26.53   14.31   1
   5  -1 -13   -3.16   12.13   1
   5  -1 -13   -2.16   10.81   3
   6  -2 -13  160.70   18.57   1
  -4   6 -13  173.63   17.12   4
   6  -2 -13  212.37   22.24   3
   5   1  13  319.23   27.35   3
   5   1  13  318.86   33.84   1
  -1   6 -13  249.05   26.05   4
  -1   6 -13  253.35   24.80   1
  -5   5  13  388.68   32.16   1
   0   5 -13  373.82   32.67   1
   5   0  13  415.19   32.74   1
   1   4 -13   11.06   12.76   1
  -4   5  13   -8.74   11.06   1
   5  -1  13    6.23    8.54   1
   2   3 -13  380.74   37.05   1
   5  -2  13  433.73   33.99   1
  -3   5  13  462.62   37.08   1
   5  -2  13  475.52   35.29   2
  -2   5  13  428.11   35.18   1
   3   2 -13  405.59   36.01   1
   3   2 -13  379.23   37.21   3
   5  -3  13  461.39   34.22   2
   4   1 -13   -6.82   11.16   3
   4   1 -13    5.35   11.56   1
   5  -4  13    6.27    8.87   2
  -1   5  13    4.01    9.86   1
   5   0 -13  328.72   32.62   1
   5   0 -13  345.82   34.05   3
   0   5  13  440.97   34.42   1
   6  -1 -13  289.78   29.75   3
   6  -1 -13  270.78   27.36   1
   1   5  13  291.83   28.89   1
   1   5 -13  253.04   26.68   1
   6  -1  13  319.88   28.92   3
  -5   6  13  261.54   26.44   1
  -4   6  13  248.40   24.63   1
   6  -2  13  278.19   24.85   2
   3   3 -13    5.88    9.48   1
  -3   6  13   -8.81   10.43   1
   6  -3  13   14.33   12.59   2
  -2   6  13  252.36   24.27   1
   4   2 -13  202.59   23.64   1
   4   2 -13  178.02   24.46   3
   6  -4  13  245.45   23.28   2
  -1   6  13  314.29   27.30   1
   6  -5  13  315.27   26.81   2
   5   1 -13  251.29   27.63   3
   5   1 -13  267.90   27.10   1
   0   0 -14  729.33   56.04   1
   0   1 -14  246.35   21.35   1
  -1   1  14  205.91   21.28   1
   1   0  14  187.37   20.49   1
  -1   1 -14  229.19   19.22   1
   0   1  14  190.86   19.55   1
  -1   2 -14  766.16   58.55   1
   2  -1 -14  801.51   59.75   1
   1   1  14  752.24   58.79   1
   2   1  14  148.12   18.93   1
  -3   2  14  155.85   18.57   1
  -1   3 -14  192.63   17.17   1
  -1   3 -14  190.73   13.54   4
   2   0  14  326.18   28.25   1
  -2   2  14  320.22   27.85   1
   2   0  14  334.96   24.46   2
   2  -1  14  745.87   54.20   2
   2  -1  14  782.49   57.88   1
   1   1 -14  758.79   58.77   1
  -1   2  14  775.93   59.21   1
  -2   2 -14  449.05   36.18   1
   2   0 -14  459.15   37.29   1
  -2   3 -14  188.04   17.09   1
   1   2  14  146.44   19.43   1
   3  -1 -14  203.48   18.30   1
   4  -2 -14  387.69   33.33   3
  -2   4 -14  386.83   32.46   1
  -2   4 -14  414.65   28.50   4
   2   2  14  391.60   34.13   1
   4  -2 -14  398.87   33.85   1
   5  -3 -14  102.17   15.87   3
  -5   3  14   92.63   15.80   1
  -2   5 -14  119.29   14.56   1
  -2   5 -14  112.00   11.33   4
   3   2  14   93.29   16.34   1
  -1   4 -14  144.59   15.39   1
  -1   4 -14  150.01   12.13   4
   3   1  14  100.15   15.45   1
   0   3 -14  595.37   39.56   4
   0   3 -14  603.20   46.44   1
  -3   3  14  555.20   45.95   1
   3   0  14  566.79   45.75   1
   3  -1  14  144.70   17.32   1
  -2   3  14  149.89   19.18   1
   1   2 -14  195.34   12.62   4
   3  -1  14  157.84   15.29   2
   1   2 -14  192.54   17.92   1
   2   1 -14  188.63   18.93   1
   3  -2  14  156.99   14.66   2
  -1   3  14  158.84   19.52   1
   3  -2  14  129.06   15.44   1
   0   3  14  561.85   44.76   1
   3   0 -14  544.01   44.74   1
   3  -3  14  571.09   43.47   1
   4  -1 -14  147.67   18.27   1
   4  -1 -14  152.19   19.61   3
   1   3  14  109.84   18.07   1
  -3   4 -14  140.10   14.85   1
   5  -2 -14  119.16   18.19   3
  -3   5 -14  132.98   13.25   4
  -3   5 -14  114.70   14.29   1
   5  -2 -14  129.00   16.08   1
   6  -3 -14  250.49   27.25   3
   3   3  14  258.65   38.79   3
  -3   6 -14  288.55   23.94   4
   3   3  14  254.65   27.01   1
  -6   3  14  274.96   25.15   1
  -2   6 -14  182.70   42.99   4
  -2   6 -14  200.95   23.23   1
   6  -4 -14  182.79   20.80   3
   4   2  14  141.89   20.53   3
  -6   4  14  112.78   22.47   1
  -1   5 -14  352.28   25.77   4
  -1   5 -14  349.51   29.58   1
   4   1  14  332.29   28.78   1
  -5   4  14  318.12   28.39   1
   0   4 -14  288.80   26.10   1
   4  -1  14  103.12   12.29   1
   4  -1  14  116.78   12.91   2
  -3   4  14  101.82   16.63   1
   1   3 -14  141.94   16.88   1
   2   2 -14  395.44   32.76   1
   4  -2  14  370.99   30.36   1
  -2   4  14  357.02   32.85   1
   4  -2  14  400.69   30.26   2
  -1   4  14  120.74   18.04   1
   4  -3  14   86.49   10.93   1
   4  -3  14  114.09   12.53   2
   0   4  14  182.07   21.16   1
   4  -4  14  184.87   16.93   1
   5  -1 -14  357.24   32.28   3
   1   4  14  323.80   29.91   1
   5  -1 -14  331.34   30.66   1
   6  -2 -14  196.26   19.35   1
  -4   6 -14  163.80   17.68   4
   6  -2 -14  180.50   21.58   3
   5   0  14   66.54   10.31   1
  -5   5  14   69.02   11.07   1
  -4   5  14  330.90   29.70   1
   1   4 -14  336.97   30.25   1
   5  -1  14  312.56   26.86   1
  -3   5  14   79.59   14.84   1
   5  -2  14   78.95   11.12   2
   5  -3  14   71.31   13.61   2
  -2   5  14   59.00   14.47   1
   3   2 -14  104.23   16.33   1
   5  -4  14  314.51   29.29   2
   4   1 -14  383.08   33.62   3
  -1   5  14  336.77   31.46   1
   4   1 -14  336.72   32.35   1
   5   0 -14  129.50   18.46   1
   5   0 -14  149.15   20.26   3
  -4   6  14  124.57   16.92   1
   6  -2  14  156.26   21.26   2
   2   4 -14  179.86   20.38   1
  -3   6  14  262.13   26.60   1
   3   3 -14  288.01   27.71   1
   6  -3  14  252.64   26.07   2
   6  -4  14  140.54   20.28   2
  -2   6  14  106.81   15.57   1
   1   0  15  122.66   14.14   1
  -1   1  15  126.65   16.95   1
   0   1 -15  130.12   16.24   1
   1   0 -15  106.36   16.24   1
   0   1  15  127.97   16.78   1
   1  -1  15  127.48   13.98   1
  -1   1 -15  119.90   13.35   1
   2  -1 -15   15.95   11.63   1
   1   1  15    2.90   11.14   1
  -3   2  15   87.22   13.07   1
   2   1  15   87.91    8.77   2
   2   1  15  105.26   15.74   1
  -1   3 -15  103.93    8.45   4
  -1   3 -15   79.94   13.58   1
   2   0  15  201.31   16.63   2
   0   2 -15  254.68   22.07   1
  -2   2  15  222.80   23.11   1
   2   0  15  198.29   21.12   1
   1   1 -15    9.25   11.68   1
   2  -1  15   10.16    9.90   1
   2  -1  15    4.78    4.77   2
  -1   2  15    8.47    8.90   1
   2  -2  15  205.99   20.52   1
   2   0 -15  228.69   21.84   1
   0   2  15  193.12   20.13   1
  -2   3 -15  111.11   14.57   1
   1   2  15  119.71   17.38   1
   3  -1 -15  105.48   14.48   1
  -2   4 -15    9.24    9.90   1
   4  -2 -15    1.38   10.44   1
   2   2  15   -0.06    9.28   1
  -2   4 -15    1.52    4.87   4
  -5   3  15   43.09   10.56   1
   3   2  15   32.02   11.86   1
   3   1  15   72.26   11.05   1
  -1   4 -15   67.61   13.73   1
  -4   3  15   51.92   14.37   1
   0   3 -15   13.66   11.23   1
   3   0  15   12.12   11.21   1
  -3   3  15    9.08   12.16   1
   3  -1  15   92.57   10.01   2
   3  -1  15   99.28   13.44   1
  -2   3  15   95.82   13.41   1
   1   2 -15   97.93   16.19   1
   3  -2  15   97.32   11.07   2
   3  -2  15   73.78   12.10   1
  -1   3  15  128.93   17.46   1
   2   1 -15   89.07   15.43   1
   3   0 -15  -10.19   12.34   1
   3  -3  15   -4.33    8.12   1
   0   3  15    8.68   10.20   1
  -3   4 -15   69.54   11.75   1
   1   3  15   75.91   16.51   1
   4  -1 -15   93.80   15.68   1
   5  -2 -15   36.30   11.77   1
   5  -2 -15   42.76   15.42   3
   2   3  15   30.03   15.66   1
  -3   5 -15   42.67   17.63   1
   4   1  15   36.01   13.64   1
  -5   4  15  -14.92   13.89   1
  -1   5 -15   -4.84   14.25   1
   4   0  15   95.69   13.52   1
   0   4 -15  113.36   15.56   1
  -4   4  15  137.37   16.59   1
   4  -1  15   65.72   10.71   1
   4  -1  15   71.28   10.69   2
   1   3 -15   61.70   12.43   1
  -3   4  15   92.54   15.13   1
  -2   4  15    7.20   13.17   1
   4  -2  15    0.85    7.74   1
   2   2 -15   16.27   13.05   1
   3   1 -15   47.23   15.95   1
   4  -3  15   82.82   12.47   2
   4  -3  15   79.77   11.00   1
   4   0 -15  137.86   18.87   3
   4   0 -15  145.21   18.39   1
   0   4  15  129.40   17.02   1
   5  -1 -15   -0.67    8.71   1
   1   4  15   -7.97   14.09   1
   5  -1 -15    2.15   15.15   3
   0   5 -15   59.40   15.48   1
  -5   5  15   60.36   16.49   1
   1   4 -15   -2.98   14.09   1
   5  -1  15   27.82   15.35   2
  -4   5  15   17.95   14.62   1
   5  -2  15   41.54   14.48   2
  -3   5  15   47.77   14.16   1
   2   3 -15   62.58   16.12   1
   5  -3  15   44.49   12.45   2
   3   2 -15   70.08   12.52   1
  -2   5  15   41.05   15.90   1
   5  -4  15   11.76   12.33   2
  -1   5  15    4.51   14.96   1
   4   1 -15    0.12   12.29   1
   5   0 -15   30.42   19.01   3
   5   0 -15  103.83   17.68   1
   0   5  15   60.70   17.79   1
   0   0  16  262.64   24.99   1
   1   0  16  179.92   20.14   1
   0   1 -16  173.12   19.45   1
  -1   1  16  185.44   21.14   1
   1   0 -16  198.17   20.51   1
   0   1  16  171.33   20.37   1
   1  -1  16  187.61   18.71   1
   2  -1 -16  403.71   35.22   1
  -1   2 -16  420.29   34.44   1
   2   1  16  135.00   18.51   1
  -1   3 -16  142.14   16.75   1
  -3   2  16  158.60   18.86   1
   0   2 -16  206.05   20.60   1
  -2   2  16  202.10   23.46   1
   2   0  16  244.60   21.65   1
  -1   2  16  611.55   49.12   1
   2  -1  16  607.13   48.00   1
   2   0 -16  203.50   21.79   1
   2  -2  16  251.44   22.55   1
   0   2  16  251.06   24.39   1
   3  -1 -16  124.63   18.14   1
  -2   3 -16  152.38   16.91   1
   1   2  16  171.06   20.00   1
  -4   2  16  166.48   17.07   1
   2   2  16  146.22   16.29   1
   4  -2 -16  127.13   16.32   1
  -2   4 -16  118.28   16.77   1
   3   2  16   80.92   13.48   1
  -2   5 -16   82.31   14.80   1
  -5   3  16   87.42   16.19   1
   3   1  16  122.80   16.16   1
  -4   3  16   88.35   13.69   1
  -1   4 -16  106.04   15.96   1
   3   0  16  440.96   37.82   1
  -3   3  16  475.23   38.34   1
   3  -1  16  141.46   16.69   1
   3  -1  16  132.07   12.88   2
  -2   3  16  128.02   19.45   1
   1   2 -16  168.39   18.14   1
  -1   3  16  140.03   20.14   1
   2   1 -16  162.05   19.62   1
   3  -2  16  133.61   15.76   1
   3  -2  16  150.37   13.56   2
   3  -3  16  483.00   37.67   1
   0   3  16  442.01   39.33   1
   4  -1 -16   97.71   16.78   1
  -3   4 -16  115.91   14.06   1
   1   3  16   98.48   15.95   1
   5  -2 -16   63.19   13.67   1
  -5   4  16  265.98   25.28   1
  -1   5 -16  230.49   25.53   1
   4   1  16  301.73   31.42   1
   0   4 -16  142.91   18.09   1
  -4   4  16  139.24   44.77   1
   4   0  16  107.40   16.41   1
  -3   4  16  105.24   14.38   1
   4  -1  16  112.38   14.07   1
   1   3 -16   97.08   17.22   1
   4  -1  16   98.05   11.92   2
   4  -2  16  139.99   14.76   2
  -2   4  16  149.92   19.14   1
   2   2 -16   97.79   18.68   1
   4  -2  16  149.87   14.63   1
   4  -3  16  139.95   15.28   2
  -1   4  16  126.47   18.87   1
   4  -3  16   87.85   13.97   1
   3   1 -16  100.90   14.80   1
   4   0 -16  134.26   18.29   1
   0   4  16  143.01   17.49   1
   5  -1 -16  166.28   20.28   1
   1   4 -16  183.61   21.91   1
  -4   5  16  252.51   23.62   1
  -3   5  16   88.17   17.74   1
   5  -2  16   54.98   25.93   2
   2   3 -16   95.22   17.61   1
  -2   5  16   70.84   17.26   1
   3   2 -16   82.67   18.23   1
   5  -3  16  111.39   15.95   2
   4   1 -16  193.84   23.49   1
   0   0  17   14.42   12.58   1
   1   0  17  264.83   26.18   1
  -1   1  17  255.74   26.93   1
   0   1 -17  281.07   24.36   1
   0   1  17  265.79   26.18   1
   1  -1  17  285.10   25.09   1
   1   0 -17  272.37   26.32   1
  -1   2 -17   -1.82    8.72   1
  -2   1  17  -20.60   15.63   1
   1   1  17   -5.53    9.42   1
  -1   3 -17  183.98   19.15   1
   2   1  17  162.63   20.63   1
  -3   2  17  164.50   21.66   1
   2   0  17  361.56   33.23   1
   0   2 -17  411.92   33.74   1
  -2   2  17  378.94   32.67   1
  -1   2  17   15.95   10.26   1
   2  -1  17  -15.88   10.15   1
   1   1 -17  -14.05   10.56   1
   2   0 -17  407.35   35.09   1
   0   2  17  398.59   35.74   1
   2  -2  17  393.79   34.14   1
  -2   3 -17  184.36   17.98   1
   1   2  17  169.91   22.18   1
   3  -1 -17  176.52   21.47   1
   2   2  17   -6.98   11.63   1
  -2   4 -17   14.14   11.17   1
  -4   2  17    6.42   10.00   1
  -4   3  17  142.81   20.02   1
  -1   4 -17  168.52   17.11   1
   3   1  17  139.89   17.73   1
   0   3 -17   12.64   13.47   1
  -3   3  17    2.42   14.08   1
   3   0  17    1.88   11.42   1
  -2   3  17  158.85   20.39   1
   3  -1  17  183.70   19.80   1
   1   2 -17  192.76   21.34   1
   3  -2  17  154.36   17.54   1
   2   1 -17  163.18   20.35   1
  -1   3  17  158.74   20.25   1
   0   3  17   10.48   16.22   1
   3   0 -17   -3.97   13.86   1
   3  -3  17   -4.00   10.24   1
   4  -1 -17  175.08   18.87   1
   1   3  17  163.17   20.62   1
   3  -4  17  150.45   18.35   1
  -4   4  17  230.09   24.95   1
   4   0  17  201.91   29.47   1
   0   4 -17  249.91   25.11   1
   4  -1  17  134.10   14.72   1
  -3   4  17  125.70   19.55   1
   1   3 -17  119.96   18.91   1
  -2   4  17    2.23   13.39   1
   2   2 -17   18.34   10.49   1
   4  -2  17   -3.10   17.45   1
  -1   4  17  140.06   21.50   1
   3   1 -17  170.40   20.75   1
   0   4  17  208.17   22.54   1
   4   0 -17  233.13   24.46   1
   0   0  18  468.56   40.01   1
  -1   1  18   31.64   11.54   1
   1   0  18   22.93   12.31   1
   0   1 -18   31.04   12.31   1
   1   0 -18   -0.76    9.90   1
   1  -1  18   16.17    9.75   1
  -1   0  18   18.46   12.15   1
   0   1  18   34.72   16.18   1
  -2   1  18  493.18   42.39   1
   1   1  18  455.55   41.51   1
  -1   2 -18  525.19   40.85   1
   2   1  18   15.76   10.20   1
  -3   2  18   17.03   16.34   1
  -1   3 -18   14.31   29.59   1
   2   0  18   96.88   16.37   1
   0   2 -18  104.82   17.81   1
  -2   2  18  118.51   18.48   1
  -1   2  18  516.78   42.94   1
   1   1 -18  510.10   41.80   1
   2  -1  18  469.04   41.12   1
   2   0 -18   93.44   17.82   1
   0   2  18  113.81   15.67   1
   2  -2  18   98.95   16.20   1
   2  -3  18   18.62   13.96   1
   1   2  18   18.25   11.45   1
   3  -1 -18   22.84   14.74   1
  -2   4 -18  268.17   32.59   1
  -4   2  18  269.44   25.63   1
   2   2  18  263.32   27.34   1
   0   3 -18  422.73   34.04   1
  -3   3  18  369.89   33.89   1
   3   0  18  393.33   33.61   1
  -2   3  18   26.22   15.67   1
   3  -1  18   25.20   10.85   1
   3  -2  18   39.30   13.48   1
  -1   3  18   31.55   17.13   1
   3  -3  18  411.36   33.65   1
   3   0 -18  414.26   35.30   1
   0   3  18  341.94   35.22   1
   2   2 -18  284.76   29.01   1
  -2   4  18  277.92   28.23   1
   0   0  19  -19.86   13.42   1
   0  -1  19   63.40   17.77   1
  -1   1  19   73.52   13.91   1
   1   0  19   71.33   12.94   1
   0   1  19   82.55   16.85   1
   1  -1  19   68.78   13.73   1
  -1   0  19   83.30   14.80   1
   1  -2  19  -20.40   14.86   1
  -2   1  19  -16.61   15.82   1
   1   1  19   11.42   10.15   1
   2   1  19   74.49   17.23   1
  -3   2  19   45.39   17.23   1
  -1   3 -19   35.64   15.65   1
   2   0  19  155.89   19.01   1
  -2   2  19  140.19   20.67   1
   0   2 -19  101.35   16.60   1
   2  -1  19    4.11   12.40   1
   1   1 -19   -6.17   15.59   1
  -1   2  19    3.69   14.58   1
   2   0 -19  146.91   20.19   1
   0   2  19  118.73   19.39   1
   2  -2  19  144.47   18.65   1
  -3   1  19   48.16   19.18   1
   2  -3  19   97.88   22.37   1
   1   2  19   57.21   17.79   1
   1   2 -19   44.97   17.67   1
  -2   3  19   45.31   13.29   1
   3  -1  19   28.58   15.47   1
   2   1 -19   59.59   17.48   1
   3  -2  19   44.24   11.47   1
  -1   3  19   48.00   17.02   1
   0   0  20  408.36   35.51   1
   1   0  20    8.28   16.99   1
  -1   1  20   28.89   14.76   1
   0  -1  20   24.02   16.58   1
  -1   0  20    9.65   13.35   1
   0   1  20   -0.33   10.32   1
   1  -1  20    0.95    9.86   1
   1   1  20  256.40   27.54   1
  -2   1  20  270.95   29.37   1
   1  -2  20  221.90   26.59   1
  -1   2  20  228.09   24.15   1
   1   1 -20  201.00   26.23   1
   2  -1  20  276.71   26.43   1
   0   0   0    0.00    0.00
;
_shelx_hkl_checksum              56732
loop_
_space_group_symop_operation_xyz
'x, y, z'
'-x, -y, z+1/2'
'-y, x-y, z'
'-x+y, -x, z'
'x-y, x, z+1/2'
'y, -x+y, z+1/2'
'-x+y, y, z'
'x, x-y, z'
'-y, -x, z'
'y, x, z+1/2'
'-x, -x+y, z+1/2'
'x-y, -y, z+1/2'
loop_
_atom_site_label
_atom_site_type_symbol
_atom_site_fract_x
_atom_site_fract_y
_atom_site_fract_z
_atom_site_U_iso_or_equiv
_atom_site_adp_type
_atom_site_occupancy
_atom_site_site_symmetry_order
_atom_site_calc_flag
_atom_site_refinement_flags_posn
_atom_site_refinement_flags_adp
_atom_site_refinement_flags_occupancy
_atom_site_disorder_assembly
_atom_site_disorder_group
Ga Ga 0.6667 0.3333 0.40860(5) 0.00729(15) Uani 1 6 d S T P . .
P1 P 0.3333 0.6667 0.53139(12) 0.0066(2) Uani 1 6 d DS T P . .
P2 P 1.0000 1.0000 0.35734(14) 0.0066(2) Uani 1 6 d DS T P . .
O2 O 0.8414(2) 0.6827(5) 0.3184(2) 0.0116(4) Uani 1 2 d S T P . .
O1 O 0.4936(3) 0.5064(3) 0.5012(2) 0.0140(5) Uani 1 2 d S T P . .
Rb1 Rb 0.3333 0.6667 0.20297(3) 0.01444(16) Uani 1 6 d S T P . .
H2 H 1.0000 1.0000 0.456(5) 0.017 Uiso 1 6 d DS U P . .
H1 H 0.3333 0.6667 0.633(5) 0.017 Uiso 1 6 d DS U P . .
loop_
_atom_site_aniso_label
_atom_site_aniso_U_11
_atom_site_aniso_U_22
_atom_site_aniso_U_33
_atom_site_aniso_U_23
_atom_site_aniso_U_13
_atom_site_aniso_U_12
Ga 0.00509(19) 0.00509(19) 0.0117(3) 0.000 0.000 0.00255(9)
P1 0.0056(3) 0.0056(3) 0.0086(6) 0.000 0.000 0.00278(15)
P2 0.0053(3) 0.0053(3) 0.0090(6) 0.000 0.000 0.00266(15)
O2 0.0123(8) 0.0069(9) 0.0138(11) -0.0004(9) -0.0002(5) 0.0034(5)
O1 0.0128(9) 0.0128(9) 0.0205(13) -0.0015(5) 0.0015(5) 0.0094(10)
Rb1 0.0147(2) 0.0147(2) 0.0140(3) 0.000 0.000 0.00733(10)
loop_
_atom_type_symbol
_atom_type_description
_atom_type_scat_dispersion_real
_atom_type_scat_dispersion_imag
_atom_type_scat_source
O O 0.0106 0.0060 'International Tables Vol C Tables 4.2.6.8 and 6.1.1.4'
P P 0.1023 0.0942 'International Tables Vol C Tables 4.2.6.8 and 6.1.1.4'
Ga Ga 0.2307 1.6083 'International Tables Vol C Tables 4.2.6.8 and 6.1.1.4'
Rb Rb -0.9393 2.9676 'International Tables Vol C Tables 4.2.6.8 and 6.1.1.4'
H H 0.0000 0.0000 'International Tables Vol C Tables 4.2.6.8 and 6.1.1.4'
loop_
_geom_angle_atom_site_label_1
_geom_angle_atom_site_label_2
_geom_angle_atom_site_label_3
_geom_angle
_geom_angle_site_symmetry_1
_geom_angle_site_symmetry_3
O1 Ga O1 87.79(13) 4_665 3_655
O1 Ga O1 87.79(13) 4_665 .
O1 Ga O1 87.79(13) 3_655 .
O1 Ga O2 91.51(8) 4_665 4_665
O1 Ga O2 91.51(8) 3_655 4_665
O1 Ga O2 179.03(13) . 4_665
O1 Ga O2 179.03(13) 4_665 3_655
O1 Ga O2 91.51(8) 3_655 3_655
O1 Ga O2 91.51(8) . 3_655
O2 Ga O2 89.18(12) 4_665 3_655
O1 Ga O2 91.51(8) 4_665 .
O1 Ga O2 179.03(13) 3_655 .
O1 Ga O2 91.51(8) . .
O2 Ga O2 89.18(12) 4_665 .
O2 Ga O2 89.18(12) 3_655 .
O1 Ga Rb1 53.19(9) 4_665 2_665
O1 Ga Rb1 53.19(9) 3_655 2_665
O1 Ga Rb1 53.19(9) . 2_665
O2 Ga Rb1 125.84(8) 4_665 2_665
O2 Ga Rb1 125.84(8) 3_655 2_665
O2 Ga Rb1 125.84(8) . 2_665
O1 Ga Rb1 133.98(4) 4_665 1_545
O1 Ga Rb1 77.59(9) 3_655 1_545
O1 Ga Rb1 133.99(4) . 1_545
O2 Ga Rb1 46.42(4) 4_665 1_545
O2 Ga Rb1 46.42(4) 3_655 1_545
O2 Ga Rb1 103.38(8) . 1_545
Rb1 Ga Rb1 130.777(8) 2_665 1_545
O1 Ga Rb1 77.59(9) 4_665 1_655
O1 Ga Rb1 133.98(4) 3_655 1_655
O1 Ga Rb1 133.99(4) . 1_655
O2 Ga Rb1 46.42(4) 4_665 1_655
O2 Ga Rb1 103.38(8) 3_655 1_655
O2 Ga Rb1 46.42(4) . 1_655
Rb1 Ga Rb1 130.777(8) 2_665 1_655
Rb1 Ga Rb1 81.962(12) 1_545 1_655
O1 Ga Rb1 133.99(4) 4_665 .
O1 Ga Rb1 133.99(4) 3_655 .
O1 Ga Rb1 77.59(9) . .
O2 Ga Rb1 103.38(8) 4_665 .
O2 Ga Rb1 46.42(4) 3_655 .
O2 Ga Rb1 46.42(4) . .
Rb1 Ga Rb1 130.776(8) 2_665 .
Rb1 Ga Rb1 81.962(12) 1_545 .
Rb1 Ga Rb1 81.962(12) 1_655 .
O1 P1 O1 113.77(10) 4_565 3_665
O1 P1 O1 113.77(10) 4_565 .
O1 P1 O1 113.77(10) 3_665 .
O1 P1 Rb1 122.75(7) 4_565 2_665
O1 P1 Rb1 122.75(7) 3_665 2_665
O1 P1 Rb1 50.47(12) . 2_665
O1 P1 Rb1 122.75(7) 4_565 2_675
O1 P1 Rb1 50.47(12) 3_665 2_675
O1 P1 Rb1 122.75(7) . 2_675
Rb1 P1 Rb1 89.32(3) 2_665 2_675
O1 P1 Rb1 50.47(12) 4_565 2_565
O1 P1 Rb1 122.75(7) 3_665 2_565
O1 P1 Rb1 122.75(7) . 2_565
Rb1 P1 Rb1 89.32(3) 2_665 2_565
Rb1 P1 Rb1 89.32(3) 2_675 2_565
O2 P2 O2 109.97(12) . 3_765
O2 P2 O2 109.98(12) . 4_675
O2 P2 O2 109.98(12) 3_765 4_675
O2 P2 Rb1 128.12(14) . 1_665
O2 P2 Rb1 55.00(6) 3_765 1_665
O2 P2 Rb1 55.00(6) 4_675 1_665
O2 P2 Rb1 55.00(6) . .
O2 P2 Rb1 128.12(14) 3_765 .
O2 P2 Rb1 55.00(6) 4_675 .
Rb1 P2 Rb1 93.26(3) 1_665 .
O2 P2 Rb1 55.00(6) . 1_655
O2 P2 Rb1 55.00(6) 3_765 1_655
O2 P2 Rb1 128.12(14) 4_675 1_655
Rb1 P2 Rb1 93.26(3) 1_665 1_655
Rb1 P2 Rb1 93.26(3) . 1_655
P2 O2 Ga 125.20(19) . .
P2 O2 Rb1 100.45(7) . .
Ga O2 Rb1 105.42(5) . .
P2 O2 Rb1 100.45(7) . 1_655
Ga O2 Rb1 105.42(5) . 1_655
Rb1 O2 Rb1 121.55(10) . 1_655
P1 O1 Ga 157.9(2) . .
P1 O1 Rb1 106.81(15) . 2_665
Ga O1 Rb1 95.28(10) . 2_665
O2 Rb1 O2 98.24(7) 3_665 4_565
O2 Rb1 O2 98.24(7) 3_665 .
O2 Rb1 O2 98.24(7) 4_565 .
O2 Rb1 O2 54.43(9) 3_665 4_675
O2 Rb1 O2 121.55(10) 4_565 4_675
O2 Rb1 O2 49.08(9) . 4_675
O2 Rb1 O2 49.08(9) 3_665 1_455
O2 Rb1 O2 54.43(9) 4_565 1_455
O2 Rb1 O2 121.55(10) . 1_455
O2 Rb1 O2 98.24(7) 4_675 1_455
O2 Rb1 O2 121.55(10) 3_665 3_655
O2 Rb1 O2 49.08(9) 4_565 3_655
O2 Rb1 O2 54.43(9) . 3_655
O2 Rb1 O2 98.24(7) 4_675 3_655
O2 Rb1 O2 98.24(7) 1_455 3_655
O2 Rb1 O1 144.81(6) 3_665 2_664
O2 Rb1 O1 113.76(5) 4_565 2_664
O2 Rb1 O1 91.53(7) . 2_664
O2 Rb1 O1 113.76(5) 4_675 2_664
O2 Rb1 O1 144.81(6) 1_455 2_664
O2 Rb1 O1 91.53(7) 3_655 2_664
O2 Rb1 O1 113.76(5) 3_665 5_554
O2 Rb1 O1 91.53(7) 4_565 5_554
O2 Rb1 O1 144.81(6) . 5_554
O2 Rb1 O1 144.81(6) 4_675 5_554
O2 Rb1 O1 91.53(7) 1_455 5_554
O2 Rb1 O1 113.76(5) 3_655 5_554
O1 Rb1 O1 53.87(8) 2_664 5_554
O2 Rb1 O1 91.53(7) 3_665 6_564
O2 Rb1 O1 144.81(6) 4_565 6_564
O2 Rb1 O1 113.76(5) . 6_564
O2 Rb1 O1 91.53(7) 4_675 6_564
O2 Rb1 O1 113.76(5) 1_455 6_564
O2 Rb1 O1 144.81(6) 3_655 6_564
O1 Rb1 O1 53.87(8) 2_664 6_564
O1 Rb1 O1 53.87(8) 5_554 6_564
O2 Rb1 P2 75.84(5) 3_665 .
O2 Rb1 P2 111.05(6) 4_565 .
O2 Rb1 P2 24.55(4) . .
O2 Rb1 P2 24.55(4) 4_675 .
O2 Rb1 P2 111.05(6) 1_455 .
O2 Rb1 P2 75.84(5) 3_655 .
O1 Rb1 P2 104.11(4) 2_664 .
O1 Rb1 P2 154.46(6) 5_554 .
O1 Rb1 P2 104.11(4) 6_564 .
O2 Rb1 P2 24.54(4) 3_665 1_455
O2 Rb1 P2 75.84(5) 4_565 1_455
O2 Rb1 P2 111.05(6) . 1_455
O2 Rb1 P2 75.84(5) 4_675 1_455
O2 Rb1 P2 24.55(4) 1_455 1_455
O2 Rb1 P2 111.05(6) 3_655 1_455
O1 Rb1 P2 154.46(6) 2_664 1_455
O1 Rb1 P2 104.11(4) 5_554 1_455
O1 Rb1 P2 104.11(4) 6_564 1_455
P2 Rb1 P2 93.26(3) . 1_455
O2 Rb1 P2 111.05(6) 3_665 1_445
O2 Rb1 P2 24.54(4) 4_565 1_445
O2 Rb1 P2 75.84(5) . 1_445
O2 Rb1 P2 111.05(6) 4_675 1_445
O2 Rb1 P2 75.84(5) 1_455 1_445
O2 Rb1 P2 24.55(4) 3_655 1_445
O1 Rb1 P2 104.11(4) 2_664 1_445
O1 Rb1 P2 104.11(4) 5_554 1_445
O1 Rb1 P2 154.46(6) 6_564 1_445
P2 Rb1 P2 93.26(3) . 1_445
P2 Rb1 P2 93.26(3) 1_455 1_445
loop_
_geom_bond_atom_site_label_1
_geom_bond_atom_site_label_2
_geom_bond_distance
_geom_bond_site_symmetry_2
Ga O1 1.973(3) 4_665
Ga O1 1.973(3) 3_655
Ga O1 1.973(3) .
Ga O2 1.967(3) 4_665
Ga O2 1.967(3) 3_655
Ga O2 1.967(3) .
Ga Rb1 3.7567(8) 2_665
Ga Rb1 4.0181(5) 1_545
Ga Rb1 4.0181(5) 1_655
Ga Rb1 4.0181(5) .
P1 O1 1.513(3) 4_565
P1 O1 1.513(3) 3_665
P1 O1 1.513(3) .
P1 Rb1 3.7487(9) 2_665
P1 Rb1 3.7488(10) 2_675
P1 Rb1 3.7488(10) 2_565
P2 O2 1.531(2) .
P2 O2 1.531(2) 3_765
P2 O2 1.531(2) 4_675
P2 Rb1 3.6248(10) 1_665
P2 Rb1 3.6248(10) .
P2 Rb1 3.6249(10) 1_655
O2 Rb1 3.0195(15) .
O2 Rb1 3.0195(15) 1_655
O1 Rb1 3.020(3) 2_665
Rb1 O2 3.0195(15) 3_665
Rb1 O2 3.0195(15) 4_565
Rb1 O2 3.0195(15) 4_675
Rb1 O2 3.0195(15) 1_455
Rb1 O2 3.0195(15) 3_655
Rb1 O1 3.020(3) 2_664
Rb1 O1 3.020(3) 5_554
Rb1 O1 3.020(3) 6_564
Rb1 P2 3.6249(10) 1_455
Rb1 P2 3.6249(10) 1_445
