#------------------------------------------------------------------------------
#$Date: 2021-06-05 20:55:35 +0300 (Sat, 05 Jun 2021) $
#$Revision: 265918 $
#$URL: file:///home/coder/svn-repositories/cod/cif/1/56/03/1560314.cif $
#------------------------------------------------------------------------------
#
# This file is available in the Crystallography Open Database (COD),
# http://www.crystallography.net/
#
# All data on this site have been placed in the public domain by the
# contributors.
#
data_1560314
loop_
_publ_author_name
'Mayer, Robert J.'
'Allihn, Patrick W. A.'
'Hampel, Nathalie'
'Mayer, Peter'
'Sieber, Stephan A.'
'Ofial, Armin R.'
_publ_section_title
;
 Electrophilic reactivities of cyclic enones and \a,\b-unsaturated
 lactones
;
_journal_issue                   13
_journal_name_full               'Chemical Science'
_journal_page_first              4850
_journal_page_last               4865
_journal_paper_doi               10.1039/D0SC06628A
_journal_volume                  12
_journal_year                    2021
_chemical_formula_moiety         'C10 H11 N S'
_chemical_formula_sum            'C10 H11 N S'
_chemical_formula_weight         177.26
_chemical_name_common            RM445-4-8
_space_group_crystal_system      triclinic
_space_group_IT_number           2
_space_group_name_Hall           '-P 1'
_space_group_name_H-M_alt        'P -1'
_atom_sites_solution_hydrogens   geom
_audit_block_code                C10H11NS_vv592_mayr
_audit_creation_method           'APEX3 v2016.9-0'
_audit_update_record
;
2020-11-13 deposited with the CCDC.	2021-02-09 downloaded from the CCDC.
;
_cell_angle_alpha                69.1780(10)
_cell_angle_beta                 74.1170(10)
_cell_angle_gamma                83.7140(10)
_cell_formula_units_Z            2
_cell_length_a                   7.3211(2)
_cell_length_b                   7.9973(2)
_cell_length_c                   8.7918(3)
_cell_measurement_reflns_used    7233
_cell_measurement_temperature    103.(2)
_cell_measurement_theta_max      27.1291
_cell_measurement_theta_min      2.8930
_cell_volume                     462.72(2)
_computing_cell_refinement       'SAINT V8.37A (Bruker AXS Inc., 2015)'
_computing_data_collection       'APEX3 v2016.5-0, Bruker AXS (2016)'
_computing_data_reduction        'SAINT V8.37A (Bruker AXS Inc., 2015)'
_computing_molecular_graphics    'shelXle (C.B. Huebschle, rev 807)'
_computing_structure_refinement  'SHELXL-2014/7 (Sheldrick, 2014)'
_computing_structure_solution    'XT, VERSION 2014/5'
_diffrn_ambient_temperature      103.(2)
_diffrn_detector_area_resol_mean 7.4074
_diffrn_measured_fraction_theta_full 0.994
_diffrn_measured_fraction_theta_max 0.994
_diffrn_measurement_device       'fixed-chi three-circle diffractometer'
_diffrn_measurement_device_type  'Bruker D8 Venture TXS'
_diffrn_measurement_method       'mix of phi and omega scans'
_diffrn_radiation_monochromator  'focusing mirrors'
_diffrn_radiation_type           MoK\a
_diffrn_radiation_wavelength     0.71073
_diffrn_reflns_av_R_equivalents  0.0244
_diffrn_reflns_av_unetI/netI     0.0205
_diffrn_reflns_Laue_measured_fraction_full 0.994
_diffrn_reflns_Laue_measured_fraction_max 0.994
_diffrn_reflns_limit_h_max       9
_diffrn_reflns_limit_h_min       -9
_diffrn_reflns_limit_k_max       10
_diffrn_reflns_limit_k_min       -10
_diffrn_reflns_limit_l_max       11
_diffrn_reflns_limit_l_min       -11
_diffrn_reflns_number            8722
_diffrn_reflns_point_group_measured_fraction_full 0.994
_diffrn_reflns_point_group_measured_fraction_max 0.994
_diffrn_reflns_theta_full        25.242
_diffrn_reflns_theta_max         27.099
_diffrn_reflns_theta_min         3.345
_diffrn_source                   'rotating anode (TXS)'
_diffrn_source_current           50
_diffrn_source_power             2.5
_diffrn_source_type              'Bruker TXS'
_diffrn_source_voltage           50
_exptl_absorpt_coefficient_mu    0.291
_exptl_absorpt_correction_T_max  0.9705
_exptl_absorpt_correction_T_min  0.9226
_exptl_absorpt_correction_type   multi-scan
_exptl_absorpt_process_details
;
SADABS-2016/2 - Bruker AXS area detector scaling and absorption correction
;
_exptl_crystal_colour            colourless
_exptl_crystal_density_diffrn    1.272
_exptl_crystal_density_method    'not measured'
_exptl_crystal_description       block
_exptl_crystal_F_000             188
_exptl_crystal_size_max          0.080
_exptl_crystal_size_mid          0.060
_exptl_crystal_size_min          0.030
_refine_diff_density_max         0.295
_refine_diff_density_min         -0.192
_refine_diff_density_rms         0.042
_refine_ls_extinction_method     none
_refine_ls_goodness_of_fit_ref   1.065
_refine_ls_hydrogen_treatment    constr
_refine_ls_matrix_type           full
_refine_ls_number_parameters     111
_refine_ls_number_reflns         2031
_refine_ls_number_restraints     0
_refine_ls_restrained_S_all      1.065
_refine_ls_R_factor_all          0.0299
_refine_ls_R_factor_gt           0.0266
_refine_ls_shift/su_max          0.000
_refine_ls_shift/su_mean         0.000
_refine_ls_structure_factor_coef Fsqd
_refine_ls_weighting_details
'w=1/[\s^2^(Fo^2^)+(0.0274P)^2^+0.2230P] where P=(Fo^2^+2Fc^2^)/3'
_refine_ls_weighting_scheme      calc
_refine_ls_wR_factor_gt          0.0679
_refine_ls_wR_factor_ref         0.0704
_reflns_Friedel_coverage         0.000
_reflns_number_gt                1867
_reflns_number_total             2031
_reflns_threshold_expression     'I > 2\s(I)'
_cod_data_source_file            d0sc06628a2.cif
_cod_data_source_block           vv592
_cod_depositor_comments
;
The following automatic conversions were performed:

data item '_exptl_absorpt_correction_type' value 'Multi-Scan' was
changed to 'multi-scan' in accordance with the
/home/data/users/saulius/crontab/automatic-downloads/rss-feeds/RSC/lib/dictionaries/cif_core.dic
dictionary named 'cif_core.dic' version 2.4.2 last updated on
2011-04-26.

Automatic conversion script
Id: cif_fix_values 7556 2019-12-06 15:28:31Z antanas 

 Adding full bibliography for 1560309--1560315.cif.
;
_cod_database_code               1560314
_shelx_estimated_absorpt_t_min   0.977
_shelx_estimated_absorpt_t_max   0.991
_shelx_space_group_comment
;
The symmetry employed for this shelxl refinement is uniquely defined
by the following loop, which should always be used as a source of
symmetry information in preference to the above space-group names.
They are only intended as comments.
;
_shelx_res_file
;


    vv592_0m_a.res created by SHELXL-2014/7


TITL vv592_0m_a.res in P-1
REM Old TITL vv592_0m in P-1
REM SHELXT solution in P-1
REM R1 0.080,  Rweak 0.006,  Alpha 0.036,  Orientation as input
REM Formula found by SHELXT:  C10 N S
CELL  0.71073   7.3211   7.9973   8.7918   69.178   74.117   83.714
ZERR    2.000   0.0002   0.0002   0.0003    0.001    0.001    0.001
LATT  1
SFAC C H N S
UNIT 20 22 2 2
TEMP -170.150
SIZE 0.03 0.06 0.08
L.S. 10
BOND $H
LIST 4
CONF
ACTA
OMIT    -3   0   6
OMIT     0   4   0
OMIT     0   6   6
OMIT     3   0   3
SHEL 6.5 0.78
FMAP 2
PLAN -20
WGHT    0.027400    0.223000
FVAR       1.60264
S1    4    0.716384    0.871350   -0.019037    11.00000    0.02072    0.01741 =
         0.01801   -0.00175   -0.00643    0.00048
N1    3    1.040588    0.166494    0.571664    11.00000    0.02706    0.01986 =
         0.03180   -0.00795   -0.01514    0.00270
C1    1    0.608815    0.777418    0.206143    11.00000    0.01926    0.01725 =
         0.01769   -0.00545   -0.00521    0.00240
AFIX  23
H1A   2    0.673970    0.825432    0.266502    11.00000   -1.20000
H1B   2    0.473997    0.816290    0.229282    11.00000   -1.20000
AFIX   0
C2    1    0.619120    0.576173    0.273289    11.00000    0.01611    0.01638 =
         0.01236   -0.00448   -0.00149    0.00094
C3    1    0.492544    0.469282    0.253466    11.00000    0.01381    0.02164 =
         0.01269   -0.00515   -0.00233    0.00071
C4    1    0.513677    0.283757    0.314215    11.00000    0.01633    0.02080 =
         0.01728   -0.00610   -0.00309   -0.00350
AFIX  43
H4    2    0.428964    0.211737    0.300151    11.00000   -1.20000
AFIX   0
C5    1    0.654913    0.201357    0.394618    11.00000    0.01776    0.01536 =
         0.01673   -0.00357   -0.00282   -0.00103
AFIX  43
H5    2    0.667679    0.074690    0.434428    11.00000   -1.20000
AFIX   0
C6    1    0.778109    0.308049    0.416009    11.00000    0.01494    0.01742 =
         0.01400   -0.00427   -0.00332    0.00082
C7    1    0.759665    0.494326    0.355512    11.00000    0.01609    0.01759 =
         0.01536   -0.00588   -0.00348   -0.00106
AFIX  43
H7    2    0.844016    0.565776    0.370716    11.00000   -1.20000
AFIX   0
C8    1    0.333827    0.552034    0.170743    11.00000    0.01758    0.02435 =
         0.02203   -0.00690   -0.00770    0.00170
AFIX 137
H8A   2    0.272217    0.459124    0.154459    11.00000   -1.50000
H8B   2    0.385477    0.643071    0.061450    11.00000   -1.50000
H8C   2    0.240529    0.607744    0.242503    11.00000   -1.50000
AFIX   0
C9    1    0.924391    0.227524    0.501996    11.00000    0.01978    0.01415 =
         0.01947   -0.00553   -0.00483   -0.00068
C10   1    0.958684    0.796007   -0.025500    11.00000    0.01988    0.02218 =
         0.02654   -0.00560   -0.00197    0.00139
AFIX 137
H10A  2    1.039362    0.853784   -0.138398    11.00000   -1.50000
H10B  2    0.966085    0.665919    0.001668    11.00000   -1.50000
H10C  2    1.002357    0.827349    0.056717    11.00000   -1.50000
AFIX   0
HKLF 4

REM  vv592_0m_a.res in P-1
REM R1 =  0.0266 for    1867 Fo > 4sig(Fo)  and  0.0299 for all    2031 data
REM    111 parameters refined using      0 restraints

END

WGHT      0.0274      0.2230

REM Highest difference peak  0.295,  deepest hole -0.192,  1-sigma level  0.042
Q1    1   0.6185  0.6725  0.2373  11.00000  0.05    0.29
Q2    1   0.7213  0.2562  0.3942  11.00000  0.05    0.29
Q3    1   0.4224  0.5073  0.2195  11.00000  0.05    0.28
Q4    1   0.7702  0.3946  0.3746  11.00000  0.05    0.28
Q5    1   0.5571  0.5209  0.2566  11.00000  0.05    0.27
Q6    1   0.5803  0.2481  0.3608  11.00000  0.05    0.26
Q7    1   0.5068  0.3820  0.2849  11.00000  0.05    0.26
Q8    1   0.6616  0.5331  0.3327  11.00000  0.05    0.25
Q9    1   0.6690  0.8446 -0.0959  11.00000  0.05    0.22
Q10   1   0.8438  0.2773  0.4491  11.00000  0.05    0.21
Q11   1   0.6609  0.7962  0.1016  11.00000  0.05    0.19
Q12   1   0.8525  0.8468 -0.0320  11.00000  0.05    0.18
Q13   1   0.7237  0.9846 -0.0809  11.00000  0.05    0.17
Q14   1   0.4795  0.8370  0.1780  11.00000  0.05    0.16
Q15   1   0.2168  0.4858  0.2201  11.00000  0.05    0.14
Q16   1   0.9939  0.2622  0.5223  11.00000  0.05    0.14
Q17   1   0.9172  0.1527  0.5766  11.00000  0.05    0.14
Q18   1   0.9752  0.1360  0.5180  11.00000  0.05    0.14
Q19   1   1.0201  0.8601 -0.0094  11.00000  0.05    0.13
Q20   1   0.7787  0.5215  0.3827  11.00000  0.05    0.12
;
_shelx_res_checksum              33498
_shelx_hkl_file
;
  -1   0   0  457.35   11.20
  -2   0   0   50.39    2.30
  -2   0   0   51.89    2.80
  -2   0   0   47.90    2.70
   2   0   0   49.80    2.80
   2   0   0   48.30    2.70
   2   0   0   50.89    2.30
  -3   0   0 2145.99   52.19
  -3   0   0 2284.47   52.29
  -3   0   0 2256.17   51.29
   3   0   0 2150.88   52.29
   3   0   0 2183.28   52.19
   3   0   0 2291.87   51.29
  -4   0   0  882.11   24.00
  -4   0   0  904.51   22.80
  -4   0   0  875.61   24.00
   4   0   0  911.01   24.10
   4   0   0  919.71   22.80
   4   0   0  902.81   24.20
  -5   0   0  314.77   11.50
  -5   0   0  304.47   10.00
  -5   0   0  315.07   12.90
   5   0   0  288.37   11.20
   5   0   0  295.87    9.80
   5   0   0  299.27   11.40
  -6   0   0    0.10    1.80
  -6   0   0   -0.50    1.90
  -6   0   0    1.60    2.30
   6   0   0    3.10    2.60
   6   0   0   -1.00    1.70
   6   0   0    1.10    1.60
  -7   0   0  111.39    7.70
  -7   0   0  107.59    6.40
  -7   0   0  101.39    7.50
   7   0   0  102.39    7.70
   7   0   0  108.69    7.80
   7   0   0   97.89    6.00
  -8   0   0   49.70    5.10
  -8   0   0   59.99    6.60
  -8   0   0   54.89    6.70
   8   0   0   38.80    5.50
   8   0   0   46.70    6.20
   8   0   0   40.70    4.60
  -9   0   0  197.68   12.10
  -9   0   0  225.48   10.50
   9   0   0  229.68   13.10
   8  -1   0  274.67   10.60
   8  -1   0  290.37   13.70
  -8   1   0  290.17   15.50
  -8   1   0  281.27   10.90
  -8   1   0  294.57   13.90
   7  -1   0  295.47   12.90
   7  -1   0  279.17   10.30
   7  -1   0  284.77   13.00
  -7   1   0  313.17   13.30
  -7   1   0  318.57   10.80
  -7   1   0  306.17   13.20
   6  -1   0   93.19    4.80
   6  -1   0   92.39    6.60
   6  -1   0   92.89    6.50
  -6   1   0   96.79    5.20
  -6   1   0   89.19    6.50
  -6   1   0   91.49    6.60
   5  -1   0    4.50    2.20
   5  -1   0    0.60    1.10
   5  -1   0   -1.00    1.50
  -5   1   0   -0.40    1.60
  -5   1   0   -0.40    1.70
   4  -1   0  424.66   11.40
   4  -1   0  421.46   16.70
   4  -1   0  420.56   13.20
  -4   1   0  411.46   13.10
  -4   1   0  396.06   13.10
  -4   1   0  437.36   11.60
   3  -1   0  891.91   23.10
   3  -1   0  902.01   23.20
   3  -1   0  917.41   21.60
  -3   1   0  899.31   23.20
  -3   1   0  895.81   23.20
  -3   1   0  916.61   21.60
   2  -1   0  268.67    8.10
   2  -1   0  271.27    8.00
   2  -1   0  282.87    7.00
  -2   1   0  263.97    8.00
  -2   1   0  285.97    7.00
  -2   1   0  271.87    8.10
   1  -1   0 2695.83   69.79
  -1   1   0 2682.33   69.69
  -1  -1   0  591.64   14.30
  -1  -1   0  585.04   14.20
  -1  -1   0  608.04   14.50
   1   1   0  603.44   14.50
   1   1   0  573.14   14.20
  -2  -1   0  153.28    5.20
  -2  -1   0  147.99    5.30
  -2  -1   0  159.38    5.30
   2   1   0  158.78    5.40
   2   1   0  155.58    5.30
   2   1   0  155.38    5.20
  -3  -1   0  582.24   15.50
  -3  -1   0  580.34   15.80
  -3  -1   0  563.34   15.80
   3   1   0  577.94   15.40
   3   1   0  559.04   15.90
   3   1   0  593.44   16.00
  -4  -1   0  154.08    6.40
  -4  -1   0  154.38    6.90
  -4  -1   0  151.78    6.80
   4   1   0  154.68    7.80
   4   1   0  155.48    6.90
   4   1   0  152.28    6.30
  -5  -1   0  497.95   15.80
  -5  -1   0  494.15   15.70
  -5  -1   0  486.15   14.80
   5   1   0  482.25   15.70
   5   1   0  482.85   14.70
   5   1   0  491.75   16.00
  -6  -1   0    4.70    2.20
  -6  -1   0    2.80    2.30
  -6  -1   0    3.80    2.20
   6   1   0    3.00    1.90
   6   1   0    4.40    2.40
   6   1   0    7.20    2.70
  -7  -1   0  480.05   16.00
  -7  -1   0  471.35   17.20
   7   1   0  462.85   17.40
   7   1   0  473.85   17.80
   7   1   0  463.45   15.70
  -8  -1   0 1421.96   37.90
  -8  -1   0 1480.15   40.20
   8   1   0 1420.36   40.80
   8   1   0 1242.18   45.80
   8  -2   0  344.77   11.50
   8  -2   0  357.16   16.10
  -8   2   0  358.86   11.90
  -8   2   0  372.16   15.80
   7  -2   0   85.39    6.90
   7  -2   0   85.99    4.60
  -7   2   0   77.79    4.70
  -7   2   0   97.19    9.50
   6  -2   0   62.49    5.60
   6  -2   0   65.39    5.80
   6  -2   0   63.29    3.60
  -6   2   0   69.69    5.90
  -6   2   0   70.79    6.00
   5  -2   0  311.17   11.50
   5  -2   0  314.47    9.10
   5  -2   0  322.27   11.80
  -5   2   0  310.57    9.20
  -5   2   0  305.27   11.60
  -5   2   0  319.97   11.80
   4  -2   0  574.84   16.80
   4  -2   0  589.14   16.80
   4  -2   0  593.74   14.40
  -4   2   0  574.14   16.90
  -4   2   0  581.64   14.50
  -4   2   0  553.44   16.80
   3  -2   0 1517.25   34.60
   3  -2   0 1520.75   37.20
   3  -2   0 1510.15   36.80
  -3   2   0 1509.75   36.90
  -3   2   0 1529.55   34.70
   2  -2   0 1186.38   26.30
   2  -2   0 1158.58   27.80
   2  -2   0 1168.68   27.90
  -2   2   0 1130.59   27.90
  -2   2   0 1166.28   26.40
   1  -2   0  559.84   13.30
   1  -2   0  569.54   13.20
   1  -2   0  560.44   13.60
   1  -2   0  551.24   13.50
  -1   2   0  569.84   13.70
   0  -2   0 1702.03   43.60
   0   2   0 1709.63   43.90
  -1  -2   0 5640.04  134.59
   1   2   0 5412.46  134.19
  -2  -2   0  713.03   18.90
  -2  -2   0  753.52   19.40
  -2  -2   0  803.92   19.40
   2   2   0  753.32   19.10
   2   2   0  773.52   19.50
  -3  -2   0  237.68    8.50
  -3  -2   0  228.08    7.90
  -3  -2   0  243.48    8.30
   3   2   0  232.18    8.10
   3   2   0  225.58    8.00
   3   2   0  220.08    8.10
  -4  -2   0  346.27   11.50
  -4  -2   0  356.56   11.70
  -4  -2   0  375.26   11.90
   4   2   0  360.96   11.90
   4   2   0  346.87   11.50
   4   2   0  357.46   12.00
  -5  -2   0  645.84   18.90
  -5  -2   0  633.44   19.10
  -5  -2   0  621.54   19.10
   5   2   0  640.94   19.40
   5   2   0  672.43   19.90
   5   2   0  627.64   18.60
  -6  -2   0  243.08   10.10
  -6  -2   0  235.58   10.40
  -6  -2   0  242.48   10.70
   6   2   0  254.47   11.30
   6   2   0  228.18    9.90
   6   2   0  245.98   10.90
  -7  -2   0   -0.20    1.90
  -7  -2   0   -1.50    2.10
  -7  -2   0   -2.20    1.90
   7   2   0   -3.30    1.90
   7   2   0   -0.40    2.40
  -8  -2   0   55.29    6.20
  -8  -2   0   58.79    5.70
   8   2   0   46.40    6.10
   8   2   0   53.89    6.50
   8  -3   0    0.90    2.40
  -8   3   0   -5.50    3.20
  -8   3   0   -1.10    1.50
  -8   3   0   -1.60    2.50
   7  -3   0   60.29    5.90
  -7   3   0   61.99    6.20
  -7   3   0   62.89    3.50
   6  -3   0  108.29    6.90
   6  -3   0  104.49    4.00
   6  -3   0  117.09    9.70
  -6   3   0   90.69    7.70
  -6   3   0  111.09    4.30
   5  -3   0  493.05   20.10
   5  -3   0  535.65   16.60
   5  -3   0  519.55   12.80
  -5   3   0  528.85   13.00
  -5   3   0  497.95   16.50
  -5   3   0  529.55   16.80
   4  -3   0   18.90    1.20
   4  -3   0   15.20    2.40
  -4   3   0   12.70    2.40
  -4   3   0   18.70    2.90
  -4   3   0   17.50    1.30
   3  -3   0 1978.20   47.40
   3  -3   0 2044.30   47.50
   3  -3   0 2000.50   44.80
  -3   3   0 1969.90   44.80
  -3   3   0 2000.50   47.70
   2  -3   0    4.10    0.80
   2  -3   0    5.00    0.90
   2  -3   0    5.90    1.40
   2  -3   0    4.60    1.20
  -2   3   0    3.80    1.30
   1  -3   0  604.54   14.30
   1  -3   0  604.24   14.30
   1  -3   0  608.04   14.60
   1  -3   0  602.94   14.70
  -1   3   0  537.05   14.70
  -1   3   0  608.14   14.60
   0  -3   0 6793.52  162.58
   0   3   0 7119.89  163.38
  -1  -3   0  833.52   19.10
  -1  -3   0  799.32   19.10
  -1  -3   0  775.02   20.40
   1   3   0  796.22   20.50
   1   3   0  834.52   19.40
   1   3   0  808.32   19.60
  -2  -3   0   27.60    2.40
  -2  -3   0   29.20    3.10
  -2  -3   0   32.50    2.40
   2   3   0   34.80    2.80
   2   3   0   28.20    2.50
   2   3   0   26.70    2.80
  -3  -3   0  658.63   18.30
  -3  -3   0  635.04   17.30
  -3  -3   0  635.44   17.50
   3   3   0  660.63   17.90
   3   3   0  655.43   18.20
  -4  -3   0  405.56   12.90
  -4  -3   0  396.16   13.20
  -4  -3   0  385.36   12.60
   4   3   0  421.86   13.30
   4   3   0  412.66   13.10
   4   3   0  409.26   13.30
  -5  -3   0   40.10    4.10
  -5  -3   0   44.70    4.20
  -5  -3   0   42.70    4.60
   5   3   0   42.50    4.50
   5   3   0   37.30    4.10
  -6  -3   0  152.28    8.30
  -6  -3   0  159.18    8.40
  -6  -3   0  166.78    8.50
   6   3   0  160.08    8.70
   6   3   0  162.98    9.00
  -7  -3   0    1.90    2.50
  -7  -3   0    1.90    2.00
   7   3   0    2.90    2.40
   7   3   0    3.50    2.70
  -8  -3   0   -1.10    2.60
  -8  -3   0    0.40    2.20
   8   3   0   -0.40    3.00
   8   3   0    0.10    2.00
   8  -4   0    6.70    3.80
   7  -4   0  415.46   15.90
  -7   4   0  402.06   15.80
  -7   4   0  415.46   16.20
   6  -4   0   51.09    4.90
  -6   4   0   47.00    5.00
  -6   4   0   48.90    5.20
   5  -4   0   23.20    3.20
   5  -4   0   18.70    2.90
   4  -4   0    2.50    1.60
   4  -4   0   -1.00    1.90
  -4   4   0    1.00    1.50
  -4   4   0    0.90    1.20
   3  -4   0  710.83   16.50
   3  -4   0  714.23   18.90
   3  -4   0  746.13   19.10
  -3   4   0  735.83   19.30
  -3   4   0  701.43   19.40
   2  -4   0  520.45   12.90
   2  -4   0  507.75   13.30
   2  -4   0  511.65   13.30
   2  -4   0  524.55   12.70
  -2   4   0  502.15   13.80
  -2   4   0  508.45   13.70
   1  -4   0  385.46   10.40
   1  -4   0  387.56   10.70
   1  -4   0  382.86    9.40
   1  -4   0  375.36    9.40
  -1   4   0  386.96   10.10
  -1   4   0  372.36   10.20
   0  -4   0   17.50    2.20
   0  -4   0   21.20    2.50
   0   4   0   20.80    1.70
   0   4   0   20.90    1.70
   0   4   0   16.80    2.20
  -1  -4   0   18.90    1.40
  -1  -4   0   20.50    1.40
  -1  -4   0   19.70    2.60
   1   4   0   18.70    2.50
   1   4   0   20.20    1.90
   1   4   0   18.60    1.80
  -2  -4   0  755.92   19.00
  -2  -4   0  768.82   18.90
  -2  -4   0  761.02   20.80
   2   4   0  738.53   19.50
   2   4   0  753.32   19.40
   2   4   0  790.92   20.90
  -3  -4   0  185.98    6.60
  -3  -4   0  174.98    7.60
  -3  -4   0  164.88    6.50
   3   4   0  172.68    7.00
   3   4   0  171.18    6.80
   3   4   0  173.08    7.50
  -4  -4   0  225.28    9.50
  -4  -4   0  209.28    8.30
  -4  -4   0  219.88    8.30
   4   4   0  208.58    8.80
   4   4   0  222.28    9.30
  -5  -4   0  545.15   17.10
  -5  -4   0  525.65   18.00
  -5  -4   0  525.75   17.10
   5   4   0  560.24   18.10
   5   4   0  605.14   18.30
   5   4   0  572.74   17.90
  -6  -4   0  133.59    8.10
  -6  -4   0  132.49    7.50
   6   4   0  134.69    8.00
   6   4   0  130.09    8.00
  -7  -4   0  578.94   19.60
  -7  -4   0  578.04   20.20
   7   4   0  606.84   20.70
   7   4   0  556.54   20.50
  -8  -4   0  170.58   10.10
  -8  -4   0  177.98   10.70
   8   4   0  180.88   11.10
   7  -5   0  166.58    9.30
  -7   5   0  184.78   10.20
  -7   5   0  182.58   10.80
   6  -5   0  208.58    9.60
  -6   5   0  207.78   10.10
   5  -5   0   21.70    3.00
  -5   5   0   28.80    4.00
  -5   5   0   19.90    3.20
   4  -5   0 2632.04   64.59
   4  -5   0 2801.82   64.89
  -4   5   0 2782.42   65.69
  -4   5   0 2750.72   65.39
   3  -5   0  819.32   19.40
   3  -5   0  833.82   19.50
   3  -5   0  848.12   21.40
  -3   5   0  862.51   22.20
  -3   5   0  819.72   22.20
   2  -5   0  555.74   14.10
   2  -5   0  557.64   14.30
   2  -5   0  538.05   13.80
  -2   5   0  540.45   14.90
  -2   5   0  557.24   14.80
   1  -5   0   76.09    4.00
   1  -5   0   76.19    3.80
  -1   5   0   76.49    3.40
  -1   5   0   76.89    3.30
   0  -5   0   23.10    2.50
   0  -5   0   18.20    2.50
   0   5   0   21.40    1.80
   0   5   0   23.40    1.80
  -1  -5   0 1026.00   26.60
   1   5   0  989.90   24.70
   1   5   0 1032.40   26.60
   1   5   0 1031.80   24.70
  -2  -5   0  647.54   18.60
  -2  -5   0  631.54   15.90
  -2  -5   0  634.74   15.80
   2   5   0  635.24   16.80
   2   5   0  619.24   16.90
   2   5   0  624.24   18.50
  -3  -5   0   47.70    4.40
  -3  -5   0   48.20    3.20
   3   5   0   43.80    3.70
   3   5   0   42.90    4.10
   3   5   0   44.10    3.50
  -4  -5   0   23.90    4.10
  -4  -5   0   31.90    3.20
  -4  -5   0   29.10    3.20
   4   5   0   28.90    4.00
   4   5   0   26.40    3.50
   4   5   0   24.40    4.20
  -5  -5   0  579.04   17.60
  -5  -5   0  571.94   19.40
   5   5   0  591.44   18.80
  -6  -5   0   88.59    7.00
  -6  -5   0   90.69    6.30
   6   5   0   95.59    7.00
   6   5   0  100.29    7.00
  -7  -5   0   -3.40    4.00
  -7  -5   0    0.70    2.10
   7   5   0   -2.50    2.70
   7   5   0    1.30    2.30
   6  -6   0  266.97   11.10
  -6   6   0  306.37   14.30
  -6   6   0  279.77   12.10
   5  -6   0   12.40    2.60
  -5   6   0   15.60    3.30
  -5   6   0    9.70    2.50
   4  -6   0    1.70    1.30
  -4   6   0    4.50    1.90
  -4   6   0    3.60    1.90
   3  -6   0  134.29    5.00
   3  -6   0  140.99    5.10
   3  -6   0  134.39    4.40
   3  -6   0  134.99    4.30
  -3   6   0  141.19    6.20
  -3   6   0  134.69    6.20
   2  -6   0    3.50    1.30
   2  -6   0    4.90    1.50
  -2   6   0    3.60    1.50
  -2   6   0    3.70    1.40
   1  -6   0   30.00    3.00
   1  -6   0   30.30    2.90
  -1   6   0   27.80    2.40
  -1   6   0   29.50    2.50
   0  -6   0   65.39    4.40
   0  -6   0   64.89    4.50
   0   6   0   71.19    3.40
   0   6   0   74.79    3.40
  -1  -6   0  543.15   16.70
  -1  -6   0  544.35   16.40
   1   6   0  523.45   14.20
   1   6   0  522.65   14.10
  -2  -6   0  139.69    7.30
  -2  -6   0  128.59    3.90
   2   6   0  145.29    8.00
   2   6   0  127.19    5.70
   2   6   0  127.99    5.60
  -3  -6   0  177.68    6.20
  -3  -6   0  170.88    6.20
  -3  -6   0  189.28    9.20
   3   6   0  187.08    7.50
   3   6   0  168.28    8.50
   3   6   0  180.68    7.50
  -4  -6   0 1073.49   27.50
  -4  -6   0 1056.19   30.60
   4   6   0 1061.49   29.00
   4   6   0 1082.19   28.80
  -5  -6   0    0.30    2.70
  -5  -6   0    4.10    1.60
   5   6   0    3.30    2.10
   5   6   0    2.40    1.80
  -6  -6   0  236.18   10.30
  -6  -6   0  270.07   18.30
   6   6   0  257.87   11.80
  -7  -6   0    0.50    4.80
   7   6   0    3.90    2.20
  -6   7   0   71.69    6.90
  -6   7   0   80.79    8.90
   5  -7   0   31.70    5.40
  -5   7   0   29.10    4.30
  -5   7   0   22.80    3.60
   4  -7   0   67.09    3.90
  -4   7   0   63.59    4.70
  -4   7   0   59.19    4.60
   3  -7   0  316.87    8.60
   3  -7   0  304.57    8.40
  -3   7   0  302.97   10.30
  -3   7   0  304.07   10.50
   2  -7   0    0.90    1.30
  -2   7   0    2.60    1.40
  -2   7   0    2.40    1.40
   1  -7   0  559.94   16.00
   1  -7   0  556.54   16.40
  -1   7   0  546.35   14.80
  -1   7   0  537.95   14.60
   0  -7   0   92.59    5.60
   0  -7   0   98.39    5.90
   0   7   0  101.89    4.30
   0   7   0   98.99    4.20
  -1  -7   0   61.89    5.10
   1   7   0   57.89    3.40
   1   7   0   56.39    3.40
  -2  -7   0  575.04   18.30
  -2  -7   0  542.65   18.60
   2   7   0  550.84   15.70
   2   7   0  554.94   15.50
  -3  -7   0  141.99    8.40
   3   7   0  150.98    6.80
   3   7   0  147.99    6.80
  -4  -7   0  124.69    5.30
  -4  -7   0  142.49    8.90
   4   7   0  136.99    7.10
   4   7   0  121.79    6.80
  -5  -7   0  146.99   10.70
  -5  -7   0  179.48    7.50
   5   7   0  165.08    8.70
   5   7   0  188.98   12.80
  -6  -7   0    1.30    3.00
  -6  -7   0   -3.40    2.10
   6   7   0    2.00    3.10
   6   7   0    0.10    2.00
  -4   8   0  441.76   14.80
  -4   8   0  470.45   14.90
   3  -8   0   -0.80    1.00
   3  -8   0   -2.20    0.80
  -3   8   0   -1.10    1.20
  -3   8   0   -0.30    1.40
   2  -8   0  160.48    6.80
   2  -8   0  171.48    6.70
  -2   8   0  159.08    6.50
  -2   8   0  169.38    6.60
   1  -8   0   28.70    3.70
   1  -8   0   21.00    3.10
  -1   8   0   21.20    2.30
  -1   8   0   23.90    2.30
   0  -8   0   23.70    3.70
   0  -8   0   26.70    3.90
   0   8   0   30.50    2.50
   0   8   0   34.70    2.70
  -1  -8   0   68.79    5.60
   1   8   0   57.09    3.50
   1   8   0   57.19    3.50
  -2  -8   0  183.58    9.60
   2   8   0  191.48    7.30
   2   8   0  186.68    7.30
  -3  -8   0    5.50    3.00
   3   8   0    2.90    1.60
   3   8   0    3.70    1.70
   4   8   0    5.00    2.30
   4   8   0    3.20    1.90
  -5  -8   0   94.39    9.30
   5   8   0  102.99    7.10
  -3   9   0    7.10    2.40
   2  -9   0  114.29    5.80
   2  -9   0  126.79    6.30
  -2   9   0  122.29    5.40
  -2   9   0  125.39    5.40
   1  -9   0   59.79    5.00
   1  -9   0   67.29    5.10
  -1   9   0   67.09    3.50
   0  -9   0  125.79    7.30
   0   9   0  136.99    5.10
   0   9   0  131.49    5.10
  -1  -9   0  217.28   10.60
   1   9   0  220.98    7.40
  -2  -9   0   -5.80    2.00
   2   9   0    1.20    1.40
   2   9   0    2.40    1.90
  -3  -9   0  523.05   19.70
   3   9   0  529.75   16.60
   3   9   0  564.54   18.00
  -1  -9   1   87.29    6.80
   0  -9   1  186.78    9.40
   1  -9   1    1.10    2.20
   2  -9   1   67.89    5.10
   4   8  -1  108.79    6.40
   4   8  -1  102.09    6.30
  -4  -8   1  100.79    8.10
   3   8  -1  263.37    9.70
   3   8  -1  277.27    9.80
  -3  -8   1  284.27   12.90
   2   8  -1  195.08    7.10
   2   8  -1  194.08    7.00
  -2  -8   1  192.88   10.10
   1   8  -1   17.50    1.80
   1   8  -1   16.90    1.70
  -1  -8   1   13.50    3.50
   0  -8   1  189.98    9.10
   1  -8   1  111.09    6.70
   1  -8   1  124.69    6.80
  -2   8  -1  311.07    8.70
  -2   8  -1  305.47    8.70
   2  -8   1  289.67   11.00
   2  -8   1  313.37   10.80
  -3   8  -1   20.50    2.80
   3  -8   1   15.30    2.30
   3  -8   1   15.00    2.50
  -4   8  -1   -0.30    1.50
  -4   8  -1   -0.40    1.30
   5   7  -1   72.19    5.80
   5   7  -1   81.89    6.70
  -5  -7   1   74.59    7.50
  -5  -7   1   75.59    4.70
   4   7  -1  305.47   11.40
   4   7  -1  300.97   11.50
  -4  -7   1  303.67   13.50
   3   7  -1    2.30    1.70
   3   7  -1    4.90    1.80
  -3  -7   1    4.10    2.80
   2   7  -1  441.66   13.10
   2   7  -1  471.85   13.20
  -2  -7   1  479.05   16.60
   1   7  -1   16.30    1.80
   1   7  -1   17.90    1.90
  -1  -7   1   12.30    3.10
  -1  -7   1   21.00    3.80
   0   7  -1  263.77    7.00
   0   7  -1  253.27    7.00
   0  -7   1  263.97   10.40
  -1   7  -1  491.45   12.30
  -1   7  -1  488.45   12.30
   1  -7   1  481.15   15.70
   1  -7   1  509.65   15.40
  -2   7  -1   97.99    4.20
  -2   7  -1  100.29    4.20
   2  -7   1  104.19    5.30
   2  -7   1  101.49    5.50
  -3   7  -1   81.49    4.30
  -3   7  -1   82.59    4.40
   3  -7   1   86.19    4.30
  -4   7  -1   74.69    4.70
  -4   7  -1   78.29    4.70
   4  -7   1   70.99    3.00
   4  -7   1   68.99    3.00
  -5   7  -1  203.68    9.10
  -5   7  -1  213.08    9.10
   6   6  -1  165.08    9.30
   6   6  -1  184.48    9.80
  -6  -6   1  145.19    7.80
  -6  -6   1  169.98   10.40
   5   6  -1    2.20    1.80
   5   6  -1    1.20    2.00
  -5  -6   1    1.10    1.50
  -5  -6   1    1.00    2.60
   4   6  -1  257.27   10.20
   4   6  -1  268.57   10.40
  -4  -6   1  262.37    8.70
  -4  -6   1  273.77   12.00
   3   6  -1   16.50    2.60
   3   6  -1   16.80    2.70
  -3  -6   1   16.30    3.70
  -3  -6   1   17.50    1.70
   2   6  -1  229.18    7.90
   2   6  -1  238.38    7.90
  -2  -6   1  230.38   10.50
   1   6  -1  309.67    8.70
   1   6  -1  305.87    8.80
  -1  -6   1  303.77   11.90
  -1  -6   1  322.07   11.80
   0   6  -1  112.89    3.70
   0   6  -1  108.19    3.70
   0  -6   1  111.79    6.10
   0  -6   1  108.69    6.20
  -1   6  -1   45.20    2.30
  -1   6  -1   50.19    2.30
   1  -6   1   36.90    3.70
   1  -6   1   45.00    3.70
  -2   6  -1   75.49    4.30
  -2   6  -1   89.69    3.80
   2  -6   1   83.09    4.50
   2  -6   1   81.79    4.70
  -3   6  -1  760.32   19.50
  -3   6  -1  726.73   19.60
   3  -6   1  722.33   19.10
   3  -6   1  744.03   19.00
  -4   6  -1  141.39    6.40
  -4   6  -1  119.39    6.10
   4  -6   1  124.59    4.30
   4  -6   1  123.49    4.20
   4  -6   1  120.69    4.70
  -5   6  -1   57.49    4.90
  -5   6  -1   61.49    4.90
   5  -6   1   67.19    4.00
  -6   6  -1  285.87   12.00
  -6   6  -1  304.17   12.10
   6  -6   1  286.37   10.60
   7   5  -1   88.99    7.40
   7   5  -1   83.39    9.70
  -7  -5   1   85.39    7.60
  -7  -5   1   84.59    8.10
   6   5  -1  143.49    8.70
  -6  -5   1  138.29    7.60
  -6  -5   1  155.58    9.60
   5   5  -1  243.18   10.30
   5   5  -1  218.68   10.10
  -5  -5   1  233.98    9.40
  -5  -5   1  230.38   11.00
   4   5  -1  269.47   10.10
   4   5  -1  250.47   10.00
  -4  -5   1  248.98   11.10
  -4  -5   1  245.98    8.90
   3   5  -1 2874.91   71.39
   3   5  -1 2871.41   70.89
   3   5  -1 2993.70   68.79
  -3  -5   1 2996.40   71.09
  -3  -5   1 2842.92   71.29
  -3  -5   1 2877.71   67.19
  -3  -5   1 3005.70   67.49
   2   5  -1  293.77    9.00
   2   5  -1  293.87    9.10
  -2  -5   1  279.97   11.10
  -2  -5   1  288.57    7.30
  -2  -5   1  283.67    7.30
  -2  -5   1  295.37   11.20
   1   5  -1  290.57    8.10
   1   5  -1  281.37    8.10
  -1  -5   1  280.57   10.60
  -1  -5   1  294.57   10.40
   0   5  -1  135.19    4.10
   0   5  -1  141.29    4.10
   0  -5   1  135.59    6.50
   0  -5   1  145.29    6.40
  -1   5  -1   59.79    2.40
  -1   5  -1   58.39    2.50
   1  -5   1   63.09    4.00
   1  -5   1   66.39    4.00
  -2   5  -1  417.96   11.10
  -2   5  -1  396.76   11.20
   2  -5   1  421.16   12.00
   2  -5   1  413.56   12.10
  -3   5  -1   30.30    2.90
  -3   5  -1   32.10    2.70
   3  -5   1   31.30    2.50
   3  -5   1   30.70    2.50
   3  -5   1   34.30    2.10
   3  -5   1   32.10    2.00
  -4   5  -1  242.88    9.00
  -4   5  -1  239.78    9.10
   4  -5   1  249.28    8.20
   4  -5   1  239.18    6.90
   4  -5   1  243.78    8.90
   4  -5   1  244.18    7.00
  -5   5  -1    0.50    1.60
  -5   5  -1    0.60    1.60
   5  -5   1    1.20    2.20
  -6   5  -1  425.06   14.80
  -6   5  -1  385.76   14.60
   6  -5   1  388.36   13.70
  -7   5  -1   89.79    7.20
   7  -5   1  106.29    6.90
   7   4  -1   31.80    5.00
   7   4  -1   50.59    6.80
  -7  -4   1   30.70    4.90
  -7  -4   1   39.90    5.40
   6   4  -1   40.20    5.40
  -6  -4   1   30.80    4.60
  -6  -4   1   37.00    4.30
   5   4  -1  380.06   14.00
  -5  -4   1  379.56   14.30
  -5  -4   1  389.26   13.20
   4   4  -1   86.59    5.90
   4   4  -1   95.99    5.80
   4   4  -1   88.99    5.50
  -4  -4   1   93.79    6.30
  -4  -4   1   92.99    5.10
   3   4  -1   62.89    4.10
   3   4  -1   70.89    4.30
   3   4  -1   63.79    4.80
  -3  -4   1   69.29    3.70
  -3  -4   1   71.09    5.10
   2   4  -1  714.53   20.20
   2   4  -1  698.93   18.40
   2   4  -1  693.33   18.30
  -2  -4   1  729.13   20.30
  -2  -4   1  729.03   17.50
   1   4  -1  111.79    4.00
   1   4  -1  108.49    3.90
  -1  -4   1  116.19    5.70
  -1  -4   1  122.09    5.90
   0   4  -1  194.38    4.90
   0   4  -1  161.08    5.50
   0  -4   1  187.58    6.90
   0  -4   1  192.08    8.00
  -1   4  -1  125.69    3.90
  -1   4  -1  132.39    3.90
   1  -4   1  128.99    5.30
   1  -4   1  138.89    5.60
  -2   4  -1  550.24   14.50
   2  -4   1  590.84   13.40
   2  -4   1  553.14   15.00
   2  -4   1  570.84   14.80
  -3   4  -1  161.38    6.30
   3  -4   1  178.68    5.70
   3  -4   1  166.18    5.70
   3  -4   1  171.38    5.80
  -4   4  -1  924.61   24.70
  -4   4  -1  938.01   22.40
  -4   4  -1  927.21   24.80
   4  -4   1  968.90   24.30
   4  -4   1  911.61   24.00
   4  -4   1  925.01   22.20
  -5   4  -1  986.70   27.20
  -5   4  -1  984.80   23.40
  -5   4  -1 1016.20   27.20
   5  -4   1  999.20   23.30
   5  -4   1  949.11   26.40
  -6   4  -1   60.99    5.40
  -6   4  -1   72.39    2.90
   6  -4   1   68.39    2.70
   6  -4   1   69.39    5.30
  -7   4  -1  282.67   12.50
   7  -4   1  273.67   11.90
  -8   4  -1    0.50    2.40
   8   3  -1   39.10    5.70
   8   3  -1   65.49   12.30
  -8  -3   1   40.70    5.70
   7   3  -1   52.69    6.80
   7   3  -1   43.90    6.10
  -7  -3   1   44.50    5.70
  -7  -3   1   43.40    5.20
   6   3  -1  389.86   14.80
   6   3  -1  368.96   14.80
  -6  -3   1  388.26   14.20
  -6  -3   1  376.36   14.60
   5   3  -1   14.60    3.00
   5   3  -1   18.00    3.30
   5   3  -1   24.20    3.90
  -5  -3   1   18.60    2.80
  -5  -3   1   20.60    3.70
  -5  -3   1   22.20    3.60
   4   3  -1   73.99    5.10
   4   3  -1   71.79    5.00
  -4  -3   1   81.09    4.90
  -4  -3   1   74.29    4.70
  -4  -3   1   79.79    5.50
   3   3  -1  350.86   10.90
   3   3  -1  337.87   11.50
   3   3  -1  347.07   11.00
  -3  -3   1  338.07   11.60
  -3  -3   1  347.57   10.50
  -3  -3   1  336.77   10.60
   2   3  -1  910.31   22.70
   2   3  -1  917.61   22.60
   2   3  -1  905.01   23.90
  -2  -3   1  910.71   24.00
  -2  -3   1  908.31   22.20
   1   3  -1  416.76   10.70
   1   3  -1  416.86   10.80
  -1  -3   1  415.86   12.40
  -1  -3   1  441.76   13.50
  -1  -3   1  417.46   10.00
  -1  -3   1  418.96   10.00
   0   3  -1 1016.10   23.30
   0   3  -1 1042.50   23.30
   0  -3   1 1019.90   25.70
   0  -3   1 1051.99   25.60
  -1   3  -1  176.18    4.90
   1  -3   1  174.38    6.20
   1  -3   1  182.98    6.00
  -2   3  -1  318.07    8.80
  -2   3  -1  309.67    8.80
  -2   3  -1  315.17    8.90
   2  -3   1  307.07    8.20
   2  -3   1  309.87    8.80
   2  -3   1  310.57    8.30
  -3   3  -1 1413.76   34.40
  -3   3  -1 1442.26   33.30
  -3   3  -1 1373.46   34.40
   3  -3   1 1443.46   33.20
   3  -3   1 1399.96   34.00
   3  -3   1 1457.25   34.20
  -4   3  -1   90.99    5.00
  -4   3  -1   86.99    4.90
  -4   3  -1   87.99    3.70
   4  -3   1   93.39    4.80
   4  -3   1   91.69    3.60
   4  -3   1   86.39    4.80
  -5   3  -1  212.28    6.90
  -5   3  -1  228.18    9.30
  -5   3  -1  216.78   10.70
   5  -3   1  221.08    9.00
   5  -3   1  207.98    8.70
   5  -3   1  219.48    6.70
  -6   3  -1  817.62   24.30
  -6   3  -1  788.92   24.00
  -6   3  -1  829.52   20.60
   6  -3   1  817.72   24.60
   6  -3   1  820.22   20.40
  -7   3  -1   16.20    3.40
  -7   3  -1   16.40    3.30
   7  -3   1   12.10    2.70
   7  -3   1   12.20    1.90
  -8   3  -1   79.39    4.40
  -8   3  -1   73.49    6.90
   8  -3   1   68.59    6.50
   8   2  -1  396.26   17.00
   8   2  -1  388.36   16.90
  -8  -2   1  357.26   14.90
  -8  -2   1  356.26   21.10
   7   2  -1   -1.00    2.10
   7   2  -1    3.30    2.90
  -7  -2   1    2.10    2.40
  -7  -2   1    0.90    2.30
   6   2  -1  375.66   14.60
   6   2  -1  359.56   13.40
   6   2  -1  366.16   14.30
  -6  -2   1  376.96   14.20
  -6  -2   1  380.96   14.10
   5   2  -1  104.29    6.10
   5   2  -1  112.19    6.80
   5   2  -1  104.99    6.60
  -5  -2   1  109.09    6.30
  -5  -2   1  111.49    6.50
  -5  -2   1  106.09    6.20
   4   2  -1 1364.26   35.00
   4   2  -1 1376.46   35.10
   4   2  -1 1406.26   35.40
  -4  -2   1 1375.56   34.90
  -4  -2   1 1382.06   34.80
  -4  -2   1 1366.26   35.00
   3   2  -1 1693.13   40.80
   3   2  -1 1720.53   41.10
  -3  -2   1 1665.73   40.40
  -3  -2   1 1642.74   40.50
  -3  -2   1 1672.83   41.00
   2   2  -1    9.00    2.10
   2   2  -1    8.50    1.70
   2   2  -1   11.30    2.00
  -2  -2   1    5.20    1.40
  -2  -2   1    8.00    1.60
  -2  -2   1    8.90    2.10
   1   2  -1 1038.80   25.70
   1   2  -1 1036.80   24.50
   1   2  -1 1067.89   24.50
  -1  -2   1 1049.99   24.20
  -1  -2   1 1047.90   25.70
  -1  -2   1 1035.40   24.20
  -1  -2   1 1042.70   25.90
   0  -2   1  497.75   13.00
   0  -2   1  484.25   12.80
  -1   2  -1  477.35   11.20
  -1   2  -1  459.75   12.10
  -1   2  -1  462.75   11.10
   1  -2   1  470.65   12.10
  -2   2  -1  671.13   16.20
  -2   2  -1  669.83   16.50
  -2   2  -1  656.53   16.50
   2  -2   1  655.83   16.20
   2  -2   1  654.73   16.10
   2  -2   1  642.64   16.20
  -3   2  -1   47.30    3.30
  -3   2  -1   48.90    2.70
   3  -2   1   45.20    3.20
   3  -2   1   48.40    2.50
   3  -2   1   45.20    3.10
  -4   2  -1    3.50    1.50
  -4   2  -1    0.90    1.60
  -4   2  -1    0.90    1.10
   4  -2   1    2.50    1.00
   4  -2   1    1.40    1.20
   4  -2   1    3.30    1.60
  -5   2  -1   -0.50    1.40
  -5   2  -1    1.40    1.70
  -5   2  -1    0.80    1.20
   5  -2   1   -1.50    1.20
   5  -2   1    0.20    1.40
   5  -2   1    0.60    1.10
  -6   2  -1  250.37    8.50
  -6   2  -1  234.48   10.50
  -6   2  -1  246.68   10.70
   6  -2   1  251.17   10.50
   6  -2   1  239.78    8.60
   6  -2   1  247.48   10.60
  -7   2  -1  212.48   10.50
  -7   2  -1  208.78    8.00
  -7   2  -1  205.38   10.40
   7  -2   1  194.78   10.10
   7  -2   1  189.88    7.50
  -8   2  -1  137.59    9.40
  -8   2  -1  116.49    8.60
  -8   2  -1  124.59    6.40
   8  -2   1  114.29    8.10
   8  -2   1  117.19    5.90
   8   1  -1   14.80    4.20
   8   1  -1   16.00    4.40
  -8  -1   1   13.50    3.60
  -8  -1   1   13.30    3.80
   7   1  -1    9.20    2.80
   7   1  -1    8.70    2.90
   7   1  -1   21.30    4.80
  -7  -1   1   16.20    4.00
  -7  -1   1   12.60    3.40
   6   1  -1   39.10    4.10
   6   1  -1   49.99    6.00
  -6  -1   1   31.10    4.30
  -6  -1   1   44.80    5.00
  -6  -1   1   48.50    4.60
   5   1  -1  629.34   19.40
   5   1  -1  610.34   18.10
   5   1  -1  616.44   19.20
  -5  -1   1  624.34   19.20
  -5  -1   1  635.44   19.10
  -5  -1   1  629.34   18.30
   4   1  -1   84.99    4.60
   4   1  -1   82.89    5.20
   4   1  -1   90.79    5.30
  -4  -1   1   94.99    5.30
  -4  -1   1   82.29    4.70
  -4  -1   1   85.19    5.10
   3   1  -1  116.19    5.50
   3   1  -1  115.09    5.10
  -3  -1   1  110.69    5.30
  -3  -1   1  106.99    5.20
  -3  -1   1  116.99    5.20
   2   1  -1  417.76   11.30
   2   1  -1  403.96   11.30
   2   1  -1  399.66   11.20
  -2  -1   1  403.16   11.30
  -2  -1   1  386.46   11.10
  -2  -1   1  390.76   11.00
   1   1  -1 3424.96   88.89
  -1  -1   1 3476.25   89.09
   0  -1   1 1101.69   28.10
  -1   1  -1 1553.84   40.30
   1  -1   1 1374.06   39.80
  -2   1  -1 1994.20   46.40
   2  -1   1 1990.50   46.80
   2  -1   1 2039.90   46.40
   2  -1   1 2113.09   47.30
  -3   1  -1  735.63   19.20
  -3   1  -1  748.73   18.20
  -3   1  -1  720.43   19.00
   3  -1   1  715.53   19.00
   3  -1   1  734.93   19.10
   3  -1   1  730.33   18.00
  -4   1  -1 4648.94  107.29
  -4   1  -1 4557.34  107.39
   4  -1   1 4765.02  105.59
   4  -1   1 4595.84  107.19
   4  -1   1 4764.72  107.49
  -5   1  -1  219.38    9.20
  -5   1  -1  216.68    9.10
  -5   1  -1  226.68    7.90
   5  -1   1  233.88    9.40
   5  -1   1  228.28    7.60
   5  -1   1  226.08    9.10
  -6   1  -1  174.98    7.20
  -6   1  -1  167.08    8.60
  -6   1  -1  171.18    8.70
   6  -1   1  175.68    8.70
   6  -1   1  180.08    8.90
   6  -1   1  169.68    6.90
  -7   1  -1  242.78    9.60
  -7   1  -1  263.67   11.90
  -7   1  -1  256.47   11.80
   7  -1   1  254.17   11.70
   7  -1   1  273.07   12.10
   7  -1   1  249.38    9.40
  -8   1  -1    7.10    3.10
  -8   1  -1    5.50    3.20
  -8   1  -1    8.50    2.80
   8  -1   1    8.60    2.30
   8  -1   1   12.30    3.40
  -9   1  -1   72.89    6.10
  -9   1  -1   65.59    7.30
   9  -1   1   51.59    6.20
   9  -1   1   70.39    7.20
   8   0  -1    1.70    2.90
   8   0  -1    5.10    3.10
  -8   0   1    7.40    3.10
  -8   0   1    5.30    3.20
   7   0  -1 1179.78   34.50
   7   0  -1 1194.68   34.90
  -7   0   1 1211.98   32.00
  -7   0   1 1190.18   34.40
   6   0  -1  210.08    8.60
   6   0  -1  217.88   10.40
   6   0  -1  221.68   10.30
  -6   0   1  213.18   10.30
  -6   0   1  212.38    8.70
  -6   0   1  222.58   10.20
   5   0  -1  289.87    9.90
   5   0  -1  297.37   11.50
   5   0  -1  287.17   11.30
  -5   0   1  293.17   11.30
  -5   0   1  291.97   10.00
  -5   0   1  282.37   11.20
   4   0  -1  355.26   12.00
   4   0  -1  346.87   10.70
   4   0  -1  335.27   11.70
  -4   0   1  354.36   10.70
  -4   0   1  345.77   11.80
  -4   0   1  356.76   11.90
   3   0  -1  203.08    6.90
   3   0  -1  213.08    7.80
   3   0  -1  203.08    7.80
  -3   0   1  206.98    7.80
  -3   0   1  222.28    7.90
  -3   0   1  206.88    6.90
   2   0  -1  107.19    4.40
   2   0  -1  103.69    4.40
   2   0  -1  103.89    3.90
  -2   0   1   93.39    4.20
  -2   0   1  104.89    4.40
  -2   0   1  107.89    4.00
   1   0  -1 2139.19   59.89
  -1   0   1 2106.79   60.09
   0   0  -1   -0.20    0.20
   0   0  -1    0.00    0.20
   0   0   1   -0.10    0.20
   0   0   1   -0.20    0.30
   0   0   1    0.10    0.20
  -1   0  -1  323.57    8.20
  -1   0  -1  329.27    8.30
   1   0   1  334.97    8.30
   1   0   1  326.87    8.20
   1   0   1  314.17    8.20
  -2   0  -1 1536.15   35.40
  -2   0  -1 1560.54   35.90
  -2   0  -1 1495.85   35.90
   2   0   1 1471.45   35.80
   2   0   1 1556.74   35.90
   2   0   1 1570.34   35.40
  -3   0  -1 1819.42   41.40
  -3   0  -1 1738.93   42.10
  -3   0  -1 1777.52   42.10
   3   0   1 1688.33   41.90
   3   0   1 1787.72   42.30
   3   0   1 1793.32   41.30
  -4   0  -1    3.40    1.80
  -4   0  -1    2.50    1.50
  -4   0  -1    2.90    1.60
   4   0   1    2.50    1.80
   4   0   1    2.20    1.30
   4   0   1    3.90    1.70
  -5   0  -1  229.18    9.30
  -5   0  -1  228.08    8.30
  -5   0  -1  227.28    9.40
   5   0   1  231.38    8.10
   5   0   1  242.88    9.50
   5   0   1  223.18    9.40
  -6   0  -1  277.57   10.20
  -6   0  -1  291.97   11.70
   6   0   1  288.87   11.90
   6   0   1  275.27   11.50
   6   0   1  298.67   10.20
  -7   0  -1  303.57   11.40
  -7   0  -1  300.77   13.00
  -7   0  -1  312.27   13.10
   7   0   1  320.27   13.20
   7   0   1  296.77   11.10
   7   0   1  302.57   13.10
  -8   0  -1   15.00    4.50
  -8   0  -1   13.10    3.60
  -8   0  -1    7.80    3.20
   8   0   1   13.50    3.40
   8   0   1   11.10    3.00
  -9   0  -1   49.50    5.70
  -9   0  -1   60.29    7.70
  -9   0  -1   62.49    9.20
   9   0   1   40.80    5.80
   8  -1  -1   66.49    7.00
  -8   1   1   59.39    6.90
  -8   1   1   61.99    5.20
  -8   1   1   64.89    7.10
   7  -1  -1   10.80    3.10
   7  -1  -1   12.50    3.30
   7  -1  -1    9.70    2.30
  -7   1   1    8.20    2.50
  -7   1   1    7.40    3.20
   6  -1  -1  286.07    9.90
   6  -1  -1  305.57   12.40
   6  -1  -1  314.67   12.60
  -6   1   1  301.87   10.10
  -6   1   1  260.67   11.80
   5  -1  -1  453.25   15.20
   5  -1  -1  427.06   14.80
   5  -1  -1  440.66   14.60
  -5   1   1  436.06   14.90
  -5   1   1  452.65   12.90
   4  -1  -1  125.29    6.40
   4  -1  -1  125.09    4.80
   4  -1  -1  116.89    6.00
  -4   1   1  122.89    4.80
  -4   1   1  115.99    6.20
  -4   1   1  123.79    6.30
   3  -1  -1   10.00    1.50
   3  -1  -1    9.10    2.10
   3  -1  -1    8.90    2.00
  -3   1   1   12.50    1.70
  -3   1   1    7.70    2.00
   2  -1  -1 1055.49   26.50
   2  -1  -1 1085.29   26.60
  -2   1   1 1124.09   26.70
  -2   1   1 1084.89   25.20
  -1  -1  -1 4448.06  114.49
   1   1   1 4839.52  115.59
  -2  -1  -1  905.81   22.00
  -2  -1  -1  893.21   21.80
  -2  -1  -1  883.91   22.10
   2   1   1  910.01   22.20
   2   1   1  934.01   21.90
   2   1   1  889.21   22.00
  -3  -1  -1 1389.66   32.90
  -3  -1  -1 1413.56   33.30
  -3  -1  -1 1337.87   33.30
   3   1   1 1304.57   33.30
   3   1   1 1407.16   32.80
   3   1   1 1335.67   33.20
  -4  -1  -1   56.99    3.70
  -4  -1  -1   56.39    4.20
  -4  -1  -1   58.19    4.30
   4   1   1   55.69    3.50
   4   1   1   50.09    4.20
   4   1   1   57.09    4.20
  -5  -1  -1  200.48    8.00
  -5  -1  -1  207.08    8.70
   5   1   1  168.78   12.10
   5   1   1  207.18    8.70
   5   1   1  210.68    7.90
  -6  -1  -1  151.68    8.10
  -6  -1  -1  149.88    8.20
  -6  -1  -1  150.18    7.40
   6   1   1  155.68    8.50
   6   1   1  157.18    8.20
   6   1   1  143.49    7.00
  -7  -1  -1  656.53   21.90
  -7  -1  -1  664.43   20.40
  -7  -1  -1  690.63   21.90
   7   1   1  696.23   22.20
   7   1   1  625.14   19.90
   7   1   1  697.43   22.40
  -8  -1  -1   10.60    4.00
  -8  -1  -1    6.30    2.90
  -8  -1  -1   13.60    3.30
   8   1   1    5.30    2.70
   8   1   1   11.50    3.60
  -9  -1  -1   81.99    7.70
  -9  -1  -1   70.09    6.40
   9   1   1   70.89    7.50
   8  -2  -1    9.80    2.90
  -8   2   1   11.20    4.10
  -8   2   1   14.20    2.80
  -8   2   1    8.00    3.40
  -8   2   1   13.80    2.70
   7  -2  -1   27.80    5.00
  -7   2   1   24.10    4.60
  -7   2   1   15.40    2.50
  -7   2   1   15.80    3.70
  -7   2   1   16.60    2.60
   6  -2  -1  245.48   11.90
   6  -2  -1  229.48   10.80
  -6   2   1  240.88    8.20
  -6   2   1  234.58   10.90
   5  -2  -1  142.19    7.50
   5  -2  -1  144.09    5.30
   5  -2  -1  142.39    7.60
  -5   2   1  145.49    5.40
  -5   2   1  151.38    7.80
   4  -2  -1 1254.17   32.60
   4  -2  -1 1258.87   29.70
   4  -2  -1 1270.87   32.80
  -4   2   1 1273.87   32.80
  -4   2   1 1269.37   29.70
   3  -2  -1  612.54   17.10
   3  -2  -1  609.14   17.00
  -3   2   1  613.94   14.50
  -3   2   1  606.24   17.50
  -3   2   1  612.04   14.60
   2  -2  -1  632.94   16.80
   2  -2  -1  645.44   16.80
  -2   2   1  637.24   16.90
  -2   2   1  645.34   16.70
   1  -2  -1 3358.46   90.79
   0  -2  -1  235.48    6.20
   0  -2  -1  240.58    6.60
   0  -2  -1  241.88    6.60
   0   2   1  230.98    6.20
   0   2   1  226.58    6.50
  -1  -2  -1 2798.82   76.29
   2   2   1 4589.64  122.79
  -3  -2  -1  174.18    6.70
  -3  -2  -1  188.18    6.90
  -3  -2  -1  171.88    6.80
   3   2   1  171.28    6.60
   3   2   1  178.18    7.00
   3   2   1  182.58    6.90
  -4  -2  -1  288.47   10.10
  -4  -2  -1  277.17    9.70
  -4  -2  -1  288.77   10.00
   4   2   1  275.37    9.90
   4   2   1  284.47    9.70
   4   2   1  290.07   10.20
  -5  -2  -1   17.60    3.20
  -5  -2  -1    7.60    2.30
  -5  -2  -1   22.10    3.50
   5   2   1   11.00    2.40
   5   2   1   11.00    2.40
   5   2   1   13.70    2.50
  -6  -2  -1  478.05   16.40
  -6  -2  -1  482.25   15.80
  -6  -2  -1  478.25   16.40
   6   2   1  497.35   17.00
   6   2   1  483.25   16.60
   6   2   1  481.65   16.90
  -7  -2  -1  326.47   13.50
  -7  -2  -1  337.07   13.00
  -7  -2  -1  332.07   13.90
   7   2   1  325.67   14.00
   7   2   1  329.07   17.10
   7   2   1  324.87   13.80
  -8  -2  -1   74.09    6.30
  -8  -2  -1   76.39    7.00
   8   2   1   82.69    7.50
   8   2   1   83.79    7.40
  -9  -2  -1   22.50    4.90
  -9  -2  -1   21.60    4.20
   9   2   1   18.00    4.50
   9   2   1   22.30    9.10
   8  -3  -1  234.28   12.20
  -8   3   1  188.18   11.20
  -8   3   1  203.68   12.10
  -8   3   1  206.28    7.20
   7  -3  -1  612.54   21.40
  -7   3   1  662.93   22.00
  -7   3   1  640.14   21.50
  -7   3   1  617.64   16.20
  -7   3   1  617.74   16.20
   6  -3  -1    3.20    2.20
   6  -3  -1    5.00    2.60
  -6   3   1    3.80    1.20
  -6   3   1    6.70    2.70
  -6   3   1    6.20    2.60
  -6   3   1    3.40    1.10
   5  -3  -1  171.28    8.40
   5  -3  -1  165.98    8.20
  -5   3   1  172.98    5.10
  -5   3   1  174.68    8.30
  -5   3   1  174.78    5.00
  -5   3   1  177.98    8.70
   4  -3  -1  194.08    8.30
   4  -3  -1  203.98    8.50
  -4   3   1  214.18    8.70
  -4   3   1  201.48    8.30
   3  -3  -1  422.26   12.70
   3  -3  -1  419.16   12.70
  -3   3   1  423.86   12.70
  -3   3   1  405.56   12.80
   2  -3  -1   90.79    4.60
   2  -3  -1   95.29    4.50
  -2   3   1   99.99    4.70
   1  -3  -1  127.69    4.60
   1  -3  -1  123.19    3.60
  -1   3   1  128.39    4.70
  -1   3   1  123.39    4.70
  -1   3   1  124.49    3.60
   0  -3  -1    1.70    0.80
   0  -3  -1    1.30    0.80
   0  -3  -1    0.80    0.70
   0   3   1    0.60    0.70
   0   3   1    1.30    0.90
   0   3   1    1.20    0.90
  -1  -3  -1    6.10    1.50
  -1  -3  -1   10.00    1.40
  -1  -3  -1    6.80    1.20
   1   3   1    7.00    1.50
   1   3   1    5.90    1.30
   1   3   1    7.10    1.30
  -2  -3  -1 1152.78   27.70
  -2  -3  -1 1119.89   27.90
  -2  -3  -1 1199.78   29.80
   2   3   1 1136.59   29.20
   2   3   1 1124.59   28.30
  -3  -3  -1  807.02   20.60
  -3  -3  -1  783.02   20.60
  -3  -3  -1  808.02   21.10
   3   3   1  664.13   24.00
   3   3   1  827.92   21.10
   3   3   1  794.82   21.00
  -4  -3  -1  674.93   19.50
  -4  -3  -1  725.13   20.10
  -4  -3  -1  715.13   19.90
   4   3   1  713.53   20.20
   4   3   1  700.33   19.80
   4   3   1  713.63   19.90
  -5  -3  -1   72.79    5.30
  -5  -3  -1   83.49    5.50
  -5  -3  -1   76.49    5.30
   5   3   1   79.59    5.50
   5   3   1   78.39    5.20
   5   3   1   77.69    5.60
  -6  -3  -1  291.47   13.50
  -6  -3  -1  322.27   12.30
   6   3   1  319.37   12.90
   6   3   1  279.67   11.60
   6   3   1  325.77   12.70
  -7  -3  -1   71.19    6.20
  -7  -3  -1   77.29    6.30
   7   3   1   77.49    6.60
   7   3   1   79.89    6.80
  -8  -3  -1  188.38   11.00
  -8  -3  -1  177.68   10.00
   8   3   1  159.38   10.00
   8   3   1  161.08   10.30
  -8   4   1   18.70    4.50
   7  -4  -1   -1.00    1.60
  -7   4   1    0.20    2.20
  -7   4   1   -3.20    2.30
   6  -4  -1  137.89    8.00
  -6   4   1  124.39    8.00
  -6   4   1  126.89    7.80
   5  -4  -1  122.09    6.90
   5  -4  -1  121.39    6.90
  -5   4   1  111.19    6.70
  -5   4   1  112.69    7.00
   4  -4  -1  167.98    7.50
   4  -4  -1  169.58    7.70
  -4   4   1  164.68    7.70
   3  -4  -1  200.78    7.60
   3  -4  -1  200.78    7.70
  -3   4   1  197.78    7.90
   2  -4  -1 1253.57   30.30
   2  -4  -1 1247.28   30.20
  -2   4   1 1245.38   30.40
  -2   4   1 1199.58   30.50
   1  -4  -1   16.60    1.60
   1  -4  -1   15.00    1.80
  -1   4   1   16.70    2.00
  -1   4   1   20.70    2.10
   0  -4  -1 3821.42  101.89
   0   4   1 3783.12  102.09
  -1  -4  -1  495.45   18.10
  -1  -4  -1  617.54   15.00
  -1  -4  -1  607.84   15.10
   1   4   1  611.64   16.00
   1   4   1  606.94   15.30
   1   4   1  592.54   15.40
  -2  -4  -1  432.96   13.10
  -2  -4  -1  433.76   12.00
  -2  -4  -1  433.86   12.10
   2   4   1  418.26   12.30
   2   4   1  447.76   13.10
   2   4   1  430.96   12.30
  -3  -4  -1  263.27    9.70
  -3  -4  -1  265.47    8.90
  -3  -4  -1  276.87    9.10
   3   4   1  288.47    9.90
   3   4   1  260.87    9.30
  -4  -4  -1   21.30    3.30
  -4  -4  -1   19.40    4.10
  -4  -4  -1   20.60    2.90
   4   4   1   22.00    3.30
   4   4   1   24.80    3.40
  -5  -4  -1  270.87   10.20
  -5  -4  -1  262.47   10.90
  -5  -4  -1  256.37   10.40
   5   4   1  238.48   10.40
   5   4   1  255.57   10.50
   5   4   1  259.17   10.60
  -6  -4  -1   43.20    5.00
  -6  -4  -1   48.10    4.90
   6   4   1   45.90    5.00
  -7  -4  -1  134.39    8.10
  -7  -4  -1  120.69    8.00
   7   4   1  117.49    8.30
   7   4   1  135.59    8.70
  -8  -4  -1   -4.50    1.60
   8   4   1    1.30    2.10
   8   4   1   -0.60    3.50
   7  -5  -1    6.50    2.80
  -7   5   1    3.30    3.50
  -7   5   1    7.10    3.30
   6  -5  -1   56.59    5.20
  -6   5   1   47.60    5.50
  -6   5   1   44.50    5.10
   5  -5  -1  955.50   27.20
  -5   5   1  969.70   27.90
  -5   5   1  985.20   28.10
   4  -5  -1  361.06   12.30
   4  -5  -1  380.46   12.60
   3  -5  -1   72.89    4.30
  -3   5   1   73.49    4.50
  -3   5   1   63.39    4.50
   2  -5  -1  449.95   11.10
   2  -5  -1  443.66   12.70
   2  -5  -1  466.15   12.90
   2  -5  -1  466.75   11.20
  -2   5   1  450.75   13.20
  -2   5   1  460.15   13.50
   1  -5  -1  316.37    9.00
   1  -5  -1  315.77    9.00
   1  -5  -1  343.47    9.30
   1  -5  -1  323.97    9.10
  -1   5   1  310.57    9.50
  -1   5   1  297.07    9.60
   0  -5  -1   38.40    2.20
   0  -5  -1   40.80    2.90
   0  -5  -1   40.30    2.30
   0   5   1   36.80    2.60
   0   5   1   37.60    2.70
   0   5   1   35.70    2.60
  -1  -5  -1  303.37    8.50
  -1  -5  -1  303.17    8.70
  -1  -5  -1  318.67   10.20
   1   5   1  307.57    9.40
   1   5   1  306.17   10.00
   1   5   1  304.07    9.20
  -2  -5  -1 1037.10   24.50
  -2  -5  -1  970.30   24.40
  -2  -5  -1  975.40   26.10
   2   5   1  952.50   25.10
   2   5   1  982.70   25.00
   2   5   1 1012.90   26.20
  -3  -5  -1  151.18    6.30
  -3  -5  -1  167.08    7.60
  -3  -5  -1  160.68    6.30
   3   5   1  161.28    6.80
   3   5   1  158.88    6.90
   3   5   1  169.08    7.50
  -4  -5  -1    1.70    1.60
  -4  -5  -1    0.40    1.30
  -4  -5  -1   -1.90    1.90
   4   5   1    2.60    1.90
   4   5   1    0.20    0.80
   4   5   1   -0.70    1.30
  -5  -5  -1  101.39    6.00
  -5  -5  -1   95.19    6.70
   5   5   1  105.59    7.60
   5   5   1   99.29    6.60
  -6  -5  -1  158.18   10.60
  -6  -5  -1  220.68   10.70
   6   5   1  196.88   10.10
   6   5   1  206.38   10.00
  -7  -5  -1   65.59    5.80
  -7  -5  -1   79.49    7.10
   7   5   1   82.49    7.00
   7   5   1   69.09    6.70
   8   5   1  173.08   13.20
   6  -6  -1  172.78    9.00
  -6   6   1  168.48    9.50
   5  -6  -1  469.35   15.70
  -5   6   1  463.35   16.40
  -5   6   1  487.35   16.30
   4  -6  -1   15.50    2.80
  -4   6   1   14.20    3.00
  -4   6   1   10.70    2.60
   3  -6  -1  424.36   12.90
  -3   6   1  442.26   13.70
  -3   6   1  429.46   13.90
   2  -6  -1   43.80    2.40
   2  -6  -1   50.29    4.20
   2  -6  -1   46.90    3.00
   2  -6  -1   42.60    2.50
  -2   6   1   45.10    3.50
  -2   6   1   47.10    3.70
   1  -6  -1  676.13   17.10
   1  -6  -1  698.43   17.90
   1  -6  -1  690.83   18.10
   1  -6  -1  683.73   17.10
  -1   6   1  682.03   18.40
  -1   6   1  701.33   18.30
   0  -6  -1   43.40    3.40
   0  -6  -1   50.79    2.40
   0   6   1   46.10    3.20
   0   6   1   48.80    3.50
   0   6   1   48.90    3.20
  -1  -6  -1   74.89    4.70
  -1  -6  -1   68.29    3.00
  -1  -6  -1   70.19    3.00
   1   6   1   63.29    3.70
   1   6   1   64.49    3.90
   1   6   1   67.39    4.40
  -2  -6  -1  105.29    6.00
   2   6   1   98.19    5.00
   2   6   1  103.19    5.10
   2   6   1  101.99    5.90
  -3  -6  -1 2281.07   56.29
  -3  -6  -1 2219.38   53.69
  -3  -6  -1 2336.67   53.59
   3   6   1 2258.57   54.59
   3   6   1 2265.17   56.29
  -4  -6  -1  149.29    8.30
  -4  -6  -1  158.48    6.80
   4   6   1  151.18    7.60
   4   6   1  152.08    7.50
  -5  -6  -1   23.50    4.10
  -5  -6  -1   24.70    3.50
   5   6   1   25.30    4.10
   5   6   1   27.00    4.10
  -6  -6  -1  313.97   14.00
  -6  -6  -1  306.37   12.10
   6   6   1  328.37   13.70
   6   6   1  324.87   14.90
  -7  -6  -1    1.10    2.00
  -7  -6  -1    0.40    2.70
   7   6   1   -0.70    3.00
  -6   7   1    8.20    2.90
  -6   7   1    9.30    5.60
   5  -7  -1  473.05   15.60
  -5   7   1  494.55   16.90
  -5   7   1  485.25   21.20
   4  -7  -1   43.70    3.60
  -4   7   1   35.30    4.10
  -4   7   1   41.80    4.40
   3  -7  -1  127.09    5.40
  -3   7   1  127.69    6.60
  -3   7   1  132.59    6.50
   2  -7  -1  482.65   12.60
   2  -7  -1  479.15   12.80
   2  -7  -1  487.15   13.00
  -2   7   1  488.75   14.60
   1  -7  -1    7.80    2.00
   1  -7  -1    3.50    1.60
  -1   7   1    5.40    1.60
  -1   7   1    3.60    1.60
   0  -7  -1  111.79    5.70
   0  -7  -1  113.69    5.90
   0   7   1  104.99    5.10
   0   7   1  109.59    5.00
  -1  -7  -1    5.60    2.40
   1   7   1    4.20    1.50
   1   7   1    2.20    1.50
   1   7   1    5.80    2.20
  -2  -7  -1  349.77   12.60
  -2  -7  -1  338.37    9.00
  -2  -7  -1  327.67    9.00
   2   7   1  313.17   11.30
   2   7   1  313.47   10.80
   2   7   1  309.07   12.00
  -3  -7  -1  370.26   10.90
  -3  -7  -1  394.26   14.30
   3   7   1  369.56   12.40
   3   7   1  361.16   12.50
  -4  -7  -1   70.09    4.30
  -4  -7  -1   69.59    6.10
   4   7   1   73.79    5.30
   4   7   1   75.59    5.50
  -5  -7  -1   69.19    4.90
  -5  -7  -1   63.09    6.20
   5   7   1   61.09    5.40
   5   7   1   67.59    5.70
  -6  -7  -1  132.99    9.10
  -6  -7  -1  127.69    8.60
   6   7   1  134.29    8.50
   6   7   1  136.89    8.50
   5  -8  -1  140.49    9.50
  -4   8   1    8.70    2.60
  -4   8   1   10.10    2.70
  -3   8   1    1.60    1.50
  -3   8   1   -1.60    1.30
   2  -8  -1  345.57   11.60
   2  -8  -1  379.06   10.90
  -2   8   1  382.46   12.20
  -2   8   1  376.96   12.30
   1  -8  -1    8.60    2.30
   1  -8  -1   10.20    2.20
  -1   8   1   10.40    2.20
  -1   8   1    9.50    2.10
   0  -8  -1  269.57   10.50
   0  -8  -1  270.57   10.10
   0   8   1  257.87    9.10
   0   8   1  258.87    8.90
  -1  -8  -1   14.80    3.20
  -1  -8  -1   13.60    3.20
   1   8   1   18.40    2.70
   1   8   1   14.40    2.40
  -2  -8  -1   59.49    5.50
   2   8   1   56.99    4.20
   2   8   1   61.29    4.30
  -3  -8  -1  251.87   11.60
   3   8   1  267.27   10.00
   3   8   1  251.37   10.00
  -4  -8  -1  182.78    7.50
  -4  -8  -1  213.68   10.90
   4   8   1  199.88    9.60
   4   8   1  198.18    9.40
  -5  -8  -1   12.70    3.70
  -5  -8  -1    5.60    3.00
   5   8   1   12.90    3.10
   5   8   1    9.90    2.70
  -3   9   1   20.80    3.30
  -3   9   1   21.80    3.20
   2  -9  -1   55.59    5.30
  -2   9   1   62.09    4.50
  -2   9   1   54.09    4.20
   1  -9  -1  108.09    5.80
   1  -9  -1  114.59    6.10
  -1   9   1  113.69    5.60
   0  -9  -1   78.99    5.60
   0  -9  -1   69.29    5.60
   0   9   1   75.49    4.40
   0   9   1   75.49    4.50
  -1  -9  -1   40.70    4.70
   1   9   1   36.70    3.40
   1   9   1   38.20    3.50
  -2  -9  -1   53.79    5.40
   2   9   1   51.59    4.10
   2   9   1   53.19    4.30
   3   9   1  330.27   11.80
   3   9   1  321.07   11.80
  -4  -9  -1   -0.80    2.40
   4   9   1   -2.40    2.10
   3   8  -2   44.60    3.50
   3   8  -2   48.60    3.80
  -3  -8   2   51.69    6.00
   2   8  -2  110.49    4.40
   2   8  -2  108.79    6.20
  -2  -8   2  108.99    7.80
  -1  -8   2  125.29    8.00
   0  -8   2  316.37   12.80
   1  -8   2   -0.60    2.10
   2  -8   2  241.78    9.90
   2  -8   2  237.78   10.20
  -3   8  -2  654.83   15.90
  -3   8  -2  601.74   14.80
   3  -8   2  582.34   17.50
   3  -8   2  555.54   19.90
   4   7  -2   57.19    4.70
   4   7  -2   59.59    4.70
  -4  -7   2   46.70    6.40
   3   7  -2   62.19    4.20
   3   7  -2   67.99    4.40
  -3  -7   2   67.79    6.40
   2   7  -2  178.08    6.40
   2   7  -2  183.68    6.40
  -2  -7   2  160.08    9.30
  -1  -7   2   91.89    6.60
   0  -7   2   -0.20    2.00
   0  -7   2   -0.90    2.10
   1  -7   2   77.19    5.50
   1  -7   2   80.39    6.00
   2  -7   2    0.10    1.80
   2  -7   2   -1.70    1.60
  -3   7  -2  162.68    5.70
  -3   7  -2  162.98    5.70
   3  -7   2  164.98    7.10
   3  -7   2  153.18    7.10
  -4   7  -2   93.19    4.80
  -4   7  -2   85.99    4.70
   4  -7   2   84.39    4.70
   4  -7   2   90.29    4.60
  -5   7  -2   27.30    3.50
  -5   7  -2   29.60    3.50
   5  -7   2   27.50    2.10
   5  -7   2   24.80    2.30
   5   6  -2  188.28    9.50
   5   6  -2  194.48    9.60
  -5  -6   2  206.98    8.20
  -5  -6   2  197.68   10.90
   4   6  -2  244.58    9.90
   4   6  -2  251.87    9.90
  -4  -6   2  252.97   12.10
  -4  -6   2  212.08    9.20
   3   6  -2  152.78    6.80
   3   6  -2  161.98    6.90
  -3  -6   2  167.28    9.30
   2   6  -2   35.30    2.80
   2   6  -2   31.90    2.70
  -2  -6   2   31.60    4.50
   1   6  -2  660.73   16.50
   1   6  -2  685.43   16.50
  -1  -6   2  680.03   21.40
   0  -6   2   75.79    5.60
   1  -6   2  739.13   21.80
   1  -6   2  746.93   21.20
  -2   6  -2  123.89    4.00
  -2   6  -2  121.49    4.00
   2  -6   2  124.79    6.20
   2  -6   2  126.09    6.40
  -3   6  -2  152.48    5.70
  -3   6  -2  150.38    5.60
   3  -6   2  162.68    6.70
   3  -6   2  156.58    6.80
  -4   6  -2  105.89    5.30
  -4   6  -2  104.69    5.30
   4  -6   2  111.09    5.00
  -5   6  -2    7.90    2.20
  -5   6  -2   10.30    2.50
   5  -6   2    7.20    1.60
   5  -6   2    8.60    1.60
  -6   6  -2   79.59    6.10
  -6   6  -2   79.09    5.80
   6  -6   2   91.99    4.90
   6   5  -2    1.40    2.00
   6   5  -2    1.20    2.20
  -6  -5   2    1.50    3.20
  -6  -5   2   -0.30    1.90
   5   5  -2    0.20    1.80
   5   5  -2    0.70    1.80
  -5  -5   2   -0.70    1.50
  -5  -5   2    3.40    2.90
   4   5  -2  331.27   11.80
   4   5  -2  320.47   11.90
  -4  -5   2  323.97   10.50
  -4  -5   2  330.67   13.60
   3   5  -2   31.60    3.30
   3   5  -2   23.30    3.00
  -3  -5   2   27.80    2.20
  -3  -5   2   29.00    2.30
  -3  -5   2   30.50    4.60
   2   5  -2  214.98    7.80
   2   5  -2  228.08    7.50
  -2  -5   2  200.18    9.60
  -2  -5   2  223.18    9.80
   1   5  -2  554.24   14.20
   1   5  -2  577.34   14.20
  -1  -5   2  572.44   17.60
  -1  -5   2  558.44   17.90
   0  -5   2  387.56   12.80
   0  -5   2  371.36   13.00
   1  -5   2    1.70    1.70
   1  -5   2    2.60    1.80
  -2   5  -2  951.50   22.50
  -2   5  -2  921.71   22.50
   2  -5   2  985.30   25.30
   2  -5   2  943.11   24.80
   3  -5   2  751.82   19.80
   3  -5   2  732.23   19.90
  -4   5  -2  381.66   12.20
   4  -5   2  409.06   10.70
   4  -5   2  390.96   10.40
   4  -5   2  399.46   11.70
  -5   5  -2    4.40    1.90
   5  -5   2    1.90    1.30
   5  -5   2    5.90    1.60
  -6   5  -2   38.50    4.40
   6  -5   2   41.30    3.80
   6  -5   2   38.90    2.40
  -7   5  -2  195.98    9.90
   7  -5   2  184.48    8.80
   7   4  -2    7.70    4.00
   7   4  -2    7.40    2.80
  -7  -4   2    8.20    2.70
  -7  -4   2   13.20    4.20
   6   4  -2   26.80    4.10
   6   4  -2   36.00    5.00
  -6  -4   2   40.20    5.70
  -6  -4   2   37.90    4.50
   5   4  -2  298.77   12.30
  -5  -4   2  306.67   11.40
  -5  -4   2  319.37   13.10
   4   4  -2  648.64   19.40
   4   4  -2  657.83   19.70
  -4  -4   2  669.33   18.60
  -4  -4   2  648.94   20.70
   3   4  -2   92.79    5.20
   3   4  -2  103.49    5.40
  -3  -4   2  101.59    4.60
  -3  -4   2  103.89    6.70
  -3  -4   2   96.49    6.30
  -3  -4   2   98.59    4.50
   2   4  -2  431.16   12.20
   2   4  -2  417.06   12.20
  -2  -4   2  429.86   10.90
  -2  -4   2  438.36   14.30
  -2  -4   2  427.06   10.90
  -2  -4   2  414.16   14.40
   1   4  -2  117.59    4.10
  -1  -4   2  110.39    6.10
  -1  -4   2  109.39    5.80
   0  -4   2 1281.77   32.50
   0  -4   2 1282.37   32.90
   1  -4   2   25.30    2.80
   1  -4   2   23.90    2.80
  -2   4  -2    5.90    1.10
  -2   4  -2    7.10    1.20
  -2   4  -2    4.50    1.70
  -3   4  -2  240.88    7.80
  -3   4  -2  229.58    7.70
   3  -4   2  237.28    8.10
   3  -4   2  242.28    6.50
   3  -4   2  240.58    6.40
  -4   4  -2 1173.18   30.00
  -4   4  -2 1194.88   29.20
  -4   4  -2 1188.58   30.10
   4  -4   2 1163.48   28.90
   4  -4   2 1209.88   31.60
   4  -4   2 1170.88   29.00
  -5   4  -2   22.90    3.40
  -5   4  -2   26.10    3.70
  -5   4  -2   22.90    2.60
   5  -4   2   21.60    2.40
   5  -4   2   24.80    2.90
  -6   4  -2    1.70    1.30
  -6   4  -2    2.30    2.10
  -6   4  -2   -1.00    1.60
   6  -4   2    0.70    1.20
   6  -4   2    1.50    1.60
  -7   4  -2  393.36   14.80
  -7   4  -2  377.76   11.30
   7  -4   2  362.26   13.80
   7  -4   2  349.37   10.40
  -8   4  -2   -1.30    1.60
  -8   4  -2   -0.60    2.00
   7   3  -2  131.39    8.70
   7   3  -2  136.19    9.20
  -7  -3   2   99.79    7.70
  -7  -3   2  118.09    7.90
   6   3  -2  139.19    8.40
   6   3  -2  137.79    8.50
  -6  -3   2  127.49    7.40
  -6  -3   2  121.69    8.00
   5   3  -2   46.00    5.40
   5   3  -2   40.00    4.80
  -5  -3   2   41.80    5.00
  -5  -3   2   37.10    4.10
   4   3  -2 1158.88   31.00
  -4  -3   2 1204.08   30.30
  -4  -3   2 1128.59   30.00
  -4  -3   2 1221.08   31.90
  -4  -3   2 1128.79   31.90
   3   3  -2   26.40    3.00
   3   3  -2   27.70    2.90
  -3  -3   2   23.30    2.40
  -3  -3   2   27.80    3.80
  -3  -3   2   32.50    4.10
  -3  -3   2   27.00    2.70
   2   3  -2  148.89    5.70
   2   3  -2  141.79    5.60
  -2  -3   2  153.18    5.20
  -2  -3   2  150.28    6.80
  -2  -3   2  142.49    6.90
  -2  -3   2  149.09    5.10
  -1  -3   2 4347.96  109.59
  -1  -3   2 4287.37  108.89
   0   3  -2   -0.40    0.50
   0  -3   2   -0.10    1.30
   0  -3   2   -0.70    1.50
  -1   3  -2  108.29    3.00
  -1   3  -2  107.59    3.00
   1  -3   2  100.99    4.90
  -2   3  -2    9.80    1.30
  -2   3  -2   12.50    2.10
  -2   3  -2   13.30    1.60
   2  -3   2   11.40    2.00
  -3   3  -2 1328.77   32.30
  -3   3  -2 1343.17   32.40
  -3   3  -2 1327.17   32.20
   3  -3   2 1354.56   32.30
   3  -3   2 1311.67   31.50
   3  -3   2 1328.07   31.60
  -4   3  -2  405.66   12.80
  -4   3  -2  424.06   12.10
  -4   3  -2  430.66   13.00
   4  -3   2  423.96   12.40
   4  -3   2  419.96   11.90
   4  -3   2  421.86   12.50
  -5   3  -2  450.95   13.50
  -5   3  -2  466.65   14.80
  -5   3  -2  460.45   14.90
   5  -3   2  474.55   14.50
   5  -3   2  444.36   14.10
   5  -3   2  458.95   12.80
  -6   3  -2   39.00    3.40
  -6   3  -2   39.40    4.50
   6  -3   2   36.90    4.40
   6  -3   2   35.70    4.00
  -7   3  -2  159.88    6.60
  -7   3  -2  151.18    8.70
  -7   3  -2  155.98    8.80
   7  -3   2  145.99    8.20
   7  -3   2  150.68    6.20
  -8   3  -2  322.37   10.70
  -8   3  -2  335.87   14.30
  -8   3  -2  369.46   15.20
   8  -3   2  289.87   17.10
   8  -3   2  290.77   10.10
   8   2  -2  117.99    9.00
  -8  -2   2   97.19    7.70
  -8  -2   2  111.39    8.50
   7   2  -2   10.70    4.70
   7   2  -2   10.00    3.60
  -7  -2   2    9.00    2.90
  -7  -2   2    8.50    3.30
   6   2  -2   35.30    5.00
   6   2  -2   30.20    4.20
  -6  -2   2   44.70    5.50
  -6  -2   2   34.00    4.60
   5   2  -2  190.88    9.30
   5   2  -2  196.28    9.20
  -5  -2   2  193.78    9.10
  -5  -2   2  197.48    8.90
  -5  -2   2  190.18    8.60
  -5  -2   2  196.48    9.30
   4   2  -2   83.79    5.30
   4   2  -2   81.99    5.40
  -4  -2   2   91.59    5.60
  -4  -2   2   79.19    5.60
  -4  -2   2   79.09    4.90
  -4  -2   2   91.89    5.30
   3   2  -2   28.30    3.00
  -3  -2   2   29.40    2.70
  -3  -2   2   31.20    3.30
  -3  -2   2   28.60    3.20
  -3  -2   2   29.20    2.80
   2   2  -2   28.80    2.70
   2   2  -2   34.90    2.80
  -2  -2   2   33.70    3.30
  -2  -2   2   29.40    2.40
  -2  -2   2   34.40    3.60
  -2  -2   2   31.30    2.50
   1   2  -2 1184.18   27.60
   1   2  -2 1135.59   27.60
  -1  -2   2 1207.28   27.20
  -1  -2   2 1179.18   27.20
  -1  -2   2 1167.48   29.10
  -1  -2   2 1121.89   30.40
   0   2  -2  209.68    5.50
   0   2  -2  213.38    5.60
   0   2  -2  213.28    7.40
   0  -2   2  210.18    7.50
  -1   2  -2  307.17    7.70
  -1   2  -2  304.47    7.70
  -1   2  -2  316.67    9.50
   1  -2   2  302.57    9.30
  -2   2  -2   80.19    4.20
  -2   2  -2   79.59    3.50
  -2   2  -2   80.29    3.40
   2  -2   2   76.69    3.00
   2  -2   2   77.99    3.90
   2  -2   2   82.59    3.10
  -3   2  -2  267.97    8.40
  -3   2  -2  264.47    8.30
  -3   2  -2  262.27    8.50
   3  -2   2  266.77    8.30
   3  -2   2  263.87    8.20
   3  -2   2  271.57    8.30
  -4   2  -2  752.02   20.60
  -4   2  -2  760.92   19.80
   4  -2   2  771.12   20.40
   4  -2   2  775.52   19.60
   4  -2   2  770.62   20.50
  -5   2  -2  351.06   12.10
  -5   2  -2  358.36   11.00
   5  -2   2  334.67   13.00
   5  -2   2  346.57   10.50
   5  -2   2  344.67   11.80
  -6   2  -2   76.99    5.90
  -6   2  -2   76.99    4.80
  -6   2  -2   88.49    6.10
   6  -2   2   78.59    5.60
   6  -2   2   74.59    5.60
   6  -2   2   82.89    4.50
  -7   2  -2  261.37    9.60
  -7   2  -2  249.38   11.40
  -7   2  -2  268.27   11.80
   7  -2   2  245.78   11.20
   7  -2   2  251.57    9.10
  -8   2  -2  205.78   10.90
  -8   2  -2  214.78    8.90
  -8   2  -2  218.48   11.40
   8  -2   2  204.18   10.80
   8  -2   2  190.28    8.10
   8   1  -2   31.60    6.00
   8   1  -2   25.30    5.50
  -8  -1   2   20.30    4.10
  -8  -1   2   36.20    5.60
   7   1  -2   28.40    4.50
   7   1  -2   25.30    4.70
  -7  -1   2   31.30    4.60
  -7  -1   2   25.60    4.80
   6   1  -2   48.30    5.10
   6   1  -2   50.29    6.20
  -6  -1   2   48.30    4.90
  -6  -1   2   45.80    4.90
  -6  -1   2   40.10    4.70
  -6  -1   2   50.69    5.40
   5   1  -2  898.81   25.60
   5   1  -2  898.31   25.50
  -5  -1   2  870.81   24.40
  -5  -1   2  864.71   25.00
  -5  -1   2  865.61   24.70
  -5  -1   2  851.11   24.70
   4   1  -2   63.69    4.80
   4   1  -2   61.79    4.60
  -4  -1   2   56.19    4.20
  -4  -1   2   59.89    4.40
  -4  -1   2   62.39    4.50
  -4  -1   2   60.79    4.30
   3   1  -2 2106.69   51.29
   3   1  -2 2191.78   51.49
  -3  -1   2 2128.69   50.99
  -3  -1   2 2180.88   51.19
  -3  -1   2 2141.59   51.19
  -3  -1   2 2102.29   51.39
   2   1  -2    1.00    1.30
  -2  -1   2    0.40    1.80
  -2  -1   2    0.40    1.20
  -2  -1   2   -0.80    1.40
  -2  -1   2   -0.40    1.20
   1   1  -2  109.39    4.20
   1   1  -2  117.29    4.90
   1   1  -2  110.09    4.10
  -1  -1   2  116.19    4.90
  -1  -1   2  113.29    4.10
  -1  -1   2  120.79    4.10
  -1  -1   2  117.49    4.80
   0   1  -2 2365.76   61.79
   0  -1   2 2301.07   61.29
  -1   1  -2 1944.31   45.60
  -1   1  -2 1979.10   44.60
   1  -1   2 1955.90   45.60
  -2   1  -2   13.80    1.60
  -2   1  -2   11.60    1.50
  -2   1  -2   14.50    2.00
   2  -1   2   14.00    1.70
   2  -1   2   12.50    1.70
   2  -1   2   13.30    1.50
  -3   1  -2   44.80    3.20
  -3   1  -2   41.80    3.20
   3  -1   2   45.90    3.00
  -4   1  -2 1110.79   28.70
  -4   1  -2 1116.59   28.60
  -4   1  -2 1121.29   27.80
   4  -1   2 1138.59   28.60
   4  -1   2 1134.99   27.60
   4  -1   2 1108.99   28.60
  -5   1  -2   28.20    3.80
  -5   1  -2   26.30    3.10
  -5   1  -2   27.40    3.80
   5  -1   2   22.20    3.20
   5  -1   2   30.20    3.70
   5  -1   2   20.40    2.40
  -6   1  -2  219.78    9.90
  -6   1  -2  226.88    9.90
  -6   1  -2  214.78    8.40
   6  -1   2  206.98    8.00
   6  -1   2  217.48    9.70
   6  -1   2  216.08    9.70
  -7   1  -2  436.86   16.30
  -7   1  -2  468.45   14.70
  -7   1  -2  435.96   16.30
   7  -1   2  449.46   16.50
   7  -1   2  467.15   18.40
   7  -1   2  442.66   14.10
  -8   1  -2   34.90    5.30
  -8   1  -2   32.80    5.30
  -8   1  -2   25.50    3.80
   8  -1   2   21.10    3.80
   8  -1   2   21.10    3.80
  -9   1  -2  156.28   10.20
  -9   1  -2  162.98   15.20
  -9   1  -2  155.38    8.40
   9  -1   2  139.49    8.70
   8   0  -2  407.46   17.60
   8   0  -2  391.76   17.20
  -8   0   2  398.06   14.60
  -8   0   2  378.26   16.70
   7   0  -2  426.26   16.90
   7   0  -2  381.96   16.00
  -7   0   2  410.26   16.40
  -7   0   2  408.66   16.00
  -7   0   2  441.26   16.60
  -7   0   2  387.06   14.40
   6   0  -2   62.79    6.20
   6   0  -2   71.59    6.10
  -6   0   2   59.59    4.90
  -6   0   2   71.49    5.20
  -6   0   2   65.79    5.90
  -6   0   2   63.49    5.70
   5   0  -2   48.50    5.00
   5   0  -2   48.90    4.80
  -5   0   2   51.09    4.30
  -5   0   2   48.50    4.10
  -5   0   2   47.20    4.80
  -5   0   2   45.90    4.60
   4   0  -2 1026.40   27.50
   4   0  -2 1026.60   27.70
  -4   0   2 1019.10   27.40
  -4   0   2 1029.20   26.20
  -4   0   2 1017.00   26.50
  -4   0   2 1000.70   27.10
   3   0  -2  338.17   11.00
   3   0  -2  273.87   13.30
  -3   0   2  337.27   10.50
  -3   0   2  367.46   11.60
  -3   0   2  338.37   11.10
  -3   0   2  350.46   10.90
   2   0  -2 1343.57   32.10
   2   0  -2 1295.67   32.10
  -2   0   2 1324.17   31.60
  -2   0   2 1265.77   31.70
  -2   0   2 1353.16   32.10
  -2   0   2 1295.97   31.80
   0   0  -2  639.24   16.20
   0   0  -2  659.43   15.80
   0   0   2  647.74   16.30
   0   0   2  650.03   15.70
   0   0   2  652.93   15.80
  -1   0  -2  185.68    5.40
  -1   0  -2  181.48    5.80
   1   0   2  185.18    5.40
   1   0   2  179.98    5.40
   1   0   2  178.98    5.80
  -2   0  -2  306.27    9.00
  -2   0  -2  333.07    9.20
  -2   0  -2  322.47    9.00
   2   0   2  325.87    9.10
   2   0   2  315.37    8.90
   2   0   2  312.17    9.00
  -3   0  -2 2836.72   66.79
  -3   0  -2 2877.61   66.99
  -3   0  -2 2970.60   66.59
   3   0   2 2911.31   66.39
   3   0   2 2806.92   66.69
   3   0   2 2914.81   66.99
  -4   0  -2   33.50    3.40
  -4   0  -2   43.70    3.40
  -4   0  -2   31.10    3.30
   4   0   2   27.10    3.70
   4   0   2   39.80    3.50
   4   0   2   36.90    3.00
  -5   0  -2  604.44   17.40
  -5   0  -2  641.14   18.70
  -5   0  -2  612.04   18.30
   5   0   2  614.44   17.20
   5   0   2  614.94   18.40
   5   0   2  645.14   18.80
  -6   0  -2  414.56   14.80
  -6   0  -2  434.16   13.80
  -6   0  -2  444.96   15.30
   6   0   2  415.76   15.00
   6   0   2  433.26   15.00
   6   0   2  417.96   13.30
  -7   0  -2  131.59    8.10
  -7   0  -2  138.09    7.20
  -7   0  -2  129.79    8.10
   7   0   2  133.09    8.20
   7   0   2  126.89    6.60
   7   0   2  126.29    8.00
  -8   0  -2   84.39    9.40
  -8   0  -2   94.99    7.80
   8   0   2   90.09    7.30
   8   0   2   83.09    5.80
  -9   0  -2  158.58   10.40
  -9   0  -2  145.79    8.70
  -9   0  -2  158.28   12.70
   9   0   2  169.68   10.60
   8  -1  -2  593.84   22.30
  -8   1   2  574.94   21.70
  -8   1   2  595.44   18.80
   7  -1  -2   28.90    5.10
   7  -1  -2   47.90    6.20
  -7   1   2   45.20    6.00
  -7   1   2   35.60    5.50
  -7   1   2   41.60    4.40
  -7   1   2   42.20    4.30
   6  -1  -2  123.29    7.90
   6  -1  -2  129.49    8.00
  -6   1   2  121.79    7.80
  -6   1   2  130.29    6.30
  -6   1   2  120.29    6.20
  -6   1   2  125.99    8.00
   5  -1  -2    0.50    2.10
   5  -1  -2    2.00    2.00
  -5   1   2    1.80    1.70
  -5   1   2    0.80    1.40
  -5   1   2    1.60    2.00
  -5   1   2   -1.40    1.80
   4  -1  -2 1065.99   28.70
   4  -1  -2 1101.19   29.00
  -4   1   2 1037.70   28.30
  -4   1   2 1071.99   26.90
  -4   1   2 1078.49   28.80
   3  -1  -2   39.90    3.60
   3  -1  -2   31.30    3.50
  -3   1   2   34.80    2.70
  -3   1   2   34.70    3.30
  -3   1   2   34.50    2.60
  -3   1   2   41.80    3.70
   2  -1  -2   46.50    3.50
   2  -1  -2   44.60    3.30
  -2   1   2   45.20    2.60
  -2   1   2   40.10    3.40
  -2   1   2   39.30    3.10
  -2   1   2   45.30    2.80
   1  -1  -2 4982.10  132.69
  -1   1   2 5177.08  133.59
   0  -1  -2 9999.00  237.18
  -1  -1  -2 2306.27   66.79
   1   1   2 2354.46   67.49
  -2  -1  -2 1155.18   28.40
  -2  -1  -2 1182.88   28.30
  -2  -1  -2 1192.68   28.40
   2   1   2 1201.28   28.30
   2   1   2 1146.49   28.40
   2   1   2 1186.58   28.30
  -3  -1  -2  511.65   14.10
  -3  -1  -2  509.25   14.30
  -3  -1  -2  506.15   14.40
   3   1   2  526.45   14.60
   3   1   2  497.85   14.20
   3   1   2  516.95   14.00
  -4  -1  -2  341.17   10.80
  -4  -1  -2  337.67   11.20
  -4  -1  -2  339.37   11.30
   4   1   2  330.07   10.60
   4   1   2  341.47   11.20
   4   1   2  345.87   11.40
  -5  -1  -2 1145.49   29.20
  -5  -1  -2 1132.79   30.10
  -5  -1  -2 1090.49   29.70
   5   1   2 1121.19   28.90
   5   1   2 1105.29   29.80
   5   1   2 1145.79   30.20
  -6  -1  -2  839.92   23.40
  -6  -1  -2  833.52   24.60
  -6  -1  -2  834.32   24.40
   6   1   2  808.32   26.80
   6   1   2  823.02   23.00
   6   1   2  839.32   24.40
  -7  -1  -2  627.64   20.80
  -7  -1  -2  625.14   19.50
  -7  -1  -2  634.04   21.10
   7   1   2  669.13   21.30
   7   1   2  626.94   19.30
   7   1   2  651.53   21.40
  -8  -1  -2  158.08    9.60
  -8  -1  -2  147.69    9.70
  -8  -1  -2  159.88    8.60
   8   1   2  162.68    9.80
   8   1   2  146.59    9.50
  -9  -1  -2   28.30    4.70
  -9  -1  -2   31.60    5.50
   9   1   2   25.10    4.60
   8  -2  -2  388.76   17.00
  -8   2   2  362.86   12.70
  -8   2   2  371.66   12.50
  -8   2   2  365.96   16.40
  -8   2   2  365.36   16.50
   7  -2  -2   -4.50    1.60
  -7   2   2    2.80    2.60
  -7   2   2    0.50    1.80
  -7   2   2    2.10    1.80
  -7   2   2   -6.10    2.60
   6  -2  -2   63.09    6.10
   6  -2  -2   53.99    5.60
  -6   2   2   60.69    4.00
  -6   2   2   58.69    6.10
  -6   2   2   58.19    3.90
  -6   2   2   51.59    5.60
   5  -2  -2  385.86   14.20
   5  -2  -2  377.46   13.90
  -5   2   2  387.46   11.10
  -5   2   2  375.96   11.30
  -5   2   2  397.46   14.30
  -5   2   2  376.56   15.20
   4  -2  -2   79.39    5.30
   4  -2  -2   72.19    5.00
  -4   2   2   68.39    4.90
  -4   2   2   71.49    3.40
  -4   2   2   71.29    5.20
  -4   2   2   68.39    3.50
   3  -2  -2 1038.30   26.40
   3  -2  -2  982.60   26.20
  -3   2   2  986.00   23.80
  -3   2   2  983.00   26.20
  -3   2   2  984.70   23.60
  -3   2   2 1003.60   26.00
   2  -2  -2  518.95   14.90
  -2   2   2  526.45   12.90
  -2   2   2  530.35   13.00
  -2   2   2  541.85   14.80
  -2   2   2  529.15   15.00
   1  -2  -2   58.19    3.20
   1  -2  -2   53.29    2.30
   1  -2  -2   55.39    3.10
  -1   2   2   57.59    3.10
  -1   2   2   55.19    2.30
  -1   2   2   55.39    3.20
   0  -2  -2 5438.36  140.69
   0   2   2 5657.43  142.09
  -1  -2  -2 8017.40  195.98
   1   2   2 7924.41  196.48
  -2  -2  -2  117.09    4.70
  -2  -2  -2  110.99    4.70
  -2  -2  -2  113.29    4.80
   2   2   2  113.69    4.80
   2   2   2  118.69    4.70
   2   2   2  110.89    4.50
  -3  -2  -2   65.29    4.10
  -3  -2  -2   54.99    3.90
  -3  -2  -2   62.29    4.00
   3   2   2   62.99    3.80
   3   2   2   68.99    4.30
   3   2   2   66.59    4.20
  -4  -2  -2 1760.92   43.80
  -4  -2  -2 1830.82   43.70
  -4  -2  -2 1732.03   43.30
   4   2   2 1782.62   43.30
   4   2   2 1782.42   43.90
   4   2   2 1798.32   43.70
  -5  -2  -2   24.30    3.60
  -5  -2  -2   14.10    2.60
  -5  -2  -2   15.80    2.90
   5   2   2   15.30    2.70
   5   2   2   19.40    3.00
   5   2   2   11.90    2.50
  -6  -2  -2  160.78    8.40
  -6  -2  -2  162.38    9.70
  -6  -2  -2  158.78    7.80
   6   2   2  163.78    8.70
   6   2   2  158.38    7.50
   6   2   2  158.48    8.40
  -7  -2  -2  334.37   13.50
  -7  -2  -2  344.87   13.00
  -7  -2  -2  318.57   13.60
   7   2   2  329.47   12.70
   7   2   2  330.97   13.90
   7   2   2  331.57   13.70
  -8  -2  -2  209.58   11.30
  -8  -2  -2  213.68   10.70
  -8  -2  -2  223.68   11.40
   8   2   2  219.28   12.20
   8   2   2  215.98   11.80
  -9  -2  -2   15.80    4.70
  -9  -2  -2    7.70    3.70
   9   2   2    8.90    3.40
   8  -3  -2   16.50    3.90
  -8   3   2   10.20    8.20
  -8   3   2   19.50    4.20
   7  -3  -2  233.18   14.10
  -7   3   2  265.87    8.30
  -7   3   2  274.27   12.80
  -7   3   2  262.47   12.90
  -7   3   2  260.87    8.20
   6  -3  -2   26.60    3.90
   6  -3  -2   30.80    4.90
  -6   3   2   20.70    4.10
  -6   3   2   21.40    3.90
  -6   3   2   23.80    2.20
  -6   3   2   26.70    2.30
   5  -3  -2  198.78    9.50
   5  -3  -2  205.48    9.50
  -5   3   2  199.78    5.90
  -5   3   2  189.38    9.10
  -5   3   2  199.98    6.00
  -5   3   2  194.18    9.50
   4  -3  -2  183.58    8.30
   4  -3  -2  180.68    8.30
  -4   3   2  184.58    8.20
  -4   3   2  197.38    8.70
  -4   3   2  185.08    5.20
  -4   3   2  186.08    5.10
   3  -3  -2  802.52   21.70
   3  -3  -2  800.92   21.70
  -3   3   2  772.02   21.40
  -3   3   2  763.32   21.60
   2  -3  -2   59.99    4.60
  -2   3   2   66.19    4.20
  -2   3   2   65.89    4.10
   1  -3  -2   14.00    1.80
   1  -3  -2   20.70    1.60
   1  -3  -2   22.70    2.60
  -1   3   2   10.10    2.50
  -1   3   2   23.10    2.70
  -1   3   2   20.00    1.40
   0  -3  -2 1731.33   39.40
   0  -3  -2 1691.23   40.20
   0  -3  -2 1690.03   40.00
   0   3   2 1717.83   40.30
  -1  -3  -2  466.75   12.60
  -1  -3  -2  470.65   12.80
  -1  -3  -2  478.85   12.70
   1   3   2  467.05   12.90
   1   3   2  461.65   12.50
  -2  -3  -2   10.60    2.10
  -2  -3  -2    8.70    1.80
   2   3   2    7.90    1.80
   2   3   2    6.90    1.60
   2   3   2   10.00    2.00
  -3  -3  -2   39.40    3.50
  -3  -3  -2   57.69    3.80
  -3  -3  -2   49.10    6.00
   3   3   2   47.90    3.70
   3   3   2   38.90    3.60
   3   3   2   44.40    3.40
  -4  -3  -2  108.59    5.90
  -4  -3  -2  109.89    5.80
  -4  -3  -2  124.59    5.90
   4   3   2  111.29    5.60
   4   3   2  110.89    5.80
   4   3   2  114.69    6.10
  -5  -3  -2  116.89    6.60
  -5  -3  -2  119.39    6.50
  -5  -3  -2  124.19    6.60
   5   3   2  113.29    6.70
   5   3   2  111.39    6.10
   5   3   2  109.09    6.40
  -6  -3  -2  328.67   12.90
  -6  -3  -2  333.07   12.70
  -6  -3  -2  317.77   12.50
   6   3   2  330.87   13.20
   6   3   2  317.97   12.20
   6   3   2  328.17   12.90
  -7  -3  -2   10.80    3.10
  -7  -3  -2   12.10    3.40
  -7  -3  -2   15.40    3.70
   7   3   2   16.70    4.00
   7   3   2    8.40    2.90
  -8  -3  -2   -1.80    2.10
  -8  -3  -2    2.90    2.20
   8   3   2    1.70    2.40
   8   3   2    3.20    3.00
  -9  -3  -2  571.34   21.70
  -9  -3  -2  620.14   22.70
   9   3   2  673.63   24.10
   9   3   2  628.64   24.00
   7  -4  -2  353.86   15.20
  -7   4   2  347.77   15.40
  -7   4   2  362.26   15.60
   6  -4  -2   33.30    4.80
  -6   4   2   33.60    5.10
  -6   4   2   38.20    5.60
   5  -4  -2  154.28    8.30
   5  -4  -2  149.88    8.20
  -5   4   2  148.69    8.40
  -5   4   2  154.28    8.30
   4  -4  -2  279.97   10.90
   4  -4  -2  280.87   10.80
  -4   4   2  280.47   11.10
  -4   4   2  290.17   10.90
   3  -4  -2  131.79    6.30
   3  -4  -2  122.59    6.10
  -3   4   2  123.89    6.10
  -3   4   2  126.79    6.40
   2  -4  -2  183.28    7.10
   2  -4  -2  176.88    8.30
  -2   4   2  186.68    7.40
   1  -4  -2 1520.35   37.00
   1  -4  -2 1553.24   37.00
   1  -4  -2 1543.95   35.40
  -1   4   2 1561.44   35.30
  -1   4   2 1525.25   37.30
   0  -4  -2  759.32   19.10
   0  -4  -2  743.43   19.20
   0  -4  -2  755.22   18.60
   0   4   2  737.13   19.40
   0   4   2  741.83   18.50
  -1  -4  -2 1396.66   33.10
  -1  -4  -2 1374.76   33.20
  -1  -4  -2 1355.16   33.20
   1   4   2 1386.96   33.30
   1   4   2 1380.96   33.50
  -2  -4  -2 1405.56   33.90
  -2  -4  -2 1386.66   33.20
  -2  -4  -2 1361.76   33.40
   2   4   2 1357.56   33.70
   2   4   2 1329.07   33.60
  -3  -4  -2  567.64   16.20
  -3  -4  -2  574.14   16.00
  -3  -4  -2  572.74   16.60
   3   4   2  507.95   20.00
   3   4   2  588.24   16.60
   3   4   2  582.84   16.50
  -4  -4  -2   44.50    4.10
  -4  -4  -2   41.00    3.60
  -4  -4  -2   42.70    3.80
   4   4   2   40.00    3.90
   4   4   2   43.10    3.90
   4   4   2   44.40    4.00
  -5  -4  -2  635.34   19.40
  -5  -4  -2  645.84   19.70
  -5  -4  -2  675.33   19.50
   5   4   2  638.24   19.60
   5   4   2  625.74   19.80
   5   4   2  640.24   19.60
  -6  -4  -2   47.60    4.80
  -6  -4  -2   46.30    5.00
  -6  -4  -2   40.10    4.70
   6   4   2   42.90    5.50
   6   4   2   43.90    4.80
  -7  -4  -2   47.30    5.20
  -7  -4  -2   27.80    4.60
   7   4   2   25.30    4.10
  -8  -4  -2   68.29    6.60
  -8  -4  -2   48.90    5.90
   8   4   2   53.89    6.70
   8   4   2   69.79    7.10
   7  -5  -2   -3.10    2.00
  -7   5   2    2.10    2.60
  -7   5   2   -7.60    2.90
   6  -5  -2  261.07   11.70
  -6   5   2  245.08   12.00
  -6   5   2  229.88   11.30
   5  -5  -2  614.34   19.80
  -5   5   2  625.34   19.80
  -5   5   2  601.64   20.10
   4  -5  -2   11.30    2.60
   4  -5  -2   12.00    2.50
  -4   5   2   11.40    2.80
  -4   5   2   16.50    3.10
   3  -5  -2  154.38    7.00
  -3   5   2  143.79    7.10
   2  -5  -2 1016.00   26.00
   2  -5  -2 1052.59   26.20
  -2   5   2  979.70   26.10
  -2   5   2  983.20   26.40
   1  -5  -2  398.16   11.90
   1  -5  -2  414.96   10.70
   1  -5  -2  408.46   11.80
  -1   5   2  402.96   12.30
  -1   5   2  394.76   10.60
  -1   5   2  409.46   12.10
   0  -5  -2  182.98    6.40
   0  -5  -2  190.48    6.40
   0  -5  -2  178.08    6.30
   0   5   2  174.38    6.80
   0   5   2  179.78    6.60
   0   5   2  170.38    6.20
  -1  -5  -2 2061.69   47.90
  -1  -5  -2 2021.20   47.10
  -1  -5  -2 1979.50   47.30
   1   5   2 1978.40   47.70
   1   5   2 2015.50   47.60
   1   5   2 1982.00   47.70
  -2  -5  -2  690.73   18.90
  -2  -5  -2  742.93   18.90
  -2  -5  -2  721.73   19.80
   2   5   2  715.63   19.20
   2   5   2  698.43   19.60
   2   5   2  705.83   19.40
  -3  -5  -2  233.38    8.30
  -3  -5  -2  213.08    8.90
  -3  -5  -2  217.08    8.30
   3   5   2  218.68    8.80
   3   5   2  222.08    8.70
  -4  -5  -2  128.79    7.20
  -4  -5  -2  135.39    6.50
  -4  -5  -2  124.39    7.00
   4   5   2  142.39    7.10
   4   5   2  128.69    6.90
   4   5   2  114.09    9.60
  -5  -5  -2  186.88    8.70
  -5  -5  -2  180.48    9.10
  -5  -5  -2  194.28    8.60
   5   5   2  202.28    9.20
   5   5   2  190.58    9.30
  -6  -5  -2    3.30    2.70
  -6  -5  -2    3.50    2.20
   6   5   2   -0.80    1.90
   6   5   2    1.80    2.20
  -7  -5  -2  548.45   19.70
  -7  -5  -2  553.84   19.10
   7   5   2  534.35   19.80
   7   5   2  565.64   19.80
  -8  -5  -2   24.20    4.10
   8   5   2   31.90    4.90
   8   5   2   46.90    6.70
   6  -6  -2  263.57   12.00
  -6   6   2  264.37   12.50
  -6   6   2  290.27   13.10
   5  -6  -2  126.09    7.30
  -5   6   2  124.99    7.80
  -5   6   2  102.59    8.80
   4  -6  -2  472.65   15.60
  -4   6   2  480.45   16.30
   3  -6  -2  500.95   15.40
  -3   6   2  496.65   16.10
  -3   6   2  505.95   15.80
   2  -6  -2  136.69    6.00
   2  -6  -2  129.19    5.90
  -2   6   2  127.49    6.40
  -2   6   2  122.69    6.10
   1  -6  -2  365.56   11.90
   1  -6  -2  374.46   10.30
  -1   6   2  353.86   10.20
  -1   6   2  348.07   11.60
  -1   6   2  373.36   11.60
   0  -6  -2  148.49    5.90
   0  -6  -2  138.79    5.60
   0  -6  -2  147.69    5.50
   0   6   2  132.19    6.10
   0   6   2  144.39    6.60
   0   6   2  140.99    6.00
  -1  -6  -2   79.29    4.80
  -1  -6  -2   80.09    4.00
  -1  -6  -2   84.49    4.10
   1   6   2   85.89    4.70
   1   6   2   80.69    4.50
   1   6   2   79.39    4.60
  -2  -6  -2  513.55   15.50
  -2  -6  -2  477.35   14.40
  -2  -6  -2  490.85   13.90
   2   6   2  491.85   14.80
   2   6   2  479.85   14.50
   2   6   2  503.15   15.40
  -3  -6  -2  182.58    8.40
  -3  -6  -2  180.78    7.30
  -3  -6  -2  182.48    7.10
   3   6   2  156.98    8.90
   3   6   2  165.08    7.50
   3   6   2  170.08    7.70
  -4  -6  -2   14.60    2.60
  -4  -6  -2    9.20    3.00
   4   6   2    3.90    1.80
   4   6   2   11.20    2.60
   4   6   2    9.70    2.80
  -5  -6  -2   -0.80    1.50
  -5  -6  -2    2.00    2.60
   5   6   2    2.10    2.60
   5   6   2    0.30    1.60
  -6  -6  -2  444.66   16.80
  -6  -6  -2  402.66   15.00
   6   6   2  461.95   16.40
   6   6   2  433.36   16.50
  -7  -6  -2   22.70    4.60
   7   6   2   29.30    5.00
   7   6   2   38.80    5.80
  -6   7   2   18.90    3.80
   5  -7  -2   49.20    4.70
  -5   7   2   51.49    5.70
  -5   7   2   38.60    4.90
   4  -7  -2  112.39    6.50
  -4   7   2  100.29    6.60
  -4   7   2  102.59    6.60
  -3   7   2  427.16   14.40
  -3   7   2  442.16   14.90
   2  -7  -2  664.53   17.90
   2  -7  -2  634.64   15.30
   2  -7  -2  595.84   16.70
  -2   7   2  651.93   18.90
  -2   7   2  629.54   18.50
   1  -7  -2  205.08    7.20
   1  -7  -2  215.88    8.70
   1  -7  -2  193.58    7.40
   1  -7  -2  204.68    7.20
  -1   7   2  203.98    8.10
  -1   7   2  204.68    8.30
   0  -7  -2  133.69    5.40
   0  -7  -2  142.99    6.30
   0   7   2  148.79    6.30
   0   7   2  133.89    6.20
   0   7   2  132.89    6.30
  -1  -7  -2   37.30    3.90
  -1  -7  -2   31.20    2.70
  -1  -7  -2   28.20    2.50
   1   7   2   30.10    3.10
   1   7   2   30.90    3.40
   1   7   2   31.70    3.30
  -2  -7  -2 1075.69   27.60
  -2  -7  -2 1114.79   29.20
  -2  -7  -2 1002.40   29.60
   2   7   2 1050.69   29.10
   2   7   2 1050.29   27.90
   2   7   2 1113.59   28.40
  -3  -7  -2  169.88    7.00
  -3  -7  -2  170.28    8.70
   3   7   2  150.78    7.40
   3   7   2  154.68    8.10
   3   7   2  149.79    7.50
  -4  -7  -2  103.49    5.80
  -4  -7  -2  110.19    7.30
   4   7   2  116.69    6.60
   4   7   2  107.49    6.70
  -5  -7  -2   24.40    4.40
  -5  -7  -2   28.20    3.80
   5   7   2   19.70    3.70
   5   7   2   31.20    4.60
  -6  -7  -2  159.68    8.30
   6   7   2  152.88    9.20
   7   7   2   55.49    6.40
  -5   8   2   11.30    6.40
   4  -8  -2   40.50    3.70
  -4   8   2   43.30    5.30
  -4   8   2   36.80    4.70
   3  -8  -2    2.50    1.50
  -3   8   2    4.20    2.00
  -3   8   2    7.00    2.40
   2  -8  -2   62.39    3.70
   2  -8  -2   66.69    2.90
   2  -8  -2   59.89    2.80
  -2   8   2   69.09    5.00
  -2   8   2   59.09    4.70
   1  -8  -2   22.40    2.70
   1  -8  -2   25.80    3.00
   1  -8  -2   25.60    2.30
  -1   8   2   27.70    3.50
  -1   8   2   23.50    3.60
   0  -8  -2   45.60    4.00
   0  -8  -2   42.10    3.90
   0  -8  -2   41.90    2.60
   0   8   2   47.30    4.10
   0   8   2   46.70    3.80
  -1  -8  -2  102.19    6.00
   1   8   2  100.39    5.60
   1   8   2   94.29    5.60
   1   8   2  100.09    6.10
  -2  -8  -2  151.68    8.20
  -2  -8  -2  154.58    5.70
   2   8   2  160.58    7.90
   2   8   2  157.28    7.30
   2   8   2  151.08    8.10
  -3  -8  -2    3.00    1.40
  -3  -8  -2    5.60    3.00
   3   8   2    4.40    2.10
   3   8   2    7.10    2.30
  -4  -8  -2   50.39    5.50
  -4  -8  -2   40.60    3.60
   4   8   2   48.50    4.70
   4   8   2   49.20    4.90
  -5  -8  -2  589.24   18.30
   5   8   2  618.04   20.60
   5   8   2  629.34   20.30
  -6  -8  -2   52.69    9.60
   6   8   2   69.49    6.40
  -3   9   2  166.28    8.50
  -3   9   2  150.78    8.10
   2  -9  -2  119.39    4.20
   2  -9  -2  112.89    4.10
  -2   9   2  125.29    6.80
  -2   9   2  119.09    6.70
   1  -9  -2  343.27   11.50
   1  -9  -2  336.47   11.20
  -1   9   2  375.96   14.30
  -1   9   2  348.37   12.10
   0  -9  -2   -1.20    1.70
   0  -9  -2   -1.90    1.70
   0   9   2    0.10    1.40
   0   9   2    0.10    1.50
  -1  -9  -2   80.29    6.10
  -1  -9  -2   84.79    6.10
   1   9   2   78.19    5.10
   1   9   2   89.59    5.30
  -2  -9  -2  174.48    9.10
   2   9   2  164.38    7.70
   2   9   2  173.68    8.20
  -3  -9  -2   76.09    6.60
   3   9   2   86.79    5.90
   3   9   2   86.99    5.80
  -4  -9  -2    1.20    4.40
   4   9   2    1.60    1.90
   4   9   2    1.60    2.30
   0 -10  -2    0.00    3.60
   0  10   2    1.50    1.60
   0  10   2    2.10    2.80
  -1 -10  -2   21.80    4.00
   1  10   2   21.40    3.90
   1  10   2   24.10    3.40
   0  -8   3   85.39    7.00
   1  -8   3  137.39    8.20
   2  -8   3  555.74   18.30
   3   7  -3   52.69    3.90
   3   7  -3   50.69    4.00
  -3  -7   3   50.29    6.60
   2   7  -3  232.48    7.40
   2   7  -3  232.78    7.50
  -2  -7   3  221.68   11.40
  -1  -7   3   75.29    6.50
   0  -7   3   53.69    5.50
   1  -7   3  369.36   13.90
   2  -7   3   -1.40    1.80
   2  -7   3    3.20    2.60
   3  -7   3   94.69    6.40
   3  -7   3  102.19    6.20
  -4   7  -3   90.29    4.30
  -4   7  -3   83.09    4.10
   4  -7   3   83.99    5.30
   4  -7   3   80.89    5.70
   5   6  -3   60.69    5.70
   4   6  -3   51.69    4.60
   4   6  -3   46.90    4.50
  -4  -6   3   49.20    5.90
   3   6  -3  209.78    8.40
   3   6  -3  210.78    8.20
  -3  -6   3  214.78   11.00
   2   6  -3   33.10    2.80
   2   6  -3   32.60    2.80
  -2  -6   3   29.10    4.80
   1   6  -3   57.39    2.50
   1   6  -3   57.59    2.60
  -1  -6   3   60.79    5.50
   0  -6   3   91.19    6.20
   1  -6   3  199.78    9.00
   1  -6   3  201.68    9.50
   2  -6   3  523.15   16.30
   2  -6   3  485.45   16.40
  -3   6  -3  405.06   10.80
  -3   6  -3  400.86   10.80
   3  -6   3  411.46   13.50
   3  -6   3  401.06   13.70
  -4   6  -3  145.09    5.90
  -4   6  -3  145.99    5.90
   4  -6   3  125.89    6.40
   4  -6   3  143.89    6.70
  -5   6  -3   23.90    3.20
   5  -6   3   18.70    2.60
   5  -6   3   16.20    2.60
  -6   6  -3  509.45   16.50
  -6   6  -3  490.15   16.40
   6  -6   3  503.75   15.70
   6   5  -3   -2.30    2.00
   5   5  -3  752.62   22.70
   5   5  -3  681.73   27.60
  -5  -5   3  719.43   20.50
   4   5  -3  675.43   20.40
   4   5  -3  672.83   20.10
  -4  -5   3  669.23   18.10
  -4  -5   3  660.03   22.30
   3   5  -3   21.10    2.90
   3   5  -3   11.30    2.30
  -3  -5   3   19.20    2.70
  -3  -5   3   17.20    3.90
   2   5  -3  102.29    4.90
   2   5  -3   96.49    4.70
  -2  -5   3   99.19    6.70
   1   5  -3  518.55   13.20
  -1  -5   3  503.75   17.40
   0  -5   3  353.66   12.80
   1  -5   3   -0.80    1.70
   1  -5   3    0.60    2.00
   2  -5   3  447.66   14.80
   2  -5   3  461.05   14.50
  -3   5  -3  492.35   13.00
   3  -5   3  472.35   14.90
   3  -5   3  494.05   15.20
  -4   5  -3  172.28    7.40
  -4   5  -3  165.88    6.70
  -4   5  -3  166.68    6.80
   4  -5   3  173.88    7.30
  -5   5  -3  135.99    6.80
  -5   5  -3  136.69    6.20
  -5   5  -3  127.09    6.50
   5  -5   3  134.69    6.20
   5  -5   3  146.19    5.60
  -6   5  -3   52.29    4.90
  -6   5  -3   46.30    3.70
  -6   5  -3   44.00    4.70
   6  -5   3   44.80    3.80
   6  -5   3   41.90    3.40
  -7   5  -3   30.60    4.50
   7  -5   3   26.10    3.70
  -6  -4   3   69.59    5.90
  -6  -4   3   78.79    8.20
   5   4  -3  128.19    7.80
   5   4  -3  133.49    7.60
  -5  -4   3  125.19    6.80
  -5  -4   3  127.99    8.50
   4   4  -3  254.57   10.20
   4   4  -3  254.87   10.30
  -4  -4   3  263.17   10.10
  -4  -4   3  231.98   11.20
   3   4  -3  125.29    6.20
   3   4  -3  127.89    6.40
  -3  -4   3  137.39    6.60
  -3  -4   3  138.59    7.90
  -3  -4   3  130.69    5.40
   2   4  -3  507.55   14.40
   2   4  -3  514.95   14.40
  -2  -4   3  499.65   17.30
  -2  -4   3  517.65   17.00
  -2  -4   3  519.05   13.10
  -2  -4   3  513.05   12.60
   1   4  -3   64.29    3.30
   1   4  -3   66.19    3.20
  -1  -4   3   72.99    5.30
  -1  -4   3   72.69    5.40
   0   4  -3  441.56   10.90
   0   4  -3  432.16   10.90
   0  -4   3  454.75   14.80
   0  -4   3  463.05   14.60
   1  -4   3  311.77   11.00
   1  -4   3  305.97   11.20
  -2   4  -3  161.18    7.20
  -2   4  -3  164.78    5.00
  -2   4  -3  157.98    4.90
   2  -4   3  167.18    7.30
  -3   4  -3 1834.22   44.30
  -3   4  -3 1848.72   42.70
  -3   4  -3 1769.82   42.40
   3  -4   3 1762.92   44.10
  -4   4  -3   99.39    5.10
  -4   4  -3  104.29    5.20
  -4   4  -3  100.69    5.50
   4  -4   3   99.39    3.90
   4  -4   3  101.09    3.90
   4  -4   3  101.99    5.30
  -5   4  -3  104.29    5.90
  -5   4  -3  104.39    5.80
  -5   4  -3  106.69    5.60
   5  -4   3  104.19    5.00
   5  -4   3  105.39    5.30
  -6   4  -3    1.80    1.60
  -6   4  -3    0.70    2.00
  -6   4  -3    0.10    1.50
   6  -4   3    2.30    1.70
   6  -4   3    1.00    1.50
  -7   4  -3  477.35   14.00
  -7   4  -3  508.25   18.00
  -7   4  -3  451.15   16.70
   7  -4   3  445.46   16.80
   7  -4   3  448.76   13.50
   7   3  -3    6.20    3.20
  -7  -3   3    3.60    3.00
  -7  -3   3    0.40    2.50
   6   3  -3  163.98    9.50
   6   3  -3  155.58    9.00
  -6  -3   3  159.18    8.50
  -6  -3   3  181.58    9.80
   5   3  -3   22.90    3.90
   5   3  -3   25.30    4.20
  -5  -3   3   22.80    3.50
  -5  -3   3   15.60    3.50
   4   3  -3  201.48    8.80
   4   3  -3  199.08    8.90
  -4  -3   3  196.58    8.20
  -4  -3   3  184.48    9.20
   3   3  -3  228.28    8.70
   3   3  -3  216.88    8.40
  -3  -3   3  198.68    9.40
  -3  -3   3  221.68    9.60
  -3  -3   3  203.98    7.60
  -3  -3   3  217.18    7.80
   2   3  -3 1607.24   38.70
   2   3  -3 1592.94   38.80
  -2  -3   3 1596.94   40.80
  -2  -3   3 1584.24   41.20
  -2  -3   3 1603.14   37.70
  -2  -3   3 1616.24   37.70
   1   3  -3  877.71   21.50
   1   3  -3  863.91   21.50
  -1  -3   3  856.11   24.20
  -1  -3   3  873.71   20.10
  -1  -3   3  879.01   20.10
  -1  -3   3  868.11   23.90
   0   3  -3  293.77    7.90
   0   3  -3  304.47   10.60
   0   3  -3  290.07    7.80
   0  -3   3  293.37   10.60
   0  -3   3  296.27   10.30
  -1   3  -3  664.13   15.40
  -1   3  -3  643.54   18.40
  -1   3  -3  655.33   15.80
   1  -3   3  628.44   18.30
  -2   3  -3   57.59    2.80
  -2   3  -3   60.89    4.20
  -2   3  -3   60.09    2.70
   2  -3   3   55.19    3.90
  -3   3  -3  775.92   20.10
  -3   3  -3  781.82   20.10
  -3   3  -3  803.12   21.30
   3  -3   3  789.92   21.10
   3  -3   3  795.32   19.00
  -4   3  -3  168.28    7.00
  -4   3  -3  168.58    6.80
  -4   3  -3  154.98    6.70
   4  -3   3  161.08    6.10
   4  -3   3  161.18    6.70
  -5   3  -3    0.50    1.70
  -5   3  -3    0.40    1.70
  -5   3  -3   -1.00    1.40
   5  -3   3    0.60    1.40
   5  -3   3    0.00    1.30
   5  -3   3    0.20    1.30
  -6   3  -3   91.69    6.10
  -6   3  -3   88.89    6.00
  -6   3  -3   98.39    5.40
   6  -3   3   91.69    5.00
   6  -3   3   93.59    5.80
  -7   3  -3  166.78    9.00
  -7   3  -3  174.18    7.50
   7  -3   3  158.58    8.30
   7  -3   3  165.98    7.00
  -8   3  -3   68.79    6.90
  -8   3  -3   58.99    4.70
   8  -3   3   56.19    5.50
   8  -3   3   49.30    4.20
   7   2  -3   13.10    3.40
   7   2  -3   11.70    3.60
  -7  -2   3   13.90    4.00
  -7  -2   3    9.80    3.50
   6   2  -3   74.09    6.40
   6   2  -3   80.79    6.80
  -6  -2   3   88.49    6.60
  -6  -2   3   83.19    6.50
   5   2  -3  640.64   20.10
   5   2  -3  597.04   19.60
  -5  -2   3  598.04   19.10
  -5  -2   3  610.94   19.60
   4   2  -3   99.69    7.10
   4   2  -3  131.99    7.10
  -4  -2   3  122.69    6.40
  -4  -2   3  125.39    6.30
  -4  -2   3  125.59    7.00
  -4  -2   3  120.79    7.10
   3   2  -3  205.18    8.10
  -3  -2   3  190.08    7.50
  -3  -2   3  189.68    7.30
  -3  -2   3  185.08    8.60
  -3  -2   3  191.48    8.50
   2   2  -3  152.08    6.00
   2   2  -3  140.99    5.90
  -2  -2   3  139.89    5.60
  -2  -2   3  147.09    5.50
  -2  -2   3  140.99    6.90
  -2  -2   3  146.19    6.80
   1   2  -3  361.36   10.50
  -1  -2   3  370.16   10.00
  -1  -2   3  367.16   11.90
  -1  -2   3  372.66   12.20
  -1  -2   3  377.36    9.90
   0   2  -3   15.10    1.60
   0   2  -3   16.00    2.70
   0   2  -3   14.70    1.70
   0  -2   3   13.80    1.10
   0  -2   3   14.90    1.10
   0  -2   3   14.20    2.60
  -1   2  -3   77.79    4.80
  -1   2  -3   79.99    3.10
  -1   2  -3   80.99    3.10
   1  -2   3   81.19    5.20
  -2   2  -3  130.89    4.60
  -2   2  -3  122.89    5.60
  -2   2  -3  125.69    4.60
   2  -2   3  125.59    4.00
   2  -2   3  122.39    4.00
   2  -2   3  123.39    5.70
  -3   2  -3  454.25   12.80
  -3   2  -3  445.46   12.60
  -3   2  -3  450.85   13.30
   3  -2   3  448.06   14.20
   3  -2   3  451.35   12.20
   3  -2   3  447.86   12.20
  -4   2  -3   84.99    4.70
  -4   2  -3   82.89    4.70
  -4   2  -3   83.59    4.70
   4  -2   3   93.99    4.70
   4  -2   3   84.99    4.40
   4  -2   3   79.89    4.30
  -5   2  -3  172.68    7.80
  -5   2  -3  183.48    7.40
   5  -2   3  180.08    7.10
   5  -2   3  185.88    7.80
   5  -2   3  176.88    7.50
  -6   2  -3 1201.08   32.30
  -6   2  -3 1183.88   30.70
  -6   2  -3 1158.68   32.40
   6  -2   3 1183.68   30.30
   6  -2   3 1217.28   32.20
  -7   2  -3   16.20    3.50
  -7   2  -3   12.70    3.50
  -7   2  -3   16.70    3.10
   7  -2   3   12.20    3.40
   7  -2   3    5.60    2.30
  -8   2  -3  320.87   14.00
  -8   2  -3  328.37   14.30
  -8   2  -3  326.17   11.90
   8  -2   3  321.47   13.70
   8  -2   3  293.37   11.10
   7   1  -3   41.40    6.30
   7   1  -3   39.10    6.20
  -7  -1   3   27.40    4.50
  -7  -1   3   46.10    5.80
   6   1  -3    0.90    2.20
   6   1  -3   -2.00    2.00
  -6  -1   3    1.70    2.60
  -6  -1   3   -0.80    2.00
   5   1  -3  142.99    8.30
   5   1  -3  145.79    8.10
  -5  -1   3  137.89    7.70
  -5  -1   3  146.99    7.80
  -5  -1   3  149.59    7.80
  -5  -1   3  140.99    7.60
   4   1  -3  541.65   17.40
   4   1  -3  564.54   17.50
  -4  -1   3  560.84   17.40
  -4  -1   3  541.85   16.80
  -4  -1   3  567.84   17.20
  -4  -1   3  550.94   17.00
   3   1  -3  389.26   12.60
   3   1  -3  404.86   12.90
  -3  -1   3  399.56   13.10
  -3  -1   3  387.16   12.40
  -3  -1   3  383.36   12.20
  -3  -1   3  380.46   12.60
   2   1  -3 1716.73   41.90
  -2  -1   3 1695.73   42.60
  -2  -1   3 1771.52   42.40
  -2  -1   3 1779.82   41.50
  -2  -1   3 1696.93   41.50
   1   1  -3 1118.59   28.10
   1   1  -3 1106.69   26.70
   1   1  -3 1131.59   26.90
  -1  -1   3 1070.79   27.90
  -1  -1   3 1098.09   26.50
  -1  -1   3 1061.79   26.60
   0   1  -3 1651.63   40.00
   0   1  -3 1628.84   38.30
   0   1  -3 1644.44   38.40
   0  -1   3 1645.24   38.10
   0  -1   3 1629.34   37.90
   0  -1   3 1668.13   39.90
  -1   1  -3   36.10    3.50
  -1   1  -3   36.80    2.40
   1  -1   3   35.20    3.10
   1  -1   3   37.90    2.20
   1  -1   3   34.90    2.10
  -2   1  -3 2271.57   52.69
  -2   1  -3 2307.77   52.59
  -2   1  -3 2280.67   53.69
   2  -1   3 2248.18   52.39
   2  -1   3 2287.07   53.59
  -3   1  -3 1974.10   47.10
  -3   1  -3 1987.20   46.80
  -3   1  -3 1970.80   46.50
   3  -1   3 1985.30   46.90
   3  -1   3 1967.30   46.50
   3  -1   3 1939.51   46.30
  -4   1  -3  634.44   17.70
  -4   1  -3  655.73   17.70
   4  -1   3  634.84   17.70
   4  -1   3  624.94   17.30
   4  -1   3  608.24   17.30
  -5   1  -3   63.29    4.40
  -5   1  -3   57.49    4.60
  -5   1  -3   61.39    4.60
   5  -1   3   64.89    4.60
   5  -1   3   58.19    4.30
   5  -1   3   59.59    4.10
  -6   1  -3    2.50    2.10
  -6   1  -3    0.70    2.10
  -6   1  -3    1.50    2.00
   6  -1   3   -1.40    1.40
   6  -1   3   -1.00    1.50
   6  -1   3    0.10    1.30
  -7   1  -3  184.58    9.50
  -7   1  -3  167.48    8.10
  -7   1  -3  176.18    9.30
   7  -1   3  173.58    7.80
   7  -1   3  169.48    9.10
  -8   1  -3   25.80    4.40
  -8   1  -3   18.00    3.70
  -8   1  -3   24.70    4.00
   8  -1   3   34.30    5.30
   8  -1   3   22.30    3.60
  -9   1  -3   38.00    5.90
  -9   1  -3   30.30    4.60
   9  -1   3   37.50    5.90
   7   0  -3   15.90    4.40
   7   0  -3   11.30    3.80
  -7   0   3    7.00    3.10
  -7   0   3    8.00    2.80
   6   0  -3   54.29    5.90
   6   0  -3   56.69    5.80
  -6   0   3   46.30    5.40
  -6   0   3   45.70    4.60
  -6   0   3   46.50    5.40
  -6   0   3   49.40    4.90
   5   0  -3  236.38   10.70
   5   0  -3  250.57   11.20
  -5   0   3  232.48   10.40
  -5   0   3  263.77    9.90
  -5   0   3  241.28    9.90
  -5   0   3  250.27   10.80
   4   0  -3  951.70   26.00
   4   0  -3  907.31   25.80
  -4   0   3  911.71   25.60
  -4   0   3  929.21   25.40
  -4   0   3  913.81   25.00
  -4   0   3  906.21   24.60
   3   0  -3  105.59    5.70
   3   0  -3  102.09    5.70
  -3   0   3  112.09    5.50
  -3   0   3  111.89    5.50
  -3   0   3  112.99    5.80
  -3   0   3  107.09    5.50
   2   0  -3 1443.76   35.40
  -2   0   3 1409.46   35.20
  -2   0   3 1464.75   35.10
  -2   0   3 1382.66   35.50
  -2   0   3 1477.95   36.30
   1   0  -3  292.47    9.00
   1   0  -3  289.07    9.40
   1   0  -3  294.67    9.10
  -1   0   3  291.27    8.90
  -1   0   3  292.37    9.40
  -1   0   3  301.17    9.10
   0   0  -3 1829.92   42.70
   0   0  -3 1809.52   43.50
   0   0   3 1866.71   42.70
   0   0   3 1863.21   43.20
   0   0   3 1817.32   43.50
  -1   0  -3   69.59    3.70
  -1   0  -3   70.59    3.20
   1   0   3   56.29    3.60
   1   0   3   70.89    3.10
   1   0   3   72.39    3.70
  -2   0  -3    4.60    1.70
  -2   0  -3    5.20    1.50
   2   0   3    7.20    1.90
   2   0   3    6.00    1.50
   2   0   3    8.20    1.60
  -3   0  -3   55.09    3.80
  -3   0  -3   55.29    3.70
  -3   0  -3   51.99    4.50
   3   0   3   53.09    3.70
   3   0   3   54.59    3.80
   3   0   3   56.69    3.80
  -4   0  -3 1127.59   29.30
  -4   0  -3 1122.79   28.80
  -4   0  -3 1170.38   29.20
   4   0   3 1129.59   28.60
   4   0   3 1100.29   29.10
   4   0   3 1153.28   29.00
  -5   0  -3   68.49    5.00
  -5   0  -3   79.59    5.00
  -5   0  -3   74.19    5.10
   5   0   3   71.39    5.00
   5   0   3   80.19    5.00
   5   0   3   74.89    4.40
  -6   0  -3   47.10    4.50
  -6   0  -3   42.70    4.70
  -6   0  -3   42.10    4.70
   6   0   3   49.99    4.90
   6   0   3   48.90    4.80
   6   0   3   49.70    4.10
  -7   0  -3  499.95   17.70
  -7   0  -3  530.15   18.20
  -7   0  -3  515.65   16.60
   7   0   3  505.45   17.80
   7   0   3  494.75   17.60
   7   0   3  493.15   15.90
  -8   0  -3   34.10    5.20
  -8   0  -3   44.90    5.20
   8   0   3   27.90    4.30
   8   0   3   21.30    3.80
  -9   0  -3   31.80    4.90
  -9   0  -3   49.40    6.00
  -9   0  -3   38.10    5.70
   8  -1  -3    0.70    2.90
  -8   1   3   -3.10    2.60
  -8   1   3   -3.40    2.50
   7  -1  -3  130.89    9.50
   7  -1  -3  151.58   13.10
  -7   1   3  149.39    7.70
  -7   1   3  154.88    9.70
  -7   1   3  153.58    8.00
   6  -1  -3   30.00    4.70
   6  -1  -3   26.70    4.60
  -6   1   3   38.20    4.10
  -6   1   3   40.90    7.60
  -6   1   3   35.30    5.00
  -6   1   3   37.50    4.20
   5  -1  -3    0.50    1.80
   5  -1  -3    4.90    2.30
  -5   1   3   -0.60    1.70
  -5   1   3   -1.30    2.00
  -5   1   3   -2.10    1.60
  -5   1   3    0.00    1.80
   4  -1  -3  775.92   23.10
   4  -1  -3  821.52   23.50
  -4   1   3  817.82   21.40
  -4   1   3  805.62   21.70
  -4   1   3  803.42   23.00
  -4   1   3  806.42   23.30
   3  -1  -3  303.57   10.80
   3  -1  -3  300.37   10.70
  -3   1   3  296.67   10.70
  -3   1   3  301.57    9.60
  -3   1   3  279.57   13.40
  -3   1   3  299.97    9.70
   2  -1  -3  587.14   16.60
   2  -1  -3  582.74   15.90
   2  -1  -3  593.94   16.80
  -2   1   3  594.64   16.00
  -2   1   3  606.94   16.60
  -2   1   3  592.84   16.80
   1  -1  -3 1921.81   44.80
   1  -1  -3 1957.50   45.00
   1  -1  -3 1931.81   45.20
  -1   1   3 1830.12   44.60
  -1   1   3 1908.31   45.10
  -1   1   3 1868.81   44.90
   0  -1  -3  364.46   10.30
   0  -1  -3  343.27   10.20
   0  -1  -3  362.56   10.20
   0   1   3  350.56   10.10
   0   1   3  358.36   10.10
   0   1   3  357.36   10.30
  -1  -1  -3  571.34   15.10
  -1  -1  -3  579.74   15.30
  -1  -1  -3  596.04   15.00
   1   1   3  567.34   15.10
   1   1   3  572.94   15.10
   1   1   3  564.54   14.90
  -2  -1  -3   35.60    3.00
  -2  -1  -3   38.90    2.90
  -2  -1  -3   35.80    2.80
   2   1   3   35.70    2.80
   2   1   3   30.20    2.60
   2   1   3   34.80    2.70
  -3  -1  -3 1590.34   39.00
  -3  -1  -3 1610.54   39.00
  -3  -1  -3 1627.54   39.30
   3   1   3 1635.64   39.30
   3   1   3 1558.74   38.90
   3   1   3 1652.23   39.00
  -4  -1  -3  196.38    7.70
  -4  -1  -3  208.98    9.10
  -4  -1  -3  209.78    8.20
   4   1   3  203.78    8.10
   4   1   3  188.38    7.50
   4   1   3  196.78    8.50
  -5  -1  -3 1942.51   48.80
  -5  -1  -3 1964.60   49.70
  -5  -1  -3 2085.69   49.70
   5   1   3 1996.20   48.60
   5   1   3 1975.60   49.40
   5   1   3 2048.20   49.90
  -6  -1  -3  730.93   22.60
  -6  -1  -3  790.32   22.20
  -6  -1  -3  785.52   23.10
   6   1   3  714.63   21.50
   6   1   3  767.02   23.10
   6   1   3  787.32   22.90
  -7  -1  -3  173.28    9.40
  -7  -1  -3  173.28    9.30
  -7  -1  -3  174.38    8.70
   7   1   3  162.98    8.00
   7   1   3  160.88    9.20
   7   1   3  158.48    9.80
  -8  -1  -3  354.26   13.90
  -8  -1  -3  344.47   15.10
  -8  -1  -3  345.27   14.80
   8   1   3  369.06   15.30
  -9  -1  -3    0.90    3.30
  -9  -1  -3    3.30    2.90
  -9  -1  -3    6.30    3.00
   9   1   3   -1.80    2.00
   7  -2  -3   29.60    5.50
  -7   2   3   16.40    2.90
  -7   2   3   22.30    4.40
  -7   2   3   19.30    4.50
  -7   2   3   23.00    3.20
   6  -2  -3  772.72   25.20
   6  -2  -3  803.82   25.40
  -6   2   3  784.22   21.70
  -6   2   3  794.52   25.00
  -6   2   3  823.72   21.60
  -6   2   3  799.72   25.30
   5  -2  -3  993.40   28.90
   5  -2  -3 1018.50   29.20
  -5   2   3 1014.10   28.70
  -5   2   3  980.00   25.80
  -5   2   3 1003.20   25.50
  -5   2   3 1010.20   29.00
   4  -2  -3   69.09    5.40
   4  -2  -3   63.19    5.30
  -4   2   3   70.69    5.50
  -4   2   3   77.79    4.00
  -4   2   3   72.89    3.90
  -4   2   3   69.79    5.50
   3  -2  -3  642.94   18.70
   3  -2  -3  629.44   18.70
  -3   2   3  642.44   18.50
  -3   2   3  641.74   16.70
  -3   2   3  631.44   18.80
  -3   2   3  647.04   16.50
   2  -2  -3    3.70    1.70
   2  -2  -3    2.70    1.30
  -2   2   3    2.40    1.20
  -2   2   3    1.10    1.30
  -2   2   3    4.80    2.10
   1  -2  -3 3044.40   72.39
  -1   2   3 3145.99   72.29
  -1   2   3 3189.38   72.59
   0  -2  -3   13.90    1.80
   0  -2  -3   13.70    1.90
   0  -2  -3   15.40    1.90
   0   2   3   14.90    2.10
   0   2   3   13.10    1.80
   0   2   3   18.80    2.20
  -1  -2  -3   15.50    2.10
  -1  -2  -3   12.30    1.90
  -1  -2  -3   11.80    1.70
   1   2   3   12.90    1.90
   1   2   3   13.30    1.90
   1   2   3   15.30    2.00
  -2  -2  -3    9.50    2.00
  -2  -2  -3    8.70    1.90
  -2  -2  -3    7.80    1.70
   2   2   3    5.80    1.60
   2   2   3   12.10    2.10
   2   2   3    5.20    1.40
  -3  -2  -3  302.07   10.30
  -3  -2  -3  324.77   10.30
  -3  -2  -3  314.37   10.30
   3   2   3  305.47   10.20
   3   2   3  334.97   10.30
   3   2   3  309.07   10.50
  -4  -2  -3  732.83   20.30
  -4  -2  -3  709.73   20.50
  -4  -2  -3  752.62   20.60
   4   2   3  752.32   20.80
   4   2   3  716.93   20.30
   4   2   3  738.63   20.10
  -5  -2  -3  100.59    5.90
  -5  -2  -3   79.49    6.50
  -5  -2  -3  105.89    6.90
   5   2   3   92.29    6.00
   5   2   3   91.09    7.70
   5   2   3  107.39    5.70
  -6  -2  -3  116.39    7.20
  -6  -2  -3  123.29    7.30
  -6  -2  -3  114.79    7.00
   6   2   3  123.09    7.30
   6   2   3  107.79    7.00
   6   2   3  118.19    7.30
  -7  -2  -3   55.39    5.60
  -7  -2  -3   57.89    5.90
  -7  -2  -3   51.49    5.50
   7   2   3   53.99    4.90
   7   2   3   54.79    5.70
   7   2   3   58.29    5.80
  -8  -2  -3   71.49    8.20
  -8  -2  -3   57.89    6.00
  -8  -2  -3   37.50    5.40
   8   2   3   68.39    6.70
   8   2   3   51.69    6.10
  -9  -2  -3   30.00    5.20
  -9  -2  -3   26.10    5.60
   9   2   3   15.30    3.70
   7  -3  -3  108.09    8.30
  -7   3   3   96.69    8.10
  -7   3   3   91.89    4.90
  -7   3   3   93.69    8.10
   6  -3  -3   10.10    3.00
   6  -3  -3    9.10    3.20
  -6   3   3    7.90    1.70
  -6   3   3    4.60    2.70
  -6   3   3    8.00    3.30
  -6   3   3    3.80    1.70
   5  -3  -3    6.00    2.50
   5  -3  -3    1.10    2.20
  -5   3   3    0.10    2.10
  -5   3   3    2.20    1.30
  -5   3   3    5.30    2.90
  -5   3   3    3.80    1.30
   4  -3  -3   37.70    4.30
   4  -3  -3   42.70    4.60
  -4   3   3   39.40    4.30
  -4   3   3   39.00    2.50
  -4   3   3   43.60    2.60
  -4   3   3   41.60    4.60
   3  -3  -3  226.08    9.20
   3  -3  -3  225.38    9.10
  -3   3   3  220.18    6.50
  -3   3   3  242.18    6.70
  -3   3   3  218.08    8.90
  -3   3   3  228.88    9.30
   2  -3  -3   17.20    2.90
   2  -3  -3   17.90    1.70
   2  -3  -3   24.00    3.20
  -2   3   3   16.30    1.70
  -2   3   3   21.00    3.00
  -2   3   3   16.40    2.50
   1  -3  -3  338.27   10.80
   1  -3  -3  340.77   10.70
   1  -3  -3  340.17    9.40
  -1   3   3  341.07    9.30
  -1   3   3  341.17   10.80
  -1   3   3  351.46   11.10
   0  -3  -3  255.57    8.40
   0  -3  -3  249.78    8.50
   0  -3  -3  261.47    7.80
   0   3   3  249.18    8.40
   0   3   3  255.57    8.60
   0   3   3  245.68    7.50
  -1  -3  -3  502.55   13.70
  -1  -3  -3  504.45   13.50
  -1  -3  -3  482.55   13.80
   1   3   3  478.35   13.20
   1   3   3  482.65   13.70
   1   3   3  485.15   13.90
  -2  -3  -3 5555.34  152.08
   2   3   3 5448.15  152.08
  -3  -3  -3  461.85   13.80
  -3  -3  -3  456.45   13.60
  -3  -3  -3  460.45   13.80
   3   3   3  453.05   13.60
   3   3   3  434.56   13.40
   3   3   3  452.45   13.90
  -4  -3  -3  612.14   18.50
  -4  -3  -3  625.24   18.40
  -4  -3  -3  653.83   18.50
   4   3   3  647.74   18.30
   4   3   3  653.13   18.80
   4   3   3  630.94   18.40
  -5  -3  -3  327.77   12.20
  -5  -3  -3  321.57   11.90
  -5  -3  -3  332.77   12.10
   5   3   3  331.97   11.70
   5   3   3  331.07   12.10
   5   3   3  325.67   12.40
  -6  -3  -3  386.16   14.00
  -6  -3  -3  369.56   14.00
  -6  -3  -3  361.66   13.70
   6   3   3  378.26   14.10
   6   3   3  381.56   14.50
   6   3   3  363.96   13.30
  -7  -3  -3  686.33   21.80
  -7  -3  -3  684.13   22.10
   7   3   3  670.93   22.30
   7   3   3  688.43   22.80
  -8  -3  -3   10.50    3.40
  -8  -3  -3    0.70    2.20
   8   3   3    7.90    3.60
   8   3   3    1.50    3.30
  -9  -3  -3    9.60    3.90
   9   3   3    1.20    2.60
   7  -4  -3  159.58   11.60
  -7   4   3  172.98   10.80
  -7   4   3  162.78   10.50
   6  -4  -3  184.38   10.10
  -6   4   3  180.98   10.30
  -6   4   3  159.08    9.50
   5  -4  -3  120.69    7.60
   5  -4  -3  108.19    7.20
  -5   4   3   95.29    7.10
  -5   4   3  114.09    7.30
   4  -4  -3  527.45   17.10
   4  -4  -3  501.45   16.80
  -4   4   3  498.95   17.10
  -4   4   3  509.05   16.80
   3  -4  -3    0.70    1.70
   3  -4  -3    0.30    1.40
  -3   4   3    1.00    1.90
  -3   4   3    0.90    1.50
   2  -4  -3  458.15   11.00
   2  -4  -3  432.56   13.90
   2  -4  -3  467.25   13.90
  -2   4   3  458.55   14.00
  -2   4   3  441.06   14.20
  -2   4   3  451.35   10.90
   1  -4  -3 1122.29   28.40
   1  -4  -3 1116.39   26.50
   1  -4  -3 1149.19   28.40
  -1   4   3 1107.19   28.30
  -1   4   3 1095.69   28.60
  -1   4   3 1109.39   26.30
   0  -4  -3  381.06   10.80
   0  -4  -3  402.16   11.70
   0  -4  -3  385.26   11.80
   0   4   3  389.16   10.70
   0   4   3  383.36   12.00
   0   4   3  380.46   11.70
  -1  -4  -3   42.70    3.30
  -1  -4  -3   40.30    3.20
  -1  -4  -3   37.90    3.10
   1   4   3   47.40    3.20
   1   4   3   39.60    3.60
   1   4   3   39.40    3.30
  -2  -4  -3   48.90    3.50
  -2  -4  -3   46.00    3.60
  -2  -4  -3   51.19    3.70
   2   4   3   45.30    3.50
   2   4   3   54.69    4.00
   2   4   3   49.50    3.60
  -3  -4  -3  157.78    7.00
  -3  -4  -3  162.18    6.80
  -3  -4  -3  148.89    6.80
   3   4   3  168.68    7.00
   3   4   3  150.28    6.70
   3   4   3  160.18    7.10
  -4  -4  -3   28.30    3.70
  -4  -4  -3   32.30    3.60
  -4  -4  -3   34.00    3.70
   4   4   3   33.10    3.60
   4   4   3   32.10    3.30
   4   4   3   33.40    3.80
  -5  -4  -3  330.27   12.60
  -5  -4  -3  341.37   12.70
  -5  -4  -3  369.86   12.80
   5   4   3  350.96   13.10
   5   4   3  334.67   12.40
   5   4   3  327.47   12.50
  -6  -4  -3    1.10    2.00
  -6  -4  -3   -2.60    2.00
  -6  -4  -3    0.70    2.40
   6   4   3   -2.00    1.80
   6   4   3    0.60    1.90
  -7  -4  -3   82.39    6.70
  -7  -4  -3   99.99    7.20
   7   4   3  104.39    7.80
   7   4   3   85.89    7.10
  -8  -4  -3   22.30    3.80
  -8  -4  -3   31.00    5.30
   8   4   3   41.60    6.50
   8   4   3   22.20    4.30
   7  -5  -3   11.90    3.20
  -7   5   3   21.60    4.90
   6  -5  -3  781.32   25.20
  -6   5   3  770.32   25.40
  -6   5   3  759.42   24.90
   5  -5  -3   18.80    3.60
  -5   5   3   20.10    4.20
  -5   5   3   16.90    3.70
   4  -5  -3  125.39    7.20
   4  -5  -3  122.79    7.30
  -4   5   3  129.49    7.80
  -4   5   3  123.29    7.30
   3  -5  -3   60.39    4.90
   3  -5  -3   73.89    7.00
  -3   5   3   69.69    5.20
  -3   5   3   64.49    5.30
   2  -5  -3  187.18    8.00
  -2   5   3  200.38    8.20
  -2   5   3  197.68    8.40
   1  -5  -3   45.50    3.60
   1  -5  -3   48.70    2.70
   1  -5  -3   45.30    3.60
  -1   5   3   49.70    2.50
  -1   5   3   51.19    4.00
   0  -5  -3  598.94   15.50
   0  -5  -3  553.74   16.20
   0  -5  -3  589.84   16.20
   0   5   3  574.64   15.20
   0   5   3  568.64   16.60
  -1  -5  -3   47.00    3.50
  -1  -5  -3   47.40    3.30
  -1  -5  -3   37.10    3.20
   1   5   3   41.40    3.10
   1   5   3   43.20    3.60
  -2  -5  -3   24.90    3.20
  -2  -5  -3   28.80    4.00
  -2  -5  -3   26.40    2.80
   2   5   3   27.10    2.80
   2   5   3   26.90    3.20
  -3  -5  -3  840.22   22.10
  -3  -5  -3  787.62   22.50
  -3  -5  -3  840.42   22.50
   3   5   3  780.62   22.20
   3   5   3  831.22   22.60
   3   5   3  791.92   22.60
  -4  -5  -3   59.89    4.80
  -4  -5  -3   63.89    5.10
  -4  -5  -3   69.59    4.80
   4   5   3   68.69    5.40
   4   5   3   71.59    5.40
   4   5   3   71.19    5.10
  -5  -5  -3   44.20    4.60
  -5  -5  -3   34.10    4.10
  -5  -5  -3   34.70    4.60
   5   5   3   35.20    4.00
   5   5   3   35.00    4.30
   5   5   3   30.10    4.30
  -6  -5  -3  131.69    8.10
  -6  -5  -3  142.49    7.90
   6   5   3  111.09   11.10
   6   5   3  131.59    7.90
  -7  -5  -3    0.80    2.40
  -7  -5  -3   -0.70    2.70
   7   5   3   -3.10    2.30
   7   5   3   -0.20    2.30
  -8  -5  -3   99.29    7.90
  -8  -5  -3   91.19    7.80
   8   5   3  103.39    8.90
   8   5   3  120.29    8.90
   6  -6  -3  125.89    8.20
  -6   6   3  109.69    8.30
  -6   6   3  119.09    9.10
   5  -6  -3   -0.50    2.50
  -5   6   3   -2.10    2.20
  -5   6   3    2.80    2.30
   4  -6  -3    3.60    1.90
  -4   6   3    5.70    2.50
  -4   6   3    4.50    2.50
   3  -6  -3  254.97   10.20
  -3   6   3  235.88   10.40
  -3   6   3  254.37   10.60
   2  -6  -3    1.30    1.50
   2  -6  -3    0.20    1.50
  -2   6   3   -0.40    0.50
  -2   6   3   -0.70    1.50
   1  -6  -3  392.66   10.70
   1  -6  -3  401.06   12.30
   1  -6  -3  374.36   15.90
  -1   6   3  391.26   10.50
  -1   6   3  354.76   12.30
  -1   6   3  393.96   12.90
   0  -6  -3   78.59    4.50
   0  -6  -3   78.99    4.30
   0  -6  -3   80.59    4.60
   0   6   3   83.29    4.20
   0   6   3   78.29    4.70
   0   6   3   78.89    5.00
  -1  -6  -3 1737.63   41.50
  -1  -6  -3 1707.93   41.70
  -1  -6  -3 1731.63   41.80
   1   6   3 1645.34   42.10
   1   6   3 1722.33   41.70
   1   6   3 1707.53   42.00
  -2  -6  -3 2215.98   52.19
  -2  -6  -3 2182.28   51.79
  -2  -6  -3 2293.87   52.89
   2   6   3 2209.28   52.59
   2   6   3 2200.28   52.79
   2   6   3 1883.71   51.79
  -3  -6  -3   28.60    3.40
  -3  -6  -3   27.40    3.20
  -3  -6  -3   22.90    3.50
   3   6   3   25.00    3.50
   3   6   3   21.60    3.10
  -4  -6  -3  329.47   11.60
  -4  -6  -3  316.27   11.70
  -4  -6  -3  314.67   17.30
   4   6   3  320.87   12.50
   4   6   3  310.17   12.10
  -5  -6  -3    9.20    3.10
   5   6   3   13.00    3.10
   5   6   3    5.30    2.40
  -6  -6  -3  256.27   12.10
  -6  -6  -3  264.87   11.40
   6   6   3  276.37   12.10
   6   6   3  259.97   12.20
  -7  -6  -3    0.90    2.10
  -7  -6  -3    9.60    5.80
   7   6   3   -1.50    2.50
   7   6   3    4.50    3.10
   8   6   3   13.30    4.60
   5  -7  -3  484.45   17.70
  -5   7   3  512.25   18.90
  -5   7   3  529.55   18.60
   4  -7  -3    6.70    2.20
  -4   7   3    5.10    2.50
   3  -7  -3   22.30    3.30
  -3   7   3   15.10    3.10
  -3   7   3   20.50    3.50
   2  -7  -3   25.20    3.40
  -2   7   3   31.80    4.10
  -2   7   3   31.20    4.10
   1  -7  -3  140.69    5.40
  -1   7   3  142.39    6.90
  -1   7   3  137.29    7.10
  -1   7   3  137.09    5.20
   0  -7  -3  416.26   12.60
   0  -7  -3  399.26   12.70
   0  -7  -3  407.76   12.50
   0   7   3  408.96   13.30
   0   7   3  410.96   13.60
   0   7   3  414.86   12.40
  -1  -7  -3   61.69    4.10
  -1  -7  -3   59.89    4.40
  -1  -7  -3   62.99    4.10
   1   7   3   56.89    4.40
   1   7   3   56.69    4.70
   1   7   3   56.29    4.20
  -2  -7  -3  236.48    9.90
  -2  -7  -3  238.08    8.80
  -2  -7  -3  279.07   12.20
   2   7   3  248.18    9.60
   2   7   3  241.98    9.80
   2   7   3  232.28    9.70
  -3  -7  -3    2.80    1.70
  -3  -7  -3    0.20    3.70
   3   7   3    1.00    2.00
   3   7   3    0.30    1.60
   3   7   3   -0.90    1.60
  -4  -7  -3  115.29    7.50
  -4  -7  -3  115.89    6.40
   4   7   3  122.29    7.20
  -5  -7  -3   43.00    4.40
  -5  -7  -3   45.80    5.90
   5   7   3   25.80    3.90
   5   7   3   35.30    5.80
  -6  -7  -3    9.00    3.80
  -6  -7  -3    7.40    2.60
   6   7   3    4.90    2.60
   6   7   3   11.50    3.30
  -7  -7  -3   39.50    5.90
  -7  -7  -3   59.59    6.10
   7   7   3   62.19    7.50
   4  -8  -3   58.89    5.20
  -4   8   3   51.19    5.50
  -4   8   3   45.40    5.30
   3  -8  -3    0.90    1.70
  -3   8   3    0.20    1.90
  -3   8   3    3.40    2.20
   2  -8  -3  575.94   17.30
  -2   8   3  576.44   18.50
  -2   8   3  589.14   18.40
   1  -8  -3  109.09    5.60
   1  -8  -3  114.19    5.00
  -1   8   3  115.79    6.50
  -1   8   3  102.59    6.30
   0  -8  -3  288.77    9.50
   0  -8  -3  273.57    9.80
   0   8   3  258.67   10.50
   0   8   3  283.67   10.60
   0   8   3  270.17    9.70
  -1  -8  -3  129.29    6.80
  -1  -8  -3  127.69    5.80
   1   8   3  124.49    6.80
   1   8   3  124.79    6.50
   1   8   3  130.79    6.70
  -2  -8  -3   68.39    4.30
  -2  -8  -3   70.39    5.60
   2   8   3   67.69    5.20
   2   8   3   68.29    5.30
   2   8   3   66.59    5.00
  -3  -8  -3  658.13   18.80
  -3  -8  -3  640.54   20.80
   3   8   3  672.73   20.40
   3   8   3  635.84   19.80
  -4  -8  -3   77.99    6.80
  -4  -8  -3   75.89    7.60
   4   8   3   80.59    5.90
   4   8   3   74.79    5.90
  -5  -8  -3   15.30    3.00
  -5  -8  -3   18.10    4.20
   5   8   3   24.20    4.40
   5   8   3   25.40    4.30
  -6  -8  -3    0.20    2.90
  -6  -8  -3    3.60    3.10
   6   8   3    8.30    2.70
   3  -9  -3   -0.70    3.30
  -3   9   3    1.30    2.70
  -3   9   3    4.30    2.40
  -2   9   3   47.00    4.90
  -2   9   3   43.60    4.90
   1  -9  -3  165.98    9.60
   1  -9  -3  184.78    6.90
   1  -9  -3  182.08    7.30
  -1   9   3  164.58    8.40
   0  -9  -3   17.60    2.90
   0  -9  -3   19.70    3.20
   0  -9  -3   20.00    4.10
   0   9   3   19.80    3.40
   0   9   3   21.30    4.80
  -1  -9  -3  258.57   10.60
   1   9   3  268.27   10.60
   1   9   3  249.38   10.50
  -2  -9  -3    9.70    2.00
  -2  -9  -3   15.50    3.40
   2   9   3   16.60    3.20
   2   9   3   12.20    2.90
  -3  -9  -3   90.09    4.90
  -3  -9  -3   90.09    7.00
   3   9   3   90.39    6.30
  -4  -9  -3   83.39    5.20
   4   9   3  101.69    7.10
   4   9   3   84.89    6.40
  -5  -9  -3    4.40    3.50
   5   9   3    5.60    4.20
   5   9   3    6.10    3.30
   1 -10  -3  140.99    7.70
  -1  10   3  124.19    7.50
   0 -10  -3   60.49    5.00
   0  10   3   67.79    5.40
   0  10   3   59.79    5.30
  -1 -10  -3   -1.50    2.10
   1  10   3    2.60    2.10
   1  10   3    0.00    2.00
  -2 -10  -3   -0.80    2.50
   2  10   3    3.60    2.80
   2  10   3    4.00    2.50
   2   7  -4   34.70    2.50
   2   7  -4   36.80    2.50
  -2  -7   4   35.60    5.70
   0  -7   4   40.60    5.60
   1  -7   4   88.99    6.70
   2  -7   4  138.69    8.10
   3  -7   4  681.83   21.20
   4  -7   4    2.50    2.60
   4   6  -4   47.00    4.70
   3   6  -4  185.78    7.90
   3   6  -4  196.28    8.10
  -3  -6   4  194.78   10.90
   2   6  -4   21.90    2.50
   2   6  -4   23.90    2.60
  -2  -6   4   20.30    4.50
   1   6  -4  485.45   12.30
   1   6  -4  488.55   12.30
  -1  -6   4  485.25   17.70
   0  -6   4  201.38   10.00
   1  -6   4  173.18    8.90
   2  -6   4   80.99    6.00
   3  -6   4   12.00    3.10
  -4   6  -4  192.68    6.70
   4  -6   4  189.18    8.90
   4  -6   4  196.38    8.80
  -5   6  -4    6.40    1.90
   5  -6   4    3.70    3.30
   5  -6   4    6.20    2.20
   5   5  -4  358.06   14.10
   5   5  -4  327.17   14.80
  -5  -5   4  327.57   11.60
  -5  -5   4  368.66   17.90
   4   5  -4    3.30    1.90
   4   5  -4    4.90    2.50
  -4  -5   4    5.40    3.70
  -4  -5   4    8.80    1.60
   3   5  -4   79.99    5.00
   3   5  -4   75.69    4.90
  -3  -5   4   78.99    6.80
   2   5  -4  136.09    5.80
   2   5  -4  129.29    5.70
  -2  -5   4  121.79    8.00
   1   5  -4   80.49    3.70
   1   5  -4   77.49    3.60
  -1  -5   4   77.49    6.30
   0  -5   4    8.30    2.90
   1  -5   4   15.90    4.80
   1  -5   4   20.10    3.80
   2  -5   4   56.59    5.10
   2  -5   4   58.39    4.90
  -3   5  -4   87.39    5.90
  -3   5  -4   82.39    3.60
  -3   5  -4   81.49    3.60
   3  -5   4   76.89    5.70
  -4   5  -4  390.16   11.80
  -4   5  -4  391.16   13.50
  -4   5  -4  393.46   11.70
   4  -5   4  371.96   13.20
  -5   5  -4   64.19    5.00
  -5   5  -4   53.39    4.10
  -5   5  -4   59.99    4.40
   5  -5   4   54.89    4.50
  -6   5  -4   -0.40    1.40
  -6   5  -4    1.60    2.10
  -6   5  -4    2.90    2.10
   6  -5   4   -4.10    1.80
   5   4  -4   68.29    6.00
  -5  -4   4   67.09    5.10
   4   4  -4  199.18    8.90
   4   4  -4  183.78    8.80
  -4  -4   4  171.68    7.40
  -4  -4   4  170.08    9.70
   3   4  -4    6.40    2.00
   3   4  -4    6.70    2.10
  -3  -4   4   11.50    3.40
  -3  -4   4    7.40    1.70
   2   4  -4  282.67    9.70
   2   4  -4  302.57   10.00
  -2  -4   4  284.97   12.00
  -2  -4   4  300.77    7.80
  -2  -4   4  284.57    7.40
   1   4  -4   15.60    2.70
   1   4  -4   17.30    2.20
  -1  -4   4   15.70    4.10
  -1  -4   4   15.00    3.70
   0   4  -4  643.94   16.30
   0   4  -4  661.83   16.30
   0  -4   4  672.73   20.80
   0  -4   4  673.33   20.30
  -1   4  -4    0.00    0.60
  -1   4  -4   -1.30    1.70
  -1   4  -4   -0.30    0.60
   1  -4   4    0.30    2.00
   1  -4   4    1.40    2.00
  -2   4  -4 2092.99   47.40
  -2   4  -4 2025.30   47.20
  -2   4  -4 2036.50   51.19
   2  -4   4 2095.39   51.49
  -3   4  -4 1161.38   28.30
  -3   4  -4 1177.98   28.20
  -3   4  -4 1171.48   31.00
   3  -4   4 1135.69   30.90
  -4   4  -4  117.49    6.50
  -4   4  -4  109.59    5.40
  -4   4  -4  109.59    5.30
   4  -4   4  110.99    6.20
  -5   4  -4  265.17   12.50
  -5   4  -4  294.37   10.50
  -5   4  -4  296.97   11.00
   5  -4   4  296.07    9.00
   5  -4   4  300.37   10.80
  -6   4  -4   12.00    2.70
  -6   4  -4   12.40    2.90
  -6   4  -4    7.20    2.20
   6  -4   4   13.10    2.30
   6  -4   4    5.20    2.30
  -7   4  -4  114.59    6.40
  -7   4  -4  116.69    7.30
  -7   4  -4  115.39    7.60
   7  -4   4   92.49    5.70
   7  -4   4  109.79    6.40
   6   3  -4  156.48    9.60
   6   3  -4  111.19   11.30
  -6  -3   4  156.48    8.50
  -6  -3   4  167.18   11.20
   5   3  -4   11.30    2.90
  -5  -3   4   17.50    3.30
  -5  -3   4   12.30    3.60
   4   3  -4  503.05   16.70
   4   3  -4  514.65   17.00
  -4  -3   4  508.95   18.10
  -4  -3   4  513.15   15.90
   3   3  -4    7.40    2.20
   3   3  -4    8.20    2.20
  -3  -3   4    6.70    1.90
  -3  -3   4    7.80    2.90
   2   3  -4   73.29    4.50
   2   3  -4   67.49    4.30
  -2  -3   4   68.79    3.50
  -2  -3   4   75.29    5.80
  -2  -3   4   76.59    5.70
   1   3  -4   55.09    3.40
   1   3  -4   54.59    3.40
  -1  -3   4   55.09    2.30
  -1  -3   4   51.59    4.80
  -1  -3   4   56.09    2.30
  -1  -3   4   52.09    4.70
   0   3  -4  330.37   10.10
   0   3  -4  336.07   12.30
   0   3  -4  327.87    9.20
   0  -3   4  321.97   12.00
  -1   3  -4  656.73   19.60
  -1   3  -4  662.03   16.20
  -1   3  -4  660.53   16.40
   1  -3   4  659.43   19.60
  -2   3  -4  535.75   13.80
  -2   3  -4  530.85   13.90
  -2   3  -4  524.95   16.50
   2  -3   4  537.25   16.40
  -3   3  -4   69.69    3.80
  -3   3  -4   64.09    4.90
  -3   3  -4   71.29    3.70
   3  -3   4   69.59    2.50
   3  -3   4   68.69    2.50
   3  -3   4   80.09    5.10
  -4   3  -4  267.57   10.00
  -4   3  -4  250.87    9.00
   4  -3   4  242.28    9.50
   4  -3   4  240.28    7.80
   4  -3   4  253.67    7.90
  -5   3  -4  272.27   10.20
  -5   3  -4  264.17   10.20
  -5   3  -4  280.67   10.20
   5  -3   4  242.58   11.80
   5  -3   4  270.27   10.10
  -6   3  -4   59.69    5.10
  -6   3  -4   52.59    4.70
  -6   3  -4   53.19    4.80
   6  -3   4   58.99    4.50
   6  -3   4   64.79    4.70
  -7   3  -4   -0.40    1.90
  -7   3  -4    1.00    1.60
  -7   3  -4    1.30    2.00
   7  -3   4    1.00    1.80
   7  -3   4   -3.20    1.60
  -8   3  -4  121.49    6.90
  -8   3  -4  122.59    8.30
   6   2  -4   21.10    4.20
   6   2  -4   17.90    4.30
  -6  -2   4   18.00    4.20
  -6  -2   4   15.60    3.20
   5   2  -4   16.30    3.10
   5   2  -4   10.10    2.90
  -5  -2   4   21.10    4.30
  -5  -2   4   17.00    3.20
   4   2  -4  148.89    8.00
  -4  -2   4  149.19    8.20
  -4  -2   4  148.49    7.40
   3   2  -4  225.28    9.30
   3   2  -4  234.58    9.20
  -3  -2   4  222.18    8.50
  -3  -2   4  216.88    9.90
  -3  -2   4  240.38    8.90
  -3  -2   4  224.08    9.80
   2   2  -4  112.79    5.50
   2   2  -4  109.89    5.50
  -2  -2   4  111.49    5.10
  -2  -2   4  102.89    4.80
  -2  -2   4  121.99    6.60
  -2  -2   4  111.69    6.50
   1   2  -4 2145.49   52.79
   1   2  -4 2105.79   50.29
   1   2  -4 2130.29   50.49
  -1  -2   4 2141.59   49.60
  -1  -2   4 2181.38   52.59
  -1  -2   4 2141.79   49.70
  -1  -2   4 2140.49   52.89
   0   2  -4  221.48    9.00
   0   2  -4  218.88    7.10
   0   2  -4  223.68    7.00
   0  -2   4  218.28    8.90
   0  -2   4  219.18    6.30
   0  -2   4  220.08    6.30
  -1   2  -4  897.31   24.90
  -1   2  -4  940.61   22.60
  -1   2  -4  907.01   22.40
   1  -2   4  951.50   25.10
   1  -2   4  918.21   21.50
   1  -2   4  918.51   21.40
  -2   2  -4  383.06   12.30
  -2   2  -4  368.56   10.40
  -2   2  -4  362.06   10.50
   2  -2   4  358.46   12.00
   2  -2   4  374.36    9.60
   2  -2   4  362.96    9.50
  -3   2  -4  153.88    6.00
  -3   2  -4  154.38    7.10
  -3   2  -4  148.19    6.00
   3  -2   4  166.78    7.10
   3  -2   4  163.18    5.60
   3  -2   4  154.68    5.40
  -4   2  -4  938.81   24.10
  -4   2  -4  894.81   23.70
  -4   2  -4  866.01   24.30
   4  -2   4  909.01   24.30
   4  -2   4  906.61   23.20
   4  -2   4  882.31   23.10
  -5   2  -4   80.79    5.30
  -5   2  -4   83.69    5.50
  -5   2  -4   78.99    5.70
   5  -2   4   80.79    5.00
   5  -2   4   89.69    5.10
   5  -2   4   76.19    4.70
  -6   2  -4    2.20    1.80
  -6   2  -4    5.70    2.30
   6  -2   4    5.70    2.20
   6  -2   4    5.00    2.00
  -7   2  -4   15.60    3.60
  -7   2  -4    6.20    2.30
  -7   2  -4    6.80    2.80
   7  -2   4   11.40    3.00
   7  -2   4    6.90    2.50
  -8   2  -4  329.87   14.30
  -8   2  -4  311.07   13.80
  -8   2  -4  333.07   12.50
   8  -2   4  300.77   13.30
   8  -2   4  316.77   13.40
   7   1  -4  151.38   10.00
   7   1  -4  160.08   15.20
  -7  -1   4  140.69    8.80
  -7  -1   4  132.09    9.20
   6   1  -4   51.09    6.50
   6   1  -4   44.70    6.00
  -6  -1   4   40.50    5.30
  -6  -1   4   42.80    5.80
   5   1  -4  180.98    9.70
   5   1  -4  178.88    9.40
  -5  -1   4  171.88    9.00
  -5  -1   4  193.38    9.30
   4   1  -4  391.16   14.30
   4   1  -4  379.66   14.00
  -4  -1   4  401.06   13.70
  -4  -1   4  423.76   14.40
  -4  -1   4  406.36   14.60
  -4  -1   4  393.46   13.80
   3   1  -4  567.64   17.10
   3   1  -4  511.25   16.90
  -3  -1   4  536.95   17.40
  -3  -1   4  557.74   17.20
  -3  -1   4  576.74   16.50
  -2  -1   4   15.40    2.80
  -2  -1   4   20.20    3.30
  -2  -1   4   15.20    2.10
  -2  -1   4   18.50    2.40
   1   1  -4    2.00    1.20
   1   1  -4    2.50    1.30
   1   1  -4    2.20    1.90
  -1  -1   4    1.30    1.20
  -1  -1   4    1.00    1.00
  -1  -1   4    2.60    1.80
   0   1  -4 1628.64   40.40
   0   1  -4 1611.84   38.60
   0   1  -4 1624.74   38.50
   0  -1   4 1619.34   38.30
   0  -1   4 1596.54   40.20
   0  -1   4 1661.03   38.20
  -1   1  -4  176.78    6.10
  -1   1  -4  175.38    7.40
  -1   1  -4  183.48    6.30
   1  -1   4  184.28    7.50
   1  -1   4  180.78    5.80
   1  -1   4  182.18    5.90
  -2   1  -4  620.74   16.40
  -2   1  -4  636.34   16.60
  -2   1  -4  627.74   17.90
   2  -1   4  637.84   16.10
   2  -1   4  628.44   16.20
   2  -1   4  612.44   17.70
  -3   1  -4   38.80    3.10
  -3   1  -4   42.80    3.90
  -3   1  -4   42.90    3.10
   3  -1   4   39.80    3.40
   3  -1   4   39.40    2.90
   3  -1   4   39.50    3.00
  -4   1  -4  312.07   10.90
  -4   1  -4  318.57   10.60
   4  -1   4  309.37   10.40
   4  -1   4  314.57   10.80
   4  -1   4  315.07   10.20
  -5   1  -4  342.67   12.50
  -5   1  -4  346.37   11.90
  -5   1  -4  338.27   11.90
   5  -1   4  342.77   11.80
   5  -1   4  326.87   11.50
  -6   1  -4  148.59    7.90
  -6   1  -4  135.09    8.60
  -6   1  -4  156.48    7.70
   6  -1   4  143.69    7.10
   6  -1   4  143.59    7.60
   6  -1   4  155.78    7.80
  -7   1  -4  212.48    9.60
  -7   1  -4  219.88   10.70
  -7   1  -4  215.68   10.50
   7  -1   4  222.78   10.40
  -8   1  -4    0.60    2.00
  -8   1  -4    0.90    2.50
  -8   1  -4    2.30    2.60
   8  -1   4    1.40    1.90
   8  -1   4   -3.20    2.00
  -9   1  -4  123.39   10.60
  -9   1  -4  128.79    8.20
   7   0  -4   37.00    5.20
   7   0  -4   59.69    7.60
  -7   0   4   37.10    5.20
  -7   0   4   51.69    5.90
   6   0  -4    3.00    2.50
   6   0  -4   -0.10    2.30
  -6   0   4    2.20    2.40
  -6   0   4    0.20    1.90
   5   0  -4   43.90    5.40
   5   0  -4   27.50    4.20
  -5   0   4   37.30    4.60
  -5   0   4   44.90    4.70
  -5   0   4   38.30    4.60
  -5   0   4   43.20    5.00
   4   0  -4  269.97   11.30
   4   0  -4  268.17   11.10
  -4   0   4  271.17   10.40
  -4   0   4  263.97   10.60
  -4   0   4  274.87   11.00
  -4   0   4  259.47   10.60
   3   0  -4   42.20    4.10
   3   0  -4   40.80    4.00
  -3   0   4   40.10    3.80
  -3   0   4   35.30    3.80
  -3   0   4   33.30    3.80
  -3   0   4   45.20    3.80
   2   0  -4  138.19    6.50
   2   0  -4  128.09    6.00
   2   0  -4  124.39    6.10
  -2   0   4  125.89    5.80
  -2   0   4  120.99    5.90
  -2   0   4  128.79    6.20
  -2   0   4  138.29    6.20
   1   0  -4   96.49    4.80
   1   0  -4   97.69    5.30
  -1   0   4  101.39    4.90
  -1   0   4  103.29    4.80
  -1   0   4   96.19    5.20
   0   0  -4 1427.76   35.30
   0   0  -4 1439.76   34.30
   0   0   4 1374.96   35.10
   0   0   4 1417.26   34.10
   0   0   4 1436.46   34.30
  -1   0  -4  773.72   19.90
  -1   0  -4  789.82   21.00
   1   0   4  771.82   19.80
   1   0   4  777.92   20.80
   1   0   4  779.52   19.90
  -2   0  -4   80.99    4.20
  -2   0  -4   71.89    4.70
   2   0   4   80.39    4.70
   2   0   4   87.09    4.30
   2   0   4   83.49    4.10
  -3   0  -4   87.99    5.20
  -3   0  -4   84.79    4.60
   3   0   4   94.29    4.80
   3   0   4   91.89    4.60
   3   0   4   92.79    5.10
  -4   0  -4    0.60    1.60
  -4   0  -4    4.80    1.80
  -4   0  -4    3.90    1.80
   4   0   4    0.50    1.50
   4   0   4    2.30    1.50
   4   0   4    4.30    1.60
  -5   0  -4 1164.58   30.30
  -5   0  -4 1078.89   29.40
  -5   0  -4 1097.09   29.70
   5   0   4 1103.59   29.20
   5   0   4 1139.39   29.90
   5   0   4 1109.59   29.50
  -6   0  -4  176.68    8.30
  -6   0  -4  169.58    8.60
  -6   0  -4  161.58    8.40
   6   0   4  177.08    7.90
   6   0   4  161.58    8.20
   6   0   4  173.68    8.60
  -7   0  -4  141.49    8.20
  -7   0  -4  121.29   10.20
  -7   0  -4  134.39    7.80
   7   0   4  128.89    8.00
   7   0   4  114.29    6.70
  -8   0  -4  189.78   10.60
  -8   0  -4  172.08   10.10
  -8   0  -4  167.18    9.10
   8   0   4  173.38    9.90
  -9   0  -4  469.65   19.00
  -9   0  -4  466.25   17.40
  -9   0  -4  509.95   23.10
   9   0   4  506.05   19.60
   7  -1  -4   36.50    5.50
   7  -1  -4   37.10    6.10
  -7   1   4   59.59    7.40
  -7   1   4   45.20    5.30
   6  -1  -4  145.99    9.30
   6  -1  -4  138.49    9.20
  -6   1   4  132.59    8.60
  -6   1   4  129.39    7.30
  -6   1   4  134.39    7.20
   5  -1  -4   12.80    3.50
   5  -1  -4    9.70    2.90
  -5   1   4    8.80    2.60
  -5   1   4   19.70    3.20
  -5   1   4   15.90    3.50
   4  -1  -4  475.25   16.00
   4  -1  -4  450.65   15.90
  -4   1   4  457.05   15.50
  -4   1   4  480.95   16.00
  -4   1   4  444.66   14.50
  -4   1   4  461.95   14.30
   3  -1  -4   59.59    4.70
   3  -1  -4   54.69    4.70
  -3   1   4   61.99    4.20
  -3   1   4   59.39    4.80
  -3   1   4   55.09    4.40
  -3   1   4   57.99    4.10
  -2   1   4 6143.39  141.09
  -2   1   4 6221.98  141.39
  -2   1   4 6235.88  141.69
   1  -1  -4 4569.54  106.49
  -1   1   4 4631.24  106.39
  -1   1   4 4744.43  106.49
  -1   1   4 4617.34  106.39
   0  -1  -4  179.58    6.80
   0  -1  -4  180.88    7.20
   0  -1  -4  179.28    6.70
   0   1   4  167.88    6.70
   0   1   4  170.28    6.80
   0   1   4  174.98    6.60
  -1  -1  -4 2195.18   50.49
  -1  -1  -4 2167.68   50.79
  -1  -1  -4 2169.18   50.29
   1   1   4 2002.10   49.99
   1   1   4 2147.89   50.29
   1   1   4 2121.69   50.59
  -2  -1  -4  251.97    8.50
  -2  -1  -4  246.48    8.60
  -2  -1  -4  251.27    8.90
   2   1   4  250.47    8.50
   2   1   4  223.78    8.10
   2   1   4  258.37    9.00
  -3  -1  -4  371.66   12.10
  -3  -1  -4  397.06   12.50
  -3  -1  -4  385.66   12.40
   3   1   4  419.26   12.50
   3   1   4  417.26   12.80
   3   1   4  398.76   12.40
  -4  -1  -4  515.25   16.10
  -4  -1  -4  552.84   16.20
  -4  -1  -4  516.85   16.00
   4   1   4  531.15   15.90
   4   1   4  541.75   15.90
   4   1   4  580.84   16.50
  -5  -1  -4    5.00    1.90
  -5  -1  -4    8.50    2.20
  -5  -1  -4    4.90    2.30
   5   1   4    7.70    2.30
   5   1   4    7.30    2.20
   5   1   4    5.40    2.00
  -6  -1  -4   54.99    5.30
  -6  -1  -4   58.99    5.50
  -6  -1  -4   57.99    5.40
   6   1   4   57.79    5.20
   6   1   4   59.09    4.80
   6   1   4   52.59    5.20
  -7  -1  -4   20.30    3.80
  -7  -1  -4   32.10    4.90
   7   1   4   31.80    5.10
   7   1   4   17.70    3.30
   7   1   4   18.60    3.30
  -8  -1  -4  307.77   13.80
  -8  -1  -4  294.07   12.70
  -8  -1  -4  289.57   13.30
   8   1   4  278.67   13.30
  -9  -1  -4   39.80    6.20
  -9  -1  -4   45.70    6.80
  -9  -1  -4   52.19    6.00
   9   1   4   25.40    4.40
   7  -2  -4    9.90    3.50
  -7   2   4    5.20    3.00
  -7   2   4    5.50    2.60
  -7   2   4    6.70    3.60
   6  -2  -4   42.50    6.20
   6  -2  -4   42.20    5.90
  -6   2   4   34.20    3.90
  -6   2   4   25.60    4.50
  -6   2   4   33.40    3.90
  -6   2   4   27.70    4.50
   5  -2  -4    4.20    2.40
   5  -2  -4    1.50    2.30
  -5   2   4    7.90    2.20
  -5   2   4    8.20    2.90
  -5   2   4    5.50    2.70
  -5   2   4    5.40    2.00
   4  -2  -4    8.00    2.50
   4  -2  -4    9.20    2.90
  -4   2   4    8.10    2.10
  -4   2   4    6.10    2.00
  -4   2   4    8.80    2.90
  -4   2   4   10.10    3.10
   3  -2  -4 1182.58   31.10
   3  -2  -4 1144.19   30.80
  -3   2   4 1130.39   28.60
  -3   2   4 1117.09   30.40
  -3   2   4 1164.58   30.90
  -3   2   4 1140.79   30.10
   2  -2  -4   97.99    5.50
   2  -2  -4   96.99    5.40
   2  -2  -4   95.79    5.50
  -2   2   4  101.89    5.40
  -2   2   4  101.79    4.80
  -2   2   4  105.29    5.80
   1  -2  -4 1174.88   29.90
   1  -2  -4 1185.48   29.80
   1  -2  -4 1138.59   29.00
  -1   2   4 1175.68   29.00
  -1   2   4 1166.08   29.60
  -1   2   4 1192.28   30.00
   0  -2  -4 1220.98   30.60
   0  -2  -4 1241.68   30.90
   0  -2  -4 1247.08   30.50
   0   2   4 1250.17   30.70
   0   2   4 1173.88   30.20
   0   2   4 1268.47   31.00
  -1  -2  -4  795.22   20.50
  -1  -2  -4  797.02   20.70
   1   2   4  785.12   20.60
   1   2   4  764.92   20.30
   1   2   4  733.63   20.30
  -2  -2  -4   78.89    4.60
  -2  -2  -4   80.89    4.60
  -2  -2  -4   74.39    4.50
   2   2   4   73.39    4.60
   2   2   4   69.59    4.40
   2   2   4   73.59    4.40
  -3  -2  -4   39.20    3.70
  -3  -2  -4   40.70    3.70
  -3  -2  -4   37.80    3.60
   3   2   4   39.50    3.60
   3   2   4   31.80    3.50
   3   2   4   42.00    3.70
  -4  -2  -4  433.56   13.90
  -4  -2  -4  452.75   14.10
  -4  -2  -4  432.46   13.70
   4   2   4  437.06   14.00
   4   2   4  431.86   13.40
   4   2   4  349.47   16.30
  -5  -2  -4  100.79    6.40
  -5  -2  -4   94.59    6.00
  -5  -2  -4  100.99    6.20
   5   2   4  109.19    6.30
   5   2   4  104.49    6.00
   5   2   4  108.79    6.60
  -6  -2  -4 3313.77   77.19
  -6  -2  -4 3302.37   77.49
  -6  -2  -4 3189.38   76.49
   6   2   4 3082.09   75.89
   6   2   4 2894.81   85.29
   6   2   4 3230.78   76.99
  -7  -2  -4  178.58    9.80
  -7  -2  -4  171.88    9.30
  -7  -2  -4  181.88    9.70
   7   2   4  183.68    9.70
   7   2   4  169.88    9.60
  -8  -2  -4   40.70    5.90
  -8  -2  -4   45.70    5.70
  -8  -2  -4   26.70    4.40
   8   2   4   39.30    5.60
   8   2   4   54.39    7.70
  -9  -2  -4  183.38   11.70
  -9  -2  -4  168.28   10.10
  -9  -2  -4  155.68   10.30
   9   2   4  198.38   11.80
   7  -3  -4  249.38   13.30
  -7   3   4  232.78    9.10
  -7   3   4  233.18    8.60
  -7   3   4  238.58   13.00
  -7   3   4  251.17   15.10
   6  -3  -4   21.60    4.70
   6  -3  -4   18.90    3.70
  -6   3   4   24.70    4.90
  -6   3   4   20.10    2.60
  -6   3   4   18.50    2.60
  -6   3   4   28.10    5.10
   5  -3  -4  324.07   13.50
   5  -3  -4  320.57   13.50
  -5   3   4  308.77   13.40
  -5   3   4  312.07   13.10
  -5   3   4  303.07    9.70
   4  -3  -4  270.97   11.40
   4  -3  -4  263.57   11.40
  -4   3   4  246.58   10.80
  -4   3   4  256.97    8.50
  -4   3   4  271.37   11.50
  -4   3   4  260.67    8.40
   3  -3  -4  355.96   12.90
   3  -3  -4  333.57   12.50
  -3   3   4  346.67   10.10
  -3   3   4  352.06   12.80
  -3   3   4  331.67   10.10
  -3   3   4  356.26   12.50
   2  -3  -4  288.67   11.10
   2  -3  -4  296.47   10.50
   2  -3  -4  289.77    8.80
  -2   3   4  282.57    8.70
  -2   3   4  288.77   10.80
  -2   3   4  276.77   10.30
   1  -3  -4  135.19    6.40
   1  -3  -4  131.29    6.20
   1  -3  -4  137.79    5.40
  -1   3   4  136.39    6.30
  -1   3   4  144.19    6.70
  -1   3   4  141.69    5.40
   0  -3  -4  356.06   11.50
   0  -3  -4  352.26   10.70
   0  -3  -4  370.06   11.50
   0   3   4  355.56   10.60
   0   3   4  345.17   11.50
   0   3   4  378.36   11.60
  -1  -3  -4  235.28    8.70
  -1  -3  -4  239.58    8.40
  -1  -3  -4  251.17    8.60
   1   3   4  233.38    8.10
   1   3   4  248.48    8.70
   1   3   4  249.48    8.90
  -2  -3  -4  772.52   20.70
  -2  -3  -4  780.12   20.70
  -2  -3  -4  764.72   20.80
   2   3   4  755.12   20.40
   2   3   4  737.13   20.50
   2   3   4  783.82   21.00
  -3  -3  -4  136.79    6.60
  -3  -3  -4  140.19    6.50
  -3  -3  -4  142.79    6.50
   3   3   4  134.49    6.20
   3   3   4  151.18    6.90
   3   3   4  142.29    6.60
  -4  -3  -4  335.97   11.90
  -4  -3  -4  360.46   12.10
   4   3   4  337.07   11.90
   4   3   4  336.57   11.60
  -5  -3  -4  619.74   19.40
  -5  -3  -4  637.54   19.70
  -5  -3  -4  602.64   19.00
   5   3   4  636.84   19.70
   5   3   4  649.83   20.20
   5   3   4  610.74   18.70
  -6  -3  -4   97.29    6.80
  -6  -3  -4   97.69    6.90
   6   3   4   89.79    6.00
   6   3   4  104.89    7.10
   6   3   4   90.69    6.70
  -7  -3  -4    4.60    2.40
  -7  -3  -4    3.00    2.80
  -7  -3  -4    2.60    2.70
   7   3   4    2.50    2.60
   7   3   4    2.70    2.10
  -8  -3  -4  187.28   11.10
  -8  -3  -4  198.18   10.90
  -8  -3  -4  182.18   10.10
   8   3   4  187.68   10.80
   8   3   4  174.28   10.60
  -9  -3  -4  160.48   10.60
  -9  -3  -4  149.49   14.00
   7  -4  -4  251.57   13.20
  -7   4   4  239.88   13.20
  -7   4   4  259.87   16.90
   6  -4  -4   44.80    5.80
  -6   4   4   33.80    5.20
  -6   4   4   40.10    2.10
  -6   4   4   36.20    2.10
  -6   4   4   34.60    5.10
   5  -4  -4   86.99    7.00
   5  -4  -4   88.19    6.80
  -5   4   4   81.79    6.60
  -5   4   4   80.79    7.00
  -5   4   4   82.29    3.20
  -5   4   4   77.39    3.20
   4  -4  -4  360.86   13.90
   4  -4  -4  356.66   13.80
  -4   4   4  349.67   13.50
  -4   4   4  361.46   14.10
  -4   4   4  351.06    9.40
  -4   4   4  359.46    9.60
   3  -4  -4    0.70    1.80
   3  -4  -4   -0.40    1.80
  -3   4   4    0.60    2.10
  -3   4   4    0.70    0.90
  -3   4   4    0.40    0.90
  -3   4   4   -1.50    2.00
   2  -4  -4 2165.78   52.69
   2  -4  -4 2176.58   49.80
   2  -4  -4 2157.38   52.99
  -2   4   4 2141.49   52.69
  -2   4   4 2118.39   49.60
  -2   4   4 2168.48   53.19
   1  -4  -4    2.20    1.60
   1  -4  -4    0.80    1.40
   1  -4  -4   -0.40    1.10
  -1   4   4   -1.10    0.90
  -1   4   4    0.20    1.20
  -1   4   4    0.20    1.60
   0  -4  -4    1.90    1.30
   0  -4  -4    2.80    1.40
   0  -4  -4    2.40    1.60
   0   4   4    4.80    2.10
   0   4   4    2.50    1.20
   0   4   4    2.10    1.40
  -1  -4  -4 2026.30   48.20
  -1  -4  -4 1927.01   48.60
  -1  -4  -4 1999.00   48.50
   1   4   4 2021.40   49.00
   1   4   4 2022.00   48.80
   1   4   4 2118.09   49.40
  -2  -4  -4  306.27   10.60
  -2  -4  -4  310.27   10.50
  -2  -4  -4  308.57   10.50
   2   4   4  305.67   10.20
   2   4   4  330.07   11.10
   2   4   4  300.17   10.50
  -3  -4  -4  127.69    6.30
  -3  -4  -4  124.99    6.40
  -3  -4  -4  128.19    6.30
   3   4   4  132.19    6.50
   3   4   4  128.09    6.10
   3   4   4  134.99    6.70
  -4  -4  -4   37.00    4.00
  -4  -4  -4   37.50    4.00
  -4  -4  -4   40.40    4.10
   4   4   4   37.30    4.30
   4   4   4   33.80    3.90
   4   4   4   38.00    3.70
  -5  -4  -4  295.47   12.00
  -5  -4  -4  315.77   11.90
  -5  -4  -4  305.47   11.90
   5   4   4  313.57   11.70
   5   4   4  312.57   12.40
   5   4   4  293.17   11.70
  -6  -4  -4   28.20    4.60
  -6  -4  -4   32.40    4.80
  -6  -4  -4   23.10    4.00
   6   4   4   26.80    4.60
   6   4   4   34.40    5.00
  -7  -4  -4  105.09    7.90
  -7  -4  -4  112.49    7.80
  -7  -4  -4  110.29    7.90
   7   4   4  129.99    8.60
   7   4   4  126.09    8.30
  -8  -4  -4    8.60    2.90
  -8  -4  -4    7.80    3.30
   8   4   4    7.50    3.10
   8   4   4   13.00    4.00
  -9  -4  -4  138.59    9.80
  -9  -4  -4  123.89    9.40
   6  -5  -4    2.90    2.10
  -6   5   4   -6.90    2.70
  -6   5   4    1.70    2.90
   5  -5  -4   23.40    4.00
  -5   5   4   34.60    7.00
  -5   5   4   20.40    3.80
   4  -5  -4   65.29    5.80
   4  -5  -4   67.09    6.60
  -4   5   4   70.69    6.00
  -4   5   4   68.69    6.30
   3  -5  -4  537.95   17.40
   3  -5  -4  521.85   17.20
  -3   5   4  512.85   17.10
  -3   5   4  526.05   17.60
   2  -5  -4    2.10    1.80
   2  -5  -4    1.30    0.90
   2  -5  -4    0.70    1.30
  -2   5   4    6.30    2.50
  -2   5   4    2.90    0.90
  -2   5   4    4.40    2.10
   1  -5  -4   36.70    3.60
   1  -5  -4   30.50    2.50
   1  -5  -4   36.70    3.70
  -1   5   4   35.30    3.70
  -1   5   4   34.60    2.40
  -1   5   4   35.70    4.00
   0  -5  -4   19.50    2.50
   0  -5  -4   24.80    3.40
   0  -5  -4   15.90    2.30
   0   5   4   17.80    3.10
   0   5   4   12.40    2.30
   0   5   4   21.10    2.30
  -1  -5  -4 1361.66   33.60
  -1  -5  -4 1369.66   34.00
  -1  -5  -4 1354.66   34.30
   1   5   4 1342.47   34.50
   1   5   4 1358.46   34.30
   1   5   4 1298.77   33.20
  -2  -5  -4  110.99    5.70
  -2  -5  -4  102.89    5.50
  -2  -5  -4   98.89    5.60
   2   5   4  109.59    5.40
   2   5   4  106.69    5.70
   2   5   4  106.89    6.10
  -3  -5  -4  624.74   18.70
  -3  -5  -4  653.63   18.90
  -3  -5  -4  610.54   18.40
   3   5   4  661.23   19.30
   3   5   4  595.64   18.50
   3   5   4  662.63   18.80
  -4  -5  -4  224.78    9.50
  -4  -5  -4  227.68    9.80
  -4  -5  -4  213.08    9.20
   4   5   4  223.98    9.50
   4   5   4  219.48    9.80
  -5  -5  -4  332.27   13.20
  -5  -5  -4  345.37   16.90
  -5  -5  -4  356.66   13.10
   5   5   4  340.87   13.00
   5   5   4  342.67   13.50
   5   5   4  348.57   13.10
  -6  -5  -4 1056.79   30.30
  -6  -5  -4 1064.39   30.70
  -6  -5  -4 1048.70   30.60
   6   5   4 1062.59   31.10
   6   5   4 1056.39   30.50
  -7  -5  -4   54.79    5.90
  -7  -5  -4   52.59    6.00
   7   5   4   52.69    6.20
   7   5   4   58.19    6.50
  -8  -5  -4   55.79    6.60
  -8  -5  -4   33.80    4.80
   8   5   4   39.70    6.00
   8   5   4   35.10    5.40
   6  -6  -4  735.63   24.90
  -6   6   4  720.23   25.20
   5  -6  -4  757.52   24.30
  -5   6   4  742.23   24.30
  -5   6   4  730.33   24.60
   4  -6  -4   40.90    5.20
  -4   6   4   22.50    3.80
  -4   6   4   28.30    4.20
   3  -6  -4  279.97   11.50
  -3   6   4  278.57   11.90
  -3   6   4  277.67   11.50
   2  -6  -4   -1.40    1.50
   2  -6  -4    0.40    0.70
  -2   6   4    0.40    0.60
  -2   6   4    0.00    1.50
  -2   6   4    0.50    2.30
   1  -6  -4  576.54   18.90
   1  -6  -4  592.84   15.50
   1  -6  -4  558.04   17.70
  -1   6   4  599.14   18.30
  -1   6   4  598.84   15.30
  -1   6   4  593.74   17.90
   0  -6  -4    0.70    1.40
   0  -6  -4    4.70    1.70
   0  -6  -4    1.90    1.50
   0   6   4    1.40    1.50
   0   6   4    2.50    2.10
   0   6   4    0.80    1.90
  -1  -6  -4    0.20    1.20
  -1  -6  -4    0.80    1.40
  -1  -6  -4    1.60    1.70
   1   6   4    0.50    1.40
   1   6   4    0.00    1.60
  -2  -6  -4   49.00    5.40
  -2  -6  -4   33.90    3.60
  -2  -6  -4   32.20    3.70
   2   6   4   39.30    4.20
   2   6   4   32.80    3.30
   2   6   4   39.40    3.80
  -3  -6  -4  334.27   12.30
  -3  -6  -4  331.87   11.80
  -3  -6  -4  346.97   12.40
   3   6   4  334.67   12.20
   3   6   4  325.27   12.40
   3   6   4  334.97   12.10
  -4  -6  -4  178.48    8.20
  -4  -6  -4  181.28    8.40
   4   6   4  169.58    8.50
   4   6   4  173.18    8.60
   4   6   4  172.48    8.70
  -5  -6  -4  223.68   10.60
  -5  -6  -4  229.88   10.10
   5   6   4  224.28   10.30
   5   6   4  220.68   10.70
  -6  -6  -4   10.00    3.60
  -6  -6  -4    3.40    2.20
   6   6   4   12.20    3.80
   6   6   4   12.40    3.40
  -7  -6  -4   -2.30    2.10
  -7  -6  -4    1.40    3.50
   7   6   4   -4.20    2.20
   7   6   4    1.60    3.00
  -8  -6  -4    1.40    3.20
  -8  -6  -4    2.50    2.90
   8   6   4    6.20    3.60
   5  -7  -4    3.10    2.70
  -5   7   4    4.00    3.10
  -5   7   4    8.00    3.70
   4  -7  -4   28.70    4.00
  -4   7   4   28.00    4.30
  -4   7   4   34.60    5.10
   3  -7  -4    3.30    2.00
  -3   7   4    4.30    2.30
  -3   7   4    4.20    2.50
  -2   7   4  210.28    9.90
  -2   7   4  205.48    9.70
   1  -7  -4  227.88    7.50
   1  -7  -4  223.88    9.10
  -1   7   4  222.58    7.20
  -1   7   4  229.48   10.00
   0  -7  -4  146.79    9.90
   0  -7  -4  134.09    6.60
   0  -7  -4  137.49    6.20
   0   7   4  140.39    7.50
   0   7   4  137.39    6.00
  -1  -7  -4  250.47    9.80
  -1  -7  -4  264.97    9.70
  -1  -7  -4  254.97    9.60
   1   7   4  250.37    9.30
   1   7   4  247.28   10.90
  -2  -7  -4 1935.81   48.50
  -2  -7  -4 1986.70   49.20
  -2  -7  -4 2117.69   55.19
   2   7   4 1948.91   48.90
   2   7   4 1908.31   49.50
  -3  -7  -4  177.88    9.00
  -3  -7  -4  163.58    7.80
   3   7   4  169.48    8.70
   3   7   4  174.28    8.30
  -4  -7  -4   49.40    4.60
  -4  -7  -4   48.80    5.60
   4   7   4   54.29    5.40
   4   7   4   45.00    4.70
  -5  -7  -4  190.68    9.00
  -5  -7  -4  177.88    9.70
   5   7   4  185.38    9.80
   5   7   4  177.38    9.50
  -6  -7  -4   56.39    6.10
  -6  -7  -4   48.80    5.30
   6   7   4   63.29    6.40
   6   7   4   50.29    5.90
  -7  -7  -4   86.49    7.10
  -7  -7  -4   87.69    8.20
   7   7   4   93.39    8.20
   7   7   4   87.49    8.50
   4  -8  -4   13.40    3.40
  -4   8   4    7.20    5.70
  -4   8   4    9.60    3.00
   3  -8  -4   51.09    5.00
  -3   8   4   63.29    5.90
  -3   8   4   47.80    6.20
   2  -8  -4  389.06   13.70
  -2   8   4  352.96   13.80
  -2   8   4  393.06   14.60
   1  -8  -4    1.00    2.30
  -1   8   4   -1.30    1.10
  -1   8   4    0.40    1.80
  -1   8   4    0.10    1.70
   0  -8  -4  173.08    7.30
   0  -8  -4  163.98    7.50
   0   8   4  174.18    8.40
   0   8   4  156.68    6.80
   0   8   4  183.48    8.80
  -1  -8  -4   79.79    5.40
  -1  -8  -4   67.39    4.80
   1   8   4   70.69    5.10
   1   8   4   71.09    5.30
   1   8   4   66.79    5.50
  -2  -8  -4  109.29    6.90
  -2  -8  -4  107.89    6.10
   2   8   4  103.79    6.50
   2   8   4  112.79    6.60
   2   8   4  120.19    7.10
  -3  -8  -4  175.58    8.00
  -3  -8  -4  195.18    9.70
   3   8   4  169.58    8.60
   3   8   4  184.78    9.20
  -4  -8  -4   82.29    6.80
  -4  -8  -4   92.09    6.00
   4   8   4   99.39    7.00
  -5  -8  -4    3.40    2.90
  -5  -8  -4    4.30    2.50
   5   8   4    4.50    2.60
   5   8   4    4.80    2.60
  -6  -8  -4   45.50    5.20
  -6  -8  -4   50.99    6.80
   6   8   4   55.99    6.90
   6   8   4   55.89    6.40
  -3   9   4  142.99    8.80
  -3   9   4  152.98    9.40
   2  -9  -4    7.50    2.30
  -2   9   4    2.90    2.10
  -2   9   4    8.00    3.20
   1  -9  -4  164.98    7.70
  -1   9   4  165.78    9.00
  -1   9   4  167.98    8.70
   0  -9  -4   19.60    3.00
   0  -9  -4   24.00    3.30
   0   9   4   17.70    3.10
   0   9   4   16.80    3.20
   0   9   4   23.40    3.90
  -1  -9  -4    8.40    2.70
  -1  -9  -4    2.80    1.90
   1   9   4    6.30    2.60
   1   9   4    7.00    2.40
   1   9   4    4.50    2.30
  -2  -9  -4  147.19    7.00
  -2  -9  -4  137.79    8.10
   2   9   4  135.79    7.90
   2   9   4  142.49    7.80
  -3  -9  -4  170.78    7.80
  -3  -9  -4  159.98    9.20
   3   9   4  181.48    9.20
   3   9   4  171.98    9.10
  -4  -9  -4   23.20    3.50
  -4  -9  -4   31.00    5.20
   4   9   4   26.80    4.30
   4   9   4   18.50    3.70
  -5  -9  -4  139.79    9.70
   5   9   4  179.08   12.20
   5   9   4  136.49    8.90
   0 -10  -4   34.50    5.40
   0 -10  -4   38.80    4.30
   0 -10  -4   23.30    3.80
   0  10   4   39.60    5.20
   0  10   4   49.70   10.00
  -1 -10  -4   75.49    5.90
   1  10   4   73.49    6.10
  -2 -10  -4  605.44   20.10
   2  10   4  577.44   20.00
   2  10   4  640.84   21.40
  -3 -10  -4    0.10    2.70
   3  10   4   -0.30    3.20
   2   6  -5    9.40    1.90
   2   6  -5   11.60    2.10
  -2  -6   5    5.50    3.20
   1   6  -5  379.56   10.20
   1   6  -5  387.26   10.20
   0  -6   5   -2.90    2.10
   1  -6   5    8.50    3.10
   2  -6   5  478.95   17.20
   3  -6   5  173.98    9.30
  -4   6  -5   55.29    3.00
   4  -6   5   51.69    5.40
   4   5  -5   -0.40    1.80
   3   5  -5   67.19    5.00
   3   5  -5   60.99    4.70
  -3  -5   5   60.29    6.90
   2   5  -5  441.96   13.50
   2   5  -5  434.16   13.40
  -2  -5   5  434.76   17.10
   1   5  -5    0.40    1.00
   1   5  -5   -1.10    0.90
  -1  -5   5   -2.10    1.90
   0   5  -5   43.10    2.30
   0   5  -5   43.50    2.40
   0  -5   5   44.70    5.00
   1  -5   5    9.80    3.30
   2  -5   5  716.43   22.30
  -3   5  -5    6.60    2.70
  -3   5  -5    9.10    1.50
  -3   5  -5    7.10    1.30
  -4   5  -5  226.58   10.30
  -4   5  -5  227.18    7.90
  -4   5  -5  214.28    7.60
   4  -5   5  211.58   11.50
  -5   5  -5   48.10    5.10
  -5   5  -5   46.20    4.00
  -5   5  -5   40.40    3.60
   5  -5   5   44.30    4.80
  -6   5  -5  411.46   14.20
  -6   5  -5  384.66   14.80
  -6   5  -5  393.06   14.50
   6  -5   5  422.96   18.40
   5   4  -5 1083.49   33.50
   5   4  -5 1054.19   37.00
  -5  -4   5  930.41   41.50
   4   4  -5  405.06   14.90
   4   4  -5  411.86   15.70
  -4  -4   5  437.16   13.30
   3   4  -5   32.50    4.50
   3   4  -5   28.10    3.90
  -3  -4   5   23.80    3.60
  -3  -4   5   27.90    4.80
   2   4  -5  313.67   10.90
   2   4  -5  314.07   10.80
  -2  -4   5  308.97   13.30
   1   4  -5    6.40    1.60
   1   4  -5    5.70    1.70
  -1  -4   5    1.30    2.50
   0   4  -5  199.78    6.60
   0  -4   5  198.18    9.70
  -1   4  -5   37.70    2.40
  -1   4  -5   35.20    5.10
  -1   4  -5   37.90    2.40
   1  -4   5   38.00    4.40
  -2   4  -5  182.68    6.00
  -2   4  -5  148.59   12.30
  -2   4  -5  177.78    5.80
   2  -4   5  194.38    9.40
  -3   4  -5   55.59    3.30
  -3   4  -5   49.99    5.10
  -3   4  -5   48.80    3.20
   3  -4   5   49.00    4.90
  -4   4  -5  149.69    6.30
  -4   4  -5  155.58    8.10
  -4   4  -5  136.79    6.00
   4  -4   5  133.69    7.50
  -5   4  -5  181.58    7.70
  -5   4  -5  183.78    8.00
  -5   4  -5  181.98    8.80
   5  -4   5  168.28    8.60
  -6   4  -5  320.87   17.10
  -6   4  -5  379.56   13.30
  -6   4  -5  344.07   13.20
   6  -4   5  334.07   12.70
   6  -4   5  350.16   10.70
  -7   4  -5   32.10    5.10
  -7   4  -5   28.30    4.20
  -7   4  -5   29.00    4.70
   7  -4   5   24.40    3.10
   7  -4   5   20.00    4.70
   5   3  -5  127.39    8.80
  -5  -3   5   96.49    8.90
  -5  -3   5  115.79    7.00
   4   3  -5    7.40    2.50
   4   3  -5    9.90    2.70
  -4  -3   5    5.80    3.00
  -4  -3   5    8.70    3.20
   3   3  -5  282.87   10.90
   3   3  -5  280.67   11.00
  -3  -3   5  278.07   12.30
  -3  -3   5  269.67    9.60
   2   3  -5    2.30    1.70
   2   3  -5    8.70    2.20
  -2  -3   5    5.80    1.50
  -2  -3   5    2.90    2.70
   1   3  -5  342.17   11.10
  -1  -3   5  340.97    9.10
  -1  -3   5  325.17   14.40
  -1  -3   5  371.06   13.60
  -1  -3   5  338.57    9.10
   0   3  -5  163.58    6.00
   0   3  -5  159.28    8.40
   0   3  -5  163.88    6.10
   0  -3   5  146.29    8.10
  -1   3  -5  297.07    8.70
  -1   3  -5  283.87    8.80
  -1   3  -5  287.47   11.80
   1  -3   5  299.07   11.90
  -2   3  -5    2.60    2.50
  -2   3  -5    0.90    1.20
  -2   3  -5   -0.70    1.00
   2  -3   5    1.80    2.00
  -3   3  -5 2393.56   56.59
  -3   3  -5 2431.36   59.69
  -3   3  -5 2448.75   56.79
   3  -3   5 2390.46   59.39
  -4   3  -5   30.70    3.10
  -4   3  -5   30.30    4.20
  -4   3  -5   27.00    3.10
   4  -3   5   28.20    4.00
   4  -3   5   25.00    2.10
  -5   3  -5   69.09    5.50
  -5   3  -5   68.19    4.80
  -5   3  -5   63.49    4.60
   5  -3   5   67.19    4.00
  -6   3  -5  242.18   10.10
  -6   3  -5  243.58   10.40
  -6   3  -5  245.48   10.40
   6  -3   5  234.38    9.10
   6  -3   5  213.08    9.70
  -7   3  -5   63.99    6.00
  -7   3  -5   59.69    6.30
   7  -3   5   62.59    4.90
   7  -3   5   46.40    5.00
   6   2  -5    1.30    2.40
  -6  -2   5   -1.90    2.80
  -6  -2   5    1.00    3.20
   5   2  -5  315.37   13.40
   5   2  -5  290.17   12.90
  -5  -2   5  283.87   12.00
  -5  -2   5  299.97   13.10
   4   2  -5   95.19    6.60
  -4  -2   5   95.49    6.10
  -4  -2   5   96.99    7.10
   3   2  -5    2.00    1.80
   3   2  -5   -1.00    1.40
  -3  -2   5   -0.10    1.60
  -3  -2   5   -1.70    1.70
   2   2  -5   17.20    2.90
   2   2  -5   11.90    3.40
  -2  -2   5   12.60    3.20
  -2  -2   5   16.00    2.50
  -2  -2   5    9.00    1.90
   1   2  -5  562.14   18.20
   1   2  -5  570.84   16.20
   1   2  -5  563.64   15.90
  -1  -2   5  551.84   15.20
  -1  -2   5  565.54   15.20
  -1  -2   5  538.75   17.80
  -1  -2   5  567.24   18.30
   0   2  -5   -0.20    1.00
   0   2  -5   -0.30    1.00
   0   2  -5   -1.40    1.90
   0  -2   5    3.30    2.00
   0  -2   5    0.70    0.80
   0  -2   5    0.90    1.40
  -1   2  -5  345.47   10.40
  -1   2  -5  355.86   10.70
  -1   2  -5  361.26   13.10
   1  -2   5  357.46   12.80
   1  -2   5  363.56    9.60
   1  -2   5  356.56    9.40
  -2   2  -5  402.26   11.70
  -2   2  -5  402.06   13.90
  -2   2  -5  387.46   11.40
   2  -2   5  399.16   10.50
   2  -2   5  395.06   10.70
   2  -2   5  391.66   13.60
  -3   2  -5   31.60    3.90
  -3   2  -5   37.30    3.20
  -3   2  -5   36.50    3.10
   3  -2   5   36.80    2.60
   3  -2   5   46.60    3.70
   3  -2   5   41.80    4.20
  -4   2  -5  791.42   23.10
  -4   2  -5  746.33   25.10
  -4   2  -5  823.42   22.10
   4  -2   5  767.12   20.70
   4  -2   5  806.92   20.90
   4  -2   5  840.22   23.20
  -5   2  -5  193.48    8.50
  -5   2  -5  204.28    9.20
  -5   2  -5  191.98    8.60
   5  -2   5  195.38    8.80
   5  -2   5  200.78    8.00
  -6   2  -5  126.79    7.10
  -6   2  -5  123.99    7.10
  -6   2  -5  113.89    7.00
   6  -2   5  114.99    6.50
   6  -2   5  103.29    6.50
  -7   2  -5  136.49    8.10
   7  -2   5  132.79    7.50
   7  -2   5  143.79    7.80
  -8   2  -5  139.69    9.80
  -8   2  -5  164.38    8.80
  -8   2  -5  151.88    9.30
   8  -2   5  151.88    8.70
   6   1  -5    7.30    3.10
   6   1  -5    1.40    2.80
  -6  -1   5    2.20    2.30
  -6  -1   5    0.60    2.00
   5   1  -5  718.13   23.50
   5   1  -5  735.23   23.90
  -5  -1   5  729.03   23.00
  -5  -1   5  726.93   23.00
   4   1  -5   55.69    5.20
   4   1  -5   55.29    5.50
  -4  -1   5   52.89    5.50
   3   1  -5   32.10    4.30
   3   1  -5   27.30    4.20
  -3  -1   5   21.60    3.60
  -3  -1   5   23.60    3.20
  -3  -1   5   21.70    3.10
  -3  -1   5   23.00    3.90
  -2  -1   5  843.42   22.50
  -2  -1   5  787.62   25.40
  -2  -1   5  833.32   22.80
  -2  -1   5  821.22   23.80
   1   1  -5   32.00    4.20
   1   1  -5   25.00    2.90
   1   1  -5   32.60    3.10
  -1  -1   5   29.00    2.70
  -1  -1   5   23.10    2.80
  -1  -1   5   23.90    3.50
   0   1  -5  464.65   15.30
   0   1  -5  454.45   13.40
   0   1  -5  474.95   13.70
   0  -1   5  476.35   13.20
   0  -1   5  475.65   15.30
   0  -1   5  464.75   13.10
  -1   1  -5   22.90    3.50
  -1   1  -5   19.30    2.30
  -1   1  -5   21.60    2.40
   1  -1   5   20.50    2.20
   1  -1   5   19.70    3.30
   1  -1   5   19.40    2.10
  -2   1  -5    7.90    1.70
  -2   1  -5    9.90    2.60
  -2   1  -5    5.30    1.50
   2  -1   5    9.40    1.60
   2  -1   5    7.40    1.60
   2  -1   5    7.90    2.30
  -3   1  -5  436.36   13.20
  -3   1  -5  424.26   12.90
  -3   1  -5  442.76   14.40
   3  -1   5  425.36   14.10
   3  -1   5  434.76   12.50
   3  -1   5  433.36   12.60
  -4   1  -5  359.26   11.90
  -4   1  -5  364.86   12.90
  -4   1  -5  340.57   11.90
   4  -1   5  357.86   12.60
   4  -1   5  384.86   13.70
   4  -1   5  351.76   11.60
  -5   1  -5   70.79    5.10
  -5   1  -5   69.89    5.50
   5  -1   5   62.09    4.60
   5  -1   5   63.19    4.60
   5  -1   5   60.89    5.00
  -6   1  -5   45.80    4.90
  -6   1  -5   41.20    4.60
   6  -1   5   38.60    4.30
   6  -1   5   44.30    4.50
  -7   1  -5  201.88    9.90
  -7   1  -5  184.58    9.50
  -7   1  -5  182.98    9.60
   7  -1   5  164.78    8.40
   7  -1   5  191.58    9.40
  -8   1  -5   87.39    7.20
  -8   1  -5  103.99    8.00
  -8   1  -5   98.59    7.10
   8  -1   5  100.39    8.20
   6   0  -5  143.79    9.60
   6   0  -5  139.59    9.60
  -6   0   5  155.88    9.40
  -6   0   5  136.29    8.30
   5   0  -5  118.39    7.90
   5   0  -5  134.09    8.50
  -5   0   5  118.29    7.80
  -5   0   5  118.29    7.50
   4   0  -5  151.78    8.50
   4   0  -5  150.28    8.30
  -4   0   5  136.99    7.70
  -4   0   5  146.39    8.00
  -4   0   5  146.29    8.10
  -4   0   5  143.59    8.10
   3   0  -5   71.59    5.60
   3   0  -5   77.29    5.70
  -3   0   5   78.29    5.60
  -3   0   5   82.69    5.60
  -3   0   5   68.69    5.50
  -3   0   5   71.79    5.60
   2   0  -5  583.94   17.70
   2   0  -5  562.94   17.30
   2   0  -5  560.24   17.00
  -2   0   5  558.54   16.70
  -2   0   5  558.14   17.60
  -2   0   5  586.94   17.20
   1   0  -5   91.19    5.90
   1   0  -5   97.79    5.80
   1   0  -5   91.89    5.00
  -1   0   5   90.69    4.80
  -1   0   5   84.49    5.50
  -1   0   5   86.39    5.40
   0   0  -5 1313.27   33.40
   0   0  -5 1343.57   34.80
   0   0   5 1349.47   34.80
   0   0   5 1380.96   33.40
   0   0   5 1388.16   33.60
  -1   0  -5   82.39    5.30
  -1   0  -5   85.19    4.40
   1   0   5   89.89    4.30
   1   0   5   74.49    4.20
   1   0   5   87.39    5.30
  -2   0  -5 1292.37   33.00
  -2   0  -5 1330.57   34.40
   2   0   5 1385.36   33.10
   2   0   5 1355.66   34.30
   2   0   5 1336.27   32.90
  -3   0  -5 2239.78   52.09
  -3   0  -5 2104.79   52.89
   3   0   5 2165.98   51.59
   3   0   5 2157.38   52.89
   3   0   5 2179.18   51.89
  -4   0  -5   61.99    4.50
  -4   0  -5   66.69    4.90
  -4   0  -5   62.79    4.60
   4   0   5   63.19    4.80
   4   0   5   64.09    4.30
  -5   0  -5  275.87   10.70
  -5   0  -5  278.87   10.90
  -5   0  -5  287.47   11.10
   5   0   5  267.97   10.50
   5   0   5  269.97   10.60
  -6   0  -5  173.88    8.80
  -6   0  -5  201.38    9.50
  -6   0  -5  181.88    8.90
   6   0   5  161.58    8.20
   6   0   5  178.98    8.80
   6   0   5  171.48    8.50
  -7   0  -5  172.78    9.50
  -7   0  -5  171.98    9.30
  -7   0  -5  182.98    9.30
   7   0   5  167.68    8.60
   7   0   5  167.18    9.10
  -8   0  -5   71.19    6.40
  -8   0  -5   69.49    6.50
  -8   0  -5   68.59    6.60
   8   0   5   63.59    6.30
  -9   0  -5    1.10    2.40
  -9   0  -5    4.90    3.30
   9   0   5    8.30    3.30
   6  -1  -5   63.19    6.80
   6  -1  -5   73.09    7.40
  -6   1   5   61.69    5.50
  -6   1   5   58.99    6.40
   5  -1  -5   57.49    6.00
   5  -1  -5   58.69    6.20
  -5   1   5   58.59    5.20
  -5   1   5   61.09    6.00
  -5   1   5   48.80    5.10
   4  -1  -5  265.97   11.80
   4  -1  -5  271.47   11.80
  -4   1   5  277.27   11.50
  -4   1   5  263.87   10.80
  -4   1   5  284.87   10.70
  -4   1   5  284.77   11.90
   3  -1  -5  144.49    7.70
  -3   1   5  132.79    7.10
  -3   1   5  146.19    7.10
  -3   1   5  133.39    7.20
  -3   1   5  144.19    7.60
   2  -1  -5   13.10    2.60
   2  -1  -5   11.20    2.50
   2  -1  -5   10.90    2.30
  -2   1   5   10.60    2.50
  -2   1   5   10.60    2.40
  -2   1   5   11.70    2.40
   1  -1  -5   99.99    5.50
   1  -1  -5   97.39    5.60
   1  -1  -5   97.19    5.40
  -1   1   5  105.29    5.60
  -1   1   5  102.19    5.30
  -1   1   5  101.99    5.60
   0  -1  -5  230.28    8.50
   0  -1  -5  225.68    8.30
   0  -1  -5  239.88    9.00
   0   1   5  218.68    8.20
   0   1   5  220.18    8.40
   0   1   5  220.68    8.60
  -1  -1  -5  776.22   21.30
  -1  -1  -5  810.02   21.20
  -1  -1  -5  790.72   21.90
   1   1   5  790.32   21.70
   1   1   5  819.42   21.30
   1   1   5  776.32   21.00
  -2  -1  -5  513.35   15.30
  -2  -1  -5  515.75   15.10
  -2  -1  -5  510.45   15.80
   2   1   5  531.15   15.00
   2   1   5  529.05   15.20
   2   1   5  529.05   15.70
  -3  -1  -5    0.10    1.60
  -3  -1  -5    0.10    1.20
  -3  -1  -5    1.60    1.40
   3   1   5    1.10    1.40
   3   1   5    1.50    1.60
   3   1   5   -0.50    1.20
  -4  -1  -5  872.31   24.20
  -4  -1  -5  878.91   24.00
  -4  -1  -5  881.91   24.40
   4   1   5  853.81   23.70
   4   1   5  880.01   24.10
   4   1   5  869.01   24.00
  -5  -1  -5  132.19    7.20
  -5  -1  -5  119.79    7.10
  -5  -1  -5  131.69    7.10
   5   1   5  130.99    6.80
   5   1   5  131.39    7.20
   5   1   5  125.89    6.80
  -6  -1  -5  160.68    8.50
  -6  -1  -5  169.58    8.80
  -6  -1  -5  173.08    8.90
   6   1   5  165.28    8.50
   6   1   5  156.58    7.90
   6   1   5  178.48    9.00
  -7  -1  -5   -1.80    2.20
  -7  -1  -5   -3.10    1.80
  -7  -1  -5    0.10    2.10
   7   1   5   -1.30    1.90
  -8  -1  -5  253.67   12.40
  -8  -1  -5  261.77   12.60
  -8  -1  -5  266.27   12.20
   8   1   5  253.87   13.80
  -9  -1  -5   10.80    5.40
  -9  -1  -5   13.80    4.10
  -9  -1  -5   11.50    3.60
   9   1   5   11.20    3.50
   6  -2  -5   15.00    5.80
   6  -2  -5    8.00    5.60
  -6   2   5    9.30    2.70
  -6   2   5    3.50    2.80
  -6   2   5    8.40    2.70
   5  -2  -5   81.39    7.10
   5  -2  -5   84.49    7.00
  -5   2   5   84.79    6.90
  -5   2   5   82.79    5.40
  -5   2   5   69.19    5.20
  -5   2   5   72.29    6.50
   4  -2  -5   32.00    4.60
   4  -2  -5   52.49    5.40
  -4   2   5   44.60    6.00
  -4   2   5   54.29    4.40
  -4   2   5   49.10    4.30
  -4   2   5   47.90    5.10
   3  -2  -5 1079.29   29.60
  -3   2   5 1012.60   27.30
  -3   2   5 1090.59   29.60
  -3   2   5 1039.30   29.00
  -3   2   5 1048.10   27.80
   2  -2  -5  393.36   12.40
   2  -2  -5  371.86   13.20
   2  -2  -5  390.66   13.10
  -2   2   5  376.06   12.20
  -2   2   5  366.06   12.80
  -2   2   5  388.46   13.30
   1  -2  -5 1557.44   37.90
   1  -2  -5 1469.55   37.90
   1  -2  -5 1486.65   37.30
  -1   2   5 1511.85   38.10
  -1   2   5 1474.55   37.10
  -1   2   5 1502.65   37.70
   0  -2  -5  290.57   10.10
   0  -2  -5  288.67   10.20
   0  -2  -5  288.27   10.10
   0   2   5  293.07   10.20
   0   2   5  308.87   10.20
   0   2   5  292.77   10.40
  -1  -2  -5  500.15   15.10
  -1  -2  -5  500.25   14.80
  -1  -2  -5  483.75   15.00
   1   2   5  526.75   18.60
   1   2   5  506.75   15.10
   1   2   5  505.65   15.00
  -2  -2  -5  320.47   11.20
  -2  -2  -5  339.57   11.20
  -2  -2  -5  339.57   11.50
   2   2   5  352.06   11.70
   2   2   5  339.17   11.30
   2   2   5  337.87   11.30
  -3  -2  -5    5.10    2.00
  -3  -2  -5    5.00    2.10
  -3  -2  -5    4.00    1.60
   3   2   5    5.20    1.90
   3   2   5    3.70    1.70
   3   2   5    2.10    1.50
  -4  -2  -5   41.30    4.00
  -4  -2  -5   30.70    3.70
  -4  -2  -5   38.10    4.00
   4   2   5   31.40    3.60
   4   2   5   39.50    3.90
   4   2   5   41.30    4.10
  -5  -2  -5 1067.59   28.90
  -5  -2  -5 1017.30   29.00
  -5  -2  -5 1031.80   28.90
   5   2   5 1093.79   29.40
   5   2   5 1020.50   28.40
   5   2   5 1043.50   28.70
  -6  -2  -5  123.09    7.50
   6   2   5  127.99    8.00
   6   2   5  119.49    7.60
   6   2   5  123.29    7.10
  -7  -2  -5    6.20    3.00
  -7  -2  -5    8.30    2.80
  -7  -2  -5    6.10    2.60
   7   2   5    7.90    3.00
   7   2   5    5.50    2.50
  -8  -2  -5  295.57   13.10
  -8  -2  -5  292.87   13.70
  -8  -2  -5  276.47   15.00
   8   2   5  302.47   13.80
  -9  -2  -5   78.79    9.00
  -9  -2  -5   96.09    8.40
  -9  -2  -5   98.49    7.90
   9   2   5   98.49    8.30
   6  -3  -5  197.48   11.40
  -6   3   5  171.78   12.20
  -6   3   5  170.38   10.80
  -6   3   5  190.78    7.80
  -6   3   5  196.68    8.10
   5  -3  -5  178.28   11.10
   5  -3  -5  177.58   10.20
  -5   3   5  179.98    7.40
  -5   3   5  166.68    7.30
  -5   3   5  177.58   10.00
  -5   3   5  176.28   10.20
   4  -3  -5   82.59    6.50
   4  -3  -5   65.09    6.10
  -4   3   5   70.49    4.50
  -4   3   5   63.69    6.00
  -4   3   5   74.09    4.50
  -4   3   5   78.39    6.50
   3  -3  -5  545.05   17.90
  -3   3   5  542.45   15.60
  -3   3   5  546.65   17.70
  -3   3   5  550.14   15.40
  -3   3   5  515.75   17.70
   2  -3  -5   40.60    4.10
   2  -3  -5   50.09    3.70
   2  -3  -5   45.90    4.60
  -2   3   5   48.50    3.60
  -2   3   5   47.00    4.40
  -2   3   5   45.50    8.20
   1  -3  -5   67.29    4.80
   1  -3  -5   69.19    4.30
   1  -3  -5   66.29    4.80
  -1   3   5   68.39    5.00
  -1   3   5   72.39    4.80
  -1   3   5   73.09    4.80
   0  -3  -5 1578.84   38.20
   0  -3  -5 1529.85   38.90
   0  -3  -5 1561.74   38.80
   0   3   5 1545.65   39.10
   0   3   5 1540.05   38.00
   0   3   5 1550.44   38.80
  -1  -3  -5  933.31   25.10
  -1  -3  -5  939.01   25.40
  -1  -3  -5  930.91   24.90
   1   3   5  953.40   25.50
   1   3   5  968.60   25.30
   1   3   5  966.90   24.90
  -2  -3  -5   76.09    4.90
  -2  -3  -5   74.59    4.70
  -2  -3  -5   70.29    4.70
   2   3   5   69.39    4.40
   2   3   5   69.29    4.60
   2   3   5   70.59    4.90
  -3  -3  -5  100.49    5.80
  -3  -3  -5  111.79    6.00
  -3  -3  -5  106.59    5.90
   3   3   5  104.79    5.60
   3   3   5  104.79    5.80
   3   3   5  107.79    6.10
  -4  -3  -5  304.37   11.50
  -4  -3  -5  293.57   11.40
  -4  -3  -5  316.07   11.50
   4   3   5  305.67   11.40
   4   3   5  320.17   11.80
   4   3   5  308.87   11.20
  -5  -3  -5 1340.47   35.50
  -5  -3  -5 1380.96   35.50
  -5  -3  -5 1302.77   35.50
   5   3   5 1253.97   34.70
   5   3   5 1322.57   35.30
   5   3   5 1331.47   35.80
  -6  -3  -5   18.00    3.70
  -6  -3  -5   20.10    4.20
  -6  -3  -5   15.30    3.30
   6   3   5   17.20    3.70
   6   3   5   17.20    3.60
  -7  -3  -5  298.77   13.00
  -7  -3  -5  301.27   13.50
  -7  -3  -5  301.47   13.20
   7   3   5  314.77   13.80
   7   3   5  318.47   13.90
  -8  -3  -5   15.10    4.20
  -8  -3  -5   14.20    4.10
  -8  -3  -5   10.00    3.80
   8   3   5   14.60    4.20
   8   3   5    9.20    4.80
  -9  -3  -5  174.18   10.80
   9   3   5  185.58   11.70
   6  -4  -5  137.59    9.50
  -6   4   5  146.49    5.90
  -6   4   5  153.58   10.10
  -6   4   5  125.69   10.00
   5  -4  -5    0.80    4.30
   5  -4  -5   -0.10    2.30
  -5   4   5    0.10    1.30
  -5   4   5    0.30    2.80
  -5   4   5   -2.30    2.60
   4  -4  -5  247.38   11.60
  -4   4   5  238.98    8.60
  -4   4   5  262.87   12.00
  -4   4   5  248.38   11.50
  -4   4   5  247.48    8.10
   3  -4  -5    2.30    2.00
  -3   4   5    6.60    2.60
  -3   4   5    5.30    1.60
  -3   4   5    4.70    1.60
  -3   4   5    4.90    2.70
   2  -4  -5    9.90    2.60
   2  -4  -5   15.80    3.20
   2  -4  -5    9.50    2.10
  -2   4   5    7.40    2.50
  -2   4   5    9.50    1.90
  -2   4   5    7.00    2.50
   1  -4  -5  243.18    9.80
   1  -4  -5  242.38    8.50
   1  -4  -5  255.97    9.80
  -1   4   5  238.98    9.60
  -1   4   5  247.68    8.30
  -1   4   5  239.58   10.00
   0  -4  -5  404.76   12.20
   0  -4  -5  388.36   13.10
   0  -4  -5  400.46   13.00
   0   4   5  380.96   13.30
   0   4   5  398.06   11.90
   0   4   5  387.96   13.00
  -1  -4  -5   10.90    2.40
  -1  -4  -5    7.60    2.00
  -1  -4  -5    7.60    2.00
   1   4   5    9.00    2.20
   1   4   5    6.80    2.10
   1   4   5   10.20    2.10
  -2  -4  -5  560.24   17.20
  -2  -4  -5  583.24   17.00
  -2  -4  -5  577.44   17.00
   2   4   5  586.24   17.40
   2   4   5  567.44   16.60
   2   4   5  527.85   16.80
  -3  -4  -5  328.67   12.10
  -3  -4  -5  356.56   12.10
  -3  -4  -5  334.47   12.10
   3   4   5  350.66   11.90
   3   4   5  327.67   12.20
   3   4   5  345.87   12.10
  -4  -4  -5   38.40    4.20
  -4  -4  -5   29.40    3.80
  -4  -4  -5   38.30    4.30
   4   4   5   38.00    4.40
   4   4   5   36.10    3.70
   4   4   5   38.90    4.30
  -5  -4  -5  383.86   18.00
  -5  -4  -5  484.85   16.30
   5   4   5  506.25   16.40
   5   4   5  447.06   15.50
   5   4   5  492.15   16.60
  -6  -4  -5   53.79    5.80
  -6  -4  -5   39.40    5.00
  -6  -4  -5   48.60    5.30
   6   4   5   46.80    5.20
   6   4   5   34.20    4.70
  -7  -4  -5  145.69    9.10
  -7  -4  -5  167.18    9.80
  -7  -4  -5  158.78    9.40
   7   4   5  156.58    9.50
   7   4   5  149.29    9.50
  -8  -4  -5  313.37   14.30
  -8  -4  -5  300.77   14.00
   8   4   5  285.37   14.00
   8   4   5  341.97   15.30
   6  -5  -5  142.69    9.80
  -6   5   5  133.49    9.80
  -6   5   5  144.59   10.80
   5  -5  -5    2.30    2.60
  -5   5   5    2.10    2.60
   4  -5  -5  257.77   11.80
  -4   5   5  245.68    6.60
  -4   5   5  256.37   11.90
  -4   5   5  239.68    6.50
  -4   5   5  255.27   12.10
   3  -5  -5  292.17   12.40
  -3   5   5  293.67   12.50
  -3   5   5  295.87    8.40
  -3   5   5  292.27   12.10
  -3   5   5  297.27    8.40
   2  -5  -5  385.36   14.20
   2  -5  -5  400.56   11.30
   2  -5  -5  386.06   13.90
  -2   5   5  398.06   14.60
  -2   5   5  417.46   14.40
  -2   5   5  398.06   11.20
   1  -5  -5  917.01   25.30
   1  -5  -5  886.81   25.40
   1  -5  -5  891.11   26.90
  -1   5   5  896.41   25.40
  -1   5   5  904.81   25.80
  -1   5   5  933.81   23.00
   0  -5  -5   18.80    3.00
   0  -5  -5   18.00    2.60
   0  -5  -5   19.50    3.10
   0   5   5   16.30    3.10
   0   5   5   23.60    2.60
   0   5   5   16.60    3.10
  -1  -5  -5  217.58    8.80
  -1  -5  -5  212.48    8.40
  -1  -5  -5  215.58    9.00
   1   5   5  228.48    9.40
   1   5   5  205.48    8.90
   1   5   5  212.88    8.10
  -2  -5  -5  171.28    7.60
  -2  -5  -5  172.08    7.90
  -2  -5  -5  156.68    7.50
   2   5   5  170.58    8.10
   2   5   5  155.78    7.60
   2   5   5  172.48    7.40
  -3  -5  -5  286.27   11.00
  -3  -5  -5  308.37   11.20
  -3  -5  -5  292.87   11.20
   3   5   5  277.77   10.90
   3   5   5  276.87   10.50
   3   5   5  277.67   11.30
  -4  -5  -5   90.39    6.00
  -4  -5  -5   88.79    6.10
  -4  -5  -5   80.69    6.20
   4   5   5   85.69    5.70
   4   5   5   87.09    6.00
   4   5   5   82.09    6.30
  -5  -5  -5  106.09    7.00
  -5  -5  -5  111.99    7.30
  -5  -5  -5   95.79    6.90
   5   5   5  111.29    7.10
   5   5   5  114.79    7.50
  -6  -5  -5  104.79    7.80
  -6  -5  -5  110.29    7.50
  -6  -5  -5  103.19    7.50
   6   5   5  111.79    7.50
   6   5   5  104.69    7.80
  -7  -5  -5    1.40    2.30
  -7  -5  -5    0.20    2.70
   7   5   5   -2.40    2.50
  -8  -5  -5  268.67   13.10
  -8  -5  -5  251.07   13.20
   8   5   5  248.78   13.60
   8   5   5  274.77   14.00
   5  -6  -5  100.19    7.80
  -5   6   5   89.39    8.30
  -5   6   5  104.79    8.20
   4  -6  -5   -0.10    2.30
  -4   6   5   -2.60    2.10
  -4   6   5    0.20    2.30
   3  -6  -5  261.37   11.60
  -3   6   5  245.98   11.70
  -3   6   5  253.27   11.40
   2  -6  -5   53.79    5.20
   2  -6  -5   56.59    4.90
   2  -6  -5   58.19    3.10
  -2   6   5   56.09    2.90
  -2   6   5   61.09    5.80
  -2   6   5   60.79    5.50
   1  -6  -5   15.50    2.80
   1  -6  -5   14.80    3.00
   1  -6  -5   19.00    2.80
  -1   6   5   17.30    2.30
  -1   6   5   12.50    2.90
  -1   6   5   16.40    3.00
   0  -6  -5  825.52   23.70
   0  -6  -5  886.21   26.10
   0  -6  -5  832.22   22.30
   0   6   5  829.32   22.00
   0   6   5  839.72   24.50
   0   6   5  842.52   24.10
  -1  -6  -5   15.60    3.00
  -1  -6  -5   14.60    3.00
  -1  -6  -5   11.70    2.70
   1   6   5   11.20    2.90
   1   6   5   14.50    3.20
   1   6   5   12.70    2.50
  -2  -6  -5  136.39    7.10
  -2  -6  -5  136.09    7.20
  -2  -6  -5  132.89    6.90
   2   6   5  143.19    6.90
   2   6   5  138.49    7.60
   2   6   5  128.69    7.10
  -3  -6  -5   22.00    4.00
  -3  -6  -5   32.50    6.00
  -3  -6  -5   20.50    3.00
   3   6   5   15.40    2.80
   3   6   5   27.00    4.30
  -4  -6  -5  343.77   12.90
  -4  -6  -5  341.67   13.30
  -4  -6  -5  344.97   13.20
   4   6   5  352.06   13.00
   4   6   5  339.87   13.60
   4   6   5  364.76   13.40
  -5  -6  -5   71.89    6.20
  -5  -6  -5   43.30    7.60
  -5  -6  -5   69.29    5.90
   5   6   5   63.39    5.90
   5   6   5   71.99    6.60
  -6  -6  -5  363.36   14.80
  -6  -6  -5  335.47   13.80
   6   6   5  334.17   14.60
   6   6   5  340.27   14.20
  -7  -6  -5   37.70    6.50
  -7  -6  -5   50.19    5.80
   7   6   5   38.30    5.80
   7   6   5   51.69    6.30
  -8  -6  -5   64.79    7.60
  -8  -6  -5   40.70    8.40
   8   6   5   49.80    6.70
  -5   7   5  140.49   14.70
   4  -7  -5   45.60    5.90
  -4   7   5   29.40    4.50
  -4   7   5   23.40    4.10
   3  -7  -5   90.79    6.70
  -3   7   5   66.59    6.50
  -3   7   5   84.89    6.80
   2  -7  -5  163.78    4.80
  -2   7   5  173.48    9.30
  -2   7   5  157.38    8.60
  -2   7   5  158.38    4.70
   1  -7  -5    0.80    1.50
  -1   7   5    3.10    2.00
  -1   7   5    3.50    1.40
  -1   7   5    1.90    2.30
   0  -7  -5   12.20    2.40
   0   7   5   11.50    2.80
   0   7   5   10.00    2.20
   0   7   5    7.80    2.60
  -1  -7  -5 1138.69   29.00
  -1  -7  -5  950.30   34.20
   1   7   5 1086.09   28.40
   1   7   5 1174.38   30.30
   1   7   5 1027.70   36.00
  -2  -7  -5  575.64   17.90
  -2  -7  -5  519.55   17.70
   2   7   5  581.24   17.50
   2   7   5  584.34   19.50
   2   7   5  569.34   18.20
  -3  -7  -5   56.69    4.90
   3   7   5   69.29    5.60
   3   7   5   77.39    6.30
   3   7   5   71.89    5.60
  -4  -7  -5  241.88   10.40
  -4  -7  -5  236.38   11.00
   4   7   5  230.08   10.90
   4   7   5  233.08   10.60
  -5  -7  -5  125.39    7.60
  -5  -7  -5  114.79    7.80
   5   7   5  117.69    7.90
   5   7   5  126.59    8.40
  -6  -7  -5    8.90    2.70
  -6  -7  -5   17.80    4.10
   6   7   5   23.60    4.40
   6   7   5    8.20    2.60
  -7  -7  -5  171.78   10.20
  -7  -7  -5  191.48   11.40
   7   7   5  192.98   11.40
   7   7   5  176.68   12.50
  -4   8   5  115.89    8.60
   3  -8  -5  142.09    8.50
  -3   8   5  140.19    9.10
  -3   8   5  158.78    9.30
  -2   8   5   21.30    3.70
  -2   8   5   34.50    5.00
   1  -8  -5   31.40    4.20
  -1   8   5   49.10    8.90
  -1   8   5   29.20    4.10
  -1   8   5   30.10    2.70
   0  -8  -5  124.29    6.10
   0  -8  -5  125.59    7.00
   0   8   5  123.59    5.90
   0   8   5  124.59    7.80
  -1  -8  -5  616.54   19.00
  -1  -8  -5  620.64   18.60
   1   8   5  588.54   18.20
   1   8   5  636.54   20.20
  -2  -8  -5  106.29    6.30
  -2  -8  -5   92.79    6.50
   2   8   5   95.99    7.00
   2   8   5   96.19    6.30
   2   8   5   93.29    7.80
  -3  -8  -5  337.67   12.70
  -3  -8  -5  356.36   13.70
   3   8   5  336.37   14.40
   3   8   5  360.16   14.10
  -4  -8  -5    1.20    1.90
  -4  -8  -5    5.70    3.00
   4   8   5    5.70    2.50
   4   8   5    8.90    3.00
  -5  -8  -5  180.38    9.50
  -5  -8  -5  219.88   11.30
   5   8   5  207.58   10.80
   5   8   5  189.08   10.60
  -6  -8  -5   92.39    8.10
  -6  -8  -5   88.89    6.90
   6   8   5   93.19    8.20
   6   8   5   83.79    8.60
   2  -9  -5   48.30    5.00
  -2   9   5   32.90    5.30
  -2   9   5   59.59    6.00
  -1   9   5   95.09    5.30
  -1   9   5  105.09    8.40
   0  -9  -5   -1.60    1.60
   0  -9  -5   -1.60    1.60
   0   9   5   -3.00    1.70
   0   9   5    1.40    2.10
   0   9   5    1.30    2.30
  -1  -9  -5  212.78    9.50
  -1  -9  -5  208.68    9.20
   1   9   5  230.58   10.80
   1   9   5  210.08    9.20
   1   9   5  227.78   10.40
  -2  -9  -5   -3.50    1.60
  -2  -9  -5   -0.90    2.30
   2   9   5    0.50    2.10
  -3  -9  -5   37.30    5.00
  -3  -9  -5   29.40    4.00
   3   9   5   41.90    5.40
  -4  -9  -5   94.09    6.50
  -4  -9  -5   95.09    7.60
  -5  -9  -5    2.00    3.20
   5   9   5    2.90    2.40
   0 -10  -5    6.00    2.20
   0  10   5    1.20    2.90
   0  10   5    5.20    2.70
  -1 -10  -5  183.58    8.90
   1  10   5  172.38    9.70
   1  10   5  184.78    9.80
   1  10   5  129.09    9.10
  -2 -10  -5   48.20    5.80
   2  10   5   44.30    5.90
   2  10   5   46.20    5.40
  -3 -10  -5   -1.40    2.30
   3  10   5    2.90    2.90
   0  -6   6   82.79    7.60
   1  -6   6   44.70    6.10
   2  -6   6    2.90    2.70
   2   5  -6  117.49    6.20
   2   5  -6  116.49    6.00
  -2  -5   6  133.49    9.20
  -1  -5   6  276.67   14.60
   0   5  -6  274.17    8.20
   0   5  -6  268.17    8.20
   0  -5   6  275.27   13.00
  -1   5  -6   -0.30    0.70
  -1   5  -6    0.60    0.80
   1  -5   6   -1.00    2.30
  -2   5  -6  126.79    4.10
   2  -5   6  129.39    8.10
  -3   5  -6   70.19    6.40
  -3   5  -6   69.89    3.30
  -3   5  -6   73.39    3.50
  -4   5  -6  124.39    5.50
  -4   5  -6  117.59    5.20
  -4   5  -6  117.69    7.90
  -5   5  -6   33.60    5.00
  -5   5  -6   36.80    5.80
  -5   5  -6   38.20    3.50
   3   4  -6   -0.30    1.40
   3   4  -6    2.50    2.00
  -3  -4   6   -2.20    2.30
   2   4  -6  220.28    9.00
   2   4  -6  213.68    8.90
  -2  -4   6  215.08   11.60
   1   4  -6  208.08    8.00
   1   4  -6  200.98    7.90
  -1  -4   6  205.18   10.70
   0   4  -6  168.18    6.50
   0  -4   6  162.68    9.20
  -1   4  -6  917.11   22.80
  -1   4  -6  897.91   27.80
  -1   4  -6  916.41   23.00
   1  -4   6  920.21   27.60
  -2   4  -6    4.30    2.80
  -2   4  -6    5.60    1.50
  -2   4  -6    6.90    1.60
  -3   4  -6  228.08   10.90
  -3   4  -6  221.68    7.70
  -3   4  -6  231.88    8.00
  -4   4  -6    2.70    1.50
  -4   4  -6   -1.10    2.30
  -4   4  -6    2.60    1.40
  -5   4  -6  317.87   13.40
  -5   4  -6  324.07   11.50
  -6   4  -6    3.40    2.60
  -6   4  -6    1.60    2.10
  -6   4  -6    1.50    1.70
   4   3  -6  225.98   10.90
   4   3  -6  238.18   11.10
  -4  -3   6  227.18    9.60
  -4  -3   6  242.28   12.30
   3   3  -6    8.30    2.60
   3   3  -6   12.90    3.10
  -3  -3   6    5.40    3.10
  -3  -3   6    8.50    2.00
   2   3  -6   86.49    5.50
   2   3  -6   83.19    5.40
  -2  -3   6   81.09    4.20
  -2  -3   6   84.69    6.80
   1   3  -6  330.47   11.20
  -1  -3   6  318.77   13.50
  -1  -3   6  333.17    9.10
   0   3  -6   10.00    3.00
   0   3  -6    9.30    2.00
   0   3  -6    8.70    1.90
  -1   3  -6   55.29    3.50
  -1   3  -6   47.60    5.60
  -1   3  -6   56.39    3.60
  -2   3  -6  569.74   15.80
  -2   3  -6  583.24   16.00
  -2   3  -6  582.94   19.40
  -3   3  -6  176.58    6.90
  -3   3  -6  169.98    7.00
  -3   3  -6  175.38    9.30
   3  -3   6  186.18   13.30
  -4   3  -6  141.79    6.70
  -4   3  -6  140.59    8.20
  -4   3  -6  136.49    6.30
  -5   3  -6  259.37   14.00
  -5   3  -6  253.87    9.90
  -5   3  -6  261.17   11.40
   5  -3   6  253.37    8.80
  -6   3  -6   95.29    6.50
  -6   3  -6  103.59    7.00
  -6   3  -6  113.59    7.40
   6  -3   6  103.49    5.30
  -7   3  -6    0.60    2.50
  -7   3  -6    1.40    2.10
  -7   3  -6   -0.50    2.50
   7  -3   6    2.80    1.70
   5   2  -6  111.69    8.50
   5   2  -6  123.39    8.40
  -5  -2   6   99.79    8.20
  -5  -2   6  101.79    8.30
   4   2  -6    1.60    2.00
  -4  -2   6    6.80    2.70
  -4  -2   6    2.10    1.90
   3   2  -6  607.44   19.70
   3   2  -6  632.54   19.90
  -3  -2   6  647.44   21.30
  -3  -2   6  607.54   18.60
   2   2  -6  411.26   14.10
   2   2  -6  410.16   14.00
  -2  -2   6  408.66   15.50
  -2  -2   6  412.26   13.20
   1   2  -6   90.39    5.30
   1   2  -6   74.69    6.30
   1   2  -6   82.29    5.00
  -1  -2   6   88.59    6.50
  -1  -2   6   82.19    4.60
   0   2  -6  187.78    9.60
   0   2  -6  177.28    7.10
   0   2  -6  178.08    7.30
   0  -2   6  175.08    6.10
   0  -2   6  173.68    9.00
   0  -2   6  179.88    6.30
  -1   2  -6  324.47   12.20
  -1   2  -6  329.27   10.70
   1  -2   6  331.17    9.30
   1  -2   6  320.87    9.10
   1  -2   6  315.77   12.80
  -2   2  -6 1095.29   27.90
  -2   2  -6 1098.59   30.80
  -2   2  -6 1114.89   28.10
   2  -2   6 1083.59   26.20
   2  -2   6 1087.19   30.50
   2  -2   6 1048.20   26.00
  -3   2  -6    2.70    1.60
  -3   2  -6    0.90    1.40
  -3   2  -6    0.00    2.30
   3  -2   6    0.80    1.00
   3  -2   6   -0.10    1.10
   3  -2   6    0.60    2.00
  -4   2  -6  514.75   19.00
  -4   2  -6  523.05   15.80
  -4   2  -6  531.65   16.20
   4  -2   6  524.95   17.50
   4  -2   6  524.65   14.80
  -5   2  -6   13.10    3.50
  -5   2  -6   15.70    3.10
  -5   2  -6    9.80    2.40
   5  -2   6    9.50    2.20
   5  -2   6    9.30    2.70
  -6   2  -6  261.17   10.90
  -6   2  -6  270.67   11.60
  -6   2  -6  252.67   11.00
  -7   2  -6  165.58    9.10
  -7   2  -6  177.48    9.50
  -7   2  -6  145.29    9.60
   7  -2   6  137.89    8.60
  -8   2  -6   -2.40    1.90
  -8   2  -6    0.10    2.80
   5   1  -6    5.60    3.20
   5   1  -6    7.60    3.00
  -5  -1   6    4.50    2.50
  -5  -1   6    7.20    3.40
   4   1  -6  153.08    8.90
   4   1  -6  171.38    9.30
  -4  -1   6  160.98    8.50
  -4  -1   6  159.18    9.10
   3   1  -6  190.38    9.20
  -3  -1   6  187.38    9.60
  -3  -1   6  176.98    8.50
   2   1  -6    0.40    1.00
  -2  -1   6    2.30    1.70
  -2  -1   6    2.60    2.70
   1   1  -6    8.90    2.10
   1   1  -6   13.20    2.80
   1   1  -6    8.70    3.30
  -1  -1   6    7.00    1.80
  -1  -1   6   11.40    3.00
  -1  -1   6   12.40    2.60
   0   1  -6  424.26   13.40
   0   1  -6  423.66   15.10
   0   1  -6  436.76   13.30
   0  -1   6  422.36   15.10
   0  -1   6  412.96   12.50
   0  -1   6  438.26   12.90
  -1   1  -6   22.80    2.90
  -1   1  -6   21.80    3.60
  -1   1  -6   20.60    2.70
   1  -1   6   25.20    2.70
  -2   1  -6  628.04   17.50
  -2   1  -6  613.44   17.20
  -2   1  -6  593.14   19.10
   2  -1   6  617.24   16.70
   2  -1   6  597.84   19.70
   2  -1   6  597.84   20.40
  -3   1  -6   22.60    2.90
  -3   1  -6   25.30    3.30
  -3   1  -6   18.40    3.60
   3  -1   6   22.50    2.70
   3  -1   6   26.50    3.00
  -4   1  -6   59.49    4.70
  -4   1  -6   63.49    5.40
  -4   1  -6   64.19    4.90
   4  -1   6   63.59    5.30
   4  -1   6   63.29    4.30
   4  -1   6   59.59    4.10
  -5   1  -6  592.34   18.60
  -5   1  -6  567.74   20.40
  -5   1  -6  588.04   18.20
   5  -1   6  611.34   17.90
   5  -1   6  591.24   18.90
  -6   1  -6   10.90    3.10
  -6   1  -6   10.40    3.20
   6  -1   6   13.20    3.00
  -7   1  -6   49.50    5.10
  -7   1  -6   50.99    5.70
  -7   1  -6   49.30    5.20
   7  -1   6   49.20    4.80
  -8   1  -6    4.50    3.60
  -8   1  -6   -0.70    2.60
   8  -1   6    1.00    2.10
   6   0  -6  126.89    9.40
  -6   0   6  115.09    8.20
  -6   0   6  132.49    9.60
   5   0  -6   48.90    6.10
   5   0  -6   43.10    5.80
  -5   0   6   39.60    5.30
  -5   0   6   40.10    5.50
   4   0  -6  278.67   12.60
   4   0  -6  303.37   12.80
  -4   0   6  279.57   12.10
  -4   0   6  289.27   12.30
   3   0  -6   92.19    6.60
   3   0  -6   90.69    6.40
  -3   0   6   84.89    6.00
  -3   0   6   71.39    6.00
  -3   0   6   89.49    6.50
   2   0  -6  171.08    8.20
   2   0  -6  154.68    7.70
   2   0  -6  163.18    8.40
  -2   0   6  159.28    8.30
  -2   0   6  155.38    7.40
   1   0  -6  134.09    6.80
   1   0  -6  134.39    7.50
  -1   0   6  131.29    7.40
  -1   0   6  135.69    6.70
   0   0  -6  150.48    7.70
   0   0  -6  151.78    6.80
   0   0   6  145.59    6.60
   0   0   6  150.88    7.60
   0   0   6  145.59    6.40
  -1   0  -6   31.80    3.30
  -1   0  -6   37.20    4.10
   1   0   6   28.50    2.90
   1   0   6   28.20    3.90
   1   0   6   33.70    3.30
  -2   0  -6  205.78    9.10
  -2   0  -6  216.48    8.10
   2   0   6  180.78    8.50
   2   0   6  200.98    7.80
   2   0   6  200.88    7.60
  -3   0  -6  236.78   10.20
  -3   0  -6  221.68    8.80
   3   0   6  225.28    8.50
   3   0   6  244.28    8.90
   3   0   6  231.78    9.80
  -4   0  -6   44.40    4.20
  -4   0  -6   47.20    4.80
   4   0   6   47.90    4.00
   4   0   6   48.40    4.20
  -5   0  -6  859.91   28.50
  -5   0  -6  918.61   26.40
  -5   0  -6  948.41   26.20
   5   0   6  887.31   25.20
   5   0   6  908.51   25.50
   5   0   6  913.01   26.00
  -6   0  -6    4.20    2.30
  -6   0  -6    4.50    2.50
  -6   0  -6    5.70    2.90
   6   0   6    3.70    2.50
   6   0   6    3.90    3.90
  -7   0  -6   46.60    5.40
  -7   0  -6   53.39    5.80
  -7   0  -6   51.19    5.40
   7   0   6   43.10    5.00
  -8   0  -6  314.97   14.50
  -8   0  -6  326.87   13.90
  -8   0  -6  335.57   14.50
   8   0   6  307.67   13.90
   6  -1  -6   64.59    8.90
   6  -1  -6   91.89    8.00
  -6   1   6   71.99    6.50
   5  -1  -6   77.79    7.10
   5  -1  -6   84.89    7.40
  -5   1   6   81.69    7.10
  -5   1   6   90.19    6.60
   4  -1  -6   84.19    6.70
   4  -1  -6   85.69    7.00
  -4   1   6   85.39    6.90
  -4   1   6   80.99    6.70
  -4   1   6   78.39    6.00
   3  -1  -6 1810.92   47.20
  -3   1   6 1851.31   47.10
  -3   1   6 1770.82   46.40
  -3   1   6 1892.21   46.30
  -3   1   6 1759.92   46.60
   2  -1  -6   42.20    4.50
   2  -1  -6   46.80    4.70
   2  -1  -6   48.80    4.50
  -2   1   6   39.20    4.40
  -2   1   6   38.00    4.30
  -2   1   6   45.90    4.70
   1  -1  -6   67.69    5.00
   1  -1  -6   62.59    4.80
   1  -1  -6   54.19    5.00
  -1   1   6   69.49    5.00
  -1   1   6   65.09    5.00
  -1   1   6   59.79    4.50
   0  -1  -6   -0.80    1.30
   0  -1  -6    3.30    1.70
   0  -1  -6    2.80    2.10
   0   1   6   -1.20    1.50
   0   1   6    2.50    1.60
   0   1   6    1.60    1.40
  -1  -1  -6 1907.11   46.10
  -1  -1  -6 1874.61   47.10
  -1  -1  -6 1813.02   46.20
   1   1   6 1898.01   46.20
   1   1   6 1917.11   47.10
   1   1   6 1882.81   45.90
  -2  -1  -6  189.58    7.90
  -2  -1  -6  190.38    8.00
  -2  -1  -6  192.48    8.80
   2   1   6  194.48    7.70
   2   1   6  190.08    7.90
   2   1   6  193.38    8.50
  -3  -1  -6  267.17    9.80
  -3  -1  -6  255.97    9.90
  -3  -1  -6  264.27   10.70
   3   1   6  263.27    9.80
   3   1   6  255.37   10.20
   3   1   6  247.38    9.40
  -4  -1  -6   42.30    4.30
  -4  -1  -6   39.90    4.60
  -4  -1  -6   46.10    4.30
   4   1   6   34.10    3.90
   4   1   6   40.00    3.90
   4   1   6   38.90    4.20
  -5  -1  -6  188.78    9.20
  -5  -1  -6  178.28    8.90
  -5  -1  -6  192.48    9.00
   5   1   6  190.08    8.90
   5   1   6  182.48    8.50
   5   1   6  165.68    8.40
  -6  -1  -6  148.09    8.30
  -6  -1  -6  130.49    8.00
  -6  -1  -6  140.59    8.20
   6   1   6  154.08   10.90
   6   1   6  128.99    9.80
  -7  -1  -6   14.40    3.10
  -7  -1  -6    7.80    3.50
  -7  -1  -6    6.70    2.60
   7   1   6   12.20    3.50
  -8  -1  -6    3.90    2.90
  -8  -1  -6    5.10    3.70
  -8  -1  -6    0.20    2.20
   8   1   6    7.90    3.20
   6  -2  -6   75.79    7.60
   6  -2  -6   40.10    5.90
  -6   2   6   58.19    6.90
  -6   2   6   70.19    5.90
   5  -2  -6   59.19    6.40
   5  -2  -6   53.59    6.40
  -5   2   6   44.00    5.30
  -5   2   6   48.20    5.00
  -5   2   6   49.60    5.80
   4  -2  -6   12.10    3.50
   4  -2  -6   14.50    3.90
  -4   2   6   15.20    3.60
  -4   2   6   11.80    3.30
  -4   2   6   11.00    3.20
  -4   2   6   14.40    3.10
   3  -2  -6    0.90    2.00
  -3   2   6    0.40    2.10
  -3   2   6   -0.90    1.80
  -3   2   6    2.60    2.00
   2  -2  -6 1489.05   39.10
   2  -2  -6 1434.56   38.60
   2  -2  -6 1486.55   38.10
  -2   2   6 1527.55   39.20
  -2   2   6 1496.15   38.10
  -2   2   6 1472.85   38.60
   1  -2  -6  390.46   13.10
   1  -2  -6  375.86   13.30
   1  -2  -6  373.36   13.00
  -1   2   6  374.86   12.80
  -1   2   6  387.96   13.40
  -1   2   6  373.26   13.00
   0  -2  -6  362.76   12.60
   0  -2  -6  374.06   12.80
   0  -2  -6  392.06   13.00
   0   2   6  399.16   13.10
   0   2   6  357.86   12.50
   0   2   6  364.96   12.50
  -1  -2  -6  318.27   11.10
  -1  -2  -6  298.77   11.10
  -1  -2  -6  327.27   11.60
   1   2   6  309.37   11.10
   1   2   6  290.07   10.70
   1   2   6  323.27   11.30
  -2  -2  -6  468.55   14.80
  -2  -2  -6  441.06   14.40
  -2  -2  -6  461.65   15.00
   2   2   6  457.15   14.70
   2   2   6  476.45   14.60
   2   2   6  449.46   14.70
  -3  -2  -6   15.60    2.80
  -3  -2  -6   13.00    2.60
  -3  -2  -6   13.00    3.10
   3   2   6   14.00    2.50
   3   2   6   16.20    2.90
   3   2   6   19.40    3.30
  -4  -2  -6  667.43   20.40
  -4  -2  -6  654.63   20.20
  -4  -2  -6  676.03   20.10
   4   2   6  670.23   20.30
   4   2   6  670.53   20.20
   4   2   6  669.53   19.90
  -5  -2  -6 1800.02   46.70
  -5  -2  -6 1767.22   46.50
  -5  -2  -6 1885.11   46.70
   5   2   6 1776.82   46.10
   5   2   6 1879.21   46.80
   5   2   6 1754.62   46.10
  -6  -2  -6  118.29    7.70
  -6  -2  -6  109.39    7.40
  -6  -2  -6   99.59    7.10
   6   2   6  107.89    7.40
   6   2   6  102.49    7.10
  -7  -2  -6    3.00    3.60
  -7  -2  -6   -0.10    2.40
  -7  -2  -6   -3.40    2.20
   7   2   6   -2.30    1.90
  -8  -2  -6   34.10    5.50
  -8  -2  -6   29.10    5.00
  -8  -2  -6   19.60    4.00
   8   2   6   34.50    5.40
  -9  -2  -6  512.45   20.20
   9   2   6  519.75   20.80
   6  -3  -6   48.50    6.80
  -6   3   6   61.89    7.30
  -6   3   6   56.39    5.10
   5  -3  -6   19.60    4.60
   5  -3  -6   14.00    4.00
  -5   3   6   13.00    2.90
  -5   3   6   14.10    4.00
  -5   3   6   15.90    3.00
   4  -3  -6   90.49    7.30
   4  -3  -6   72.79    6.70
  -4   3   6   77.19    5.20
  -4   3   6   81.09    7.00
  -4   3   6   79.29    7.00
  -4   3   6   83.09    5.30
   3  -3  -6  115.59    7.70
  -3   3   6  130.79    6.50
  -3   3   6  121.09    7.70
  -3   3   6  124.09    7.90
  -3   3   6  130.39    6.40
   2  -3  -6 1123.89   29.80
   2  -3  -6 1081.79   30.00
   2  -3  -6 1096.19   28.30
  -2   3   6 1038.90   29.40
  -2   3   6  943.41   29.80
  -2   3   6 1080.49   28.10
   1  -3  -6   37.20    4.20
   1  -3  -6   34.00    3.80
   1  -3  -6   28.00    3.70
  -1   3   6   36.30    3.70
  -1   3   6   30.50    4.00
  -1   3   6   28.70    4.00
   0  -3  -6  711.63   21.20
   0  -3  -6  775.02   21.40
   0  -3  -6  733.03   20.70
   0   3   6  714.13   20.40
   0   3   6  757.02   21.60
   0   3   6  688.93   20.90
  -1  -3  -6  116.79    6.30
  -1  -3  -6  101.59    6.10
  -1  -3  -6  112.09    6.30
   1   3   6  100.89    5.60
   1   3   6  114.29    6.20
   1   3   6  109.59    6.30
  -2  -3  -6 1008.40   28.20
  -2  -3  -6 1093.09   28.70
  -2  -3  -6 1094.79   28.50
   2   3   6 1061.99   28.30
   2   3   6 1051.79   28.50
   2   3   6 1013.00   28.10
  -3  -3  -6   66.39    5.20
  -3  -3  -6   66.49    5.00
  -3  -3  -6   71.89    5.30
   3   3   6   77.89    5.50
   3   3   6   62.69    4.80
   3   3   6   71.49    5.10
  -4  -3  -6    5.40    2.60
  -4  -3  -6    4.30    2.50
  -4  -3  -6    4.60    2.10
   4   3   6    6.20    2.20
   4   3   6    0.70    1.90
  -5  -3  -6   -1.50    2.30
  -5  -3  -6   -0.80    2.00
  -5  -3  -6    1.50    2.10
   5   3   6    2.10    2.40
   5   3   6    2.10    2.40
   5   3   6   -0.30    1.90
  -6  -3  -6  744.83   23.80
  -6  -3  -6  747.53   23.50
  -6  -3  -6  731.43   23.50
   6   3   6  734.73   23.30
   6   3   6  804.72   24.30
  -7  -3  -6   41.60    5.60
  -7  -3  -6   41.10    5.50
  -7  -3  -6   33.30    4.90
   7   3   6   39.60    5.70
   7   3   6   48.90    6.40
  -8  -3  -6   -0.90    3.80
  -8  -3  -6   -3.30    3.00
  -8  -3  -6    1.60    2.60
   8   3   6    3.70    3.20
   6  -4  -6   58.79    7.70
  -6   4   6   38.10    4.10
  -6   4   6   52.99    7.60
   5  -4  -6   23.50    4.70
  -5   4   6   21.90    4.40
  -5   4   6   29.80    3.50
  -5   4   6   40.70    6.30
  -5   4   6   28.80    3.40
   4  -4  -6  106.69    8.00
   4  -4  -6  105.69    8.10
  -4   4   6  103.09    5.30
  -4   4   6  106.09    5.40
  -4   4   6  109.49    8.20
  -4   4   6  100.89    7.70
   3  -4  -6  133.99    8.20
  -3   4   6  114.89    5.80
  -3   4   6  120.39    5.90
  -3   4   6  133.69    8.40
  -3   4   6  117.39    7.80
   2  -4  -6  643.74   20.50
   2  -4  -6  630.44   20.10
   2  -4  -6  650.83   18.30
  -2   4   6  651.63   18.10
  -2   4   6  633.24   20.60
  -2   4   6  633.04   20.20
   1  -4  -6   -0.40    1.90
   1  -4  -6    1.60    1.80
   1  -4  -6    0.40    2.10
  -1   4   6    0.80    2.10
  -1   4   6    2.40    1.80
  -1   4   6    3.10    1.80
   0  -4  -6  104.59    6.30
   0  -4  -6   95.79    5.60
   0  -4  -6   77.99    6.40
   0   4   6   90.39    6.00
   0   4   6  104.59    6.60
   0   4   6   91.89    5.20
  -1  -4  -6  549.35   16.90
  -1  -4  -6  538.75   16.50
  -1  -4  -6  566.14   17.40
   1   4   6  554.04   17.40
   1   4   6  544.75   16.30
   1   4   6  470.45   21.50
  -2  -4  -6   26.40    3.80
  -2  -4  -6   16.30    2.80
  -2  -4  -6   19.90    3.40
   2   4   6   12.30    3.90
   2   4   6   21.90    3.30
   2   4   6   28.70    4.10
  -3  -4  -6   68.29    5.40
  -3  -4  -6   56.59    5.00
  -3  -4  -6   68.09    5.20
   3   4   6   68.39    5.60
   3   4   6   60.39    5.10
   3   4   6   58.09    4.80
  -4  -4  -6    4.50    2.60
  -4  -4  -6   -0.10    2.00
  -4  -4  -6    0.90    2.30
   4   4   6   -0.20    2.20
   4   4   6    4.40    2.20
   4   4   6    2.10    1.80
  -5  -4  -6  152.78    8.90
  -5  -4  -6  162.38    8.70
  -5  -4  -6  167.48    9.00
   5   4   6  160.18    8.80
   5   4   6  181.88    9.40
  -6  -4  -6  146.59    8.90
  -6  -4  -6  148.29    8.80
  -6  -4  -6  169.48    9.60
   6   4   6  166.78    9.40
   6   4   6  159.68    9.10
  -7  -4  -6  658.43   22.20
  -7  -4  -6  630.14   24.60
  -7  -4  -6  620.04   22.00
   7   4   6  672.23   22.90
   7   4   6  657.23   22.80
  -8  -4  -6  178.08   10.70
   8   4   6  162.78   10.80
   5  -5  -6   -2.40    2.30
  -5   5   6   -1.30    1.10
  -5   5   6   -8.40    5.00
  -5   5   6    2.40    3.10
  -5   5   6   -2.00    1.30
   4  -5  -6   27.70    4.90
  -4   5   6   19.90    2.30
  -4   5   6   18.80    4.20
  -4   5   6   24.60    5.10
   3  -5  -6    3.30    2.60
  -3   5   6    3.40    1.60
  -3   5   6    1.50    2.40
  -3   5   6    5.30    2.70
  -3   5   6    4.80    1.80
   2  -5  -6  402.46   12.20
   2  -5  -6  396.96   14.60
   2  -5  -6  388.36   14.80
  -2   5   6  398.66   15.20
  -2   5   6  397.76   14.80
  -2   5   6  387.86   11.90
   1  -5  -6  334.37   12.50
   1  -5  -6  326.37   10.90
   1  -5  -6  313.47   12.50
  -1   5   6  325.47   10.50
  -1   5   6  329.37   13.00
  -1   5   6  302.37   12.30
   0  -5  -6   10.10    2.60
   0  -5  -6    9.60    2.80
   0  -5  -6   11.20    2.70
   0   5   6    9.00    2.50
   0   5   6    9.60    2.40
   0   5   6   11.40    3.00
  -1  -5  -6  900.61   24.70
  -1  -5  -6  834.92   23.70
  -1  -5  -6  828.52   24.70
   1   5   6  882.71   25.20
   1   5   6  853.11   24.70
   1   5   6  876.01   23.60
  -2  -5  -6  244.68   10.40
  -2  -5  -6  247.58   10.20
  -2  -5  -6  258.87   10.20
   2   5   6  259.67   10.90
   2   5   6  254.87   10.50
   2   5   6  243.78    9.70
  -3  -5  -6  220.38    9.80
  -3  -5  -6  225.68   10.00
  -3  -5  -6  224.58   10.00
   3   5   6  226.68   10.00
   3   5   6  220.48   10.20
  -4  -5  -6  175.88    8.90
  -4  -5  -6  192.18    9.40
   4   5   6  195.98    9.70
   4   5   6  166.48    8.40
   4   5   6  181.58    9.20
  -5  -5  -6   34.20    5.00
  -5  -5  -6   22.40    4.30
  -5  -5  -6   26.50    4.50
   5   5   6   19.70    3.40
   5   5   6   20.40    3.90
  -6  -5  -6  428.26   16.70
  -6  -5  -6  436.36   17.00
  -6  -5  -6  476.65   17.00
   6   5   6  437.06   16.70
   6   5   6  450.55   17.20
  -7  -5  -6    5.20    3.00
  -7  -5  -6    7.50    3.50
   7   5   6    5.70    3.40
   7   5   6    9.70    3.70
  -8  -5  -6   18.80    4.70
  -8  -5  -6   20.70    5.00
   8   5   6   25.10    5.70
   8   5   6   33.10    5.90
   5  -6  -6   21.50    5.00
  -5   6   6   15.30    3.80
   4  -6  -6    5.90    2.80
  -4   6   6    7.10    3.30
  -4   6   6    4.70    3.20
  -3   6   6  360.86   14.60
  -3   6   6  372.36   15.30
  -3   6   6  346.57    9.70
  -3   6   6  355.26    9.80
   2  -6  -6  520.45   19.70
   2  -6  -6  472.55   17.10
  -2   6   6  508.35   18.00
  -2   6   6  490.25   13.70
  -2   6   6  498.75   17.50
   1  -6  -6  367.16   13.90
   1  -6  -6  382.96   11.90
   1  -6  -6  363.56   14.10
  -1   6   6  371.96   14.60
  -1   6   6  369.26   14.10
  -1   6   6  380.16   11.60
   0  -6  -6   12.30    3.30
   0  -6  -6   18.00    3.30
   0  -6  -6   15.10    2.70
   0   6   6   14.50    3.20
   0   6   6    9.00    2.10
   0   6   6   12.20    3.30
  -1  -6  -6   11.20    2.80
  -1  -6  -6    2.90    2.30
  -1  -6  -6   10.40    2.80
   1   6   6   11.30    2.60
   1   6   6   13.10    3.60
   1   6   6   10.20    2.60
  -2  -6  -6  439.06   15.70
  -2  -6  -6  406.76   14.50
  -2  -6  -6  423.36   14.50
   2   6   6  421.46   15.00
   2   6   6  422.86   14.10
   2   6   6  432.86   15.50
  -3  -6  -6  142.29    7.80
  -3  -6  -6  124.59    8.50
  -3  -6  -6  150.18    8.10
   3   6   6  127.99    7.10
   3   6   6  140.19    8.30
   3   6   6  135.09    7.80
  -4  -6  -6    9.40    2.60
  -4  -6  -6    9.30    3.10
  -4  -6  -6    9.80    3.10
   4   6   6   13.30    3.40
   4   6   6    9.20    2.80
  -5  -6  -6  114.29    7.60
  -5  -6  -6   84.89    7.40
  -5  -6  -6  104.29    7.20
   5   6   6   98.49    7.60
   5   6   6  105.89    7.90
  -6  -6  -6  394.06   15.70
  -6  -6  -6  383.16   15.80
   6   6   6  404.26   16.00
   6   6   6  387.46   16.10
  -7  -6  -6   48.20    5.80
  -7  -6  -6   30.60    6.30
   7   6   6   57.09    6.50
   7   6   6   38.30    5.50
  -8  -6  -6   74.29    8.20
   8   6   6  100.09    8.60
   4  -7  -6    5.50    3.30
  -4   7   6    7.90    3.40
  -4   7   6   -0.50    3.70
   3  -7  -6   12.30    3.50
  -3   7   6   16.70    3.90
   2  -7  -6  335.17   13.40
   2  -7  -6  321.57    9.50
  -2   7   6  338.27   13.90
  -2   7   6  336.57   14.20
  -2   7   6  322.27    9.30
   1  -7  -6    8.60    2.00
   1  -7  -6    5.70    2.50
  -1   7   6    7.50    2.90
  -1   7   6    3.60    1.70
  -1   7   6    7.50    3.20
   0  -7  -6   16.90    2.90
   0  -7  -6   16.80    3.40
   0   7   6   13.20    3.70
   0   7   6   20.80    4.00
   0   7   6   16.50    2.90
  -1  -7  -6  806.62   22.80
  -1  -7  -6  778.52   23.50
   1   7   6  813.82   22.50
   1   7   6  792.32   24.10
   1   7   6  801.22   26.60
  -2  -7  -6   33.50    4.40
   2   7   6   38.80    5.30
   2   7   6   29.30    4.20
   2   7   6   38.40    7.40
  -3  -7  -6    7.00    3.00
  -3  -7  -6    6.30    2.40
   3   7   6    4.60    2.60
   3   7   6    6.90    2.80
   3   7   6   10.20    3.00
  -4  -7  -6  126.09    7.60
  -4  -7  -6  133.89    8.20
   4   7   6  122.79    7.90
   4   7   6  130.89    8.60
  -5  -7  -6  369.56   15.10
  -5  -7  -6  344.67   14.10
   5   7   6  358.86   14.90
   5   7   6  378.56   15.50
  -6  -7  -6    6.90    3.70
  -6  -7  -6    7.90    3.10
   6   7   6   10.80    3.30
   6   7   6   10.90    4.00
  -7  -7  -6  484.95   19.70
  -7  -7  -6  465.15   18.60
   7   7   6  527.45   21.50
   7   7   6  505.25   20.00
   3  -8  -6   72.79    6.80
  -3   8   6   84.29    7.90
  -3   8   6   85.39    7.60
  -2   8   6  117.79    8.40
  -2   8   6  104.99    8.00
   1  -8  -6   78.69    6.10
   1  -8  -6   78.39    4.40
  -1   8   6   74.79    6.70
  -1   8   6   70.59    6.50
   0  -8  -6  256.57    9.60
   0   8   6  238.58   11.20
   0   8   6  260.97   12.00
   0   8   6  239.48    9.10
  -1  -8  -6   18.20    3.30
  -1  -8  -6   13.70    4.30
   1   8   6   17.00    3.20
   1   8   6   25.20    4.60
   1   8   6   15.80    3.00
  -2  -8  -6  107.99    8.00
  -2  -8  -6   90.29    7.10
   2   8   6   99.99    7.10
   2   8   6   96.39    6.30
   2   8   6   96.69    7.40
  -3  -8  -6  182.38    9.50
  -3  -8  -6  166.78    8.70
   3   8   6  175.18    9.80
   3   8   6  159.18    9.00
  -4  -8  -6   38.80    4.60
  -4  -8  -6   34.10    5.00
   4   8   6   45.40    5.40
   4   8   6   44.60    5.90
  -5  -8  -6   50.59    5.50
  -5  -8  -6   43.00    5.90
   5   8   6   62.39    6.40
   5   8   6   58.49    6.40
  -6  -8  -6   97.09    7.50
  -6  -8  -6  103.59    8.70
   6   8   6  114.89    8.70
   6   8   6  129.79   11.30
  -2   9   6    9.50    3.20
   1  -9  -6  127.69    6.80
   1  -9  -6  130.89    7.80
  -1   9   6  134.59    9.00
   0  -9  -6   40.30    5.30
   0  -9  -6   46.90    4.20
   0   9   6   36.10    3.90
   0   9   6   36.60    5.00
   0   9   6   42.30    5.50
  -1  -9  -6   -1.80    2.10
  -1  -9  -6    1.20    2.00
   1   9   6    3.30    2.50
   1   9   6   -0.50    2.20
   1   9   6   -1.00    2.10
  -2  -9  -6  112.89    7.30
  -2  -9  -6   89.09    6.40
   2   9   6  100.39    7.40
   2   9   6   92.29    7.60
  -3  -9  -6  534.55   18.00
  -3  -9  -6  535.75   18.80
   3   9   6  557.34   19.60
   3   9   6  508.85   18.90
  -4  -9  -6  252.57   12.50
  -4  -9  -6  234.68   11.10
   4   9   6  306.37   18.50
   4   9   6  255.37   12.50
  -5  -9  -6    3.20    3.10
   5   9   6    3.30    2.90
  -1 -10  -6    9.70    3.00
   1  10   6   14.20    3.70
  -2 -10  -6  112.89    7.70
   2  10   6   92.79    7.50
   0   5  -7  224.88    7.70
   0   5  -7  220.48    7.70
   0  -5   7  235.98   12.30
  -1   5  -7   14.70    1.80
  -1   5  -7   11.70    1.60
   1  -5   7   12.40    4.10
  -2   5  -7  256.97    7.50
   2  -5   7  247.08   12.60
  -3   5  -7   85.69    3.80
  -3   5  -7   86.19    3.80
   2   4  -7  318.37   12.30
   2   4  -7  326.47   12.20
  -2  -4   7  354.86   16.00
   1   4  -7  140.29    6.80
   1   4  -7  139.59    6.80
  -1  -4   7  158.88   10.10
   0   4  -7  186.68    7.60
   0  -4   7  202.68   16.00
  -1   4  -7   33.30    2.80
  -1   4  -7   25.70    5.10
  -1   4  -7   24.00    2.80
   1  -4   7   30.00    5.10
  -2   4  -7   11.40    3.50
  -2   4  -7   11.30    2.00
  -2   4  -7   11.40    2.10
  -3   4  -7  321.07   10.20
  -3   4  -7  335.57   10.60
  -3   4  -7  302.57   13.80
  -4   4  -7   23.80    3.00
  -4   4  -7   24.70    3.30
  -4   4  -7   13.40    3.60
  -5   4  -7   15.80    3.90
  -5   4  -7   21.00    3.10
  -5   4  -7   21.90    3.10
   3   3  -7   35.20    4.70
   3   3  -7   35.70    4.30
  -3  -3   7   28.10    3.70
  -3  -3   7   35.80    5.70
   2   3  -7    8.80    3.30
   2   3  -7   12.50    2.80
  -2  -3   7   10.30    1.90
  -2  -3   7   10.00    5.60
   1   3  -7  436.06   14.40
  -1  -3   7  437.26   17.30
   0   3  -7    2.70    1.70
   0   3  -7    2.90    3.20
   0   3  -7    2.40    1.70
   0  -3   7    1.30    2.50
  -1   3  -7  404.46   12.80
  -1   3  -7  397.26   12.50
  -1   3  -7  424.06   16.50
  -2   3  -7 1072.99   31.70
  -2   3  -7 1065.29   27.30
  -2   3  -7 1062.49   27.70
  -3   3  -7  122.29    5.90
  -3   3  -7  129.09    8.60
  -3   3  -7  131.99    6.30
  -4   3  -7   38.80    5.60
  -4   3  -7   30.50    3.30
  -4   3  -7   29.30    3.50
  -5   3  -7  125.19    8.40
  -5   3  -7  130.99    7.20
  -6   3  -7  383.76   14.30
  -6   3  -7  379.86   15.40
  -6   3  -7  391.66   14.10
   4   2  -7  115.29    8.40
   4   2  -7  119.69    8.20
  -4  -2   7  126.89    9.10
   3   2  -7  321.17   13.30
   3   2  -7  330.07   14.80
  -3  -2   7  312.47   11.80
  -3  -2   7  331.47   16.10
   2   2  -7   92.49    6.30
   2   2  -7   88.09    6.10
  -2  -2   7   82.69    5.10
  -2  -2   7   94.59    7.40
   1   2  -7  274.37   10.70
   1   2  -7  288.87   10.60
   1   2  -7  272.37   12.70
  -1  -2   7  269.27    9.40
  -1  -2   7  262.57   12.30
   0   2  -7  141.59    7.00
   0   2  -7  154.58    9.30
   0   2  -7  154.18    7.00
   0  -2   7  139.69    5.70
  -1   2  -7  103.09    5.70
  -1   2  -7  105.79    7.70
  -1   2  -7  101.69    5.50
   1  -2   7  107.59    4.50
  -2   2  -7    1.30    1.40
  -2   2  -7    5.90    2.80
  -2   2  -7    3.20    1.60
   2  -2   7    1.20    1.00
  -3   2  -7   -0.20    2.60
  -3   2  -7    0.10    1.40
  -3   2  -7    1.20    1.50
   3  -2   7    2.50    1.20
  -4   2  -7  154.18    7.40
  -4   2  -7  177.98    8.00
  -4   2  -7  165.88    9.30
   4  -2   7  175.68    6.60
  -5   2  -7    7.40    2.30
  -5   2  -7   10.60    3.40
  -5   2  -7    7.60    2.40
   5  -2   7   10.20    2.20
  -6   2  -7   64.49    5.70
  -6   2  -7   51.89    6.00
  -6   2  -7   54.69    5.50
   6  -2   7   60.49    4.50
  -7   2  -7  243.08   11.60
  -7   2  -7  250.27   11.90
  -7   2  -7  236.18   11.00
   7  -2   7  207.98   10.60
   4   1  -7  104.09    7.70
   4   1  -7  104.39    8.10
  -4  -1   7   96.39    7.70
  -4  -1   7   90.09    6.70
   3   1  -7    3.80    2.40
  -3  -1   7    7.30    2.90
  -3  -1   7    6.30    2.40
   2   1  -7  113.79    6.90
  -2  -1   7  125.99    6.80
  -2  -1   7  115.79    7.70
   1   1  -7   10.20    2.50
   1   1  -7   13.20    3.30
   1   1  -7   11.20    2.70
  -1  -1   7   10.40    2.40
   0   1  -7  243.88    9.70
   0   1  -7  244.78    9.60
   0   1  -7  247.18   11.40
   0  -1   7  250.47    9.10
  -1   1  -7   32.80    3.70
  -1   1  -7   40.10    5.20
  -1   1  -7   37.10    3.70
   1  -1   7   43.20    3.50
  -2   1  -7   36.90    3.80
  -2   1  -7   28.80    4.60
  -2   1  -7   37.30    3.60
   2  -1   7   34.90    3.30
  -3   1  -7  180.98    8.10
  -3   1  -7  177.28    7.90
  -3   1  -7  189.08    9.80
   3  -1   7  190.18    7.50
  -4   1  -7 1325.37   35.10
  -4   1  -7 1319.37   34.70
  -4   1  -7 1351.16   37.00
   4  -1   7 1337.47   34.00
  -5   1  -7  228.78    9.90
  -5   1  -7  223.28   10.90
  -5   1  -7  233.08   10.30
   5  -1   7  237.08    9.40
  -6   1  -7    9.30    2.70
  -6   1  -7    7.60    3.30
  -6   1  -7    9.20    2.80
   6  -1   7   11.00    2.60
  -7   1  -7  440.86   17.90
  -7   1  -7  412.26   16.20
   7  -1   7  379.56   14.80
  -5   0   7   14.60    4.00
  -5   0   7   22.40    5.60
   4   0  -7  483.65   18.20
   4   0  -7  503.25   18.40
  -4   0   7  462.15   17.20
  -4   0   7  461.25   17.40
   3   0  -7    0.80    2.30
   3   0  -7    0.00    2.00
  -3   0   7   -3.60    2.40
  -3   0   7    1.30    1.80
   2   0  -7  236.28   10.50
   2   0  -7  226.08   11.10
   2   0  -7  249.97   10.60
  -2   0   7  257.27   10.60
   1   0  -7  419.56   15.40
   1   0  -7  403.86   14.20
  -1   0   7  420.86   14.10
   0   0  -7  316.77   12.90
   0   0   7  277.57   10.60
   0   0   7  311.17   11.10
   0   0   7  311.37   12.60
  -1   0  -7  777.02   21.60
  -1   0  -7  667.13   21.30
   1   0   7  805.82   21.50
   1   0   7  757.92   21.10
   1   0   7  790.92   23.50
  -2   0  -7   18.30    3.20
  -2   0  -7   16.70    2.80
   2   0   7   12.10    2.30
   2   0   7   14.90    2.60
   2   0   7   17.80    3.30
  -3   0  -7  459.15   17.90
   3   0   7  451.85   16.10
   3   0   7  485.15   14.80
   3   0   7  441.36   14.20
  -4   0  -7   66.49    5.90
  -4   0  -7   60.99    5.00
   4   0   7   62.19    4.80
   4   0   7   73.29    6.50
  -5   0  -7   68.29    5.50
  -5   0  -7   65.69    6.30
   5   0   7   63.99    5.10
  -6   0  -7   57.19    5.40
  -6   0  -7   76.09    6.70
  -6   0  -7   62.79    6.00
   6   0   7   59.09    5.20
  -7   0  -7   21.60    4.10
  -7   0  -7   29.70    5.00
  -7   0  -7   14.90    3.80
   7   0   7   24.20    4.10
  -8   0  -7   41.50    7.40
  -8   0  -7   69.39    6.90
   8   0   7   42.70    6.90
   5  -1  -7  189.38   11.10
   5  -1  -7  180.68   11.50
  -5   1   7  161.38   10.30
  -5   1   7  196.28   10.10
   4  -1  -7  278.27   12.90
   4  -1  -7  280.97   13.20
  -4   1   7  262.37   11.90
  -4   1   7  277.67   12.60
   3  -1  -7    8.20    3.00
  -3   1   7    7.20    3.00
  -3   1   7    2.40    2.20
   2  -1  -7   39.20    4.70
   2  -1  -7   39.70    4.70
   2  -1  -7   35.90    5.00
  -2   1   7   49.60    5.10
  -2   1   7   44.20    5.00
   1  -1  -7  278.67   11.00
   1  -1  -7  281.77   11.60
   1  -1  -7  259.07   11.00
  -1   1   7  280.07   11.10
  -1   1   7  264.07   11.20
  -1   1   7  262.47   10.60
   0  -1  -7    1.00    2.10
   0  -1  -7    3.70    2.00
   0  -1  -7    0.60    1.40
   0   1   7    0.90    2.30
   0   1   7   -0.50    1.70
   0   1   7    0.60    1.50
  -1  -1  -7   55.69    4.60
  -1  -1  -7   51.09    4.60
  -1  -1  -7   60.59    5.40
   1   1   7   60.59    4.70
   1   1   7   54.89    4.90
   1   1   7   51.99    5.70
  -2  -1  -7  268.17   10.50
  -2  -1  -7  269.77   10.30
  -2  -1  -7  261.67   11.30
   2   1   7  273.27   11.20
   2   1   7  272.77   10.80
   2   1   7  256.27   12.20
  -3  -1  -7   90.99    5.90
  -3  -1  -7   97.69    6.10
  -3  -1  -7  102.89    6.90
   3   1   7   94.59    5.70
   3   1   7   92.79    6.40
   3   1   7   94.29    6.00
  -4  -1  -7  511.15   18.10
  -4  -1  -7  560.64   17.50
  -4  -1  -7  558.04   17.80
   4   1   7  545.85   18.10
   4   1   7  530.05   17.00
   4   1   7  540.15   17.20
  -5  -1  -7  252.37   11.20
  -5  -1  -7  260.67   11.20
  -5  -1  -7  275.37   11.90
   5   1   7  277.27   11.30
  -6  -1  -7  147.59    8.70
  -6  -1  -7  157.48    9.00
  -6  -1  -7  156.28    9.20
   6   1   7  148.79    8.50
  -7  -1  -7   48.20    5.60
  -7  -1  -7   36.40    5.30
  -7  -1  -7   53.49    6.60
   7   1   7   42.80    5.70
  -8  -1  -7  294.87   15.30
  -8  -1  -7  323.17   14.30
  -8  -1  -7  294.17   13.80
   8   1   7  283.87   13.50
   5  -2  -7  138.29    9.80
   5  -2  -7  154.48   10.70
  -5   2   7  146.49    9.90
  -5   2   7  148.29    8.50
   4  -2  -7  238.58   12.10
   4  -2  -7  233.58   12.20
  -4   2   7  247.28   12.20
  -4   2   7  258.87   11.00
   3  -2  -7   71.39   10.50
  -3   2   7   72.49    5.80
  -3   2   7   88.29    6.90
   2  -2  -7  299.27   11.80
   2  -2  -7  284.67   12.20
   2  -2  -7  300.47   12.30
  -2   2   7  297.87   12.40
  -2   2   7  301.97   11.90
  -2   2   7  291.67   12.10
   1  -2  -7   20.20    3.60
   1  -2  -7   14.90    3.30
   1  -2  -7   20.10    3.70
  -1   2   7   20.50    3.90
   0  -2  -7  252.97   10.50
   0  -2  -7  259.77   10.70
   0  -2  -7  259.27   10.50
   0   2   7  255.67   10.30
   0   2   7  254.87   10.60
   0   2   7  240.78   10.30
  -1  -2  -7  336.07   12.50
  -1  -2  -7  341.87   12.40
  -1  -2  -7  345.17   13.00
   1   2   7  348.97   12.60
   1   2   7  339.97   12.20
   1   2   7  337.37   12.60
  -2  -2  -7  472.15   15.60
  -2  -2  -7  508.75   16.60
  -2  -2  -7  479.75   15.90
   2   2   7  489.05   15.70
   2   2   7  468.95   15.70
  -3  -2  -7   42.20    4.50
  -3  -2  -7   47.10    4.60
  -3  -2  -7   56.79    5.30
   3   2   7   45.00    4.50
   3   2   7   39.60    4.40
   3   2   7   40.70    4.20
  -4  -2  -7 1639.84   43.90
  -4  -2  -7 1677.93   43.60
  -4  -2  -7 1767.42   47.00
   4   2   7 1741.13   43.90
   4   2   7 1652.73   43.90
  -5  -2  -7   -0.70    2.10
  -5  -2  -7    0.50    1.90
  -5  -2  -7   -2.80    2.70
   5   2   7    3.00    2.30
   5   2   7    1.40    2.00
  -6  -2  -7  177.58   10.90
  -6  -2  -7  176.58    9.60
  -6  -2  -7  188.18   10.00
   6   2   7  183.58    9.70
  -7  -2  -7  208.18   11.00
  -7  -2  -7  224.28   11.50
  -7  -2  -7  199.78   11.00
   7   2   7  196.38   10.70
  -8  -2  -7   14.30    4.30
  -8  -2  -7   25.10    4.70
  -8  -2  -7   15.70    3.60
   8   2   7   17.00    3.50
   5  -3  -7   18.20    5.40
   5  -3  -7   18.10    4.60
  -5   3   7   16.10    3.50
  -5   3   7   12.80    3.50
  -5   3   7   30.00    5.70
   4  -3  -7  129.69    9.20
  -4   3   7  157.38    9.70
  -4   3   7  142.79    7.70
  -4   3   7  150.08    7.90
   3  -3  -7  417.46   16.10
  -3   3   7  402.06   15.90
  -3   3   7  403.46   15.60
  -3   3   7  434.36   14.30
  -3   3   7  401.26   16.00
   2  -3  -7   63.39    5.70
   2  -3  -7   75.39    6.20
   2  -3  -7   66.29    5.20
  -2   3   7   72.29    6.20
  -2   3   7   72.89    5.30
  -2   3   7   74.39    9.80
   1  -3  -7    5.00    2.20
   1  -3  -7    8.40    2.80
   1  -3  -7   11.50    2.90
  -1   3   7   12.70    3.30
  -1   3   7    7.70    2.80
  -1   3   7    8.10    2.60
   0  -3  -7   98.99    6.40
   0  -3  -7   86.79    6.20
   0  -3  -7   88.59    6.10
   0   3   7   88.09    5.90
   0   3   7  100.59    6.70
   0   3   7   93.29    6.40
  -1  -3  -7    1.00    2.40
  -1  -3  -7   -0.50    1.70
  -1  -3  -7    1.30    2.20
   1   3   7    3.30    2.30
   1   3   7    1.00    1.70
   1   3   7   -1.10    1.80
  -2  -3  -7  391.56   14.20
  -2  -3  -7  414.96   14.50
  -2  -3  -7  401.26   14.00
   2   3   7  396.26   14.10
   2   3   7  410.26   14.10
   2   3   7  403.56   14.30
  -3  -3  -7  437.36   15.20
  -3  -3  -7  424.66   14.90
  -3  -3  -7  429.56   15.30
   3   3   7  445.96   15.30
   3   3   7  425.36   14.90
   3   3   7  430.16   14.90
  -4  -3  -7  417.16   15.20
  -4  -3  -7  425.06   15.60
  -4  -3  -7  414.56   14.80
   4   3   7  400.46   14.60
   4   3   7  415.16   15.00
   4   3   7  426.26   15.20
  -5  -3  -7   54.29    5.90
  -5  -3  -7   44.80    6.30
  -5  -3  -7   53.49    5.60
   5   3   7   53.49    5.60
  -6  -3  -7    1.60    2.30
  -6  -3  -7    0.10    2.60
  -6  -3  -7    4.00    2.60
   6   3   7    0.40    2.50
   6   3   7    3.90    2.80
  -7  -3  -7   56.39    6.60
  -7  -3  -7   65.89    7.30
  -7  -3  -7   49.10    5.90
   7   3   7   62.59    6.40
  -8  -3  -7   13.30    4.50
  -8  -3  -7   12.30    6.70
  -8  -3  -7    9.10    3.80
   8   3   7    3.80    2.70
  -5   4   7   -3.80    2.00
  -5   4   7   -0.20    3.30
  -5   4   7   -1.90    2.60
   4  -4  -7   38.80    5.30
   4  -4  -7   48.00    6.50
  -4   4   7   47.00    4.40
  -4   4   7   66.09    8.30
  -4   4   7   54.79    4.60
  -4   4   7   62.19    6.90
   3  -4  -7    2.20    2.50
  -3   4   7    2.40    2.70
  -3   4   7    4.20    2.10
  -3   4   7    7.40    4.10
  -3   4   7    0.10    1.90
   2  -4  -7   68.79    5.00
   2  -4  -7   68.49    6.30
   2  -4  -7   73.89    6.10
  -2   4   7   72.49    5.20
  -2   4   7   64.59    6.20
  -2   4   7   80.39    6.70
   1  -4  -7   57.69    5.40
   1  -4  -7   62.09    5.60
   1  -4  -7   57.59    4.90
  -1   4   7   63.69    5.80
  -1   4   7   58.69    4.70
  -1   4   7   59.79    5.90
   0  -4  -7  828.72   25.30
   0  -4  -7  917.41   25.10
   0  -4  -7  865.31   25.80
   0   4   7  897.71   26.10
   0   4   7  873.81   24.60
   0   4   7  906.81   25.80
  -1  -4  -7 1065.59   29.40
  -1  -4  -7 1075.19   29.70
  -1  -4  -7 1068.39   30.10
   1   4   7 1081.79   29.90
   1   4   7 1073.09   30.10
   1   4   7 1056.39   29.00
  -2  -4  -7   28.70    4.40
  -2  -4  -7   26.80    4.10
  -2  -4  -7   32.20    4.40
   2   4   7   24.50    4.30
   2   4   7   31.60    4.70
   2   4   7   25.80    3.90
  -3  -4  -7  348.87   12.90
  -3  -4  -7  303.57   12.60
  -3  -4  -7  328.17   12.80
   3   4   7  330.97   12.70
   3   4   7  320.47   12.80
   3   4   7  329.27   12.50
  -4  -4  -7    8.80    2.60
  -4  -4  -7    7.70    3.10
  -4  -4  -7    9.50    2.70
   4   4   7   13.00    3.40
   4   4   7    7.20    2.80
   4   4   7    9.10    3.10
  -5  -4  -7 1099.49   31.30
  -5  -4  -7 1096.29   31.60
  -5  -4  -7 1076.89   31.40
   5   4   7 1087.19   31.70
   5   4   7 1083.49   31.20
  -6  -4  -7   24.10    4.40
  -6  -4  -7   24.40    4.40
  -6  -4  -7   18.50    4.00
   6   4   7   27.50    4.80
   6   4   7   33.00    5.40
  -7  -4  -7    1.90    3.70
  -7  -4  -7    0.80    2.50
  -7  -4  -7    1.80    2.80
   7   4   7   -0.50    2.30
  -8  -4  -7   24.60    6.70
  -8  -4  -7   19.90    4.40
  -8  -4  -7   17.20    4.40
   8   4   7   13.90    4.10
   4  -5  -7    5.50    3.50
  -4   5   7    0.90    1.80
  -4   5   7    0.50    4.10
  -4   5   7    1.40    2.00
  -4   5   7   -3.40    3.20
   3  -5  -7  444.36   17.40
  -3   5   7  438.66   13.90
  -3   5   7  474.65   17.70
  -3   5   7  457.35   17.70
  -3   5   7  445.86   13.80
   2  -5  -7   -1.10    2.90
   2  -5  -7    0.10    1.60
   2  -5  -7   -2.00    2.00
  -2   5   7    4.20    2.50
  -2   5   7    0.90    2.70
  -2   5   7   -0.70    1.60
   1  -5  -7  156.98    7.50
   1  -5  -7  157.88    8.80
   1  -5  -7  144.89    8.30
  -1   5   7  154.88    8.80
  -1   5   7  160.28    7.40
  -1   5   7  159.48    9.20
   0  -5  -7   44.10    4.90
   0  -5  -7   42.60    4.50
   0  -5  -7   35.60    4.60
   0   5   7   42.30    5.40
   0   5   7   43.20    4.10
   0   5   7   45.00    5.50
  -1  -5  -7   85.99    6.30
  -1  -5  -7   84.49    6.00
  -1  -5  -7   77.39    6.00
   1   5   7   78.89    5.30
   1   5   7   91.89    6.60
   1   5   7   81.09    6.60
  -2  -5  -7   74.19    5.90
  -2  -5  -7   76.49    6.10
  -2  -5  -7   76.29    6.00
   2   5   7   66.99    5.70
   2   5   7   71.69    6.30
  -3  -5  -7   86.99    6.30
  -3  -5  -7   80.39    6.30
   3   5   7   74.99    5.60
   3   5   7   83.89    6.30
   3   5   7   79.59    6.50
  -4  -5  -7  120.89    7.80
  -4  -5  -7  108.19    7.30
  -4  -5  -7  126.49    7.70
   4   5   7  121.69    8.00
   4   5   7  116.09    7.60
  -5  -5  -7    7.90    3.20
  -5  -5  -7   13.90    4.00
  -5  -5  -7   16.30    4.00
   5   5   7   14.30    3.90
   5   5   7   13.70    3.70
  -6  -5  -7   71.09    6.80
  -6  -5  -7   78.69    7.20
  -6  -5  -7   86.29    7.20
   6   5   7   73.89    7.10
   6   5   7   83.59    7.50
  -7  -5  -7   -3.40    2.10
  -7  -5  -7   -2.50    2.60
   7   5   7    1.40    2.80
   7   5   7    2.70    3.00
  -8  -5  -7  305.07   14.70
  -8  -5  -7  309.07   15.00
   8   5   7  319.77   15.70
   4  -6  -7   -2.10    2.60
  -4   6   7   -2.70    1.20
  -4   6   7   -6.90    4.20
  -4   6   7   -0.70    2.50
  -3   6   7   96.99    4.90
  -3   6   7  111.89    8.50
  -3   6   7   94.89    8.00
   2  -6  -7   39.80    5.40
   2  -6  -7   45.40    3.80
  -2   6   7   33.40    4.80
  -2   6   7   38.50    3.50
  -2   6   7   39.20    5.30
   1  -6  -7   38.60    5.30
   1  -6  -7   26.70    4.60
   1  -6  -7   24.90    3.40
  -1   6   7   24.10    4.40
  -1   6   7   22.90    4.40
  -1   6   7   28.40    3.50
   0  -6  -7  181.78    8.30
   0  -6  -7  170.38    9.00
   0  -6  -7  162.28    9.20
   0   6   7  169.08    7.70
   0   6   7  185.38   10.00
   0   6   7  168.78    9.20
  -1  -6  -7   54.29    5.40
  -1  -6  -7   60.49    6.40
  -1  -6  -7   60.89    5.20
   1   6   7   53.79    5.50
   1   6   7   52.69    5.80
   1   6   7   53.99    4.80
  -2  -6  -7  288.67   11.60
  -2  -6  -7  278.67   11.70
  -2  -6  -7  262.27   15.20
   2   6   7  295.67   12.60
   2   6   7  271.47   10.90
   2   6   7  277.97   12.00
  -3  -6  -7   11.40    3.00
  -3  -6  -7   12.30    3.50
  -3  -6  -7   18.40    3.80
   3   6   7   13.50    3.00
   3   6   7   17.10    3.90
   3   6   7   18.70    3.80
  -4  -6  -7   50.49    5.50
  -4  -6  -7   28.90    4.70
  -4  -6  -7   29.90    4.50
   4   6   7   51.79    6.50
   4   6   7   54.29    5.50
  -5  -6  -7  140.69    9.20
  -5  -6  -7  165.78    9.80
  -5  -6  -7  150.78    9.00
   5   6   7  167.48    9.90
   5   6   7  151.48    9.20
  -6  -6  -7  146.19    9.30
  -6  -6  -7  127.99    8.60
   6   6   7  105.89   12.50
   6   6   7  117.59    8.70
  -7  -6  -7    7.40    3.40
  -7  -6  -7    6.20    3.60
   7   6   7    0.30    4.90
   7   6   7    8.10    4.40
  -3   7   7   25.50    5.60
  -3   7   7   18.80    2.10
  -3   7   7   23.50    4.80
  -3   7   7   22.60    2.10
   2  -7  -7  276.87   11.70
   2  -7  -7  258.47   12.20
  -2   7   7  267.27   12.80
  -2   7   7  257.77   12.80
   1  -7  -7   74.79    4.80
   1  -7  -7   69.09    6.20
  -1   7   7   80.09    7.30
  -1   7   7   71.19    4.60
   0  -7  -7 1450.45   36.80
   0  -7  -7 1397.76   38.60
   0   7   7 1426.46   39.80
   0   7   7 1388.46   36.10
   0   7   7 1448.06   39.30
  -1  -7  -7  208.08    9.40
  -1  -7  -7  207.38   10.10
   1   7   7  209.88   11.60
   1   7   7  196.38   10.00
   1   7   7  189.28   10.00
  -2  -7  -7   95.99    6.80
   2   7   7   93.49    6.20
   2   7   7  109.09    7.50
   2   7   7  109.59   10.20
  -3  -7  -7  117.09    7.80
  -3  -7  -7  111.89    7.40
   3   7   7  124.49    8.60
   3   7   7  124.29    8.00
  -4  -7  -7   71.39    6.50
  -4  -7  -7   62.19    6.00
   4   7   7   72.39    6.70
   4   7   7   63.89    6.70
  -5  -7  -7  142.59    8.70
  -5  -7  -7  121.39    8.70
   5   7   7  121.49    8.80
   5   7   7  117.49    8.40
  -6  -7  -7   16.50    5.10
  -6  -7  -7    8.90    3.00
   6   7   7   16.60    4.80
   6   7   7   17.50    4.80
  -7  -7  -7    1.70    5.30
  -7  -7  -7    0.00    2.80
   7   7   7   -4.30    2.70
   2  -8  -7  128.29    4.80
  -2   8   7  122.79    4.90
  -2   8   7  124.79    9.90
  -2   8   7  133.09    9.20
   1  -8  -7  126.09    6.00
   1  -8  -7  113.49    7.90
  -1   8   7  141.49    9.20
  -1   8   7  119.89    5.90
  -1   8   7  132.49    9.10
   0  -8  -7  279.77   12.40
   0  -8  -7  289.27   11.00
   0   8   7  296.87   13.20
   0   8   7  301.47   13.60
   0   8   7  289.87   10.60
  -1  -8  -7   22.90    4.30
  -1  -8  -7   24.70    4.00
   1   8   7   13.40    3.70
   1   8   7   25.40    3.90
   1   8   7   25.70    4.70
  -2  -8  -7    0.70    1.70
  -2  -8  -7   -0.40    2.20
   2   8   7   -1.70    2.30
   2   8   7   -1.90    1.90
  -3  -8  -7   87.89    7.00
  -3  -8  -7   92.39    6.70
   3   8   7   73.79    6.70
   3   8   7   91.79    7.50
  -4  -8  -7   10.80    3.60
  -4  -8  -7    3.20    2.40
   4   8   7    5.80    3.20
   4   8   7    0.30    2.50
  -5  -8  -7   38.50    6.50
  -5  -8  -7   53.39    6.80
   5   8   7   45.00   10.60
   5   8   7   53.09    7.20
  -6  -8  -7   27.90    4.80
  -6  -8  -7   17.20    4.50
   6   8   7   25.20    5.50
   1  -9  -7  111.59    5.40
  -1   9   7  114.39    9.30
   0  -9  -7    4.20    2.30
   0  -9  -7    7.20    4.00
   0   9   7    3.40    3.40
   0   9   7    9.80    3.70
   0   9   7    3.40    2.40
  -1  -9  -7  384.56   14.10
  -1  -9  -7  342.37   17.30
   1   9   7  397.26   16.20
   1   9   7  366.66   13.40
   1   9   7  366.86   15.40
  -2  -9  -7    9.10    3.30
  -2  -9  -7   20.90    3.90
   2   9   7   19.70    4.10
   2   9   7   18.90    4.10
  -3  -9  -7   21.80    4.30
  -3  -9  -7   30.10    5.70
   3   9   7   25.40    5.00
   3   9   7   25.60    4.50
  -4  -9  -7   18.30    4.30
  -4  -9  -7   11.90    3.20
   4   9   7   15.90    5.20
  -1   4  -8  186.08    8.00
   1  -4   8  184.48   11.20
  -2   4  -8   15.50    2.50
  -2   4  -8   17.60    2.70
  -2   4  -8   20.60    4.80
  -3   4  -8  144.59    6.50
  -3   4  -8  178.28   10.80
  -3   4  -8  161.58    7.00
   1   3  -8  185.38    8.90
   1   3  -8  189.68    8.90
  -1  -3   8  195.98   11.60
   0   3  -8  284.97   10.80
   0   3  -8  267.37   10.30
   0   3  -8  281.57   13.90
   0  -3   8  274.07   13.40
  -1   3  -8  930.01   24.90
  -1   3  -8  861.91   27.20
  -2   3  -8   62.59    6.80
  -2   3  -8   63.39    4.70
  -3   3  -8   81.49    5.00
  -3   3  -8   85.09    5.50
  -3   3  -8   76.59    7.00
  -4   3  -8  155.08    7.50
  -4   3  -8  139.59    7.00
  -4   3  -8  145.69    9.70
  -5   3  -8   39.20    4.70
  -5   3  -8   32.00    4.50
  -5   3  -8   39.60    8.70
   2   2  -8    4.80    2.60
   2   2  -8    6.20    2.70
  -2  -2   8    7.10    3.60
  -2  -2   8    2.60    1.90
   1   2  -8  155.78    8.10
  -1  -2   8  158.18   13.80
  -1  -2   8  141.79    6.50
   0   2  -8  512.85   16.30
   0   2  -8  514.45   19.80
   0   2  -8  514.65   19.40
   0  -2   8  501.75   15.10
  -1   2  -8  296.27   11.40
  -1   2  -8  286.17   13.60
  -1   2  -8  305.67   11.10
  -2   2  -8   78.79    5.20
  -2   2  -8   82.69    5.60
  -2   2  -8   90.99    7.50
   2  -2   8   85.09    5.30
  -3   2  -8    0.10    2.70
  -3   2  -8    4.50    2.10
  -3   2  -8    2.30    1.60
   3  -2   8    2.90    1.50
  -4   2  -8  161.78    7.80
  -4   2  -8  166.98    9.80
  -4   2  -8  157.98    8.70
   4  -2   8  151.78    8.10
  -5   2  -8   20.10    4.10
  -5   2  -8   15.50    2.90
  -5   2  -8   19.40    3.50
   5  -2   8   21.70    3.30
  -6   2  -8   78.79    6.20
  -6   2  -8   78.19    7.30
  -6   2  -8   95.49    7.50
   6  -2   8   94.69    8.30
   3   1  -8  366.56   14.90
   3   1  -8  342.87   15.00
  -3  -1   8  369.46   15.80
  -3  -1   8  350.76   13.70
   2   1  -8  274.57   12.00
  -2  -1   8  272.77   13.20
  -2  -1   8  268.37   11.30
   1   1  -8    4.70    3.00
   1   1  -8    1.40    1.70
   1   1  -8    0.00    1.70
   0   1  -8  357.76   12.90
   0   1  -8  350.56   13.10
   0   1  -8  356.66   15.10
   0  -1   8  372.66   12.60
  -1   1  -8   10.30    3.50
  -1   1  -8    7.60    2.50
  -1   1  -8    5.20    2.30
   1  -1   8    9.40    2.20
  -2   1  -8  397.36   15.90
  -2   1  -8  402.26   13.90
  -2   1  -8  386.66   13.40
   2  -1   8  395.86   12.70
  -3   1  -8   24.50    3.60
  -3   1  -8   31.80    5.10
  -3   1  -8   31.80    4.00
   3  -1   8   29.40    3.50
  -4   1  -8   -1.60    1.40
  -4   1  -8    3.50    2.80
  -4   1  -8   -1.60    1.80
   4  -1   8    1.10    1.70
  -5   1  -8  111.19    6.80
  -5   1  -8  101.69    7.70
  -5   1  -8  114.29    7.30
   5  -1   8  111.29    6.30
  -6   1  -8   94.79    7.30
  -6   1  -8   68.79    8.10
  -6   1  -8  103.09    8.00
   6  -1   8   81.09    5.80
  -7   1  -8  189.68   10.00
  -7   1  -8  175.88   12.20
   4   0  -8  136.89    9.40
  -4   0   8  142.89    9.50
   3   0  -8   12.20    3.40
   3   0  -8   13.20    3.40
  -3   0   8   22.00    4.30
  -3   0   8   11.70    3.40
   2   0  -8  101.49    7.00
   2   0  -8   96.49    6.80
   2   0  -8  104.69    7.60
  -2   0   8   98.29    6.60
  -2   0   8   95.89    7.40
   1   0  -8  117.69    7.20
   1   0  -8  123.29    8.50
  -1   0   8  130.29    7.20
   0   0  -8  119.29    8.30
   0   0  -8  112.49    6.80
   0   0   8  121.29    6.70
  -1   0  -8  159.48    9.20
  -1   0  -8  155.08    7.80
  -1   0  -8  147.79    7.70
   1   0   8  166.78    7.70
  -2   0  -8   22.10    4.50
  -2   0  -8   19.90    3.10
  -2   0  -8   19.00    3.20
   2   0   8   18.40    2.90
  -3   0  -8  222.28    9.60
  -3   0  -8  224.18    9.90
  -3   0  -8  218.08   11.00
   3   0   8  229.08    9.40
  -4   0  -8   37.50    5.40
  -4   0  -8   33.50    4.40
   4   0   8   34.20    4.10
  -5   0  -8  451.55   15.70
  -5   0  -8  433.86   16.90
   5   0   8  420.66   14.90
  -6   0  -8   65.59    6.90
  -6   0  -8   63.29    5.80
  -6   0  -8   56.29    6.90
   6   0   8   60.89    5.30
  -7   0  -8    9.80    3.90
  -7   0  -8   22.30    4.80
  -7   0  -8   17.30    4.20
   7   0   8   14.70    3.20
   4  -1  -8   15.40    5.50
   4  -1  -8   21.40    4.30
  -4   1   8   18.20    4.30
  -4   1   8   14.10    3.70
   3  -1  -8  120.79    8.30
  -3   1   8   92.59    7.10
  -3   1   8  105.49    7.60
   2  -1  -8   47.40    5.40
   2  -1  -8   45.30    5.10
  -2   1   8   47.40    5.20
   1  -1  -8  179.28    9.30
   1  -1  -8  184.88    9.30
   1  -1  -8  191.88    9.90
  -1   1   8  187.48    9.20
   0  -1  -8  303.57   12.10
   0  -1  -8  305.87   12.30
   0  -1  -8  306.17   13.20
   0   1   8  324.27   13.40
  -1  -1  -8   78.39    6.70
  -1  -1  -8   77.79    5.80
  -1  -1  -8   72.69    5.70
   1   1   8   82.49    5.80
  -2  -1  -8   99.89    6.50
  -2  -1  -8  105.79    7.50
  -2  -1  -8  107.19    6.60
   2   1   8  116.69    6.70
  -3  -1  -8  280.37   11.50
  -3  -1  -8  277.97   12.40
  -3  -1  -8  284.27   11.40
   3   1   8  269.37   11.00
  -4  -1  -8   77.39    6.00
  -4  -1  -8   64.49    6.20
  -4  -1  -8   78.79    5.90
   4   1   8   68.29    5.50
  -5  -1  -8   55.09    5.40
  -5  -1  -8   58.49    6.40
  -5  -1  -8   55.19    5.60
   5   1   8   48.90    5.70
  -6  -1  -8  347.97   14.90
  -6  -1  -8  356.06   14.80
  -6  -1  -8  358.26   14.40
   6   1   8  361.66   14.80
  -7  -1  -8   49.60    6.70
  -7  -1  -8   52.79    6.20
  -7  -1  -8   32.70    4.80
   7   1   8   52.99    5.70
   4  -2  -8  128.79    9.20
   4  -2  -8  118.39    9.50
  -4   2   8  120.09    8.00
  -4   2   8  135.59    9.10
   3  -2  -8 1481.35   42.00
  -3   2   8 1460.05   40.00
  -3   2   8 1504.65   41.60
   2  -2  -8  203.58   10.20
   2  -2  -8  183.78    9.90
   2  -2  -8  185.98    9.80
  -2   2   8  188.28   10.00
   1  -2  -8   38.20    4.60
   1  -2  -8   33.70    4.80
   1  -2  -8   32.30    4.40
  -1   2   8   45.40    5.20
   0  -2  -8  138.19    8.40
   0  -2  -8  134.09    7.80
   0  -2  -8  129.19    7.60
   0   2   8  136.99    8.00
   0   2   8  149.49    8.30
  -1  -2  -8  121.69    7.70
  -1  -2  -8  131.69    7.60
  -1  -2  -8  120.39    7.30
   1   2   8  123.79    7.40
   1   2   8  119.39    7.00
  -2  -2  -8  271.87   12.00
  -2  -2  -8  281.47   11.60
  -2  -2  -8  287.07   11.50
   2   2   8  268.77   11.30
   2   2   8  290.67   11.30
  -3  -2  -8    7.70    3.40
  -3  -2  -8   17.50    3.70
  -3  -2  -8   15.50    3.60
   3   2   8   12.50    3.30
   3   2   8   11.50    3.10
  -4  -2  -8   23.00    3.60
  -4  -2  -8   28.80    5.10
  -4  -2  -8   28.40    5.80
   4   2   8   40.40    4.80
  -5  -2  -8   74.99    6.30
  -5  -2  -8   91.49    7.00
  -5  -2  -8   78.39    6.80
   5   2   8   81.29    6.40
  -6  -2  -8  254.67   12.20
  -6  -2  -8  258.17   12.60
  -6  -2  -8  262.87   12.10
   6   2   8  248.28   11.80
  -7  -2  -8  111.29    8.10
  -7  -2  -8   98.59    8.00
   7   2   8  111.39    8.10
  -8  -2  -8  126.69    9.20
  -8  -2  -8  131.99    9.40
   8   2   8  124.29    9.00
   4  -3  -8  186.38   11.50
   4  -3  -8  192.58   11.50
  -4   3   8  167.28    9.20
  -4   3   8  193.18   11.10
   3  -3  -8  343.57   15.10
  -3   3   8  350.26   15.10
  -3   3   8  357.16   13.70
   2  -3  -8   42.10    4.80
   2  -3  -8   29.00    4.30
  -2   3   8   43.20    5.80
  -2   3   8   38.10    5.10
   1  -3  -8   -0.20    2.30
   1  -3  -8    0.60    2.60
   1  -3  -8    1.80    2.20
  -1   3   8   -2.60    2.10
  -1   3   8    0.00    2.10
  -1   3   8    1.10    2.00
   0  -3  -8   87.59    6.70
   0  -3  -8   88.29    6.50
   0   3   8   97.19    7.00
   0   3   8   78.39    6.40
   0   3   8   85.59    6.40
  -1  -3  -8  113.99    7.30
  -1  -3  -8  112.89    8.30
  -1  -3  -8  114.89    7.30
   1   3   8  115.09    7.10
   1   3   8  113.39    7.00
   1   3   8  111.99    7.50
  -2  -3  -8  336.67   13.60
  -2  -3  -8  344.87   13.50
  -2  -3  -8  365.46   13.60
   2   3   8  328.77   13.10
   2   3   8  376.66   13.90
   2   3   8  359.26   13.90
  -3  -3  -8   61.09    5.70
  -3  -3  -8   54.99    5.50
  -3  -3  -8   56.99    5.70
   3   3   8   56.09    5.70
   3   3   8   58.49    5.60
  -4  -3  -8  943.61   28.10
  -4  -3  -8  964.30   27.90
  -4  -3  -8  913.81   28.20
   4   3   8  947.81   27.70
   4   3   8  954.80   27.90
  -5  -3  -8 1302.27   36.70
  -5  -3  -8 1241.58   43.90
  -5  -3  -8 1383.16   37.90
   5   3   8 1372.16   37.30
  -6  -3  -8    2.80    2.90
  -6  -3  -8   -0.50    2.40
  -6  -3  -8    2.20    2.90
   6   3   8    2.40    3.00
  -7  -3  -8  134.29    9.80
  -7  -3  -8  151.98    9.80
  -7  -3  -8  161.38   10.20
   7   3   8  162.68   11.30
  -8  -3  -8    2.40    2.60
  -8  -3  -8   -5.20    2.60
   8   3   8    9.10    3.40
   4  -4  -8   46.60    6.40
   4  -4  -8   43.10    6.90
  -4   4   8   69.59    8.70
  -4   4   8   36.80    4.90
  -4   4   8   48.80    5.10
   3  -4  -8   74.09    9.30
  -3   4   8   48.00    5.60
  -3   4   8   59.99    5.40
  -3   4   8   63.69    6.80
   2  -4  -8  327.07   13.80
   2  -4  -8  320.97   12.40
   2  -4  -8  297.77   13.60
  -2   4   8  318.27   13.80
  -2   4   8  308.47   13.90
  -2   4   8  315.77   12.20
   1  -4  -8   17.60    3.60
   1  -4  -8   18.70    3.70
   1  -4  -8   14.50    3.40
  -1   4   8   14.70    3.80
  -1   4   8   19.30    4.10
  -1   4   8   16.50    3.60
   0  -4  -8   22.60    3.90
   0  -4  -8   27.20    4.40
   0  -4  -8   22.30    3.90
   0   4   8   25.50    4.20
   0   4   8   21.30    3.80
   0   4   8   31.70    5.10
  -1  -4  -8  158.18    8.90
  -1  -4  -8  147.09    9.60
  -1  -4  -8  156.88    8.60
   1   4   8  147.29    8.10
   1   4   8  155.08   10.20
   1   4   8  145.79    8.40
  -2  -4  -8   82.49    6.50
  -2  -4  -8   81.39    6.40
  -2  -4  -8   81.29    6.40
   2   4   8   81.39    6.40
   2   4   8   81.99    6.30
  -3  -4  -8  367.36   14.20
  -3  -4  -8  368.16   14.50
  -3  -4  -8  370.46   14.50
   3   4   8  357.56   14.10
  -4  -4  -8   50.79    5.60
  -4  -4  -8   45.60    5.80
  -4  -4  -8   57.59    5.80
   4   4   8   48.10    5.60
   4   4   8   60.49    7.60
  -5  -4  -8   15.70    4.00
  -5  -4  -8   10.70    2.90
  -5  -4  -8   28.40    4.80
   5   4   8   16.70    3.80
   5   4   8   30.00    5.10
  -6  -4  -8  356.16   15.40
  -6  -4  -8  372.66   15.40
  -6  -4  -8  369.76   15.50
   6   4   8  362.46   15.40
  -7  -4  -8   23.90    7.20
  -7  -4  -8   33.40    5.60
  -7  -4  -8   31.30    5.60
   7   4   8   21.50    4.80
  -8  -4  -8   32.20    7.50
  -8  -4  -8   27.90    5.00
  -8  -4  -8   28.60    6.50
   8   4   8   34.70    5.80
   4  -5  -8   77.89    8.00
  -4   5   8   70.09   11.20
  -4   5   8   61.29    5.10
  -3   5   8  163.88   10.50
  -3   5   8  170.38    7.90
  -3   5   8  149.39    7.80
   2  -5  -8    0.30    1.90
   2  -5  -8    0.20    2.50
   2  -5  -8    2.50    2.20
  -2   5   8   -5.30    2.70
  -2   5   8    0.90    2.10
  -2   5   8   -1.60    2.40
   1  -5  -8  307.37   13.70
   1  -5  -8  290.47   13.10
   1  -5  -8  326.17   12.20
  -1   5   8  330.57   14.00
  -1   5   8  307.37   13.90
   0  -5  -8   98.89    7.20
   0  -5  -8  114.59    7.80
   0  -5  -8  104.29    6.80
   0   5   8  108.49    7.80
   0   5   8   91.69    6.30
   0   5   8  105.09    7.70
  -1  -5  -8  146.49    8.40
  -1  -5  -8  138.99    8.70
  -1  -5  -8  134.69    8.30
   1   5   8  154.68    9.10
   1   5   8  152.08    8.70
   1   5   8  130.89    7.50
  -2  -5  -8  274.47   11.60
  -2  -5  -8  243.98   11.70
  -2  -5  -8  264.97   11.60
   2   5   8  271.47   12.00
   2   5   8  274.87   12.30
   2   5   8  261.97   11.40
  -3  -5  -8   94.59    6.90
  -3  -5  -8   81.39    6.90
  -3  -5  -8   81.19    6.90
   3   5   8   93.29    7.30
   3   5   8   75.19    6.50
  -4  -5  -8   95.59    7.30
  -4  -5  -8   97.79    7.60
  -4  -5  -8   96.19    7.20
   4   5   8   89.09    7.30
   4   5   8   94.49    7.30
  -5  -5  -8   14.60    4.10
  -5  -5  -8    8.30    3.10
  -5  -5  -8    7.90    3.00
   5   5   8   10.70    3.80
   5   5   8   15.20    4.20
  -6  -5  -8   94.59    7.50
  -6  -5  -8   89.59    7.90
  -6  -5  -8   96.29    8.00
   6   5   8   88.09    7.80
   6   5   8   98.39    8.20
  -7  -5  -8  189.08   11.20
  -7  -5  -8  182.08   11.20
   7   5   8  176.58   11.20
  -3   6   8   24.30    5.10
  -3   6   8   24.70    3.70
  -3   6   8   26.00    3.40
  -3   6   8   14.50    4.20
   2  -6  -8   74.09    5.10
   2  -6  -8   63.09    6.30
  -2   6   8   57.39    7.00
  -2   6   8   55.99    4.80
   1  -6  -8  308.87   13.60
   1  -6  -8  332.87   12.20
  -1   6   8  316.97   14.10
  -1   6   8  308.27   11.70
  -1   6   8  332.77   14.60
   0  -6  -8    7.40    3.20
   0  -6  -8    3.20    2.40
   0  -6  -8    5.00    2.20
   0   6   8    2.30    3.00
   0   6   8    2.80    2.70
   0   6   8    4.50    2.70
  -1  -6  -8   15.30    4.10
  -1  -6  -8   23.10    4.20
  -1  -6  -8   14.10    3.30
   1   6   8   16.90    3.30
   1   6   8   17.80    4.00
   1   6   8   20.90    3.90
  -2  -6  -8  516.85   18.50
  -2  -6  -8  531.65   19.10
  -2  -6  -8  532.05   18.30
   2   6   8  559.64   19.60
   2   6   8  556.44   19.20
  -3  -6  -8   12.20    3.00
  -3  -6  -8   23.50    4.60
  -3  -6  -8   24.40    4.70
   3   6   8   22.60    4.20
   3   6   8   28.80    4.90
  -4  -6  -8  577.04   20.20
  -4  -6  -8  529.55   19.40
  -4  -6  -8  559.24   20.30
   4   6   8  605.44   20.90
   4   6   8  596.34   20.50
  -5  -6  -8  106.09    7.80
  -5  -6  -8  107.29   10.90
  -5  -6  -8  109.09    8.10
   5   6   8  109.49    8.60
   5   6   8  112.09    8.40
  -6  -6  -8   28.50    5.00
   6   6   8   40.90    6.40
   6   6   8   40.00    5.50
  -7  -6  -8  313.07   15.30
  -7  -6  -8  355.96   15.90
   7   6   8  353.16   16.50
   2  -7  -8  127.69    6.20
   2  -7  -8  120.79    8.60
  -2   7   8  109.39    9.10
  -2   7   8  121.49    6.30
  -2   7   8  135.49    9.60
   1  -7  -8    8.20    3.10
   1  -7  -8   15.30    2.90
  -1   7   8   10.10    3.80
  -1   7   8    7.30    3.90
  -1   7   8    7.10    2.60
   0  -7  -8    1.30    2.20
   0   7   8   -3.80    2.40
   0   7   8    2.40    2.90
   0   7   8   -0.60    2.20
  -1  -7  -8   19.00    4.40
  -1  -7  -8   30.60    5.10
   1   7   8   25.20    5.10
   1   7   8   17.50    3.70
   1   7   8   19.30    3.90
  -2  -7  -8  116.39    7.90
  -2  -7  -8  108.49    7.50
   2   7   8  128.19    9.00
   2   7   8  129.99    8.50
  -3  -7  -8  226.98   11.10
   3   7   8  255.17   12.10
   3   7   8  243.08   12.30
  -4  -7  -8   32.50    4.80
  -4  -7  -8   24.80    4.00
   4   7   8   51.69    6.60
  -5  -7  -8   -0.50    2.00
  -5  -7  -8    7.60    3.60
   5   7   8   -0.90    2.90
   5   7   8   -0.50    3.10
  -6  -7  -8   44.00    6.40
  -6  -7  -8   53.59    6.40
   6   7   8   52.19    7.60
   6   7   8   38.60    6.50
   1  -8  -8  340.57   11.90
   1  -8  -8  305.87   14.20
  -1   8   8  339.07   11.70
  -1   8   8  350.06   16.00
  -1   8   8  363.56   16.00
   0  -8  -8  263.67   10.70
   0  -8  -8  256.37   12.30
   0   8   8  261.67   13.20
   0   8   8  267.57   13.10
   0   8   8  236.48   10.10
  -1  -8  -8  406.36   15.00
  -1  -8  -8  400.86   16.00
   1   8   8  423.76   16.90
   1   8   8  402.16   17.00
  -2  -8  -8   65.09    6.10
  -2  -8  -8   51.89    5.80
   2   8   8   71.49    7.30
   2   8   8   56.39    6.80
  -3  -8  -8  202.48   10.60
  -3  -8  -8  185.88   10.20
   3   8   8  229.98   12.00
   3   8   8  196.48   11.30
  -4  -8  -8    2.50    2.90
  -4  -8  -8   -2.10    2.40
   4   8   8    0.70    2.70
   4   8   8   -5.10    3.00
  -5  -8  -8   40.70    6.10
  -5  -8  -8   56.69    6.40
   5   8   8   47.40    6.90
   5   8   8   59.59    7.40
   0  -9  -8   19.10    3.50
  -1  -9  -8    3.30    2.90
  -1  -9  -8   -0.70    2.80
   1   9   8    5.10    3.10
  -2  -9  -8  274.77   12.10
  -2  -9  -8  244.98   14.80
   2   9   8  231.08   12.60
  -3  -9  -8    1.60    2.00
  -3  -9  -8    1.70    2.80
   3   9   8   -4.30    2.40
   0   2  -9  159.88    8.30
   0   2  -9  183.08    9.20
   0   2  -9  173.08   11.20
  -1   2  -9  579.54   18.60
  -1   2  -9  630.04   19.50
  -1   2  -9  598.74   22.50
  -2   2  -9  282.87   11.20
  -2   2  -9  294.47   14.40
  -2   2  -9  295.27   11.80
  -3   2  -9   38.10    4.20
  -3   2  -9   33.70    5.50
  -3   2  -9   41.30    4.70
  -4   2  -9  258.97   11.10
  -4   2  -9  240.78   12.80
  -4   2  -9  237.08   10.20
  -2  -1   9   34.10    6.60
   1   1  -9    2.90    2.50
   1   1  -9    2.20    3.40
   1   1  -9   -0.80    1.80
  -1  -1   9   -2.00    1.70
   0   1  -9  282.77   12.10
   0   1  -9  276.87   13.90
   0   1  -9  288.47   13.90
   0  -1   9  263.77   10.40
  -1   1  -9   13.70    3.10
  -1   1  -9   22.10    4.00
  -1   1  -9   11.80    4.40
   1  -1   9   17.60    2.90
  -2   1  -9   15.50    3.00
  -2   1  -9   11.80    2.80
  -2   1  -9   12.80    3.90
   2  -1   9   15.20    2.70
  -3   1  -9  717.63   21.90
  -3   1  -9  716.13   22.20
  -3   1  -9  718.33   24.70
   3  -1   9  712.93   20.30
  -4   1  -9    8.40    3.10
  -4   1  -9   11.20    4.90
  -4   1  -9    5.60    2.80
   4  -1   9    9.20    2.30
  -5   1  -9   87.39    7.00
  -5   1  -9   96.69    9.10
  -5   1  -9   91.49    6.60
   5  -1   9   87.49    5.60
  -6   1  -9    5.30    3.50
  -6   1  -9   -0.60    2.70
   2   0  -9   30.00    5.50
  -2   0   9   39.50    5.80
  -2   0   9   35.50    4.60
   1   0  -9  207.38   10.30
   1   0  -9  218.48   12.10
  -1   0   9  207.88   10.00
   0   0  -9    4.80    2.50
   0   0  -9    7.00    3.20
   0   0  -9    0.90    1.10
   0   0   9    4.00    2.10
  -1   0  -9  206.38    9.80
  -1   0  -9  209.58   11.40
  -1   0  -9  226.48   10.30
   1   0   9  198.48    9.20
  -2   0  -9   -0.30    1.60
  -2   0  -9    3.60    2.00
  -2   0  -9   -0.40    2.30
   2   0   9   -0.40    1.70
  -3   0  -9    0.70    1.70
  -3   0  -9    2.80    2.10
  -3   0  -9    1.20    2.60
   3   0   9    2.40    2.00
  -4   0  -9   15.10    3.30
  -4   0  -9    8.10    2.60
  -4   0  -9   16.90    4.20
   4   0   9   11.00    2.60
  -5   0  -9  167.58    9.10
  -5   0  -9  190.38   10.90
   5   0   9  167.38    8.70
  -6   0  -9   -2.60    2.30
  -6   0  -9    1.50    2.20
   6   0   9   -4.50    1.80
   3  -1  -9   66.39    7.00
  -3   1   9   51.59    6.80
   2  -1  -9   39.70    5.60
   2  -1  -9   28.60    4.50
   2  -1  -9   32.30    5.50
  -2   1   9   37.00    5.70
   1  -1  -9  205.88   10.60
   1  -1  -9  192.58   10.10
  -1   1   9  206.28   10.10
   0  -1  -9    2.40    2.10
   0  -1  -9   -2.50    2.60
   0  -1  -9   -4.10    1.50
   0   1   9    4.10    2.60
  -1  -1  -9  982.40   28.10
  -1  -1  -9  957.60   28.40
  -1  -1  -9  905.81   29.20
   1   1   9  993.40   27.80
  -2  -1  -9   40.30    5.30
  -2  -1  -9   48.70    6.40
  -2  -1  -9   40.90    5.20
   2   1   9   43.10    5.30
  -3  -1  -9   -1.20    1.80
  -3  -1  -9    1.30    2.70
  -3  -1  -9   -1.10    1.50
   3   1   9    0.70    1.80
  -4  -1  -9  592.34   19.90
  -4  -1  -9  603.14   21.20
  -4  -1  -9  575.04   19.40
   4   1   9  579.74   19.10
  -5  -1  -9   34.40    5.60
  -5  -1  -9   33.50    4.90
  -5  -1  -9   24.40    3.90
   5   1   9   39.60    5.10
  -6  -1  -9   74.29    6.50
  -6  -1  -9   77.89    7.30
   6   1   9   64.09    5.80
  -7  -1  -9   77.79    7.10
  -7  -1  -9   72.69    7.30
  -3   2   9   33.20    4.90
  -3   2   9   21.40    4.50
   2  -2  -9    8.70    3.50
   2  -2  -9    7.70    3.40
   2  -2  -9    4.90    2.80
  -2   2   9   10.80    3.10
   1  -2  -9   21.60    4.10
   1  -2  -9   24.40    4.50
   1  -2  -9   12.30    3.00
  -1   2   9   15.60    3.90
   0  -2  -9  468.35   17.00
   0  -2  -9  458.85   17.40
   0  -2  -9  463.45   17.20
   0   2   9  463.85   16.80
  -1  -2  -9   51.89    5.40
  -1  -2  -9   59.39    5.70
  -1  -2  -9   53.19    5.90
   1   2   9   51.89    5.50
  -2  -2  -9  126.79    7.80
  -2  -2  -9  108.69    7.40
  -2  -2  -9  106.99    8.00
   2   2   9  121.69    7.60
  -3  -2  -9   95.69    7.70
  -3  -2  -9   99.79    7.20
  -3  -2  -9   96.09    6.90
   3   2   9  103.79    7.00
  -4  -2  -9  276.37   12.10
  -4  -2  -9  265.97   12.20
  -4  -2  -9  257.17   12.80
   4   2   9  283.27   12.10
  -5  -2  -9   22.80    4.60
  -5  -2  -9   26.40    4.50
  -5  -2  -9   28.00    4.90
   5   2   9   25.30    4.10
  -6  -2  -9  105.19    7.80
  -6  -2  -9  117.19    8.80
   6   2   9   97.39    7.40
  -7  -2  -9   87.69    8.00
  -7  -2  -9   84.89    7.60
   7   2   9   91.99    8.80
   3  -3  -9  115.59   10.00
  -3   3   9   65.79   10.70
  -3   3   9  104.09    7.70
   2  -3  -9  212.98   11.60
   2  -3  -9  193.48   10.90
   2  -3  -9  217.78   10.80
  -2   3   9  218.58   11.40
   1  -3  -9    2.40    2.40
   1  -3  -9    3.70    2.90
   1  -3  -9    2.60    2.40
  -1   3   9    5.30    3.10
   0  -3  -9  149.88    8.80
   0  -3  -9  153.48    9.10
   0  -3  -9  155.58    9.10
   0   3   9  142.79    8.90
  -1  -3  -9   64.69    6.20
  -1  -3  -9   69.69    6.40
  -1  -3  -9   61.69    5.90
   1   3   9   78.59    6.70
  -2  -3  -9   30.90    4.50
  -2  -3  -9   47.40    5.40
  -2  -3  -9   51.99    5.60
   2   3   9   46.80    5.50
  -3  -3  -9  228.88   11.30
  -3  -3  -9  226.88   11.00
  -3  -3  -9  247.48   11.90
   3   3   9  238.68   11.20
  -4  -3  -9   58.19    6.00
  -4  -3  -9   69.99    6.70
  -4  -3  -9   57.39    5.90
   4   3   9   65.69    6.30
  -5  -3  -9  165.58    9.60
  -5  -3  -9  166.48    9.90
   5   3   9  154.58    9.30
  -6  -3  -9   73.99    7.60
  -6  -3  -9   62.09   10.80
  -6  -3  -9   63.89    6.60
   6   3   9   63.69    6.40
  -7  -3  -9   78.49    8.60
  -7  -3  -9   88.39    8.00
  -7  -3  -9   99.39    8.40
   7   3   9   96.89    8.10
   3  -4  -9   22.70    5.30
  -3   4   9   19.10    4.30
  -3   4   9   14.30    3.60
   2  -4  -9   92.09    8.20
   2  -4  -9   92.29    7.70
   2  -4  -9  105.29    7.10
  -2   4   9   96.89    8.10
   1  -4  -9  408.46   15.40
   1  -4  -9  407.16   16.50
   1  -4  -9  379.66   15.90
  -1   4   9  408.66   16.40
   0  -4  -9   60.39    7.20
   0  -4  -9   57.89    5.90
   0  -4  -9   45.80    5.50
   0   4   9   58.69    6.20
  -1  -4  -9  191.98   10.40
  -1  -4  -9  190.18   10.20
  -1  -4  -9  189.98    9.90
   1   4   9  177.28   13.30
   1   4   9  199.68   11.60
  -2  -4  -9   28.00    5.00
  -2  -4  -9   25.60    4.50
  -2  -4  -9   19.90    3.70
   2   4   9   36.60    5.50
   2   4   9   32.60    5.40
  -3  -4  -9  526.95   19.20
  -3  -4  -9  526.75   19.20
  -3  -4  -9  532.55   18.80
   3   4   9  539.85   19.20
  -4  -4  -9  676.13   22.10
  -4  -4  -9  639.54   22.80
  -4  -4  -9  650.63   22.00
   4   4   9  571.44   24.10
  -5  -4  -9  292.67   13.40
  -5  -4  -9  294.47   13.80
  -5  -4  -9  289.27   13.60
   5   4   9  294.67   13.50
  -6  -4  -9   34.30    5.10
  -6  -4  -9   36.20    9.30
  -6  -4  -9   23.70    4.10
   6   4   9   42.80    6.20
  -7  -4  -9   18.20    4.50
  -7  -4  -9   16.90    4.70
  -7  -4  -9   23.00    5.80
   7   4   9   24.40    4.90
  -3   5   9  123.89   10.00
   2  -5  -9    1.30    3.10
   2  -5  -9    7.70    2.80
  -2   5   9    2.90    3.40
   1  -5  -9    1.40    2.50
   1  -5  -9    0.10    2.80
   1  -5  -9    1.40    2.20
  -1   5   9   -1.10    2.40
   0  -5  -9   28.60    5.00
   0  -5  -9   34.80    5.80
   0  -5  -9   22.50    4.30
   0   5   9   25.00    4.90
   0   5   9   24.10    4.60
  -1  -5  -9  173.18   10.10
  -1  -5  -9  184.78    9.80
  -1  -5  -9  182.58   10.00
   1   5   9  183.38   10.20
   1   5   9  184.98   10.50
  -2  -5  -9   32.30    4.70
  -2  -5  -9   44.40    5.40
  -2  -5  -9   45.60    5.40
   2   5   9   47.80    6.50
   2   5   9   44.20    6.30
  -3  -5  -9  102.39    7.90
  -3  -5  -9  123.69    8.60
  -3  -5  -9  110.49    7.80
   3   5   9  111.89    8.10
   3   5   9  114.19    8.40
  -4  -5  -9   19.70    4.00
  -4  -5  -9   15.50    3.50
  -4  -5  -9   26.00    5.20
   4   5   9   24.20    5.20
   4   5   9   23.10    4.80
  -5  -5  -9   20.80    4.10
  -5  -5  -9    9.10    3.20
  -5  -5  -9   17.00    4.70
   5   5   9   20.10    4.60
  -6  -5  -9  252.17   13.20
  -6  -5  -9  243.28   12.90
  -6  -5  -9  233.68   12.70
   6   5   9  248.28   13.10
  -7  -5  -9  126.09    9.70
   7   5   9  137.39   10.20
   2  -6  -9   28.70    4.70
   2  -6  -9   47.60    5.70
  -2   6   9   33.50    4.50
   1  -6  -9    3.80    2.50
   1  -6  -9    8.10    2.90
  -1   6   9   10.80    3.70
  -1   6   9    8.30    4.30
  -1   6   9    9.10    3.50
   0  -6  -9  168.68    9.90
   0  -6  -9  165.48   12.20
   0  -6  -9  162.58    9.00
   0   6   9  170.88   10.60
   0   6   9  161.28   10.20
  -1  -6  -9   -1.00    2.40
  -1  -6  -9   -3.40    2.50
  -1  -6  -9   -1.10    1.80
   1   6   9   -3.60    3.30
   1   6   9    5.60    3.30
  -2  -6  -9  149.39    9.20
  -2  -6  -9  167.38    9.60
  -2  -6  -9  150.48    9.40
   2   6   9  156.78   10.00
   2   6   9  158.98   14.20
  -3  -6  -9   -2.20    2.40
  -3  -6  -9   -0.30    2.40
  -3  -6  -9    5.00    3.00
   3   6   9    1.40    2.70
   3   6   9    2.80    3.10
  -4  -6  -9   34.10    5.70
  -4  -6  -9   32.90    5.60
  -4  -6  -9   22.50    4.30
   4   6   9   26.40    4.80
   4   6   9   27.40    5.30
  -5  -6  -9  169.68   10.20
  -5  -6  -9  152.28   13.40
   5   6   9  159.28   10.50
   5   6   9  166.18   10.60
  -6  -6  -9  152.48   10.50
  -6  -6  -9  145.49    9.90
   6   6   9  149.69   10.40
   1  -7  -9   84.99    7.60
  -1   7   9   73.29    6.20
  -1   7   9   87.19    8.40
  -1   7   9   84.89    9.20
   0  -7  -9   29.70    4.50
   0  -7  -9   19.90    3.90
   0   7   9   19.80    5.90
   0   7   9   30.70    5.80
  -1  -7  -9   26.70    4.20
   1   7   9   38.10    5.70
   1   7   9   19.60    4.00
  -2  -7  -9  120.59    8.20
  -2  -7  -9  109.39    7.80
   2   7   9  116.49    9.10
   2   7   9   87.59    8.00
  -3  -7  -9  243.58   11.90
  -3  -7  -9  208.28   11.30
   3   7   9  227.88   12.60
   3   7   9  232.18   12.20
  -4  -7  -9   10.60    3.80
   4   7   9    8.60    3.70
  -5  -7  -9  209.98   11.70
   5   7   9  206.28   12.20
   5   7   9  209.28   12.30
   0  -8  -9  261.77   13.30
   0  -8  -9  282.37   11.70
   0   8   9  274.37   14.10
  -1  -8  -9  146.19    8.50
  -1  -8  -9  111.89    8.60
   1   8   9  138.89   10.30
   1   8   9  131.49    9.80
  -2  -8  -9   -1.10    2.50
  -2  -8  -9    1.30    2.90
   2   8   9    0.30    3.90
   2   8   9    3.20    3.10
  -3  -8  -9   96.99    7.90
  -3  -8  -9  114.79    8.30
   3   8   9  106.29    9.10
   3   8   9  115.29    9.90
  -4  -8  -9   13.40    4.90
  -4  -8  -9    8.20    3.50
   4   8   9   12.80    5.90
   4   8   9   17.60    5.10
  -2   1 -10  143.49    8.80
  -2   1 -10  150.28   11.10
   2  -1  10  120.29    6.70
  -3   1 -10   65.99    6.60
   3  -1  10   63.19    5.30
   0   0 -10   63.19    7.50
   0   0 -10   67.49    6.30
   0   0 -10   71.79    7.50
  -1   0 -10   96.89    7.40
  -1   0 -10   99.09    7.10
  -1   0 -10   96.09    8.60
   1   0  10   96.59    6.40
  -2   0 -10    8.90    3.80
  -2   0 -10    5.60    2.40
  -2   0 -10    5.60    2.60
   2   0  10    7.70    2.60
  -3   0 -10  221.98   12.40
  -3   0 -10  193.68   10.00
  -3   0 -10  240.38   11.20
   3   0  10  202.38    9.50
  -4   0 -10  180.58   10.20
  -4   0 -10  160.18   10.30
  -4   0 -10  149.99    8.70
   4   0  10  160.78    8.60
  -5   0 -10   20.50    4.00
  -5   0 -10   25.90    5.10
   1  -1 -10   21.10    4.10
   1  -1 -10   25.80    5.10
   0  -1 -10    7.30    3.50
   0  -1 -10    2.50    2.80
   0   1  10    7.50    2.60
  -1  -1 -10   82.69    6.80
  -1  -1 -10   91.59    7.20
  -1  -1 -10   98.79    9.10
   1   1  10   84.89    6.50
  -2  -1 -10  147.19   14.20
  -2  -1 -10  147.29    8.70
   2   1  10  152.48    8.50
  -3  -1 -10  124.59   13.10
  -3  -1 -10  110.59    9.80
  -3  -1 -10  115.69    7.60
   3   1  10  121.99    7.60
  -4  -1 -10   90.49    7.50
  -4  -1 -10   97.39    8.60
  -4  -1 -10   86.69    8.90
   4   1  10   83.29    6.50
  -5  -1 -10    1.00    3.10
  -5  -1 -10    5.40    3.60
  -5  -1 -10    0.10    2.10
   5   1  10    2.50    2.70
   1  -2 -10  109.19    9.50
   1  -2 -10   82.09    7.20
  -1   2  10  104.79    7.80
   0  -2 -10  396.06   16.40
   0  -2 -10  364.96   16.20
   0  -2 -10  398.46   15.80
   0   2  10  412.16   15.90
  -1  -2 -10   -1.10    2.10
  -1  -2 -10   -0.30    2.60
  -1  -2 -10    5.80    3.40
   1   2  10    0.90    2.20
  -2  -2 -10  112.79    7.80
  -2  -2 -10  124.79    8.30
  -2  -2 -10  112.79    8.80
   2   2  10  105.79    8.80
  -3  -2 -10   -1.50    2.40
  -3  -2 -10    2.50    2.80
  -3  -2 -10    3.40    2.10
   3   2  10    7.70    3.40
  -4  -2 -10   29.40    4.50
  -4  -2 -10   33.60    5.70
   4   2  10   47.90    6.80
  -5  -2 -10   65.79    7.80
  -5  -2 -10   65.09    7.00
  -5  -2 -10   56.19    6.10
   5   2  10   51.19    6.10
  -6  -2 -10   15.70    3.70
  -6  -2 -10   26.10    5.60
   1  -3 -10   -6.70    2.90
   1  -3 -10   -1.50    2.00
   1  -3 -10   -0.50    2.60
  -1   3  10    3.40    2.40
   0  -3 -10   59.09    6.20
   0  -3 -10   62.19    8.40
   0  -3 -10   53.49    6.00
   0   3  10   64.69    6.50
  -1  -3 -10  128.99    8.70
  -1  -3 -10  105.09    7.80
  -1  -3 -10  125.59    8.80
   1   3  10  116.09    8.30
  -2  -3 -10   66.09    6.50
  -2  -3 -10   60.59    6.20
  -2  -3 -10   90.59    7.80
   2   3  10   71.79    6.60
  -3  -3 -10  917.81   28.70
  -3  -3 -10  865.41   27.20
  -3  -3 -10  852.71   27.70
   3   3  10  879.81   27.50
  -4  -3 -10   88.89    7.20
  -4  -3 -10   95.19    7.80
  -4  -3 -10   89.39    8.90
   4   3  10   93.99    7.60
  -5  -3 -10   39.90    5.70
  -5  -3 -10   52.39    6.30
   5   3  10   56.99    6.20
  -6  -3 -10   -2.90    2.30
  -6  -3 -10   -3.10    3.40
   6   3  10   -1.40    2.40
   1  -4 -10   91.19    7.90
   1  -4 -10  114.19    9.40
   1  -4 -10   85.39    7.10
  -1   4  10   92.09    8.10
   0  -4 -10    5.80    3.40
   0  -4 -10    5.10    3.00
   0  -4 -10    2.40    2.30
  -1  -4 -10  197.68   10.70
  -1  -4 -10  179.58   10.70
  -1  -4 -10  183.28   10.60
   1   4  10  183.28   10.60
  -2  -4 -10    1.70    2.10
  -2  -4 -10    6.10    2.80
  -2  -4 -10    6.40    3.10
   2   4  10    5.40    2.90
  -3  -4 -10    4.00    3.30
  -3  -4 -10    3.70    2.50
  -3  -4 -10   -2.40    2.60
   3   4  10    7.10    3.20
  -4  -4 -10  260.27   14.80
  -4  -4 -10  282.97   13.60
  -4  -4 -10  280.37   13.20
   4   4  10  295.07   13.70
  -5  -4 -10   62.69    7.40
  -5  -4 -10   39.40    6.10
  -5  -4 -10   51.69    6.30
   5   4  10   53.79    6.30
  -6  -4 -10   99.29    8.60
  -6  -4 -10  139.69   17.30
  -6  -4 -10  113.49    8.90
   6   4  10   96.89    8.60
   1  -5 -10   36.20    6.30
   1  -5 -10   32.50    5.80
   1  -5 -10   31.10    4.80
  -1   5  10   32.10    5.60
   0  -5 -10   55.29    6.40
   0  -5 -10   52.39    8.00
   0  -5 -10   40.10    5.60
   0   5  10   40.60    6.50
  -1  -5 -10    2.10    2.70
  -1  -5 -10    0.40    2.00
  -1  -5 -10   -0.80    3.00
   1   5  10    9.70    4.00
  -2  -5 -10   73.59    6.80
  -2  -5 -10   67.79    6.80
  -2  -5 -10   66.49    7.00
   2   5  10   78.79    7.20
  -3  -5 -10   26.40    4.90
  -3  -5 -10   15.50    3.70
  -3  -5 -10   32.00    5.20
   3   5  10   35.30    5.80
  -4  -5 -10  156.78    9.90
  -4  -5 -10  159.88   10.30
   4   5  10  168.78   10.50
  -5  -5 -10    3.70    2.80
  -5  -5 -10    7.00    3.90
  -5  -5 -10    9.90    6.10
   5   5  10    6.60    3.70
  -6  -5 -10  448.86   22.30
  -6  -5 -10  385.46   17.40
   6   5  10  459.65   18.80
   0  -6 -10  106.79    7.50
   0   6  10   98.39    8.80
  -1  -6 -10   15.90    3.90
   1   6  10   15.10    4.60
  -2  -6 -10  221.18   12.60
  -2  -6 -10  199.18   11.30
  -2  -6 -10  208.98   11.40
   2   6  10  211.28   12.00
  -3  -6 -10   84.79    7.80
  -3  -6 -10   69.89    7.90
  -3  -6 -10   88.39    7.70
   3   6  10   82.29    7.90
  -4  -6 -10  125.39   10.70
   4   6  10  133.49    9.80
  -5  -6 -10   44.20    6.60
  -5  -6 -10   41.40    6.20
   5   6  10   37.70    6.50
  -1  -7 -10   13.60    4.30
  -1  -7 -10    6.60    3.00
   1   7  10   12.40    4.40
  -2  -7 -10    3.00    3.00
  -2  -7 -10    1.60    2.40
   2   7  10   -1.00    3.30
  -3  -7 -10    0.20    2.90
  -3  -7 -10    3.00    3.40
   3   7  10    0.90    3.10
  -4  -7 -10  161.38   10.30
  -4  -7 -10  144.49   10.10
   4   7  10  171.88   11.30
  -2  -2 -11  154.58   10.50
  -2  -2 -11  136.79    9.00
  -3  -2 -11   11.30    3.50
  -1  -3 -11  123.39    9.40
  -1  -3 -11  122.29    9.80
   1   3  11  117.29   12.10
  -2  -3 -11  437.36   18.50
  -2  -3 -11  448.46   17.70
   2   3  11  436.46   18.40
  -3  -3 -11   83.09    7.20
  -3  -3 -11   82.39    8.40
   3   3  11   84.99    7.60
  -4  -3 -11    1.40    3.30
  -1  -4 -11  243.78   12.60
  -1  -4 -11  215.58   12.20
   1   4  11  236.98   12.70
  -2  -4 -11  257.27   13.40
  -2  -4 -11  247.68   12.80
   2   4  11  260.47   13.20
  -3  -4 -11   40.70    5.80
  -3  -4 -11   59.09    6.80
   3   4  11   63.19    6.90
  -4  -4 -11  124.49    9.10
   4   4  11  141.79    9.70
  -2  -5 -11   56.49    6.60
  -2  -5 -11   75.29    7.60
   2   5  11   78.09    7.90
  -3  -5 -11  265.97   20.30
  -3  -5 -11  227.78   12.50
  -3  -5 -11  249.78   12.90
   3   5  11  223.78   12.70
  -4  -5 -11   84.69    9.40
  -4  -5 -11   76.09    7.50
   4   5  11   88.89    9.00
   0   0   0    0.00    0.00

_computing_structure_solution     'SHELXT 2014/5 (Sheldrick, 2014)'
;
_shelx_hkl_checksum              11060
loop_
_space_group_symop_operation_xyz
'x, y, z'
'-x, -y, -z'
loop_
_atom_site_label
_atom_site_type_symbol
_atom_site_fract_x
_atom_site_fract_y
_atom_site_fract_z
_atom_site_U_iso_or_equiv
_atom_site_adp_type
_atom_site_occupancy
_atom_site_site_symmetry_order
_atom_site_calc_flag
_atom_site_refinement_flags_posn
_atom_site_refinement_flags_adp
_atom_site_refinement_flags_occupancy
_atom_site_disorder_assembly
_atom_site_disorder_group
S1 S 0.71638(4) 0.87135(4) -0.01904(4) 0.01966(10) Uani 1 1 d . . . . .
N1 N 1.04059(16) 0.16649(14) 0.57166(15) 0.0251(2) Uani 1 1 d . . . . .
C1 C 0.60882(17) 0.77742(16) 0.20614(15) 0.0183(2) Uani 1 1 d . . . . .
H1A H 0.6740 0.8254 0.2665 0.022 Uiso 1 1 calc R U . . .
H1B H 0.4740 0.8163 0.2293 0.022 Uiso 1 1 calc R U . . .
C2 C 0.61912(16) 0.57617(15) 0.27329(14) 0.0156(2) Uani 1 1 d . . . . .
C3 C 0.49254(16) 0.46928(16) 0.25347(14) 0.0165(2) Uani 1 1 d . . . . .
C4 C 0.51368(17) 0.28376(16) 0.31422(15) 0.0182(2) Uani 1 1 d . . . . .
H4 H 0.4290 0.2117 0.3002 0.022 Uiso 1 1 calc R U . . .
C5 C 0.65491(17) 0.20136(16) 0.39462(15) 0.0174(2) Uani 1 1 d . . . . .
H5 H 0.6677 0.0747 0.4344 0.021 Uiso 1 1 calc R U . . .
C6 C 0.77811(16) 0.30805(15) 0.41601(14) 0.0159(2) Uani 1 1 d . . . . .
C7 C 0.75967(16) 0.49433(15) 0.35551(14) 0.0163(2) Uani 1 1 d . . . . .
H7 H 0.8440 0.5658 0.3707 0.020 Uiso 1 1 calc R U . . .
C8 C 0.33383(17) 0.55203(17) 0.17074(16) 0.0212(3) Uani 1 1 d . . . . .
H8A H 0.2722 0.4591 0.1545 0.032 Uiso 1 1 calc R U . . .
H8B H 0.3855 0.6431 0.0615 0.032 Uiso 1 1 calc R U . . .
H8C H 0.2405 0.6077 0.2425 0.032 Uiso 1 1 calc R U . . .
C9 C 0.92439(17) 0.22752(15) 0.50200(15) 0.0178(2) Uani 1 1 d . . . . .
C10 C 0.95868(18) 0.79601(17) -0.02550(17) 0.0246(3) Uani 1 1 d . . . . .
H10A H 1.0394 0.8538 -0.1384 0.037 Uiso 1 1 calc R U . . .
H10B H 0.9661 0.6659 0.0017 0.037 Uiso 1 1 calc R U . . .
H10C H 1.0024 0.8273 0.0567 0.037 Uiso 1 1 calc R U . . .
loop_
_atom_site_aniso_label
_atom_site_aniso_U_11
_atom_site_aniso_U_22
_atom_site_aniso_U_33
_atom_site_aniso_U_23
_atom_site_aniso_U_13
_atom_site_aniso_U_12
S1 0.02072(16) 0.01741(16) 0.01801(16) -0.00175(11) -0.00643(11) 0.00048(11)
N1 0.0271(6) 0.0199(5) 0.0318(6) -0.0080(5) -0.0151(5) 0.0027(4)
C1 0.0193(6) 0.0172(6) 0.0177(6) -0.0054(5) -0.0052(4) 0.0024(4)
C2 0.0161(5) 0.0164(5) 0.0124(5) -0.0045(4) -0.0015(4) 0.0009(4)
C3 0.0138(5) 0.0216(6) 0.0127(5) -0.0051(4) -0.0023(4) 0.0007(4)
C4 0.0163(6) 0.0208(6) 0.0173(6) -0.0061(5) -0.0031(4) -0.0035(4)
C5 0.0178(6) 0.0154(5) 0.0167(5) -0.0036(4) -0.0028(4) -0.0010(4)
C6 0.0149(5) 0.0174(6) 0.0140(5) -0.0043(4) -0.0033(4) 0.0008(4)
C7 0.0161(5) 0.0176(6) 0.0154(5) -0.0059(4) -0.0035(4) -0.0011(4)
C8 0.0176(6) 0.0243(6) 0.0220(6) -0.0069(5) -0.0077(5) 0.0017(5)
C9 0.0198(6) 0.0141(5) 0.0195(6) -0.0055(4) -0.0048(5) -0.0007(4)
C10 0.0199(6) 0.0222(6) 0.0265(7) -0.0056(5) -0.0020(5) 0.0014(5)
loop_
_atom_type_symbol
_atom_type_description
_atom_type_scat_dispersion_real
_atom_type_scat_dispersion_imag
_atom_type_scat_source
C C 0.0033 0.0016 'International Tables Vol C Tables 4.2.6.8 and 6.1.1.4'
H H 0.0000 0.0000 'International Tables Vol C Tables 4.2.6.8 and 6.1.1.4'
N N 0.0061 0.0033 'International Tables Vol C Tables 4.2.6.8 and 6.1.1.4'
S S 0.1246 0.1234 'International Tables Vol C Tables 4.2.6.8 and 6.1.1.4'
loop_
_geom_angle_atom_site_label_1
_geom_angle_atom_site_label_2
_geom_angle_atom_site_label_3
_geom_angle
_geom_angle_site_symmetry_1
_geom_angle_site_symmetry_3
_geom_angle_publ_flag
C10 S1 C1 100.28(6) . . ?
C2 C1 S1 113.04(8) . . ?
C2 C1 H1A 109.0 . . ?
S1 C1 H1A 109.0 . . ?
C2 C1 H1B 109.0 . . ?
S1 C1 H1B 109.0 . . ?
H1A C1 H1B 107.8 . . ?
C7 C2 C3 119.37(11) . . ?
C7 C2 C1 118.58(10) . . ?
C3 C2 C1 122.05(11) . . ?
C4 C3 C2 119.07(11) . . ?
C4 C3 C8 119.75(11) . . ?
C2 C3 C8 121.17(11) . . ?
C5 C4 C3 121.83(11) . . ?
C5 C4 H4 119.1 . . ?
C3 C4 H4 119.1 . . ?
C4 C5 C6 118.78(11) . . ?
C4 C5 H5 120.6 . . ?
C6 C5 H5 120.6 . . ?
C7 C6 C5 120.26(11) . . ?
C7 C6 C9 119.22(10) . . ?
C5 C6 C9 120.52(10) . . ?
C2 C7 C6 120.67(11) . . ?
C2 C7 H7 119.7 . . ?
C6 C7 H7 119.7 . . ?
C3 C8 H8A 109.5 . . ?
C3 C8 H8B 109.5 . . ?
H8A C8 H8B 109.5 . . ?
C3 C8 H8C 109.5 . . ?
H8A C8 H8C 109.5 . . ?
H8B C8 H8C 109.5 . . ?
N1 C9 C6 178.51(13) . . ?
S1 C10 H10A 109.5 . . ?
S1 C10 H10B 109.5 . . ?
H10A C10 H10B 109.5 . . ?
S1 C10 H10C 109.5 . . ?
H10A C10 H10C 109.5 . . ?
H10B C10 H10C 109.5 . . ?
loop_
_geom_bond_atom_site_label_1
_geom_bond_atom_site_label_2
_geom_bond_distance
_geom_bond_site_symmetry_2
_geom_bond_publ_flag
S1 C10 1.8023(13) . ?
S1 C1 1.8228(12) . ?
N1 C9 1.1484(16) . ?
C1 C2 1.5056(16) . ?
C1 H1A 0.9900 . ?
C1 H1B 0.9900 . ?
C2 C7 1.3903(16) . ?
C2 C3 1.4098(17) . ?
C3 C4 1.3936(17) . ?
C3 C8 1.5063(16) . ?
C4 C5 1.3866(16) . ?
C4 H4 0.9500 . ?
C5 C6 1.3973(16) . ?
C5 H5 0.9500 . ?
C6 C7 1.3973(16) . ?
C6 C9 1.4419(16) . ?
C7 H7 0.9500 . ?
C8 H8A 0.9800 . ?
C8 H8B 0.9800 . ?
C8 H8C 0.9800 . ?
C10 H10A 0.9800 . ?
C10 H10B 0.9800 . ?
C10 H10C 0.9800 . ?
loop_
_geom_torsion_atom_site_label_1
_geom_torsion_atom_site_label_2
_geom_torsion_atom_site_label_3
_geom_torsion_atom_site_label_4
_geom_torsion
_geom_torsion_site_symmetry_1
_geom_torsion_site_symmetry_2
_geom_torsion_site_symmetry_3
_geom_torsion_site_symmetry_4
_geom_torsion_publ_flag
C10 S1 C1 C2 -62.52(10) . . . . ?
S1 C1 C2 C7 100.06(11) . . . . ?
S1 C1 C2 C3 -79.17(13) . . . . ?
C7 C2 C3 C4 -1.17(17) . . . . ?
C1 C2 C3 C4 178.06(10) . . . . ?
C7 C2 C3 C8 177.79(10) . . . . ?
C1 C2 C3 C8 -2.98(17) . . . . ?
C2 C3 C4 C5 0.45(17) . . . . ?
C8 C3 C4 C5 -178.53(11) . . . . ?
C3 C4 C5 C6 0.48(18) . . . . ?
C4 C5 C6 C7 -0.68(17) . . . . ?
C4 C5 C6 C9 178.72(11) . . . . ?
C3 C2 C7 C6 0.98(17) . . . . ?
C1 C2 C7 C6 -178.27(10) . . . . ?
C5 C6 C7 C2 -0.05(17) . . . . ?
C9 C6 C7 C2 -179.46(11) . . . . ?
