#------------------------------------------------------------------------------
#$Date: 2021-02-18 12:06:52 +0200 (Thu, 18 Feb 2021) $
#$Revision: 262063 $
#$URL: file:///home/coder/svn-repositories/cod/cif/1/56/04/1560468.cif $
#------------------------------------------------------------------------------
#
# This file is available in the Crystallography Open Database (COD),
# http://www.crystallography.net/
#
# All data on this site have been placed in the public domain by the
# contributors.
#
data_1560468
loop_
_publ_author_name
'Iyer, Abishek K.'
'Yin, Wenlong'
'Lee, Emma J.'
'Lin, Xinsong'
'Mar, Arthur'
_publ_section_title
;
 Quaternary rare-earth sulfides RE 3 M 0.5 GeS 7 (RE=La--Nd, Sm; M=Co, Ni)
 and Y 3 Pd 0.5 SiS 7
;
_journal_name_full               'Journal of Solid State Chemistry'
_journal_page_first              14
_journal_page_last               23
_journal_paper_doi               10.1016/j.jssc.2017.03.009
_journal_volume                  250
_journal_year                    2017
_chemical_absolute_configuration ad
_chemical_formula_structural     'Ce3 Ni0.50 Ge S7'
_chemical_formula_sum            'Ce3 Ge Ni0.5 S7'
_chemical_formula_weight         746.72
_chemical_name_common            'cerium nickel germanium sulfide (3/0.5/1/7)'
_chemical_name_systematic        'cerium nickel germanium sulfide (3/0.5/1/7)'
_space_group_crystal_system      hexagonal
_space_group_IT_number           173
_space_group_name_Hall           'P 6c'
_space_group_name_H-M_alt        'P 63'
_atom_sites_solution_hydrogens   .
_audit_creation_method           SHELXL-2014/7
_cell_angle_alpha                90
_cell_angle_beta                 90
_cell_angle_gamma                120
_cell_formula_units_Z            2
_cell_length_a                   10.2052(13)
_cell_length_b                   10.2052(13)
_cell_length_c                   5.7921(7)
_cell_measurement_reflns_used    1870
_cell_measurement_temperature    296(2)
_cell_measurement_theta_max      24.60
_cell_measurement_theta_min      4.21
_cell_volume                     522.41(11)
_computing_cell_refinement       'Bruker SAINT 8.34A (Bruker, 2013)'
_computing_data_collection       'Bruker APEX 2 (Bruker, 2008)'
_computing_data_reduction        'Bruker SAINT 8.34A'
_computing_molecular_graphics    'ATOMS 5.1 (Dowty, 1999)'
_computing_publication_material  'SHELXL-2014/7 (Sheldrick, 2014)'
_computing_structure_refinement  'SHELXL-2014/7 (Sheldrick, 2014)'
_computing_structure_solution    'SHELXS-97 (Sheldrick, 2008)'
_diffrn_ambient_temperature      296(2)
_diffrn_measured_fraction_theta_full 1.000
_diffrn_measured_fraction_theta_max 0.994
_diffrn_measurement_device_type  'Bruker PLATFORM/SMART APEX II CCD'
_diffrn_measurement_method       '\w and \f scans'
_diffrn_radiation_type           MoK\a
_diffrn_radiation_wavelength     0.71073
_diffrn_reflns_av_R_equivalents  0.0799
_diffrn_reflns_av_unetI/netI     0.0505
_diffrn_reflns_Laue_measured_fraction_full 1.000
_diffrn_reflns_Laue_measured_fraction_max 0.994
_diffrn_reflns_limit_h_max       15
_diffrn_reflns_limit_h_min       -15
_diffrn_reflns_limit_k_max       15
_diffrn_reflns_limit_k_min       -15
_diffrn_reflns_limit_l_max       8
_diffrn_reflns_limit_l_min       -8
_diffrn_reflns_number            7574
_diffrn_reflns_point_group_measured_fraction_full 1.000
_diffrn_reflns_point_group_measured_fraction_max 0.994
_diffrn_reflns_theta_full        25.242
_diffrn_reflns_theta_max         33.085
_diffrn_reflns_theta_min         2.304
_diffrn_source                   'fine-focus sealed tube'
_exptl_absorpt_coefficient_mu    17.875
_exptl_absorpt_correction_T_max  0.557
_exptl_absorpt_correction_T_min  0.395
_exptl_absorpt_correction_type   numerical
_exptl_absorpt_process_details   'SHELXL-2014/7 (Sheldrick, 2014)'
_exptl_crystal_colour            grey
_exptl_crystal_density_diffrn    4.747
_exptl_crystal_description       irregular
_exptl_crystal_F_000             664
_exptl_crystal_size_max          0.084
_exptl_crystal_size_mid          0.063
_exptl_crystal_size_min          0.050
_refine_diff_density_max         2.700
_refine_diff_density_min         -1.572
_refine_diff_density_rms         0.305
_refine_ls_abs_structure_details
;
 Refined as an inversion twin.
;
_refine_ls_abs_structure_Flack   -0.02(4)
_refine_ls_extinction_coef       0.0019(4)
_refine_ls_extinction_expression Fc^*^=kFc[1+0.001xFc^2^\l^3^/sin(2\q)]^-1/4^
_refine_ls_extinction_method     'SHELXL-2014/7 (Sheldrick 2014'
_refine_ls_goodness_of_fit_ref   1.068
_refine_ls_hydrogen_treatment    undef
_refine_ls_matrix_type           full
_refine_ls_number_parameters     39
_refine_ls_number_reflns         1318
_refine_ls_number_restraints     1
_refine_ls_restrained_S_all      1.068
_refine_ls_R_factor_all          0.0436
_refine_ls_R_factor_gt           0.0328
_refine_ls_shift/su_max          0.001
_refine_ls_shift/su_mean         0.000
_refine_ls_structure_factor_coef Fsqd
_refine_ls_weighting_details
'w=1/[\s^2^(Fo^2^)+(0.0216P)^2^+0.7989P] where P=(Fo^2^+2Fc^2^)/3'
_refine_ls_weighting_scheme      calc
_refine_ls_wR_factor_gt          0.0607
_refine_ls_wR_factor_ref         0.0639
_reflns_Friedel_coverage         0.844
_reflns_Friedel_fraction_full    1.000
_reflns_Friedel_fraction_max     0.993
_reflns_number_gt                1134
_reflns_number_total             1318
_reflns_threshold_expression     'I > 2\s(I)'
_cod_data_source_file            mmc18.cif
_cod_data_source_block           7
_cod_original_cell_volume        522.41(15)
_cod_original_formula_sum        'Ce3 Ge Ni0.50 S7'
_cod_database_code               1560468
_shelx_shelxl_version_number     2014/7
_shelx_space_group_comment
;
The symmetry employed for this shelxl refinement is uniquely defined
by the following loop, which should always be used as a source of
symmetry information in preference to the above space-group names.
They are only intended as comments.
;
_shelx_estimated_absorpt_t_min   0.315
_shelx_estimated_absorpt_t_max   0.469
_shelx_res_file
;

    p63.res created by SHELXL-2014/7

TITL Ce3Ni0.5GeS7 P6(3) lsf final refinement
CELL 0.71073  10.20520  10.20520   5.79210  90.0000  90.0000 120.0000
ZERR    2.00   0.00130   0.00130   0.00070   0.0000   0.0000   0.0000
LATT -1
SYMM -Y, X-Y, Z
SYMM -X+Y, -X, Z
SYMM -X, -Y, 0.5+Z
SYMM Y, -X+Y, 0.5+Z
SYMM X-Y, X, 0.5+Z
SFAC S NI GE CE
UNIT 14 1 2 6
TEMP 23
SIZE 0.05 0.063 0.084

L.S. 4
ACTA

TWIN

WGHT    0.021600    0.798900
EXTI    0.001891
BASF  -0.02064
FVAR       0.11296
CE    4    0.128383    0.357219    0.482486    11.00000    0.01218    0.01096 =
         0.01298   -0.00094   -0.00108    0.00596
NIA   2    0.000000    0.000000    0.247913    10.16667    0.00828    0.00828 =
         0.02108    0.00000    0.00000    0.00414
GE    3    0.333333    0.666667    0.901182    10.33333    0.01371    0.01371 =
         0.00961    0.00000    0.00000    0.00685
S1    1    0.242220    0.155123    0.500000    11.00000    0.01568    0.01310 =
         0.01931   -0.00436   -0.00187    0.00845
S2    1    0.520581    0.104386    0.252291    11.00000    0.01218    0.01350 =
         0.01317    0.00034    0.00202    0.00596
S3    1    0.333333    0.666667    0.276337    10.33333    0.01417    0.01417 =
         0.01089    0.00000    0.00000    0.00708
HKLF 4

REM  Ce3Ni0.5GeS7 P6(3) lsf final refinement
REM R1 =  0.0328 for    1134 Fo > 4sig(Fo)  and  0.0436 for all    1318 data
REM     39 parameters refined using      1 restraints

END

WGHT      0.0216      0.7991

REM Highest difference peak  2.700,  deepest hole -1.572,  1-sigma level  0.305
Q1    1   0.4460  0.7385  0.9851  11.00000  0.05    2.70
Q2    1   0.0000  0.0000  0.4792  10.33333  0.05    2.44
Q3    1   0.3333  0.6667  1.0575  10.33333  0.05    2.04
Q4    1   0.2062  0.3111  0.4109  11.00000  0.05    1.48
Q5    1   0.4041  0.8026  0.8997  11.00000  0.05    1.21
Q6    1   0.3356  0.0664  0.4817  11.00000  0.05    1.21
Q7    1   0.5281  0.1576  0.4882  11.00000  0.05    1.16
Q8    1   0.1986  0.2949  0.5496  11.00000  0.05    1.15
Q9    1   0.5952  0.1162  0.4808  11.00000  0.05    1.11
Q10   1   0.4410  0.0724  0.4794  11.00000  0.05    1.05
Q11   1   0.0758  0.2485  0.3718  11.00000  0.05    1.03
Q12   1   0.1159  0.4419  0.3219  11.00000  0.05    1.02
Q13   1   0.4748 -0.0996  0.2198  11.00000  0.05    1.00
Q14   1   0.4189  0.6467  1.0486  11.00000  0.05    0.99
Q15   1   0.2976  0.2403  0.4851  11.00000  0.05    0.97
Q16   1   0.4827  0.0245  0.4005  11.00000  0.05    0.96
Q17   1   0.2553  0.4351  0.4204  11.00000  0.05    0.95
Q18   1   0.0388  0.3331  0.3640  11.00000  0.05    0.95
Q19   1   0.2976  0.3775  0.4811  11.00000  0.05    0.94
Q20   1   0.5401 -0.0327  0.1166  11.00000  0.05    0.92
;
_shelx_res_checksum              69572
_shelx_hkl_file
;
   1  -6  -8   97.28   12.23
   2  -6  -8    3.37    3.78
   3  -6  -8   27.86    5.78
   0  -5  -8    2.86    3.60
   1  -5  -8    5.18    3.64
   2  -5  -8   13.55    4.61
   3  -5  -8    0.10    3.28
  -2  -4  -8    1.04    4.80
  -1  -4  -8   32.06    5.98
   0  -4  -8    7.30    3.80
   1  -4  -8   11.42    4.32
   2  -4  -8   28.92    5.68
   3  -4  -8   64.58    7.88
   4  -4  -8    7.44    3.59
   5  -4  -8    7.93    5.96
   6  -4  -8    2.04    4.31
  -3  -3  -8   35.09    8.84
  -2  -3  -8    0.68    3.20
  -1  -3  -8   66.32    8.22
   0  -3  -8    6.60    3.78
   1  -3  -8   -1.44    2.87
   2  -3  -8   54.12    7.08
   3  -3  -8    9.13    3.49
   4  -3  -8   16.16    4.70
   5  -3  -8    8.93    4.08
   6  -3  -8   37.48    7.03
  -4  -2  -8    4.10    5.38
  -3  -2  -8    3.47    3.39
  -2  -2  -8   25.14    5.37
  -1  -2  -8   59.66    7.86
   0  -2  -8    5.21    3.67
   1  -2  -8   34.88    5.23
   2  -2  -8    8.65    3.66
   3  -2  -8    0.94    3.20
   4  -2  -8   28.19    5.64
   5  -2  -8   -0.64    3.09
   6  -2  -8    0.91    5.46
  -4  -1  -8   13.43    4.58
  -3  -1  -8    8.95    3.75
  -2  -1  -8   -0.42    2.64
  -1  -1  -8   29.19    5.41
   0  -1  -8    5.24    2.65
   1  -1  -8    2.89    3.03
   2  -1  -8   34.36    5.94
   3  -1  -8   52.19    7.33
   4  -1  -8   86.81    9.62
   5  -1  -8   24.37    5.81
  -5   0  -8    2.76    3.81
  -4   0  -8    2.72    3.14
  -3   0  -8    4.53    3.39
  -2   0  -8    7.44    3.07
  -1   0  -8    5.56    3.55
   0   0  -8  184.43   13.87
   1   0  -8    7.87    3.71
   2   0  -8    4.86    3.12
   3   0  -8   11.24    4.13
   4   0  -8    7.83    4.27
   5   0  -8    7.49    6.34
  -5   1  -8   25.80    5.45
  -4   1  -8   75.02    6.95
  -3   1  -8   61.34    6.34
  -2   1  -8   22.89    5.16
  -1   1  -8    1.56    3.14
   0   1  -8    6.08    3.53
   1   1  -8   24.26    5.34
   2   1  -8    3.36    2.95
   3   1  -8    8.00    4.08
   4   1  -8    7.28    6.02
  -6   2  -8    0.47    3.67
  -5   2  -8    0.55    2.60
  -4   2  -8   26.40    4.41
  -3   2  -8    3.17    3.07
  -2   2  -8    9.11    3.84
  -1   2  -8   31.36    5.69
   0   2  -8    3.65    3.56
   1   2  -8   51.43    7.11
   2   2  -8   23.30    5.37
   3   2  -8   10.89    4.23
  -6   3  -8   34.32    6.49
  -5   3  -8    6.87    3.20
  -4   3  -8   12.03    4.33
  -3   3  -8    9.85    4.17
  -2   3  -8   47.77    7.17
  -1   3  -8    1.95    3.07
   0   3  -8    9.30    4.21
   1   3  -8   74.67    8.73
   2   3  -8   -0.51    3.07
  -6   4  -8    6.15    4.12
  -5   4  -8    5.56    3.83
  -4   4  -8    9.35    4.29
  -3   4  -8   73.09    8.83
  -2   4  -8   26.34    5.59
  -1   4  -8   12.24    4.57
   0   4  -8    6.94    3.26
   1   4  -8   34.70    6.31
  -6   5  -8  110.41   16.93
  -5   5  -8    3.86    3.78
  -4   5  -8   37.37    6.83
  -3   5  -8    0.86    3.06
  -2   5  -8    8.01    3.60
  -1   5  -8    2.92    3.52
   0   5  -8    3.42    4.12
  -4   6  -8   -0.65    4.87
  -3   6  -8   24.20    7.97
  -2   6  -8    3.79    4.83
   3  -9  -7    0.66    3.46
   4  -9  -7   13.13    4.66
   5  -9  -7   81.60   10.13
   0  -8  -7    0.54    5.28
   1  -8  -7   93.46   10.13
   2  -8  -7   20.89    5.13
   3  -8  -7   64.83    8.45
   4  -8  -7   13.06    4.68
   5  -8  -7   -2.85    4.37
  -1  -7  -7    8.07    4.20
   0  -7  -7   12.48    4.33
   1  -7  -7   10.93    4.04
   2  -7  -7    5.29    3.39
   3  -7  -7   17.91    3.84
   4  -7  -7    0.56    3.10
  -2  -6  -7   20.17    5.33
  -1  -6  -7   63.71    8.37
   0  -6  -7   21.30    5.34
   1  -6  -7    8.22    3.76
   2  -6  -7   11.83    3.93
   3  -6  -7   72.47    8.40
   4  -6  -7    5.68    3.27
   8  -6  -7    7.11    6.48
   9  -6  -7    1.81    6.11
  -4  -5  -7   72.12   10.46
  -3  -5  -7    1.21    2.55
  -2  -5  -7   -0.15    2.54
  -1  -5  -7   24.32    4.22
   0  -5  -7   16.07    3.52
   1  -5  -7    6.10    2.85
   2  -5  -7   53.44    5.54
   3  -5  -7    6.97    2.61
   4  -5  -7   74.28    6.28
   5  -5  -7   20.43    6.31
   6  -5  -7    7.23    5.15
   7  -5  -7    3.34    5.15
   8  -5  -7   75.79   13.46
   9  -5  -7   14.88    7.33
  -5  -4  -7    9.25    3.90
  -4  -4  -7   18.91    3.95
  -3  -4  -7    1.12    3.09
  -2  -4  -7    1.32    2.86
  -1  -4  -7   67.85    7.69
   0  -4  -7   17.30    4.00
   1  -4  -7  131.26   10.51
   2  -4  -7    1.54    2.32
   3  -4  -7    0.08    2.24
   4  -4  -7   17.24    3.32
   5  -4  -7   12.55    3.94
   6  -4  -7   15.18    6.73
   7  -4  -7   20.14    6.72
   8  -4  -7   23.56    8.22
   9  -4  -7   76.66   14.07
  -6  -3  -7   -1.57    3.81
  -5  -3  -7   61.08    8.16
  -4  -3  -7   10.99    4.03
  -3  -3  -7   76.54    8.38
  -2  -3  -7    3.63    2.88
  -1  -3  -7   -0.75    2.31
   0  -3  -7   10.12    3.36
   1  -3  -7    4.66    2.81
   2  -3  -7   -1.30    1.86
   3  -3  -7    8.60    3.33
   4  -3  -7  130.90   10.83
   5  -3  -7   48.16    6.70
   6  -3  -7   86.17   13.07
   7  -3  -7    0.54    4.89
   8  -3  -7    2.76    6.09
   9  -3  -7   34.82   15.29
  -6  -2  -7   11.10    4.52
  -5  -2  -7    0.38    2.91
  -4  -2  -7    5.95    3.23
  -3  -2  -7   36.49    5.97
  -2  -2  -7    7.24    3.22
  -1  -2  -7    0.44    2.04
   0  -2  -7   52.14    5.15
   1  -2  -7   10.70    3.43
   2  -2  -7   56.67    6.60
   3  -2  -7    7.55    3.05
   4  -2  -7    2.19    2.90
   5  -2  -7    8.69    5.21
   6  -2  -7    1.83    4.34
   7  -2  -7    5.90    5.54
   8  -2  -7   24.24    8.56
  -7  -1  -7   69.11    8.85
  -6  -1  -7    9.90    3.99
  -5  -1  -7    6.16    3.69
  -4  -1  -7    6.71    3.16
  -3  -1  -7  114.93   10.29
  -2  -1  -7    4.00    2.30
  -1  -1  -7   23.03    3.83
   0  -1  -7   46.31    6.00
   1  -1  -7   33.58    5.00
   2  -1  -7    8.70    3.15
   3  -1  -7   -0.09    2.36
   4  -1  -7   -0.91    3.95
   5  -1  -7   83.53   12.86
   6  -1  -7   15.92    6.74
   7  -1  -7   73.81   13.44
   8  -1  -7    7.83    6.15
  -8   0  -7    0.33    5.24
  -7   0  -7   28.36    5.94
  -6   0  -7   24.90    5.26
  -5   0  -7   25.81    5.32
  -4   0  -7   18.59    3.63
  -3   0  -7   14.12    3.14
  -2   0  -7   56.08    5.48
  -1   0  -7   43.18    6.02
   0   0  -7   -0.80    1.96
   1   0  -7   51.88    6.51
   2   0  -7   48.61    6.28
   3   0  -7    3.28    4.16
   4   0  -7   24.62    7.38
   5   0  -7   12.24    6.15
   6   0  -7   20.29    7.19
   7   0  -7    7.06    6.19
  -8   1  -7    4.25    3.70
  -7   1  -7   71.77    8.55
  -6   1  -7   14.37    3.63
  -5   1  -7   68.03    6.46
  -4   1  -7    1.21    2.08
  -3   1  -7   -0.38    1.84
  -2   1  -7   25.17    4.89
  -1   1  -7   41.05    5.92
   0   1  -7   35.18    5.34
   1   1  -7   15.13    4.12
   2   1  -7    6.14    3.07
   3   1  -7  129.51   15.83
   4   1  -7    6.90    4.65
   5   1  -7    4.93    5.13
   6   1  -7   16.20    7.12
   7   1  -7   85.43   14.48
  -9   2  -7   22.89    8.55
  -8   2  -7   11.81    4.35
  -7   2  -7    2.26    2.72
  -6   2  -7   -1.19    2.26
  -5   2  -7    6.60    2.62
  -4   2  -7    2.70    2.76
  -3   2  -7    5.26    3.14
  -2   2  -7   66.22    7.44
  -1   2  -7   17.40    4.16
   0   2  -7   55.37    6.82
   1   2  -7   -0.87    2.25
   2   2  -7    3.69    4.14
   3   2  -7   44.69    9.71
   4   2  -7   13.08    6.13
   5   2  -7    2.46    3.93
   6   2  -7   15.42    6.95
  -9   3  -7    6.81    4.50
  -8   3  -7   -0.15    2.61
  -7   3  -7   -0.77    2.30
  -6   3  -7   78.80    7.01
  -5   3  -7   58.13    5.91
  -4   3  -7  127.50   10.99
  -3   3  -7    8.35    3.22
  -2   3  -7   -0.28    2.28
  -1   3  -7    2.59    2.57
   0   3  -7   10.57    3.56
   1   3  -7    1.60    2.58
   2   3  -7    8.94    4.44
   3   3  -7   65.18   11.15
   4   3  -7   15.56    5.87
   5   3  -7   76.25   13.13
  -9   4  -7   53.40    6.42
  -8   4  -7   17.92    4.19
  -7   4  -7   15.61    3.25
  -6   4  -7    5.98    2.79
  -5   4  -7   12.26    3.96
  -4   4  -7   18.05    4.71
  -3   4  -7   -0.73    2.36
  -2   4  -7    2.69    2.75
  -1   4  -7  130.28   10.78
   0   4  -7   15.01    4.18
   1   4  -7   82.13    8.42
   2   4  -7    0.89    4.42
   3   4  -7    4.41    4.23
   4   4  -7   12.81    5.69
   5   4  -7    2.25    4.61
  -9   5  -7    9.89    4.22
  -8   5  -7   70.79    7.15
  -7   5  -7    5.63    2.88
  -6   5  -7    9.03    3.84
  -5   5  -7   19.36    5.00
  -4   5  -7   77.46    8.75
  -3   5  -7    4.92    3.15
  -2   5  -7   65.00    7.75
  -1   5  -7    6.22    3.41
   0   5  -7   24.86    5.00
   1   5  -7   16.38    6.62
   2   5  -7    0.89    4.03
   3   5  -7    1.97    4.13
   4   5  -7   52.42   11.12
  -9   6  -7    3.46    4.44
  -8   6  -7   15.26    3.86
  -7   6  -7   12.79    4.24
  -6   6  -7   11.65    4.17
  -5   6  -7   18.34    4.66
  -4   6  -7    0.24    2.83
  -3   6  -7   91.15    9.11
  -2   6  -7    4.27    3.05
  -1   6  -7    7.19    3.50
   0   6  -7   22.29    4.86
   1   6  -7   76.39   13.15
   2   6  -7   16.12    6.69
   3   6  -7   19.35    8.14
  -9   7  -7    8.90    5.62
  -8   7  -7   78.17    9.70
  -7   7  -7   15.96    4.39
  -6   7  -7   64.87    8.34
  -5   7  -7    6.53    3.87
  -4   7  -7    2.60    3.31
  -3   7  -7   15.64    4.35
  -2   7  -7    3.92    3.25
  -1   7  -7    8.81    3.81
   0   7  -7   17.73    4.82
   1   7  -7    1.22    5.19
  -8   8  -7    3.76    4.96
  -7   8  -7   10.27    4.41
  -6   8  -7   10.46    4.52
  -5   8  -7    1.94    3.47
  -4   8  -7   18.20    4.93
  -3   8  -7   70.54    8.42
  -2   8  -7   12.39    4.21
  -1   8  -7   85.82    9.41
   0   8  -7    4.02    4.06
  -5   9  -7   77.14   14.91
  -4   9  -7   10.52    6.72
  -3   9  -7    5.47    6.51
   4 -11  -6   33.32    9.49
   5 -11  -6   21.51    5.75
   6 -11  -6    3.52    3.57
   7 -11  -6   90.54   10.09
   8 -11  -6    4.78    4.55
   0 -10  -6   33.72   13.37
   1 -10  -6   -0.82    3.25
   2 -10  -6   31.86    6.33
   3 -10  -6   44.23    7.09
   4 -10  -6   42.00    6.78
   5 -10  -6   23.20    5.22
   6 -10  -6    6.22    3.68
   7 -10  -6   15.22    4.75
   8 -10  -6   62.02    6.59
   9 -10  -6    2.92    3.86
  10 -10  -6   36.67   11.45
  -1  -9  -6    0.59    5.63
   0  -9  -6    6.55    4.12
   1  -9  -6    6.52    3.52
   2  -9  -6    0.17    2.21
   3  -9  -6   34.86    5.97
   4  -9  -6    4.42    3.28
   5  -9  -6   16.24    4.60
   6  -9  -6   26.70    5.34
   7  -9  -6   10.73    4.32
   8  -9  -6   44.56    7.31
   9  -9  -6    6.13    3.98
  10  -9  -6    4.60    3.87
  -2  -8  -6   50.81    7.84
  -1  -8  -6   55.73    8.08
   0  -8  -6   58.41    7.90
   1  -8  -6   18.74    4.60
   2  -8  -6    6.51    3.34
   3  -8  -6   13.14    3.30
   4  -8  -6   26.44    5.09
   5  -8  -6   24.61    4.65
   6  -8  -6    4.41    3.03
   7  -8  -6   26.40    5.52
   8  -8  -6   56.57    7.80
   9  -8  -6    1.58    2.99
  10  -8  -6   31.42    6.24
  11  -8  -6   14.63   11.81
  -4  -7  -6  116.12   20.24
  -3  -7  -6    6.98    4.08
  -2  -7  -6   11.09    4.20
  -1  -7  -6   28.51    5.64
   0  -7  -6   11.74    3.73
   1  -7  -6   -0.52    2.50
   2  -7  -6   10.09    3.74
   3  -7  -6   13.72    3.99
   4  -7  -6   74.60    6.16
   5  -7  -6   41.38    4.72
   6  -7  -6   24.68    3.93
   7  -7  -6    9.10    3.42
   8  -7  -6   19.61    4.49
   9  -7  -6    4.93    4.51
  10  -7  -6   36.39    9.21
  11  -7  -6   21.06    7.99
  -5  -6  -6    0.43    3.69
  -4  -6  -6    1.98    3.63
  -3  -6  -6   30.04    5.86
  -2  -6  -6    1.68    2.87
  -1  -6  -6   17.14    4.55
   0  -6  -6    5.56    3.11
   1  -6  -6  189.04   12.29
   2  -6  -6    6.32    2.92
   3  -6  -6   82.80    8.10
   4  -6  -6   15.73    2.92
   5  -6  -6   32.30    3.62
   6  -6  -6    6.65    2.59
   7  -6  -6    0.96    3.29
   8  -6  -6    3.14    4.11
   9  -6  -6   34.09    8.56
  10  -6  -6   54.00   10.93
  11  -6  -6   15.04    6.30
  -6  -5  -6   13.07    4.37
  -5  -5  -6   25.34    4.58
  -4  -5  -6   11.84    3.31
  -3  -5  -6   33.86    4.24
  -2  -5  -6   30.95    4.38
  -1  -5  -6   28.50    4.20
   0  -5  -6    5.10    2.15
   1  -5  -6   25.77    3.61
   2  -5  -6   14.72    2.87
   3  -5  -6    2.82    1.88
   4  -5  -6   44.69    3.19
   5  -5  -6    2.46    1.66
   6  -5  -6  158.89   10.98
   7  -5  -6    7.58    4.48
   8  -5  -6   19.24    6.50
   9  -5  -6    3.43    4.27
  10  -5  -6   40.72    9.71
  11  -5  -6    5.86    4.74
  -7  -4  -6   20.28    5.55
  -6  -4  -6   49.03    6.06
  -5  -4  -6    4.13    2.63
  -4  -4  -6   16.13    3.63
  -3  -4  -6   81.39    8.28
  -2  -4  -6    6.43    2.89
  -1  -4  -6   49.78    6.22
   0  -4  -6   16.03    3.76
   1  -4  -6   47.88    5.88
   2  -4  -6   35.40    3.89
   3  -4  -6   72.82    5.72
   4  -4  -6   14.47    3.41
   5  -4  -6   18.15    3.82
   6  -4  -6    7.77    3.30
   7  -4  -6   13.12    5.84
   8  -4  -6   22.49    7.15
   9  -4  -6   21.87    6.84
  10  -4  -6    9.68    6.09
  11  -4  -6  107.04   15.74
  -8  -3  -6   -0.42    5.78
  -7  -3  -6   37.14    5.09
  -6  -3  -6   26.07    4.48
  -5  -3  -6   16.86    4.35
  -4  -3  -6   16.41    4.04
  -3  -3  -6   74.57    7.80
  -2  -3  -6    6.61    2.88
  -1  -3  -6   64.47    6.95
   0  -3  -6   15.89    2.78
   1  -3  -6    3.62    1.60
   2  -3  -6  130.33    8.56
   3  -3  -6   20.34    3.76
   4  -3  -6   74.47   10.32
   5  -3  -6   16.04    3.71
   6  -3  -6   86.03    8.41
   7  -3  -6   59.86    9.90
   8  -3  -6   33.22    7.62
   9  -3  -6   47.29    9.94
  10  -3  -6   10.89    6.35
  -8  -2  -6   23.75    4.62
  -7  -2  -6   -3.14    2.75
  -6  -2  -6    5.53    3.03
  -5  -2  -6    7.85    3.44
  -4  -2  -6    7.66    3.07
  -3  -2  -6    7.27    2.95
  -2  -2  -6   36.44    4.26
  -1  -2  -6  106.54    7.16
   0  -2  -6   60.03    5.22
   1  -2  -6   78.41    7.24
   2  -2  -6   75.32    6.98
   3  -2  -6    5.90    2.46
   4  -2  -6   41.10    8.50
   5  -2  -6    6.00    2.61
   6  -2  -6   11.35    3.28
   7  -2  -6   42.62    8.63
   8  -2  -6   -3.22    3.34
   9  -2  -6   13.82    6.73
  10  -2  -6   58.13   11.89
  -9  -1  -6    2.75    4.01
  -8  -1  -6   -2.44    2.91
  -7  -1  -6    7.95    3.70
  -6  -1  -6    1.66    2.66
  -5  -1  -6  162.53   12.34
  -4  -1  -6   37.05    5.35
  -3  -1  -6   46.97    4.68
  -2  -1  -6    5.33    2.08
  -1  -1  -6   98.02    8.04
   0  -1  -6   16.04    3.43
   1  -1  -6   12.37    3.16
   2  -1  -6   69.83    7.00
   3  -1  -6  118.71   13.67
   4  -1  -6   82.92   11.98
   5  -1  -6   39.73    5.52
   6  -1  -6   34.90    5.56
   7  -1  -6   18.96    4.57
   8  -1  -6   24.15    7.17
   9  -1  -6   53.79   10.77
  10  -1  -6   11.52    7.27
 -10   0  -6   26.80    8.62
  -9   0  -6   18.21    5.19
  -8   0  -6   66.47    8.06
  -7   0  -6   11.21    4.04
  -6   0  -6   13.71    3.65
  -5   0  -6    0.81    1.89
  -4   0  -6   19.18    3.09
  -3   0  -6   22.41    3.27
  -2   0  -6   67.53    6.93
  -1   0  -6   23.21    4.06
   0   0  -6  154.99    9.35
   1   0  -6   16.19    3.48
   2   0  -6   60.44    9.18
   3   0  -6   23.26    6.02
   4   0  -6   17.88    5.84
   5   0  -6    0.37    2.18
   6   0  -6    5.90    3.20
   7   0  -6    8.35    3.82
   8   0  -6   52.58    7.67
   9   0  -6   12.56    4.81
 -10   1  -6   -3.25    3.88
  -9   1  -6   33.27    6.42
  -8   1  -6   31.70    5.11
  -7   1  -6   31.03    4.32
  -6   1  -6   30.74    4.10
  -5   1  -6   43.93    4.85
  -4   1  -6   82.65    6.45
  -3   1  -6  108.67    9.16
  -2   1  -6   65.21    7.05
  -1   1  -6   18.13    3.57
   0   1  -6   17.52    3.59
   1   1  -6   75.30    7.54
   2   1  -6   15.55    5.25
   3   1  -6   29.05    6.87
   4   1  -6   21.84    6.69
   5   1  -6  173.53   12.60
   6   1  -6    1.59    2.57
   7   1  -6   30.00    5.93
   8   1  -6    4.15    3.18
   9   1  -6    6.62    4.15
 -10   2  -6   46.50    7.86
  -9   2  -6   18.26    4.55
  -8   2  -6    4.43    2.49
  -7   2  -6   44.76    5.32
  -6   2  -6   11.83    2.72
  -5   2  -6    2.42    1.82
  -4   2  -6   45.84    6.07
  -3   2  -6    5.90    2.45
  -2   2  -6   61.89    6.87
  -1   2  -6   71.46    7.08
   0   2  -6   69.22    7.01
   1   2  -6  127.60   14.35
   2   2  -6   31.29    7.15
   3   2  -6    7.64    4.56
   4   2  -6   -1.41    2.99
   5   2  -6    7.26    3.22
   6   2  -6    6.76    3.48
   7   2  -6    4.97    3.48
   8   2  -6   39.31    7.01
 -10   3  -6    1.29    3.80
  -9   3  -6   38.89    5.20
  -8   3  -6   31.42    4.46
  -7   3  -6   78.08    6.73
  -6   3  -6   88.07    6.84
  -5   3  -6    9.93    3.24
  -4   3  -6   33.00    5.21
  -3   3  -6   23.10    4.32
  -2   3  -6  115.09    9.79
  -1   3  -6    5.73    2.59
   0   3  -6   20.23    3.97
   1   3  -6   83.03   11.57
   2   3  -6    4.27    3.61
   3   3  -6   83.33   11.82
   4   3  -6    3.52    4.20
   5   3  -6   18.34    4.89
   6   3  -6   33.92    6.08
   7   3  -6   52.04    7.54
   8   3  -6    6.59    6.22
 -11   4  -6   76.74   10.38
 -10   4  -6   -0.18    3.43
  -9   4  -6   11.90    3.35
  -8   4  -6   18.43    3.79
  -7   4  -6   21.64    3.71
  -6   4  -6    7.51    3.07
  -5   4  -6   24.31    4.70
  -4   4  -6   16.33    3.81
  -3   4  -6   78.33    7.94
  -2   4  -6   35.48    5.22
  -1   4  -6   41.76    5.65
   0   4  -6    8.80    4.88
   1   4  -6   36.37    7.77
   2   4  -6    9.78    5.25
   3   4  -6   47.05    9.45
   4   4  -6   25.43    7.21
   5   4  -6    3.10    4.68
   6   4  -6   37.48    6.33
   7   4  -6   42.58    7.21
 -11   5  -6   -1.38    3.99
 -10   5  -6   22.65    5.45
  -9   5  -6    7.80    3.94
  -8   5  -6   24.86    3.91
  -7   5  -6   16.10    3.34
  -6   5  -6  155.17   12.19
  -5   5  -6    3.44    2.57
  -4   5  -6   49.29    6.19
  -3   5  -6    6.29    2.75
  -2   5  -6    7.74    3.13
  -1   5  -6   23.20    4.48
   0   5  -6    7.79    4.49
   1   5  -6   24.11    6.81
   2   5  -6   31.70    7.54
   3   5  -6   22.84    6.53
   4   5  -6   23.73    6.95
   5   5  -6   22.92    7.44
   6   5  -6   12.22    4.81
 -11   6  -6   14.73    5.25
 -10   6  -6   58.87    8.25
  -9   6  -6   40.15    6.67
  -8   6  -6   11.52    3.27
  -7   6  -6    2.67    2.82
  -6   6  -6    6.35    3.24
  -5   6  -6   30.13    5.06
  -4   6  -6    5.41    2.65
  -3   6  -6   87.21    8.52
  -2   6  -6    2.24    2.22
  -1   6  -6  158.93   11.10
   0   6  -6    3.30    3.43
   1   6  -6   19.18    6.63
   2   6  -6   -1.45    3.31
   3   6  -6   40.95    8.85
   4   6  -6    4.29    4.93
   5   6  -6    1.75    5.07
 -11   7  -6   45.27    8.63
 -10   7  -6   46.19    7.23
  -9   7  -6    3.50    3.44
  -8   7  -6   20.51    4.92
  -7   7  -6   11.91    3.95
  -6   7  -6   16.01    4.28
  -5   7  -6   46.74    6.34
  -4   7  -6   67.02    7.24
  -3   7  -6   22.68    4.68
  -2   7  -6   12.23    3.57
  -1   7  -6   -0.53    2.22
   0   7  -6   17.26    6.16
   1   7  -6   31.69    7.92
   2   7  -6   16.62    6.29
   3   7  -6   18.11    7.08
 -10   8  -6   24.88    6.16
  -9   8  -6    2.43    3.65
  -8   8  -6   69.40    8.49
  -7   8  -6   40.75    6.16
  -6   8  -6    3.57    3.06
  -5   8  -6   29.82    5.38
  -4   8  -6   20.53    4.64
  -3   8  -6   24.40    4.96
  -2   8  -6    3.59    3.04
  -1   8  -6   23.65    4.88
   0   8  -6   52.13   10.96
   1   8  -6   41.40    9.59
   2   8  -6   49.64   10.10
   3   8  -6    8.52    6.49
 -10   9  -6    4.72    8.30
  -9   9  -6    3.74    5.56
  -8   9  -6   36.30    9.54
  -7   9  -6    5.94    5.30
  -6   9  -6   30.15    8.59
  -5   9  -6    8.78    5.87
  -4   9  -6    9.99    5.97
  -3   9  -6   35.24    8.69
  -2   9  -6   -6.00    3.82
  -1   9  -6   10.41    6.23
   0   9  -6   17.21    6.82
   1   9  -6    7.88    5.84
  -9  10  -6    9.96    8.03
  -8  10  -6   38.09   10.33
  -7  10  -6   16.44    7.11
  -6  10  -6    7.03    5.41
  -5  10  -6   30.04    9.44
  -4  10  -6   53.39   10.86
  -3  10  -6   27.22    8.42
  -2  10  -6   34.63    8.90
  -1  10  -6   12.90    6.75
  -7  11  -6   66.40   12.36
  -6  11  -6   -6.13    3.98
  -5  11  -6   13.82    7.11
  -4  11  -6   40.31    9.66
  -3  11  -6    8.39    6.43
   3 -12  -5    4.96    5.35
   4 -12  -5   89.45   10.22
   5 -12  -5    4.10    3.85
   6 -12  -5   15.12    5.14
   7 -12  -5   37.69    6.81
   8 -12  -5   20.25    5.40
   9 -12  -5    8.61    4.35
  10 -12  -5   -3.97    4.53
   0 -11  -5   10.15    6.43
   1 -11  -5   16.31    3.97
   2 -11  -5    4.30    3.72
   3 -11  -5    6.29    3.74
   4 -11  -5   16.59    4.79
   5 -11  -5   40.36    6.47
   6 -11  -5   47.65    6.85
   7 -11  -5    2.05    3.09
   8 -11  -5   28.08    5.63
   9 -11  -5   17.11    5.06
  10 -11  -5    5.46    3.09
  -1 -10  -5    2.30    3.58
   0 -10  -5  125.17   11.73
   1 -10  -5   41.50    5.54
   2 -10  -5   76.02    7.28
   3 -10  -5    0.86    2.85
   4 -10  -5    1.74    2.73
   5 -10  -5   16.30    4.32
   6 -10  -5   33.10    5.79
   7 -10  -5   14.66    4.11
   8 -10  -5   15.11    4.36
   9 -10  -5    8.99    3.87
  10 -10  -5  118.03   11.48
  11 -10  -5   29.71    6.24
  -3  -9  -5   14.81    5.52
  -2  -9  -5   21.14    5.27
  -1  -9  -5    2.04    3.30
   0  -9  -5    0.53    2.87
   1  -9  -5    0.78    2.63
   2  -9  -5    0.32    2.06
   3  -9  -5    0.88    1.92
   4  -9  -5   10.20    3.62
   5  -9  -5   27.93    5.06
   6  -9  -5    6.47    2.39
   7  -9  -5   80.18    8.20
   8  -9  -5    6.74    3.31
   9  -9  -5    1.43    2.11
  10  -9  -5   27.95    5.89
  11  -9  -5    3.41    3.50
  12  -9  -5    1.60    3.91
  -4  -8  -5   17.54    5.10
  -3  -8  -5   26.21    5.86
  -2  -8  -5   16.98    4.77
  -1  -8  -5    4.08    3.28
   0  -8  -5    6.04    3.31
   1  -8  -5   72.48    8.10
   2  -8  -5  121.61    9.99
   3  -8  -5  194.88    9.56
   4  -8  -5   20.24    3.54
   5  -8  -5   11.31    3.44
   6  -8  -5   17.31    3.14
   7  -8  -5   10.60    3.49
   8  -8  -5    7.89    2.71
   9  -8  -5    2.83    2.88
  10  -8  -5  104.47   10.42
  11  -8  -5    3.31    3.23
  12  -8  -5   80.91    9.93
  -5  -7  -5   43.80    7.34
  -4  -7  -5    4.71    3.64
  -3  -7  -5   17.59    4.52
  -2  -7  -5   59.14    7.67
  -1  -7  -5   14.14    3.90
   0  -7  -5   11.41    3.49
   1  -7  -5    8.03    2.97
   2  -7  -5   18.45    4.00
   3  -7  -5   36.80    5.16
   4  -7  -5   13.12    2.66
   5  -7  -5    1.93    2.07
   6  -7  -5  265.37   11.47
   7  -7  -5   10.50    2.61
   8  -7  -5   86.94    8.64
   9  -7  -5    1.28    2.58
  10  -7  -5    3.63    2.99
  11  -7  -5   25.40    5.55
  12  -7  -5   -1.66    3.34
  -6  -6  -5   12.65    3.94
  -5  -6  -5   31.50    4.97
  -4  -6  -5   28.73    4.60
  -3  -6  -5    7.11    2.80
  -2  -6  -5   16.18    3.33
  -1  -6  -5  260.09   11.20
   0  -6  -5    9.18    2.40
   1  -6  -5   29.64    3.74
   2  -6  -5   22.56    3.24
   3  -6  -5  131.15    6.96
   4  -6  -5   -0.28    1.41
   5  -6  -5   73.59    4.80
   6  -6  -5   11.30    2.60
   7  -6  -5    4.88    2.60
   8  -6  -5   97.73    9.10
   9  -6  -5   -1.58    2.32
  10  -6  -5    7.29    3.95
  11  -6  -5   40.86    6.85
  12  -6  -5   14.78    5.01
  -7  -5  -5    4.12    3.52
  -6  -5  -5   38.56    5.43
  -5  -5  -5   13.73    3.45
  -4  -5  -5   24.31    4.11
  -3  -5  -5    8.99    2.57
  -2  -5  -5    4.36    2.17
  -1  -5  -5   67.47    5.73
   0  -5  -5    8.39    2.19
   1  -5  -5   10.38    2.28
   2  -5  -5   97.69    6.42
   3  -5  -5    4.83    1.47
   4  -5  -5  179.83    6.02
   5  -5  -5    5.74    1.42
   6  -5  -5   37.26    3.97
   7  -5  -5   16.20    3.62
   8  -5  -5  237.86   12.60
   9  -5  -5   27.71    5.20
  10  -5  -5   16.54    4.40
  11  -5  -5   29.94    8.30
  12  -5  -5   46.38   10.28
  -8  -4  -5   90.40    8.50
  -7  -4  -5   18.77    4.11
  -6  -4  -5    4.58    2.64
  -5  -4  -5   15.56    3.40
  -4  -4  -5   17.72    3.38
  -3  -4  -5   14.48    3.60
  -2  -4  -5   -1.23    1.73
  -1  -4  -5  174.79   10.41
   0  -4  -5    2.50    1.90
   1  -4  -5  317.93   11.64
   2  -4  -5    1.28    1.29
   3  -4  -5   14.99    2.35
   4  -4  -5    2.08    1.18
   5  -4  -5   13.93    2.04
   6  -4  -5   21.46    3.88
   7  -4  -5   30.71    4.92
   8  -4  -5   22.22    4.36
   9  -4  -5   12.31    5.61
  10  -4  -5   33.37    8.18
  11  -4  -5    3.05    5.00
  12  -4  -5   41.86   10.53
  -9  -3  -5    5.28    4.64
  -8  -3  -5   10.08    3.59
  -7  -3  -5    3.23    2.44
  -6  -3  -5   -0.67    1.99
  -5  -3  -5  185.20   11.80
  -4  -3  -5   32.21    5.01
  -3  -3  -5  131.34    9.27
  -2  -3  -5    3.83    2.21
  -1  -3  -5   12.84    2.18
   0  -3  -5   65.01    4.99
   1  -3  -5   31.10    2.91
   2  -3  -5   43.62    3.61
   3  -3  -5   78.73    6.36
   4  -3  -5  324.36   10.04
   5  -3  -5   84.54    7.11
   6  -3  -5  126.26    8.89
   7  -3  -5   20.73    5.61
   8  -3  -5    1.18    2.92
   9  -3  -5    5.16    3.69
  10  -3  -5   26.88    6.98
  11  -3  -5   20.95    7.62
  12  -3  -5   22.34    8.57
 -10  -2  -5   12.45    7.06
  -9  -2  -5    2.52    4.04
  -8  -2  -5   95.17    8.16
  -7  -2  -5   -2.81    2.39
  -6  -2  -5   95.56    9.01
  -5  -2  -5    9.40    3.10
  -4  -2  -5   21.39    4.00
  -3  -2  -5   94.21    6.26
  -2  -2  -5    2.66    1.54
  -1  -2  -5   43.63    3.78
   0  -2  -5   75.72    6.37
   1  -2  -5   44.19    4.88
   2  -2  -5   79.59    5.17
   3  -2  -5   34.53    3.27
   4  -2  -5    3.28    1.93
   5  -2  -5    1.21    2.10
   6  -2  -5   -1.02    2.16
   7  -2  -5   -0.26    2.95
   8  -2  -5   23.90    6.82
   9  -2  -5   65.35   11.68
  10  -2  -5   19.84    7.58
  11  -2  -5   30.18    9.31
 -10  -1  -5   16.31    4.93
  -9  -1  -5   37.32    6.37
  -8  -1  -5   -1.06    2.55
  -7  -1  -5   65.54    7.55
  -6  -1  -5    3.72    2.56
  -5  -1  -5   25.97    3.42
  -4  -1  -5   10.38    2.35
  -3  -1  -5  307.27   11.93
  -2  -1  -5   32.38    3.43
  -1  -1  -5   55.18    5.48
   0  -1  -5   74.71    6.39
   1  -1  -5   74.19    6.53
   2  -1  -5   60.69    5.38
   3  -1  -5   35.72    4.39
   4  -1  -5   13.80    2.91
   5  -1  -5  188.50   14.08
   6  -1  -5   62.96    9.88
   7  -1  -5  263.41   19.84
   8  -1  -5   18.28    6.67
   9  -1  -5    0.51    3.70
  10  -1  -5    5.02    4.97
  11  -1  -5   14.60    7.02
 -10   0  -5  124.80   11.49
  -9   0  -5    3.11    3.11
  -8   0  -5    4.52    3.12
  -7   0  -5   11.23    3.57
  -6   0  -5   13.68    2.85
  -5   0  -5    3.48    1.78
  -4   0  -5    3.01    1.55
  -3   0  -5   63.00    5.01
  -2   0  -5   73.72    6.54
  -1   0  -5   67.33    6.25
   0   0  -5    0.17    1.29
   1   0  -5   71.97    9.15
   2   0  -5   86.18    6.65
   3   0  -5   74.79    6.41
   4   0  -5    2.07    1.77
   5   0  -5   10.13    3.93
   6   0  -5    6.61    4.25
   7   0  -5    8.36    4.48
   8   0  -5    7.18    5.02
   9   0  -5    2.93    4.89
  10   0  -5   96.54   15.95
 -11   1  -5    7.74    6.10
 -10   1  -5    6.94    3.40
  -9   1  -5    6.36    3.49
  -8   1  -5    8.48    2.77
  -7   1  -5  266.60   11.30
  -6   1  -5   70.48    5.78
  -5   1  -5  162.40    8.09
  -4   1  -5   15.12    2.65
  -3   1  -5   35.89    4.58
  -2   1  -5   56.82    5.84
  -1   1  -5   62.95    6.05
   0   1  -5   69.69    6.35
   1   1  -5   61.75    8.48
   2   1  -5   34.60    4.04
   3   1  -5  340.44   14.85
   4   1  -5   10.74    3.02
   5   1  -5   42.02    5.38
   6   1  -5    9.14    4.70
   7   1  -5   78.66   12.25
   8   1  -5    6.51    4.90
   9   1  -5   26.00    8.13
  10   1  -5   12.68    6.86
 -11   2  -5   23.71    7.87
 -10   2  -5   22.29    4.15
  -9   2  -5   73.65    6.76
  -8   2  -5   24.13    3.74
  -7   2  -5    0.94    1.82
  -6   2  -5    2.68    1.67
  -5   2  -5    2.86    1.64
  -4   2  -5    1.45    1.91
  -3   2  -5   38.72    4.68
  -2   2  -5   73.83    6.79
  -1   2  -5   57.89    5.85
   0   2  -5   87.68   10.24
   1   2  -5   38.13    6.75
   2   2  -5    0.78    1.47
   3   2  -5   81.64    7.47
   4   2  -5   25.08    4.22
   5   2  -5    9.24    2.92
   6   2  -5  103.33    9.56
   7   2  -5   -0.85    2.28
   8   2  -5   75.13   12.67
   9   2  -5    1.52    5.01
 -12   3  -5   14.74    8.94
 -11   3  -5   22.28    5.37
 -10   3  -5   23.43    5.00
  -9   3  -5   11.49    3.14
  -8   3  -5   10.43    2.75
  -7   3  -5   16.62    3.03
  -6   3  -5  138.76    7.76
  -5   3  -5   72.30    7.10
  -4   3  -5  324.58   15.18
  -3   3  -5   73.99    6.77
  -2   3  -5   35.92    4.70
  -1   3  -5   30.32    4.21
   0   3  -5   76.80    9.93
   1   3  -5   10.01    3.79
   2   3  -5    2.52    1.81
   3   3  -5  129.96    9.01
   4   3  -5   34.48    5.07
   5   3  -5  197.16   11.88
   6   3  -5    0.08    2.23
   7   3  -5   10.85    3.87
   8   3  -5    7.46    3.83
   9   3  -5    3.15    3.82
 -12   4  -5   21.93    5.82
 -11   4  -5   -0.17    3.10
 -10   4  -5   30.96    6.36
  -9   4  -5   29.40    3.94
  -8   4  -5   20.40    3.42
  -7   4  -5   32.42    4.01
  -6   4  -5   16.76    3.65
  -5   4  -5   17.06    3.48
  -4   4  -5    1.64    2.06
  -3   4  -5   15.63    3.28
  -2   4  -5    3.35    1.91
  -1   4  -5  307.32   14.78
   0   4  -5    0.02    2.45
   1   4  -5  174.81   14.47
   2   4  -5    3.18    1.97
   3   4  -5   17.06    3.73
   4   4  -5   22.35    4.37
   5   4  -5   15.50    3.70
   6   4  -5    3.92    3.07
   7   4  -5   27.00    5.64
   8   4  -5   79.83    9.86
 -12   5  -5   48.06    8.05
 -11   5  -5   37.21    6.45
 -10   5  -5   21.41    4.81
  -9   5  -5   16.29    4.27
  -8   5  -5  222.52    9.83
  -7   5  -5   16.72    3.72
  -6   5  -5   36.35    4.99
  -5   5  -5    2.45    2.17
  -4   5  -5  173.52   10.22
  -3   5  -5   -0.53    1.75
  -2   5  -5   92.09    7.96
  -1   5  -5    4.46    3.29
   0   5  -5   13.67    4.69
   1   5  -5   63.28    9.59
   2   5  -5    2.03    2.12
   3   5  -5    8.44    2.92
   4   5  -5   34.03    5.58
   5   5  -5   19.17    4.41
   6   5  -5   37.01    5.90
   7   5  -5    2.74    3.49
 -12   6  -5   14.94    5.27
 -11   6  -5   40.57    6.58
 -10   6  -5    0.34    3.11
  -9   6  -5    0.57    2.43
  -8   6  -5  106.82    7.56
  -7   6  -5    5.16    2.94
  -6   6  -5   11.22    3.33
  -5   6  -5   74.30    7.53
  -4   6  -5    4.63    2.01
  -3   6  -5  140.47    8.80
  -2   6  -5   20.17    3.87
  -1   6  -5   32.83    6.85
   0   6  -5   18.01    5.49
   1   6  -5  257.11   19.52
   2   6  -5   27.29    4.59
   3   6  -5   12.72    3.67
   4   6  -5   44.80    6.09
   5   6  -5   30.22    5.36
   6   6  -5   11.52    4.40
 -12   7  -5    1.03    3.78
 -11   7  -5   21.04    5.49
 -10   7  -5    7.37    3.80
  -9   7  -5    2.52    2.71
  -8   7  -5   79.45    8.09
  -7   7  -5    5.26    2.57
  -6   7  -5  259.59   13.76
  -5   7  -5    4.08    2.69
  -4   7  -5   12.87    3.32
  -3   7  -5   24.98    4.40
  -2   7  -5   18.13    3.55
  -1   7  -5    5.44    3.88
   0   7  -5   11.90    4.85
   1   7  -5   20.04    6.24
   2   7  -5   73.47    7.77
   3   7  -5   17.11    4.32
   4   7  -5    4.67    3.24
   5   7  -5   32.57    9.16
 -12   8  -5   82.95   14.48
 -11   8  -5    7.51    5.83
 -10   8  -5   95.46   10.20
  -9   8  -5    2.87    2.89
  -8   8  -5    3.11    2.70
  -7   8  -5   11.09    3.52
  -6   8  -5   15.75    3.79
  -5   8  -5   10.89    3.35
  -4   8  -5   23.63    4.47
  -3   8  -5  200.78   11.55
  -2   8  -5  118.88    9.63
  -1   8  -5   77.68   11.56
   0   8  -5    3.32    3.89
   1   8  -5    7.92    4.65
   2   8  -5   21.13    5.34
   3   8  -5   15.33    4.84
   4   8  -5   40.29   10.32
 -11   9  -5    2.87    5.78
 -10   9  -5   48.16   10.88
  -9   9  -5    4.95    4.87
  -8   9  -5    4.57    5.31
  -7   9  -5   56.47   10.76
  -6   9  -5    0.48    3.45
  -5   9  -5   18.14    6.19
  -4   9  -5   19.59    6.67
  -3   9  -5    1.81    4.16
  -2   9  -5    0.12    3.05
  -1   9  -5   -1.30    3.62
   0   9  -5   -3.45    3.29
   1   9  -5    4.20    4.89
   3   9  -5    5.34    6.40
 -11  10  -5   10.32    7.71
 -10  10  -5  153.57   20.26
  -9  10  -5   16.99    7.10
  -8  10  -5    6.49    5.43
  -7  10  -5   25.24    7.51
  -6  10  -5   29.90    7.79
  -5  10  -5   20.72    6.84
  -4  10  -5    2.73    4.31
  -3  10  -5    3.12    4.25
  -2  10  -5   80.06   12.47
  -1  10  -5   28.80    7.69
 -10  11  -5    7.23    6.64
  -9  11  -5   23.84    8.61
  -8  11  -5   24.83    8.12
  -7  11  -5   -0.44    4.69
  -6  11  -5   38.32    8.92
  -5  11  -5   53.25   10.55
  -4  11  -5   19.99    7.32
  -3  11  -5    4.85    5.70
  -9  12  -5   10.37    7.07
  -8  12  -5    5.87    6.81
  -7  12  -5   29.43    9.26
  -6  12  -5   19.96    7.72
  -5  12  -5    5.87    6.37
   4 -13  -4    6.24    4.29
   5 -13  -4   36.54    6.67
   6 -13  -4   78.28    9.12
   7 -13  -4   11.10    3.51
   8 -13  -4   16.49    4.81
   9 -13  -4    9.84    4.43
  10 -13  -4    6.29    6.64
   0 -12  -4    2.98    5.74
   1 -12  -4   -0.02    2.86
   2 -12  -4  103.17   11.16
   3 -12  -4    1.51    3.08
   4 -12  -4   15.33    4.74
   5 -12  -4    2.41    3.23
   6 -12  -4   13.38    4.35
   7 -12  -4   -2.47    2.17
   8 -12  -4   13.12    4.24
   9 -12  -4   30.20    5.69
  10 -12  -4   94.36   10.52
  11 -12  -4   97.02   10.33
  12 -12  -4   10.84    6.80
  -1 -11  -4   65.77    7.14
   0 -11  -4    4.75    2.98
   1 -11  -4    3.08    2.43
   2 -11  -4   13.18    3.44
   3 -11  -4   17.64    4.74
   4 -11  -4   -0.20    2.64
   5 -11  -4   32.59    5.79
   6 -11  -4   11.09    3.71
   7 -11  -4  185.34   11.43
   8 -11  -4    8.56    3.67
   9 -11  -4   22.11    4.63
  10 -11  -4    0.49    2.83
  11 -11  -4    4.47    2.81
  12 -11  -4   -0.43    3.38
  -3 -10  -4    0.20    3.69
  -2 -10  -4   87.06   10.03
  -1 -10  -4    2.22    3.29
   0 -10  -4   14.54    3.70
   1 -10  -4   13.54    3.11
   2 -10  -4   21.15    3.83
   3 -10  -4   51.81    5.42
   4 -10  -4   69.15    7.98
   5 -10  -4   31.58    5.37
   6 -10  -4   34.00    5.01
   7 -10  -4   29.67    4.31
   8 -10  -4    8.00    3.65
   9 -10  -4    6.75    3.34
  10 -10  -4   15.42    4.35
  11 -10  -4    5.71    2.78
  12 -10  -4   96.11   10.43
  13 -10  -4   -0.13    5.42
  -4  -9  -4    6.96    4.50
  -3  -9  -4   11.73    4.70
  -2  -9  -4   16.63    4.70
  -1  -9  -4    3.84    3.23
   0  -9  -4   69.61    8.09
   1  -9  -4    5.61    3.09
   2  -9  -4   28.26    4.10
   3  -9  -4   96.25    7.22
   4  -9  -4    2.97    2.40
   5  -9  -4   59.33    6.97
   6  -9  -4   19.22    4.12
   7  -9  -4   42.55    4.72
   8  -9  -4   40.26    5.83
   9  -9  -4   71.89    8.15
  10  -9  -4   10.47    3.20
  11  -9  -4   11.26    4.16
  12  -9  -4    5.39    3.66
  13  -9  -4    4.04    4.03
  -5  -8  -4   19.74    5.50
  -4  -8  -4    3.14    3.90
  -3  -8  -4    9.74    3.89
  -2  -8  -4    7.05    3.46
  -1  -8  -4   41.56    6.08
   0  -8  -4  175.39   11.52
   1  -8  -4   22.22    4.13
   2  -8  -4   17.39    3.55
   3  -8  -4   30.19    3.70
   4  -8  -4   30.29    3.57
   5  -8  -4  114.69    9.39
   6  -8  -4    0.69    1.46
   7  -8  -4    3.24    2.24
   8  -8  -4  160.12   10.85
   9  -8  -4    6.35    2.31
  10  -8  -4   33.17    5.76
  11  -8  -4   26.61    5.55
  12  -8  -4   15.66    4.81
  13  -8  -4   51.37    7.88
  -6  -7  -4    2.81    3.90
  -5  -7  -4    1.37    3.35
  -4  -7  -4  186.53   14.46
  -3  -7  -4   30.52    5.66
  -2  -7  -4   34.54    5.53
  -1  -7  -4    0.00    2.15
   0  -7  -4   16.50    3.83
   1  -7  -4   16.53    3.54
   2  -7  -4    2.82    2.05
   3  -7  -4   27.12    3.30
   4  -7  -4  155.48    7.33
   5  -7  -4   99.61    8.22
   6  -7  -4   55.57    4.84
   7  -7  -4   13.56    3.21
   8  -7  -4   28.29    3.66
   9  -7  -4   33.29    4.15
  10  -7  -4   56.71    7.10
  11  -7  -4    1.04    2.56
  12  -7  -4    0.50    3.09
  13  -7  -4   79.77    9.50
  -7  -6  -4   87.55    7.98
  -6  -6  -4   16.04    3.95
  -5  -6  -4   13.00    3.43
  -4  -6  -4   36.94    4.87
  -3  -6  -4   29.86    4.16
  -2  -6  -4    2.68    1.85
  -1  -6  -4   58.39    5.11
   0  -6  -4    7.96    1.97
   1  -6  -4  302.57   11.30
   2  -6  -4    0.69    1.24
   3  -6  -4   10.59    1.99
   4  -6  -4    9.70    1.66
   5  -6  -4   12.36    1.73
   6  -6  -4    8.02    1.86
   7  -6  -4   12.66    2.14
   8  -6  -4   23.07    3.38
   9  -6  -4   89.32    8.59
  10  -6  -4   72.40    8.17
  11  -6  -4   33.91    6.04
  12  -6  -4   17.90    4.98
  13  -6  -4    5.09    3.72
  -8  -5  -4   56.35    8.11
  -7  -5  -4    2.83    2.88
  -6  -5  -4   34.14    5.00
  -5  -5  -4   25.41    4.06
  -4  -5  -4   39.78    4.72
  -3  -5  -4  116.32    7.99
  -2  -5  -4  109.85    7.29
  -1  -5  -4   11.99    2.35
   0  -5  -4    2.47    1.43
   1  -5  -4   12.53    2.22
   2  -5  -4   35.69    2.78
   3  -5  -4   17.57    1.99
   4  -5  -4   48.37    3.31
   5  -5  -4    1.15    1.00
   6  -5  -4  304.65    9.99
   7  -5  -4    2.89    1.50
   8  -5  -4   31.90    4.77
   9  -5  -4    4.68    2.71
  10  -5  -4   29.25    5.02
  11  -5  -4   14.97    4.42
  12  -5  -4    3.77    3.41
  13  -5  -4    5.05    4.42
  -9  -4  -4    3.55    3.93
  -8  -4  -4   20.01    5.55
  -7  -4  -4   -1.13    2.28
  -6  -4  -4   63.55    6.28
  -5  -4  -4    3.28    2.11
  -4  -4  -4   22.63    3.40
  -3  -4  -4  152.86    8.02
  -2  -4  -4    7.63    2.07
  -1  -4  -4   40.95    4.77
   0  -4  -4   34.33    3.10
   1  -4  -4   58.57    4.06
   2  -4  -4  161.63    6.67
   3  -4  -4  347.47   14.33
   4  -4  -4   38.84    3.40
   5  -4  -4   10.93    1.71
   6  -4  -4    3.02    1.41
   7  -4  -4   28.53    4.32
   8  -4  -4   20.90    4.03
   9  -4  -4   47.94    6.19
  10  -4  -4   25.34    4.97
  11  -4  -4  191.57   13.26
  12  -4  -4   15.85    4.74
  13  -4  -4    3.01    4.45
 -10  -3  -4   -0.07    3.95
  -9  -3  -4   -1.00    3.55
  -8  -3  -4   24.52    4.37
  -7  -3  -4   67.41    6.41
  -6  -3  -4   92.92    7.36
  -5  -3  -4   30.55    4.01
  -4  -3  -4   37.15    4.94
  -3  -3  -4   12.14    2.77
  -2  -3  -4   11.14    2.01
  -1  -3  -4  336.17   11.80
   0  -3  -4   32.39    2.94
   1  -3  -4    2.81    1.19
   2  -3  -4  152.16    7.87
   3  -3  -4   32.38    5.04
   4  -3  -4   55.70    4.00
   5  -3  -4   32.77    3.13
   6  -3  -4   11.64    2.77
   7  -3  -4  171.32   10.47
   8  -3  -4  132.94   10.31
   9  -3  -4   27.98    4.83
  10  -3  -4   26.31    5.06
  11  -3  -4    8.05    3.85
  12  -3  -4   20.83    6.85
 -10  -2  -4   91.03   10.35
  -9  -2  -4   13.10    4.59
  -8  -2  -4   24.06    3.93
  -7  -2  -4   16.82    3.34
  -6  -2  -4   17.47    3.69
  -5  -2  -4    4.11    2.16
  -4  -2  -4    3.32    1.50
  -3  -2  -4   29.31    3.14
  -2  -2  -4  159.56    6.89
  -1  -2  -4  157.90    6.56
   0  -2  -4   37.85    3.90
   1  -2  -4   72.55    5.61
   2  -2  -4   39.68    4.00
   3  -2  -4    5.49    1.72
   4  -2  -4  158.61    6.61
   5  -2  -4   13.90    2.77
   6  -2  -4    6.58    2.38
   7  -2  -4  104.88    7.78
   8  -2  -4    2.92    2.25
   9  -2  -4   31.94    5.32
  10  -2  -4    4.26    3.22
  11  -2  -4   25.90    8.09
  12  -2  -4   95.85   15.47
 -11  -1  -4    2.16    6.12
 -10  -1  -4    9.58    4.32
  -9  -1  -4   19.89    4.58
  -8  -1  -4    7.45    3.26
  -7  -1  -4   18.70    4.14
  -6  -1  -4   12.05    2.67
  -5  -1  -4  290.22   11.37
  -4  -1  -4    8.41    2.00
  -3  -1  -4   52.52    4.20
  -2  -1  -4    1.59    1.15
  -1  -1  -4   67.40    5.50
   0  -1  -4   21.75    2.25
   1  -1  -4   22.67    2.68
   2  -1  -4   70.83    3.78
   3  -1  -4  163.40    7.79
   4  -1  -4  356.64   14.55
   5  -1  -4   58.78    5.48
   6  -1  -4   12.08    2.71
   7  -1  -4   64.17    6.57
   8  -1  -4    4.68    2.58
   9  -1  -4   70.39   11.75
  10  -1  -4    1.33    4.25
  11  -1  -4    3.96    5.05
  12  -1  -4   79.20   13.84
 -11   0  -4    9.00    6.43
 -10   0  -4   11.36    4.12
  -9   0  -4   76.27    8.27
  -8   0  -4  162.75    8.80
  -7   0  -4   16.47    3.16
  -6   0  -4   10.36    2.27
  -5   0  -4    0.66    1.46
  -4   0  -4   34.29    3.48
  -3   0  -4   30.11    2.94
  -2   0  -4   44.04    4.46
  -1   0  -4   21.00    1.93
   0   0  -4  938.74   28.49
   1   0  -4   19.59    2.61
   2   0  -4   35.65    2.82
   3   0  -4   43.57    3.83
   4   0  -4   43.56    4.31
   5   0  -4    2.02    1.54
   6   0  -4   11.20    4.60
   7   0  -4   11.35    4.81
   8   0  -4  149.51   17.46
   9   0  -4   59.57   11.42
  10   0  -4    9.90    5.95
  11   0  -4   -0.60    4.31
 -12   1  -4   79.47   14.25
 -11   1  -4   -1.61    4.28
 -10   1  -4    9.77    3.70
  -9   1  -4   47.64    5.28
  -8   1  -4   -0.89    1.66
  -7   1  -4   54.84    5.03
  -6   1  -4   10.80    2.26
  -5   1  -4   46.49    4.15
  -4   1  -4  330.30   12.07
  -3   1  -4  161.49    8.44
  -2   1  -4   67.20    5.71
  -1   1  -4   24.64    2.09
   0   1  -4   21.34    2.64
   1   1  -4   64.23    5.13
   2   1  -4    2.19    1.54
   3   1  -4   54.47    5.32
   4   1  -4   13.37    4.10
   5   1  -4  298.40   20.31
   6   1  -4   12.30    5.09
   7   1  -4   34.84    7.66
   8   1  -4    5.66    4.43
   9   1  -4   10.17    4.98
  10   1  -4    4.67    5.85
  11   1  -4    1.08    5.07
 -12   2  -4   91.13   15.29
 -11   2  -4   14.52    4.81
 -10   2  -4    6.24    2.77
  -9   2  -4   43.27    4.76
  -8   2  -4    2.65    1.89
  -7   2  -4  112.94    6.74
  -6   2  -4   12.36    2.42
  -5   2  -4   14.23    2.38
  -4   2  -4  149.69    8.81
  -3   2  -4    2.24    1.61
  -2   2  -4   38.74    4.11
  -1   2  -4   72.29    3.80
   0   2  -4   42.58    3.81
   1   2  -4  167.08    8.13
   2   2  -4  155.31    8.57
   3   2  -4   32.84    4.30
   4   2  -4    1.70    1.68
   5   2  -4    1.13    2.53
   6   2  -4   10.70    4.78
   7   2  -4   44.34    9.23
   8   2  -4   18.44    6.25
   9   2  -4   24.05    7.57
  10   2  -4  123.23   17.80
 -13   3  -4   -2.32    6.02
 -12   3  -4   19.37    5.50
 -11   3  -4    9.05    3.85
 -10   3  -4   27.48    5.19
  -9   3  -4   22.06    3.60
  -8   3  -4  135.27    7.54
  -7   3  -4  174.46    7.77
  -6   3  -4    8.57    2.00
  -5   3  -4   32.07    4.21
  -4   3  -4   58.32    5.80
  -3   3  -4   32.99    4.02
  -2   3  -4  154.99    8.31
  -1   3  -4    1.49    1.11
   0   3  -4   36.80    3.77
   1   3  -4  343.63   14.55
   2   3  -4   12.20    2.44
   3   3  -4   11.70    2.66
   4   3  -4   35.42    4.80
   5   3  -4   33.30    4.95
   6   3  -4  117.71   14.42
   7   3  -4   48.81    9.87
   8   3  -4   19.55    6.89
   9   3  -4    9.51    6.38
 -13   4  -4    8.96    4.61
 -12   4  -4   15.97    5.03
 -11   4  -4  172.78   13.93
 -10   4  -4   35.82    5.85
  -9   4  -4   64.38    5.60
  -8   4  -4   43.42    4.24
  -7   4  -4   37.74    3.93
  -6   4  -4    1.48    1.84
  -5   4  -4   12.58    2.90
  -4   4  -4   29.98    4.04
  -3   4  -4  325.00   14.86
  -2   4  -4  149.75    8.56
  -1   4  -4   63.92    4.59
   0   4  -4   35.00    3.89
   1   4  -4   46.26    4.75
   2   4  -4    8.47    2.52
   3   4  -4  151.90    9.10
   4   4  -4   26.29    4.36
   5   4  -4    4.54    2.57
   6   4  -4   71.77    7.75
   7   4  -4   -0.64    2.34
   8   4  -4   16.95    4.82
   9   4  -4    2.13    3.88
 -13   5  -4   15.51    5.29
 -12   5  -4    3.62    3.73
 -11   5  -4   21.39    5.13
 -10   5  -4   19.70    4.75
  -9   5  -4    7.18    2.95
  -8   5  -4   21.52    3.22
  -7   5  -4    2.99    2.25
  -6   5  -4  311.62   14.32
  -5   5  -4   -0.14    1.56
  -4   5  -4   49.89    5.22
  -3   5  -4   17.84    3.14
  -2   5  -4   30.35    4.06
  -1   5  -4   12.98    2.45
   0   5  -4    3.12    1.67
   1   5  -4   10.54    2.73
   2   5  -4  110.67    8.40
   3   5  -4  122.56    9.56
   4   5  -4   51.63    6.31
   5   5  -4   30.35    5.26
   6   5  -4   26.16    5.22
   7   5  -4   -1.40    2.42
   8   5  -4   44.76   11.18
 -13   6  -4   15.26    5.23
 -12   6  -4    5.76    4.20
 -11   6  -4   25.52    5.58
 -10   6  -4   64.18    8.05
  -9   6  -4   74.29    7.86
  -8   6  -4    9.93    2.34
  -7   6  -4   15.53    3.39
  -6   6  -4    9.75    2.70
  -5   6  -4   11.03    2.74
  -4   6  -4    9.97    2.62
  -3   6  -4   15.04    2.94
  -2   6  -4   -0.16    1.80
  -1   6  -4  303.23   13.54
   0   6  -4    8.72    2.41
   1   6  -4   67.71    6.32
   2   6  -4    3.88    2.16
   3   6  -4   35.93    5.02
   4   6  -4   37.84    5.29
   5   6  -4   20.76    4.70
   6   6  -4   28.43    8.83
   7   6  -4   71.32   13.99
 -13   7  -4   74.71    9.97
 -12   7  -4   -0.31    3.25
 -11   7  -4    3.42    3.46
 -10   7  -4   59.63    7.65
  -9   7  -4   37.84    5.79
  -8   7  -4   29.64    4.95
  -7   7  -4   17.23    3.71
  -6   7  -4   55.49    6.10
  -5   7  -4  117.88    8.89
  -4   7  -4  154.50    9.03
  -3   7  -4   37.79    4.56
  -2   7  -4    0.05    1.70
  -1   7  -4    9.75    2.60
   0   7  -4   18.36    3.49
   1   7  -4    0.69    2.12
   2   7  -4   44.93    5.67
   3   7  -4   31.51    5.09
   4   7  -4  205.65   12.24
   5   7  -4    4.24    4.35
   6   7  -4    5.41    5.37
 -13   8  -4   51.20   11.72
 -12   8  -4   35.84   10.13
 -11   8  -4    8.99    6.11
 -10   8  -4   42.10    7.38
  -9   8  -4    7.35    3.04
  -8   8  -4  160.11   10.80
  -7   8  -4    2.74    2.26
  -6   8  -4    0.54    1.98
  -5   8  -4  120.05    8.51
  -4   8  -4   28.84    4.23
  -3   8  -4   27.60    4.32
  -2   8  -4   20.77    3.98
  -1   8  -4   22.64    4.11
   0   8  -4  170.48    9.93
   1   8  -4   36.94    5.35
   2   8  -4    7.58    3.16
   3   8  -4    6.55    5.36
   4   8  -4    7.31    5.28
   5   8  -4   16.49    7.31
 -13   9  -4   11.60    7.11
 -12   9  -4    1.23    5.02
 -11   9  -4    6.04    6.12
 -10   9  -4   21.22    7.71
  -9   9  -4   61.25   11.56
  -8   9  -4   45.75    9.19
  -7   9  -4   35.67    8.02
  -6   9  -4   17.74    6.10
  -5   9  -4   53.63    9.47
  -4   9  -4    7.89    4.48
  -3   9  -4  112.94   13.68
  -2   9  -4   29.89    6.96
  -1   9  -4    6.15    2.90
   0   9  -4   53.53    6.77
   1   9  -4    8.30    4.79
   2   9  -4   23.62    8.03
   3   9  -4   23.87    8.25
   4   9  -4   13.74    6.85
 -12  10  -4   68.27   14.32
 -11  10  -4   -3.17    4.80
 -10  10  -4    7.67    5.60
  -9  10  -4   12.64    5.86
  -8  10  -4   13.90    6.23
  -7  10  -4   25.10    7.03
  -6  10  -4   27.08    7.10
  -5  10  -4   28.23    7.45
  -4  10  -4   73.84   11.35
  -3  10  -4   65.46   10.48
  -2  10  -4   18.22    6.29
  -1  10  -4   11.91    5.20
   0  10  -4   11.19    5.71
   1  10  -4   -1.36    4.16
   2  10  -4   74.34   13.35
   3  10  -4    5.07    5.78
 -12  11  -4   -0.36    6.18
 -11  11  -4    2.23    5.84
 -10  11  -4   -2.40    3.92
  -9  11  -4   21.36    7.75
  -8  11  -4    7.49    5.32
  -7  11  -4  189.83   20.48
  -6  11  -4   14.30    6.26
  -5  11  -4   34.84    8.83
  -4  11  -4    1.99    4.59
  -1  11  -4   -0.52    3.82
   0  11  -4    7.88    5.75
   1  11  -4   77.25   13.14
 -11  12  -4   41.06   11.51
 -10  12  -4   91.20   14.68
  -9  12  -4   23.26    8.58
  -8  12  -4    7.13    6.37
  -7  12  -4    5.76    5.59
  -6  12  -4   22.50    8.59
   0  12  -4    2.24    5.17
 -10  13  -4    7.93    7.12
  -9  13  -4   13.17    7.05
  -8  13  -4    8.21    6.99
   4 -14  -3   33.08   12.14
   5 -14  -3   11.52    4.57
   6 -14  -3    3.72    3.62
   7 -14  -3   29.06    4.97
   8 -14  -3    1.11    2.92
   9 -14  -3   -1.03    3.33
   1 -13  -3   12.39    4.99
   2 -13  -3    5.71    3.94
   3 -13  -3   32.63    6.58
   4 -13  -3   36.17    6.53
   5 -13  -3    0.65    3.05
   6 -13  -3   -0.09    3.09
   7 -13  -3   61.34    6.72
   8 -13  -3   23.31    4.30
   9 -13  -3   53.75    7.82
  10 -13  -3    5.14    3.74
  11 -13  -3    1.66    3.52
  12 -13  -3    1.40    5.36
  -1 -12  -3   11.79    5.15
   0 -12  -3   54.95    6.68
   1 -12  -3   28.27    4.87
   2 -12  -3   10.28    3.25
   3 -12  -3    2.48    2.98
   4 -12  -3  116.32   10.87
   5 -12  -3   -2.22    2.38
   6 -12  -3   21.39    4.78
   7 -12  -3   21.31    3.96
   8 -12  -3    1.01    2.43
   9 -12  -3   31.49    5.52
  10 -12  -3    6.09    3.73
  11 -12  -3    9.88    4.58
  12 -12  -3   57.46    6.76
  13 -12  -3    9.74    6.87
  -2 -11  -3    4.14    3.26
  -1 -11  -3    5.86    3.18
   0 -11  -3   30.77    4.82
   1 -11  -3    5.33    2.86
   2 -11  -3   23.75    4.18
   3 -11  -3   16.09    4.10
   4 -11  -3   36.45    6.04
   5 -11  -3   82.09    8.87
   6 -11  -3   23.42    4.75
   7 -11  -3    3.40    2.14
   8 -11  -3   15.96    3.36
   9 -11  -3   84.97    8.86
  10 -11  -3    6.69    3.80
  11 -11  -3   29.17    5.94
  12 -11  -3   34.81    5.07
  13 -11  -3   10.04    3.84
  -4 -10  -3    5.86    6.83
  -3 -10  -3   10.75    3.78
  -2 -10  -3    0.23    2.61
  -1 -10  -3    9.39    3.01
   0 -10  -3  125.81    8.84
   1 -10  -3   29.42    4.03
   2 -10  -3  125.34    8.69
   3 -10  -3    4.69    2.24
   4 -10  -3    2.49    2.22
   5 -10  -3    8.47    3.12
   6 -10  -3   15.34    3.51
   7 -10  -3    7.11    2.23
   8 -10  -3   38.67    5.85
   9 -10  -3    0.37    2.21
  10 -10  -3  150.89   11.89
  11 -10  -3    9.38    2.99
  12 -10  -3   12.64    3.58
  13 -10  -3   24.82    5.67
  -5  -9  -3    0.23    4.03
  -4  -9  -3   58.82    8.36
  -3  -9  -3   28.37    6.05
  -2  -9  -3   71.75    8.58
  -1  -9  -3    2.92    2.75
   0  -9  -3    5.37    2.90
   1  -9  -3   53.31    5.32
   2  -9  -3   13.92    2.81
   3  -9  -3    1.99    1.63
   4  -9  -3    6.76    2.16
   5  -9  -3  233.21   12.34
   6  -9  -3   40.91    5.40
   7  -9  -3  110.25    7.49
   8  -9  -3    2.55    2.51
   9  -9  -3    3.52    2.64
  10  -9  -3   22.21    4.52
  11  -9  -3   36.64    4.84
  12  -9  -3    2.25    2.88
  13  -9  -3   23.10    5.40
  14  -9  -3    7.65    4.55
  -6  -8  -3    0.70    5.55
  -5  -8  -3   19.95    5.10
  -4  -8  -3   10.22    4.10
  -3  -8  -3    4.76    3.01
  -2  -8  -3   24.89    5.06
  -1  -8  -3    3.32    2.64
   0  -8  -3    6.40    2.61
   1  -8  -3  165.81   10.37
   2  -8  -3   70.73    5.70
   3  -8  -3  195.98    8.81
   4  -8  -3   65.41    5.20
   5  -8  -3   15.18    3.32
   6  -8  -3    3.44    1.62
   7  -8  -3   25.35    3.31
   8  -8  -3    6.03    2.56
   9  -8  -3   62.12    6.75
  10  -8  -3  138.59    8.96
  11  -8  -3   23.56    3.61
  12  -8  -3  101.61   10.37
  13  -8  -3    1.97    3.07
  14  -8  -3   11.04    5.12
  -7  -7  -3   18.54    8.22
  -6  -7  -3   59.21    8.08
  -5  -7  -3   16.47    4.40
  -4  -7  -3    3.11    2.79
  -3  -7  -3    6.17    3.02
  -2  -7  -3  109.26    9.75
  -1  -7  -3   20.41    4.17
   0  -7  -3  100.47    8.56
   1  -7  -3   84.65    7.58
   2  -7  -3   11.75    2.91
   3  -7  -3  109.63    6.29
   4  -7  -3   18.85    2.59
   5  -7  -3    8.69    1.88
   6  -7  -3  239.92    9.87
   7  -7  -3  107.82    6.23
   8  -7  -3  176.39   10.15
   9  -7  -3   19.02    3.01
  10  -7  -3    1.32    1.71
  11  -7  -3   44.05    6.64
  12  -7  -3   -0.58    2.69
  13  -7  -3    0.85    3.22
  14  -7  -3   23.22    6.07
  -8  -6  -3   21.81    6.00
  -7  -6  -3    1.11    3.73
  -6  -6  -3   13.87    3.29
  -5  -6  -3   22.20    3.91
  -4  -6  -3   21.21    3.23
  -3  -6  -3   29.65    4.01
  -2  -6  -3    7.39    2.12
  -1  -6  -3  251.72   10.21
   0  -6  -3   51.73    4.23
   1  -6  -3   26.57    2.86
   2  -6  -3   48.38    3.85
   3  -6  -3  236.00    7.63
   4  -6  -3   65.49    3.52
   5  -6  -3   48.67    3.74
   6  -6  -3   50.21    4.10
   7  -6  -3   86.43    7.19
   8  -6  -3   70.21    5.57
   9  -6  -3    1.28    1.50
  10  -6  -3    2.21    2.43
  11  -6  -3   70.77    8.42
  12  -6  -3   12.26    4.17
  13  -6  -3   65.58    8.58
  14  -6  -3    5.86    4.19
  -9  -5  -3   18.02    5.42
  -8  -5  -3   -1.91    3.19
  -7  -5  -3    3.06    2.73
  -6  -5  -3   99.31    8.01
  -5  -5  -3   15.92    3.28
  -4  -5  -3  237.34   10.47
  -3  -5  -3   18.73    3.17
  -2  -5  -3   13.97    2.65
  -1  -5  -3   51.86    4.30
   0  -5  -3  142.83    6.35
   1  -5  -3   16.19    1.63
   2  -5  -3   91.24    3.70
   3  -5  -3   53.16    3.67
   4  -5  -3  281.42    9.78
   5  -5  -3  138.57    5.15
   6  -5  -3   30.43    2.52
   7  -5  -3   15.84    2.41
   8  -5  -3  193.70    8.59
   9  -5  -3    2.20    2.11
  10  -5  -3   12.84    3.63
  11  -5  -3   22.34    5.02
  12  -5  -3   14.37    4.46
  13  -5  -3   27.57    5.83
  14  -5  -3   -0.02    3.75
 -10  -4  -3   32.42    7.09
  -9  -4  -3   23.17    5.81
  -8  -4  -3   98.60   10.34
  -7  -4  -3   52.72    5.78
  -6  -4  -3    1.87    2.09
  -5  -4  -3    3.51    2.06
  -4  -4  -3   55.36    5.19
  -3  -4  -3   23.25    3.10
  -2  -4  -3   60.64    4.75
  -1  -4  -3  270.58    8.41
   0  -4  -3  128.01    4.70
   1  -4  -3  387.86   10.76
   2  -4  -3   12.37    1.74
   3  -4  -3   34.19    3.47
   4  -4  -3  130.76    5.64
   5  -4  -3   16.91    2.07
   6  -4  -3   51.67    3.28
   7  -4  -3  109.44    6.17
   8  -4  -3   58.43    6.45
   9  -4  -3  223.94   12.59
  10  -4  -3   12.64    3.66
  11  -4  -3    3.64    2.82
  12  -4  -3   11.81    4.20
  13  -4  -3   51.93    7.96
  14  -4  -3   14.90    8.51
 -11  -3  -3   39.01   10.91
 -10  -3  -3   29.72    6.58
  -9  -3  -3    1.11    3.08
  -8  -3  -3   43.43    6.59
  -7  -3  -3    5.35    2.44
  -6  -3  -3    0.98    1.77
  -5  -3  -3  199.85    9.22
  -4  -3  -3  113.97    7.26
  -3  -3  -3  218.59    8.84
  -2  -3  -3   53.01    3.50
  -1  -3  -3   33.16    2.71
   0  -3  -3   79.27    3.99
   1  -3  -3   30.06    2.50
   4  -3  -3  385.90   12.58
   5  -3  -3   88.55    3.75
   6  -3  -3  220.08    8.80
   7  -3  -3   14.93    2.49
   8  -3  -3   12.35    2.90
   9  -3  -3   34.91    5.11
  10  -3  -3   11.08    3.58
  11  -3  -3   16.84    4.72
  12  -3  -3   22.19    4.99
  13  -3  -3    2.81    3.96
  14  -3  -3   53.57   13.22
 -11  -2  -3    7.26    4.62
 -10  -2  -3   21.49    5.34
  -9  -2  -3   15.47    4.78
  -8  -2  -3  148.51    9.40
  -7  -2  -3   11.62    2.80
  -6  -2  -3   68.91    7.39
  -5  -2  -3   13.85    2.38
  -4  -2  -3   58.13    4.47
  -3  -2  -3   89.34    4.96
  -2  -2  -3   11.74    1.71
  -1  -2  -3   78.69    4.00
   0  -2  -3  320.14   10.62
   1  -2  -3   79.82    4.44
   3  -2  -3   30.78    3.18
   4  -2  -3   15.30    1.80
   5  -2  -3   54.11    3.45
   6  -2  -3   62.43    4.05
   7  -2  -3    9.31    2.62
   8  -2  -3    3.34    1.97
   9  -2  -3  120.88   10.02
  10  -2  -3   27.41    5.12
  11  -2  -3   93.11    9.69
  12  -2  -3   -0.66    3.35
  13  -2  -3    2.37    4.32
 -11  -1  -3   30.05    9.51
 -10  -1  -3    6.54    3.71
  -9  -1  -3   20.79    4.93
  -8  -1  -3   55.88    5.26
  -7  -1  -3  202.75    8.86
  -6  -1  -3   83.86    6.04
  -5  -1  -3   28.40    3.15
  -4  -1  -3   20.62    2.53
  -3  -1  -3  357.90   12.54
  -2  -1  -3   26.74    2.54
  -1  -1  -3   73.78    4.38
   0  -1  -3   58.22    4.03
   1  -1  -3   56.93    3.75
   2  -1  -3   76.33    4.18
   3  -1  -3   88.27    4.86
   4  -1  -3   35.74    2.60
   5  -1  -3  275.13    9.74
   6  -1  -3   49.05    4.95
   7  -1  -3  235.25   12.58
   8  -1  -3   22.47    4.32
   9  -1  -3    1.62    2.24
  10  -1  -3    2.73    2.86
  11  -1  -3    8.93    4.02
  12  -1  -3   12.64    4.84
 -12   0  -3   64.76   13.03
 -11   0  -3   16.70    8.02
 -10   0  -3  141.91   11.94
  -9   0  -3    3.31    2.26
  -8   0  -3    5.34    2.17
  -7   0  -3   84.97    6.35
  -6   0  -3   54.66    4.61
  -5   0  -3  130.42    6.30
  -4   0  -3  124.56    5.77
  -3   0  -3   84.98    4.36
  -2   0  -3  314.96   13.25
  -1   0  -3   58.77    2.80
   0   0  -3    0.48    0.70
   1   0  -3   54.56    3.78
   2   0  -3  342.59   12.76
   3   0  -3   86.31    3.62
   4   0  -3  126.05    6.86
   5   0  -3  138.55    7.86
   6   0  -3   49.04    5.54
   7   0  -3   84.94    7.75
   8   0  -3    6.70    2.86
   9   0  -3    0.96    2.77
  10   0  -3  145.36   12.25
  11   0  -3   28.80    6.34
  12   0  -3   55.66   12.51
 -12   1  -3   11.17    6.77
 -11   1  -3   17.54    7.10
 -10   1  -3   -0.90    2.09
  -9   1  -3    2.35    2.00
  -8   1  -3   30.16    3.77
  -7   1  -3  240.73   10.18
  -6   1  -3   45.98    4.15
  -5   1  -3  254.35   10.00
  -4   1  -3   29.90    2.87
  -3   1  -3   74.46    5.31
  -2   1  -3   72.68    4.63
  -1   1  -3   59.44    2.95
   0   1  -3   55.00    3.73
   1   1  -3   72.96    3.22
   2   1  -3   29.41    2.87
   3   1  -3  385.84   15.26
   4   1  -3   16.38    2.77
   5   1  -3   24.12    3.64
   6   1  -3   96.87    7.85
   7   1  -3  188.19   10.71
   8   1  -3   45.48    6.21
   9   1  -3   22.89    5.19
  10   1  -3    6.61    5.23
  11   1  -3   12.79    7.06
 -13   2  -3    9.79    7.13
 -12   2  -3    5.54    4.21
 -11   2  -3   87.00    9.20
 -10   2  -3   32.12    5.75
  -9   2  -3  111.79    7.77
  -8   2  -3    9.89    2.37
  -7   2  -3   13.56    2.49
  -6   2  -3   68.33    4.84
  -5   2  -3   60.11    4.20
  -4   2  -3   11.08    2.21
  -3   2  -3   26.54    3.40
  -2   2  -3  308.73   13.31
  -1   2  -3   73.01    3.97
   0   2  -3  324.47   12.87
   1   2  -3   74.13    4.83
   2   2  -3   10.92    1.49
   3   2  -3   94.26    5.62
   4   2  -3   50.72    4.91
   5   2  -3   14.62    2.93
   6   2  -3   81.29    7.55
   7   2  -3   14.15    3.67
   8   2  -3  124.83   16.15
   9   2  -3   25.54    8.14
  10   2  -3   16.54    7.41
  11   2  -3   11.84    7.02
 -13   3  -3    3.07    3.83
 -12   3  -3   16.73    5.06
 -11   3  -3    7.83    3.62
 -10   3  -3   14.30    4.08
  -9   3  -3   31.69    3.91
  -8   3  -3   10.40    2.38
  -7   3  -3   22.75    2.64
  -6   3  -3  281.03    9.58
  -5   3  -3  104.73    6.13
  -4   3  -3  379.83   15.77
  -3   3  -3   79.38    5.50
  -2   3  -3   83.14    3.71
  -1   3  -3   28.03    2.89
   0   3  -3   86.70    4.95
   1   3  -3   30.79    3.46
   2   3  -3   48.60    3.12
   3   3  -3  229.54    8.76
   4   3  -3  117.70    7.52
   5   3  -3  204.44   16.11
   6   3  -3   -1.50    2.51
   7   3  -3    7.48    4.38
   8   3  -3   20.15    6.85
   9   3  -3    3.46    4.62
  10   3  -3   16.65    7.35
 -14   4  -3    5.74    5.00
 -13   4  -3   52.88    7.88
 -12   4  -3    3.93    3.82
 -11   4  -3    2.16    2.91
 -10   4  -3   18.10    4.58
  -9   4  -3  247.50   13.13
  -8   4  -3   68.64    5.19
  -7   4  -3  121.79    6.08
  -6   4  -3   52.86    5.46
  -5   4  -3   10.72    2.41
  -4   4  -3  130.70    5.19
  -3   4  -3   29.68    2.40
  -2   4  -3    9.20    1.45
  -1   4  -3  368.67   15.11
   0   4  -3  123.24    6.77
   1   4  -3  265.54   12.22
   2   4  -3   56.78    5.45
   3   4  -3   19.60    3.31
   4   4  -3   66.49    6.56
   5   4  -3    7.25    3.97
   6   4  -3    5.82    4.04
   7   4  -3   42.28    9.60
   8   4  -3   90.56   14.54
   9   4  -3   33.72    9.54
 -14   5  -3    0.66    3.94
 -13   5  -3   15.90    5.09
 -12   5  -3   14.41    4.82
 -11   5  -3   25.27    5.31
 -10   5  -3    7.42    3.33
  -9   5  -3    7.20    2.87
  -8   5  -3  208.12    8.78
  -7   5  -3   11.41    2.80
  -6   5  -3   22.30    3.65
  -5   5  -3  144.35    7.88
  -4   5  -3  255.62    9.45
  -3   5  -3   54.82    3.67
  -2   5  -3   85.24    5.56
  -1   5  -3   15.05    2.44
   0   5  -3  136.49    7.43
   1   5  -3   45.74    4.73
   2   5  -3   13.62    2.84
   3   5  -3   11.39    2.76
   4   5  -3  241.78   12.38
   5   5  -3    9.61    3.03
   6   5  -3   93.95    9.10
   7   5  -3   -1.63    4.29
   8   5  -3   -4.45    4.11
   9   5  -3   10.96    7.04
 -14   6  -3    0.80    4.41
 -13   6  -3   72.37    9.11
 -12   6  -3   18.36    4.73
 -11   6  -3  110.83   10.40
 -10   6  -3    7.49    3.18
  -9   6  -3   -0.34    1.94
  -8   6  -3   66.49    7.15
  -7   6  -3   87.49    7.56
  -6   6  -3   49.77    5.26
  -5   6  -3   46.29    4.03
  -4   6  -3   64.76    3.98
  -3   6  -3  239.11    8.77
  -2   6  -3   49.33    4.82
  -1   6  -3   24.94    3.45
   0   6  -3   45.77    4.87
   1   6  -3  244.03   12.00
   2   6  -3    6.79    2.34
   3   6  -3   29.77    4.37
   4   6  -3   19.30    3.93
   5   6  -3   21.80    4.49
   6   6  -3   15.89    6.53
   7   6  -3    2.29    5.04
   8   6  -3   16.19    8.08
 -14   7  -3   16.12    8.08
 -13   7  -3    6.16    4.38
 -12   7  -3   -0.53    3.12
 -11   7  -3   31.62    5.79
 -10   7  -3   10.25    3.50
  -9   7  -3   16.35    3.51
  -8   7  -3  186.93   11.03
  -7   7  -3   94.18    7.94
  -6   7  -3  255.73   12.11
  -5   7  -3    5.15    1.55
  -4   7  -3   17.71    2.35
  -3   7  -3  108.02    5.59
  -2   7  -3    8.18    2.24
  -1   7  -3   88.56    7.02
   0   7  -3  109.84    7.26
   1   7  -3   25.91    4.11
   2   7  -3  120.67    8.42
   3   7  -3    4.47    2.52
   4   7  -3   -0.66    3.69
   5   7  -3    9.66    5.80
   6   7  -3   77.26   13.68
   7   7  -3   16.74    8.04
 -14   8  -3    2.85    5.69
 -13   8  -3   -1.69    4.92
 -12   8  -3   89.18   14.88
 -11   8  -3   30.54    8.71
 -10   8  -3  133.72   17.83
  -9   8  -3   42.27    9.66
  -8   8  -3    8.69    3.38
  -7   8  -3   28.10    4.25
  -6   8  -3    5.52    2.31
  -5   8  -3   15.77    2.42
  -4   8  -3   69.77    4.79
  -3   8  -3  204.93    8.34
  -2   8  -3   58.54    5.90
  -1   8  -3  179.49   10.00
   0   8  -3    5.92    2.37
   1   8  -3    2.86    2.03
   2   8  -3   40.39    8.32
   3   8  -3   13.53    5.96
   4   8  -3    4.76    5.20
   5   8  -3   22.35    8.04
   6   8  -3    4.41    5.97
 -14   9  -3    5.14    5.83
 -13   9  -3   15.73    7.59
 -12   9  -3    5.73    5.68
 -11   9  -3   39.35   10.08
 -10   9  -3   14.76    6.79
  -9   9  -3    2.93    4.02
  -8   9  -3    1.28    3.63
  -7   9  -3  103.28   13.23
  -6   9  -3   44.64    8.24
  -5   9  -3  236.12   11.73
  -4   9  -3    1.37    1.83
  -3   9  -3    1.66    1.85
  -2   9  -3   18.01    3.74
  -1   9  -3   49.88    5.82
   0   9  -3    4.23    4.11
   1   9  -3   -0.11    3.27
   2   9  -3  107.08   14.73
   3   9  -3   20.65    7.15
   4   9  -3   53.51   11.60
   5   9  -3    2.76    5.43
 -13  10  -3   37.66   10.87
 -12  10  -3   12.85    7.36
 -11  10  -3    5.35    5.96
 -10  10  -3  117.08   16.89
  -9  10  -3    6.67    4.90
  -8  10  -3   20.21    6.53
  -7  10  -3   14.52    5.80
  -6  10  -3   19.50    6.05
  -5  10  -3   14.96    3.52
  -4  10  -3    5.29    2.54
  -3  10  -3    8.05    2.94
  -2  10  -3  131.27   14.56
  -1  10  -3   27.87    7.06
   0  10  -3  130.60   15.74
   1  10  -3   13.77    6.23
   2  10  -3    4.58    5.52
   3  10  -3    6.68    6.27
   4  10  -3   11.50    9.02
 -13  11  -3    4.76    5.97
 -12  11  -3   34.99   10.83
 -11  11  -3   15.42    7.59
 -10  11  -3   23.44    8.33
  -9  11  -3   87.36   13.73
  -8  11  -3    6.13    4.66
  -7  11  -3    5.77    4.96
  -6  11  -3   25.67    7.30
  -5  11  -3   79.83    8.01
  -4  11  -3   36.06    7.69
  -3  11  -3   17.20    5.70
  -2  11  -3   39.18    8.04
  -1  11  -3    7.65    4.50
   0  11  -3   31.12    8.48
   1  11  -3    8.80    6.04
   2  11  -3    9.29    6.89
 -13  12  -3   13.76   10.70
 -12  12  -3   59.33   13.17
 -11  12  -3    3.82    6.19
 -10  12  -3    3.76    5.75
  -9  12  -3   13.44    7.42
  -8  12  -3    1.76    4.99
  -7  12  -3   19.76    7.53
  -4  12  -3   95.25   12.80
  -3  12  -3    5.70    4.54
  -2  12  -3   28.11    7.84
  -1  12  -3   30.61    8.66
   0  12  -3   69.64   11.87
   1  12  -3   13.58    6.88
 -12  13  -3    4.29    7.36
 -11  13  -3   -5.30    6.01
 -10  13  -3    6.85    6.53
  -9  13  -3   57.10   12.65
  -4  13  -3   29.57    7.66
  -3  13  -3   31.45    8.43
  -2  13  -3   11.50    5.95
  -1  13  -3   17.25    7.93
  -3  14  -3   30.32    8.90
   7 -15  -2   38.72    7.37
   8 -15  -2   27.47    6.10
   9 -15  -2   17.25    8.41
   2 -14  -2   21.93    8.00
   3 -14  -2   36.58    6.93
   4 -14  -2    1.85    3.70
   5 -14  -2    4.07    3.74
   6 -14  -2   50.38    7.83
   7 -14  -2    3.38    2.76
   8 -14  -2    5.40    3.06
   9 -14  -2   56.32    6.41
  10 -14  -2    9.03    3.91
  11 -14  -2   43.51    7.19
   0 -13  -2    7.86    6.56
   1 -13  -2    8.29    3.62
   2 -13  -2   17.48    5.23
   3 -13  -2    5.01    3.68
   4 -13  -2   24.66    5.61
   5 -13  -2   64.29    8.52
   6 -13  -2   47.72    7.24
   7 -13  -2   59.91    6.30
   8 -13  -2   22.00    4.02
   9 -13  -2   39.72    5.32
  10 -13  -2    7.34    3.81
  11 -13  -2   35.79    6.43
  12 -13  -2    0.63    3.48
  13 -13  -2   11.02    7.10
  -1 -12  -2    1.71    4.27
   0 -12  -2   12.93    3.94
   1 -12  -2    6.39    3.09
   2 -12  -2  110.53    8.71
   3 -12  -2    1.32    3.10
   4 -12  -2   24.14    5.10
   5 -12  -2    4.62    3.60
   6 -12  -2   38.78    6.43
   7 -12  -2    3.48    2.29
   8 -12  -2    2.88    2.33
   9 -12  -2   22.65    4.85
  10 -12  -2   13.59    4.22
  11 -12  -2   83.87    9.36
  12 -12  -2   12.42    4.59
  13 -12  -2   11.14    3.39
  14 -12  -2   19.57    8.17
  -3 -11  -2   44.76    7.61
  -2 -11  -2   32.28    6.83
  -1 -11  -2   75.88    7.53
   0 -11  -2   17.08    3.83
   1 -11  -2    1.82    2.31
   2 -11  -2    0.52    2.04
   3 -11  -2   40.41    4.75
   4 -11  -2   65.24    7.34
   5 -11  -2   58.26    7.33
   6 -11  -2   -1.42    2.44
   7 -11  -2  303.87   13.29
   8 -11  -2    8.59    2.60
   9 -11  -2   34.78    5.80
  10 -11  -2    7.30    3.09
  11 -11  -2   12.12    3.95
  12 -11  -2    8.01    2.89
  13 -11  -2    7.48    3.34
  14 -11  -2   40.78    5.89
  -4 -10  -2   11.46    5.10
  -3 -10  -2    2.28    3.81
  -2 -10  -2    8.28    3.05
  -1 -10  -2   14.09    3.30
   0 -10  -2  108.40    8.28
   1 -10  -2   27.56    4.07
   2 -10  -2   36.07    4.46
   3 -10  -2   81.61    6.52
   4 -10  -2   68.67    7.46
   5 -10  -2   45.10    6.02
   6 -10  -2    5.55    2.59
   7 -10  -2   17.44    3.18
   8 -10  -2  113.41    7.82
   9 -10  -2   15.36    3.86
  10 -10  -2  108.87   10.09
  11 -10  -2    3.96    3.05
  12 -10  -2  104.68    8.32
  13 -10  -2    4.67    2.98
  14 -10  -2    3.70    3.83
  -5  -9  -2   51.54    8.32
  -4  -9  -2   39.59    7.16
  -3  -9  -2   26.49    5.77
  -2  -9  -2   36.08    6.49
  -1  -9  -2   14.33    3.20
   0  -9  -2   57.88    5.70
   1  -9  -2    2.53    1.81
   2  -9  -2   12.75    2.70
   3  -9  -2  170.07    8.04
   4  -9  -2   38.86    4.03
   5  -9  -2   77.14    7.33
   6  -9  -2   69.12    6.89
   7  -9  -2   68.72    5.61
   8  -9  -2   69.09    5.67
   9  -9  -2   64.02    7.03
  10  -9  -2   25.85    4.79
  11  -9  -2    0.01    1.88
  12  -9  -2    4.53    2.84
  13  -9  -2   15.52    3.87
  14  -9  -2    3.86    3.83
  -6  -8  -2   14.72    7.53
  -5  -8  -2   24.82    6.10
  -4  -8  -2    1.83    3.23
  -3  -8  -2    6.31    3.52
  -2  -8  -2   98.52    9.29
  -1  -8  -2   62.88    7.25
   0  -8  -2  110.33    9.48
   1  -8  -2   17.65    2.80
   2  -8  -2   27.49    3.41
   3  -8  -2  112.88    6.58
   4  -8  -2   42.47    3.84
   5  -8  -2   30.04    4.28
   6  -8  -2   34.69    3.66
   7  -8  -2   48.19    4.37
   8  -8  -2  108.20    8.93
   9  -8  -2    6.75    2.50
  10  -8  -2   36.56    4.31
  11  -8  -2   34.09    4.53
  12  -8  -2   30.25    4.53
  13  -8  -2   50.44    7.49
  14  -8  -2   44.02    7.46
  15  -8  -2   29.11    9.29
  -7  -7  -2    5.50    4.74
  -6  -7  -2   56.65    8.03
  -5  -7  -2    2.99    2.54
  -4  -7  -2  332.40   13.83
  -3  -7  -2   14.77    3.12
  -2  -7  -2   64.17    5.55
  -1  -7  -2   52.04    4.59
   0  -7  -2   79.25    7.33
   1  -7  -2   22.66    3.76
   2  -7  -2   30.45    3.31
   3  -7  -2  111.88    5.60
   4  -7  -2  133.10    6.11
   5  -7  -2  217.80    8.47
   6  -7  -2  113.13    5.91
   7  -7  -2   68.47    5.13
   8  -7  -2   18.06    3.36
   9  -7  -2    9.12    2.28
  10  -7  -2   79.05    6.23
  11  -7  -2   75.66    6.25
  12  -7  -2    0.74    2.48
  13  -7  -2   52.49    6.98
  14  -7  -2    1.71    3.33
  15  -7  -2   17.36    7.32
  -9  -6  -2   16.26    8.64
  -8  -6  -2   33.55    6.82
  -7  -6  -2   37.96    6.93
  -6  -6  -2   36.18    5.32
  -5  -6  -2   -1.37    2.03
  -4  -6  -2    4.94    2.27
  -3  -6  -2   64.39    5.39
  -2  -6  -2   37.58    3.71
  -1  -6  -2   98.78    6.05
   0  -6  -2   19.21    2.58
   1  -6  -2  319.36   11.22
   2  -6  -2    7.49    1.29
   3  -6  -2  142.40    5.05
   4  -6  -2   18.41    1.60
   5  -6  -2  169.02    5.97
   6  -6  -2   21.06    2.57
   7  -6  -2   17.30    2.34
   8  -6  -2   28.37    3.18
   9  -6  -2  158.15    8.14
  10  -6  -2   81.76    6.27
  11  -6  -2   61.99    7.64
  12  -6  -2   29.01    5.20
  13  -6  -2   44.64    7.26
  14  -6  -2   16.18    4.84
  -9  -5  -2    1.89    4.26
  -8  -5  -2   48.74    7.60
  -7  -5  -2    2.43    3.56
  -6  -5  -2   63.49    6.22
  -5  -5  -2   36.51    4.63
  -4  -5  -2   85.32    6.59
  -3  -5  -2   23.92    3.26
  -2  -5  -2  213.27    9.19
  -1  -5  -2  173.20    7.52
   0  -5  -2    5.57    1.48
   1  -5  -2   56.86    3.48
   2  -5  -2   74.65    3.85
   3  -5  -2   16.03    1.46
   4  -5  -2   56.02    3.65
   5  -5  -2    2.02    0.82
   6  -5  -2  320.18   11.08
   7  -5  -2   26.03    2.93
   8  -5  -2  114.88    6.53
   9  -5  -2   40.84    4.22
  10  -5  -2   48.25    4.71
  11  -5  -2   -0.34    2.31
  12  -5  -2    5.95    3.47
  13  -5  -2   25.30    5.55
  14  -5  -2   58.11    8.54
 -10  -4  -2    1.71    4.44
  -9  -4  -2   11.37    4.59
  -8  -4  -2   38.33    6.95
  -7  -4  -2   68.13    6.77
  -6  -4  -2   75.65    6.40
  -5  -4  -2   44.22    4.74
  -4  -4  -2   38.80    4.22
  -3  -4  -2  140.68    7.09
  -2  -4  -2   14.16    2.26
  -1  -4  -2   59.75    4.19
   0  -4  -2  112.03    5.12
   1  -4  -2  268.69    7.74
   2  -4  -2  249.70    8.52
   3  -4  -2  120.89    4.97
   4  -4  -2  120.03    4.21
   5  -4  -2   59.71    3.41
   6  -4  -2   11.66    1.48
   7  -4  -2  115.08    5.78
   8  -4  -2   32.69    3.41
   9  -4  -2   89.19    5.66
  10  -4  -2    8.06    2.92
  11  -4  -2  305.54   16.56
  12  -4  -2    6.78    3.45
  13  -4  -2   34.61    5.69
  14  -4  -2    1.74    3.68
 -11  -3  -2   62.66    9.19
 -10  -3  -2    4.30    4.12
  -9  -3  -2    6.45    3.84
  -8  -3  -2   42.75    6.86
  -7  -3  -2   80.45    6.68
  -6  -3  -2  158.23    8.52
  -5  -3  -2  112.35    6.88
  -4  -3  -2  112.83    5.07
  -3  -3  -2  155.63    5.50
  -2  -3  -2   12.12    1.49
  -1  -3  -2  121.58    4.29
   0  -3  -2   45.13    2.19
   1  -3  -2   82.60    3.64
   2  -3  -2  258.04   10.65
   3  -3  -2   50.19    3.43
   4  -3  -2  266.93    9.08
   5  -3  -2   73.44    3.18
   6  -3  -2  142.37    6.18
   7  -3  -2  132.27    6.23
   8  -3  -2   30.68    3.31
   9  -3  -2   62.81    6.85
  10  -3  -2   17.29    4.13
  11  -3  -2   10.62    3.76
  12  -3  -2   36.21    6.49
  13  -3  -2    6.80    4.15
  14  -3  -2   26.32    6.56
 -11  -2  -2   10.94    4.96
 -10  -2  -2  105.55   11.27
  -9  -2  -2   -2.54    2.87
  -8  -2  -2   40.31    6.10
  -7  -2  -2    4.82    2.21
  -6  -2  -2   32.63    3.19
  -5  -2  -2   36.46    3.09
  -4  -2  -2    9.85    1.86
  -3  -2  -2   76.82    4.36
  -2  -2  -2  247.18    8.77
  -1  -2  -2  255.95    8.62
   0  -2  -2  423.45   13.00
   1  -2  -2  203.85   11.37
   3  -2  -2   76.89    4.31
   4  -2  -2  248.71    7.36
   5  -2  -2   16.12    1.32
   6  -2  -2   18.45    2.16
   7  -2  -2  213.40    8.67
   8  -2  -2   37.60    4.97
   9  -2  -2   59.96    6.90
  10  -2  -2   91.95    9.13
  11  -2  -2   44.25    6.92
  12  -2  -2   10.16    4.53
  13  -2  -2   38.82    7.20
  14  -2  -2   44.93   13.78
 -12  -1  -2    9.62    7.70
 -11  -1  -2    8.57    6.88
 -10  -1  -2    3.21    3.55
  -9  -1  -2   27.58    5.49
  -8  -1  -2    7.68    2.55
  -7  -1  -2   15.72    2.41
  -6  -1  -2   22.17    3.04
  -5  -1  -2  311.54   11.62
  -4  -1  -2   54.44    4.05
  -3  -1  -2  258.97    9.40
  -2  -1  -2   85.64    3.81
  -1  -1  -2  197.65    6.71
   0  -1  -2   47.45    2.84
   2  -1  -2  202.53    8.19
   3  -1  -2  264.64    8.61
   4  -1  -2  126.20    4.96
   5  -1  -2   58.10    3.42
   6  -1  -2  178.70    7.04
   7  -1  -2  113.04    8.66
   8  -1  -2   51.73    5.89
   9  -1  -2   71.75    7.80
  10  -1  -2   12.68    3.96
  11  -1  -2   -0.81    2.82
  12  -1  -2   70.88    8.63
  13  -1  -2    2.87    3.89
 -12   0  -2   17.14    8.28
 -11   0  -2    5.14    5.53
 -10   0  -2  107.81    8.32
  -9   0  -2   65.26    5.97
  -8   0  -2  117.51    8.03
  -7   0  -2   79.18    5.95
  -6   0  -2   23.97    3.09
  -5   0  -2    4.96    1.60
  -4   0  -2  123.94    5.39
  -3   0  -2   44.00    3.07
  -2   0  -2  410.38   13.24
  -1   0  -2   47.11    3.17
   0   0  -2  869.39   30.13
   1   0  -2   49.91    2.63
   2   0  -2  424.13   15.97
   3   0  -2   46.89    2.34
   4   0  -2  120.47    6.51
   5   0  -2    5.95    2.09
   6   0  -2   22.28    3.56
   7   0  -2   74.54    7.09
   8   0  -2  116.41    9.59
   9   0  -2   70.66    7.70
  10   0  -2  108.67   10.48
  11   0  -2    5.77    3.74
  12   0  -2   14.50    5.07
  13   0  -2   -1.68    6.55
 -13   1  -2    1.43    5.66
 -12   1  -2   68.53   13.80
 -11   1  -2    8.44    3.92
 -10   1  -2   22.81    3.88
  -9   1  -2   89.49    6.70
  -8   1  -2   58.38    5.35
  -7   1  -2  108.62    7.07
  -6   1  -2  171.90    7.59
  -5   1  -2   55.28    4.04
  -4   1  -2  126.35    5.35
  -3   1  -2  253.45   10.95
  -2   1  -2  196.89    8.40
  -1   1  -2   47.99    2.18
   0   1  -2   46.76    2.96
   1   1  -2  202.48    6.50
   2   1  -2   79.06    4.40
   3   1  -2  276.09   11.56
   4   1  -2   58.58    4.99
   5   1  -2  313.77   14.30
   6   1  -2   18.81    3.39
   7   1  -2   14.92    3.44
   8   1  -2    5.37    2.97
   9   1  -2   29.45    4.88
  10   1  -2    7.08    3.50
  11   1  -2    8.33    4.45
  12   1  -2    8.03    4.67
 -13   2  -2   35.13    7.25
 -12   2  -2   14.17    4.69
 -11   2  -2   40.95    6.60
 -10   2  -2   94.77    9.74
  -9   2  -2   70.16    5.92
  -8   2  -2   39.26    4.21
  -7   2  -2  246.50    9.43
  -6   2  -2   23.13    2.66
  -5   2  -2   17.36    2.12
  -4   2  -2  314.13   11.58
  -3   2  -2   91.04    4.89
  -2   2  -2  431.05   12.88
  -1   2  -2  199.64    7.95
   0   2  -2  416.08   16.03
   1   2  -2  260.29    8.52
   2   2  -2  258.44   10.71
   3   2  -2   79.75    5.17
   4   2  -2   10.03    2.20
   5   2  -2   30.66    4.05
   6   2  -2   34.94    4.93
   7   2  -2   10.72    3.27
   8   2  -2   40.02    5.84
   9   2  -2    0.79    2.95
  10   2  -2  103.39   10.38
  11   2  -2    4.04    4.23
 -14   3  -2   43.52    8.22
 -13   3  -2    4.21    4.07
 -12   3  -2   40.77    6.85
 -11   3  -2    8.21    4.06
 -10   3  -2    8.44    3.54
  -9   3  -2   60.27    5.63
  -8   3  -2   27.29    3.38
  -7   3  -2  146.44    6.59
  -6   3  -2  165.57    6.59
  -5   3  -2   81.50    5.56
  -4   3  -2  280.84    9.04
  -3   3  -2   50.87    2.56
  -2   3  -2  265.42    8.60
  -1   3  -2   83.93    4.40
   0   3  -2   46.68    2.30
   1   3  -2  128.55    4.85
   2   3  -2   15.01    2.02
   3   3  -2  149.65    7.67
   4   3  -2  102.50    6.98
   5   3  -2  123.06    8.08
   6   3  -2  172.23   10.70
   7   3  -2   83.06    8.30
   8   3  -2   30.30    5.43
   9   3  -2    6.49    3.72
  10   3  -2   -1.03    3.37
  11   3  -2   15.28    8.43
 -14   4  -2   18.92    5.91
 -13   4  -2   24.21    6.10
 -12   4  -2   11.43    4.22
 -11   4  -2  341.48   17.73
 -10   4  -2    3.63    2.71
  -9   4  -2   79.75    8.26
  -8   4  -2   43.72    3.97
  -7   4  -2  106.92    5.92
  -6   4  -2    7.08    1.24
  -5   4  -2   54.39    3.27
  -4   4  -2  125.95    4.94
  -3   4  -2  125.08    4.90
  -2   4  -2  262.60   10.68
  -1   4  -2  265.42    8.78
   0   4  -2  124.64    4.71
   1   4  -2   62.59    3.49
   2   4  -2   17.74    2.15
   3   4  -2  127.71    7.50
   4   4  -2   42.47    4.78
   5   4  -2   42.12    5.26
   6   4  -2   87.66    8.33
   7   4  -2   66.15    7.64
   8   4  -2   41.12    6.57
   9   4  -2   31.99    9.20
  10   4  -2   10.50    6.72
 -14   5  -2   53.28    8.38
 -13   5  -2   21.08    5.76
 -12   5  -2    6.02    3.76
 -11   5  -2    3.39    3.01
 -10   5  -2   33.82    5.68
  -9   5  -2   44.94    6.06
  -8   5  -2  127.16    9.73
  -7   5  -2   28.03    2.38
  -6   5  -2  318.14   11.14
  -5   5  -2    4.63    1.21
  -4   5  -2   53.53    3.54
  -3   5  -2   15.68    1.78
  -2   5  -2   78.34    3.71
  -1   5  -2   55.25    3.06
   0   5  -2    1.74    0.92
   1   5  -2  180.50    6.89
   2   5  -2  225.23    8.56
   3   5  -2   26.08    2.95
   4   5  -2   80.06    5.73
   5   5  -2   38.60    5.44
   6   5  -2   75.62    8.33
   7   5  -2    6.65    5.04
   8   5  -2   57.52   11.50
   9   5  -2    2.98    5.69
 -15   6  -2   19.34    9.69
 -14   6  -2    3.81    4.32
 -13   6  -2   39.17    7.34
 -12   6  -2   37.35    6.65
 -11   6  -2   63.05    8.00
 -10   6  -2   78.32    8.45
  -9   6  -2  159.13   10.73
  -8   6  -2   32.04    3.53
  -7   6  -2   10.71    1.98
  -6   6  -2   23.41    2.56
  -5   6  -2  180.95    6.97
  -4   6  -2   18.60    2.05
  -3   6  -2  140.78    5.85
  -2   6  -2    6.82    1.40
  -1   6  -2  324.21   10.81
   0   6  -2   22.50    2.38
   1   6  -2  111.20    5.34
   2   6  -2   36.00    3.44
   3   6  -2   65.85    5.02
   4   6  -2    2.99    2.13
   5   6  -2    5.35    4.38
   6   6  -2   57.22   10.67
   7   6  -2   38.24    9.56
   8   6  -2   54.54   11.35
 -14   7  -2    3.74    6.70
 -13   7  -2   30.52    6.10
 -12   7  -2    0.99    3.05
 -11   7  -2   75.77    8.71
 -10   7  -2   77.54    8.46
  -9   7  -2   12.62    3.37
  -8   7  -2   19.38    2.81
  -7   7  -2   83.54    5.39
  -6   7  -2  109.33    5.41
  -5   7  -2  228.60    8.42
  -4   7  -2  146.29    5.88
  -3   7  -2  107.58    4.29
  -2   7  -2   35.23    2.93
  -1   7  -2   16.04    2.19
   0   7  -2   77.86    4.75
   1   7  -2   43.78    4.82
   2   7  -2   67.86    6.42
   3   7  -2    9.60    4.89
   4   7  -2  322.48   24.18
   5   7  -2    4.96    4.43
   6   7  -2   33.74    9.08
   7   7  -2    7.33    6.20
 -14   8  -2   39.81   11.57
 -13   8  -2   44.02   10.76
 -12   8  -2   17.90    6.90
 -11   8  -2   35.59    9.35
 -10   8  -2   28.91    8.03
  -9   8  -2   10.74    5.19
  -8   8  -2  114.71    8.19
  -7   8  -2   54.22    5.50
  -6   8  -2   37.42    4.59
  -5   8  -2   28.78    3.87
  -4   8  -2   33.69    4.01
  -3   8  -2  120.46    5.67
  -2   8  -2   34.06    4.11
  -1   8  -2   12.00    2.89
   0   8  -2  121.40    7.92
   1   8  -2   72.32   10.65
   2   8  -2  108.92   13.93
   3   8  -2    8.05    5.22
   4   8  -2    1.97    4.65
   5   8  -2   22.98    8.04
   6   8  -2    8.68    6.49
 -14   9  -2    0.02    5.67
 -13   9  -2   20.29    7.69
 -12   9  -2   18.49    6.48
 -11   9  -2   -3.47    3.69
 -10   9  -2   22.39    7.20
  -9   9  -2   62.84   11.45
  -8   9  -2   65.65    6.71
  -7   9  -2   66.63    6.58
  -6   9  -2   63.56    6.13
  -5   9  -2   68.64    6.56
  -4   9  -2   39.82    4.80
  -3   9  -2  165.22    9.32
  -2   9  -2    7.98    2.73
  -1   9  -2    8.85    3.91
   0   9  -2   61.01   10.13
   1   9  -2   10.88    5.30
   2   9  -2   34.65    8.71
   3   9  -2   47.27   10.54
   4   9  -2   18.70    7.64
   5   9  -2   56.04   12.11
 -14  10  -2    0.52    5.62
 -13  10  -2   -1.74    4.98
 -12  10  -2  120.97   17.53
 -11  10  -2    9.32    6.10
 -10  10  -2  102.67   14.93
  -9  10  -2   12.08    5.44
  -8  10  -2  102.47    8.80
  -7  10  -2   14.40    3.54
  -6  10  -2    8.65    2.68
  -5  10  -2   33.74    4.76
  -4  10  -2   77.12    7.12
  -3  10  -2   69.50    9.77
  -2  10  -2   52.61    8.70
  -1  10  -2   22.32    6.45
   0  10  -2  103.36   13.81
   1  10  -2    2.66    4.11
   2  10  -2   16.20    7.47
   3  10  -2    3.16    5.65
   4  10  -2   17.92    7.64
 -14  11  -2   28.57    9.93
 -13  11  -2   10.99    6.94
 -12  11  -2    5.32    6.46
 -11  11  -2    3.67    5.51
 -10  11  -2    2.59    5.42
  -9  11  -2   28.00    8.05
  -8  11  -2    6.81    3.17
  -7  11  -2  319.16   16.04
  -6  11  -2    1.50    2.36
  -5  11  -2   49.74    8.50
  -4  11  -2   59.92    9.58
  -3  11  -2   25.38    6.68
  -2  11  -2    3.12    3.92
  -1  11  -2   12.25    5.69
   0  11  -2   23.00    7.04
   1  11  -2   70.84   12.62
   2  11  -2   31.86    9.24
   3  11  -2   42.20   11.60
 -13  12  -2    4.03    6.76
 -12  12  -2   32.91    9.32
 -11  12  -2   98.43   15.97
 -10  12  -2    8.84    6.59
  -9  12  -2   16.79    6.80
  -8  12  -2    5.57    3.31
  -7  12  -2    4.95    3.88
  -6  12  -2   33.88    7.53
  -5  12  -2    4.85    4.13
  -4  12  -2   17.38    5.98
  -3  12  -2   -3.77    3.26
  -2  12  -2   89.84   13.04
  -1  12  -2    4.17    4.46
   0  12  -2    9.72    6.24
   1  12  -2    1.75    5.11
 -13  13  -2    4.78    7.81
 -12  13  -2    1.90    6.21
 -11  13  -2   31.38   10.35
 -10  13  -2    9.91    6.84
  -7  13  -2   45.63    8.76
  -6  13  -2   52.00    9.60
  -5  13  -2   46.35    9.01
  -4  13  -2   12.86    6.05
  -3  13  -2   -1.19    3.96
  -2  13  -2    4.34    5.31
  -1  13  -2    9.67    6.09
   0  13  -2   11.97    8.55
  -7  14  -2    1.44    4.80
  -6  14  -2   56.32   10.51
  -5  14  -2   -1.10    4.33
  -4  14  -2    3.07    4.42
  -3  14  -2   40.71   10.06
  -6  15  -2   17.88    7.82
   4 -15  -1    5.17    6.53
   5 -15  -1    7.90    7.00
   6 -15  -1   85.76   10.48
   7 -15  -1   12.70    3.86
   8 -15  -1   55.98    6.75
   9 -15  -1    1.50    3.07
  10 -15  -1    5.67    5.43
   2 -14  -1   59.86   14.74
   3 -14  -1   52.30    8.01
   4 -14  -1   61.17    8.71
   5 -14  -1    7.86    3.97
   6 -14  -1    0.56    3.37
   7 -14  -1   23.36    4.28
   8 -14  -1    4.53    2.78
   9 -14  -1    4.53    2.95
  10 -14  -1   14.61    4.52
  11 -14  -1   58.50    8.65
  12 -14  -1    5.81    4.76
   0 -13  -1    4.60    4.68
   1 -13  -1    3.07    4.03
   2 -13  -1   10.30    3.77
   3 -13  -1   27.33    5.89
   4 -13  -1   18.64    5.10
   5 -13  -1    2.20    2.77
   6 -13  -1    2.39    3.27
   7 -13  -1   72.94    7.02
   8 -13  -1   18.47    4.02
   9 -13  -1   61.53    6.48
  10 -13  -1   10.16    3.78
  11 -13  -1    8.17    3.79
  12 -13  -1   23.28    5.73
  13 -13  -1   10.44    4.73
  -2 -12  -1    6.67    5.09
  -1 -12  -1   31.71    6.98
   0 -12  -1   49.28    8.07
   1 -12  -1   46.42    5.85
   2 -12  -1    0.83    2.39
   3 -12  -1    4.22    2.72
   4 -12  -1   79.65    8.81
   5 -12  -1    9.88    3.70
   6 -12  -1   11.67    3.58
   7 -12  -1   16.19    3.30
   8 -12  -1    4.72    2.44
   9 -12  -1   36.46    4.67
  10 -12  -1    0.43    2.56
  11 -12  -1   -1.49    2.52
  12 -12  -1   77.26    9.26
  13 -12  -1   10.11    3.61
  14 -12  -1   40.33    5.91
  -3 -11  -1   66.74    9.94
  -2 -11  -1    3.05    4.19
  -1 -11  -1    5.67    3.45
   0 -11  -1   21.85    4.06
   1 -11  -1   22.85    3.78
   2 -11  -1   56.16    5.74
   3 -11  -1   59.50    5.79
   4 -11  -1   38.58    6.06
   5 -11  -1  128.14   10.97
   6 -11  -1   12.80    3.71
   7 -11  -1    4.13    2.08
   8 -11  -1    2.54    2.11
   9 -11  -1  109.57    7.93
  10 -11  -1   12.23    3.92
  11 -11  -1   28.02    5.57
  12 -11  -1   48.75    7.34
  13 -11  -1   10.39    3.61
  14 -11  -1   57.23    6.78
  15 -11  -1    2.67    4.43
  -4 -10  -1   22.02    6.50
  -3 -10  -1    1.19    3.69
  -2 -10  -1    0.92    3.39
  -1 -10  -1   15.03    3.54
   0 -10  -1  140.88    9.44
   1 -10  -1    8.45    2.68
   2 -10  -1  177.62    8.78
   3 -10  -1    4.51    2.05
   4 -10  -1    1.71    1.76
   5 -10  -1   19.12    3.91
   6 -10  -1   10.84    3.03
   7 -10  -1    4.16    1.85
   8 -10  -1   41.42    4.54
   9 -10  -1    2.28    1.87
  10 -10  -1  141.30   11.34
  11 -10  -1   16.03    4.28
  12 -10  -1    1.85    2.25
  13 -10  -1   31.15    4.73
  14 -10  -1   69.22    7.34
  15 -10  -1    0.93    5.69
  -6  -9  -1    4.08    7.69
  -5  -9  -1    1.62    6.56
  -4  -9  -1   60.77    8.70
  -3  -9  -1   26.50    6.03
  -2  -9  -1  112.91    8.43
  -1  -9  -1    5.77    2.46
   0  -9  -1    3.47    2.12
   1  -9  -1   42.19    4.52
   2  -9  -1   21.42    3.12
   3  -9  -1    1.39    1.49
   4  -9  -1    2.11    1.41
   5  -9  -1  219.58   11.70
   6  -9  -1   27.25    3.42
   7  -9  -1  209.32    9.35
   8  -9  -1   11.86    2.51
   9  -9  -1    3.71    2.21
  10  -9  -1    9.93    3.29
  11  -9  -1   46.64    5.18
  12  -9  -1    2.26    2.49
  13  -9  -1   28.97    4.66
  14  -9  -1   15.88    4.10
  15  -9  -1   71.38    9.88
  -7  -8  -1   63.77   13.91
  -6  -8  -1   -0.26    5.45
  -5  -8  -1   18.92    5.26
  -4  -8  -1    5.35    3.66
  -3  -8  -1    5.11    3.23
  -2  -8  -1   32.44    4.03
  -1  -8  -1   12.27    2.79
   0  -8  -1    5.25    2.03
   1  -8  -1  181.93    8.60
   2  -8  -1   64.44    5.09
   3  -8  -1  203.20    8.65
   4  -8  -1   66.86    4.88
   5  -8  -1    2.22    1.37
   6  -8  -1   -0.38    0.96
   7  -8  -1   28.29    3.27
   8  -8  -1    6.04    1.83
   9  -8  -1   44.42    5.63
  10  -8  -1  163.74    8.48
  11  -8  -1   66.81    6.15
  12  -8  -1  105.20    7.80
  13  -8  -1    2.90    2.53
  14  -8  -1   -2.40    2.92
  15  -8  -1    8.97    4.91
  -8  -7  -1    8.86    5.24
  -7  -7  -1   30.10    6.40
  -6  -7  -1   72.24    9.15
  -5  -7  -1   21.41    4.24
  -4  -7  -1    3.78    2.53
  -3  -7  -1    4.89    2.33
  -2  -7  -1  219.76    9.79
  -1  -7  -1   29.97    3.65
   0  -7  -1  125.82    5.52
   1  -7  -1  123.46    6.36
   2  -7  -1   27.58    3.09
   3  -7  -1  209.66    8.40
   4  -7  -1    0.44    0.94
   5  -7  -1   10.33    1.66
   6  -7  -1  283.41   10.49
   7  -7  -1  123.06    6.28
   8  -7  -1  190.26    8.15
   9  -7  -1   25.94    4.13
  10  -7  -1    3.52    1.85
  11  -7  -1   54.76    5.45
  12  -7  -1    5.79    2.61
  13  -7  -1    1.01    3.02
  14  -7  -1   30.14    6.36
  15  -7  -1   65.46    9.14
  -9  -6  -1   55.60    9.24
  -8  -6  -1    6.89    4.60
  -7  -6  -1    4.75    4.01
  -6  -6  -1   17.57    5.08
  -5  -6  -1   17.06    3.62
  -4  -6  -1    8.48    2.79
  -3  -6  -1   26.43    3.76
  -2  -6  -1   -0.06    1.45
  -1  -6  -1  290.74   10.70
   0  -6  -1   38.75    3.49
   1  -6  -1    9.40    1.42
   2  -6  -1  166.96    7.07
   3  -6  -1  311.08   10.85
   4  -6  -1   47.13    3.39
   5  -6  -1   25.34    1.85
   6  -6  -1   43.69    3.67
   7  -6  -1  135.40    6.04
   8  -6  -1   64.45    6.06
   9  -6  -1    2.62    1.54
  10  -6  -1    3.29    1.76
  11  -6  -1  142.30    9.03
  12  -6  -1   22.86    3.89
  13  -6  -1   63.59    8.36
  14  -6  -1    0.64    3.35
  15  -6  -1   -3.15    3.68
 -10  -5  -1   -0.30    4.84
  -9  -5  -1   10.94    5.32
  -8  -5  -1   -2.71    3.75
  -7  -5  -1    6.47    3.75
  -6  -5  -1  136.99    9.59
  -5  -5  -1   16.10    3.13
  -4  -5  -1  198.10    9.69
  -3  -5  -1    5.49    2.02
  -2  -5  -1   11.37    2.18
  -1  -5  -1   29.85    3.01
   0  -5  -1  184.62    7.43
   1  -5  -1   23.27    2.19
   2  -5  -1   72.46    4.12
   3  -5  -1   93.66    4.25
   4  -5  -1  405.24   12.94
   5  -5  -1  187.59    7.34
   6  -5  -1    8.63    1.58
   7  -5  -1   29.62    2.74
   8  -5  -1  201.91    8.72
   9  -5  -1    1.83    1.41
  10  -5  -1   26.16    3.62
  11  -5  -1    9.89    2.72
  12  -5  -1   14.61    4.20
  13  -5  -1   21.19    5.34
  14  -5  -1    5.08    4.18
  15  -5  -1    9.78    6.34
 -11  -4  -1    0.08    8.10
 -10  -4  -1   71.80   10.33
  -9  -4  -1   25.36    6.58
  -8  -4  -1   73.24    9.65
  -7  -4  -1   36.24    6.50
  -6  -4  -1    3.37    2.14
  -5  -4  -1   -0.38    1.55
  -4  -4  -1   67.04    5.43
  -3  -4  -1    0.73    0.91
  -2  -4  -1   46.71    2.52
  -1  -4  -1  412.62   13.75
   0  -4  -1  166.24    6.54
   1  -4  -1  441.11   13.82
   2  -4  -1   14.34    1.15
   3  -4  -1   12.01    1.41
   4  -4  -1  167.21    5.22
   5  -4  -1   23.72    2.23
   6  -4  -1  183.34    6.71
   7  -4  -1  192.48    8.26
   8  -4  -1   72.13    5.19
   9  -4  -1  204.40    9.28
  10  -4  -1    9.82    2.36
  11  -4  -1    6.49    2.72
  12  -4  -1    7.91    3.65
  13  -4  -1   40.93    6.78
  14  -4  -1   23.81    6.07
  15  -4  -1   13.75    7.35
 -11  -3  -1   63.29    9.68
 -10  -3  -1   15.05    5.70
  -9  -3  -1    7.86    4.24
  -8  -3  -1   82.83    9.36
  -7  -3  -1    1.37    2.80
  -6  -3  -1    2.97    1.96
  -5  -3  -1  223.15    7.75
  -4  -3  -1  209.41    7.30
  -3  -3  -1  304.97    9.46
  -2  -3  -1   97.06    3.72
  -1  -3  -1   12.43    1.73
   0  -3  -1  200.73    6.96
   1  -3  -1   22.11    1.69
   2  -3  -1   38.90    2.32
   3  -3  -1  197.19    5.68
   4  -3  -1  445.62   13.72
   5  -3  -1   68.24    3.02
   6  -3  -1  330.63   11.09
   7  -3  -1    2.48    1.16
   8  -3  -1    0.62    1.31
   9  -3  -1   29.09    3.55
  10  -3  -1    5.11    2.48
  11  -3  -1    7.61    3.36
  12  -3  -1   30.84    6.03
  13  -3  -1    3.23    3.45
  14  -3  -1   70.20    9.45
 -12  -2  -1   52.80   14.87
 -11  -2  -1    6.09    8.30
 -10  -2  -1    2.02    4.01
  -9  -2  -1   47.61    7.27
  -8  -2  -1  172.68   13.86
  -7  -2  -1   23.36    3.06
  -6  -2  -1   62.04    4.25
  -5  -2  -1   25.11    2.63
  -4  -2  -1  173.99    6.25
  -3  -2  -1   68.98    3.41
  -2  -2  -1   16.08    1.49
  -1  -2  -1   36.10    2.00
   0  -2  -1  535.15   13.87
   1  -2  -1  136.40    4.63
   2  -2  -1  556.44   19.73
   3  -2  -1   25.37    1.71
   4  -2  -1   16.66    1.22
   5  -2  -1   92.01    4.33
   6  -2  -1   40.28    3.36
   7  -2  -1   14.90    2.15
   8  -2  -1   -0.34    1.19
   9  -2  -1  197.61   11.75
  10  -2  -1   31.19    5.26
  11  -2  -1   95.35    9.64
  12  -2  -1    0.38    2.58
  13  -2  -1    0.18    3.42
  14  -2  -1    4.99    4.81
 -12  -1  -1   10.31    8.35
 -11  -1  -1   41.62   11.23
 -10  -1  -1   27.93    6.01
  -9  -1  -1    9.67    2.99
  -8  -1  -1   36.84    4.78
  -7  -1  -1  188.43    7.51
  -6  -1  -1  130.48    5.90
  -5  -1  -1    7.25    1.54
  -4  -1  -1   21.32    2.52
  -3  -1  -1  436.34   14.27
  -2  -1  -1   22.50    2.06
  -1  -1  -1  134.13    4.77
   0  -1  -1   41.66    1.79
   2  -1  -1  143.68    4.74
   3  -1  -1   37.88    2.28
   4  -1  -1   14.04    1.53
   5  -1  -1  410.12   13.38
   6  -1  -1   24.98    2.53
   7  -1  -1  281.23   10.37
   8  -1  -1   28.64    3.33
   9  -1  -1   10.64    3.36
  10  -1  -1   -1.53    2.10
  11  -1  -1   18.22    4.82
  12  -1  -1    1.50    2.92
  13  -1  -1   26.41    6.33
 -13   0  -1   14.71    8.51
 -12   0  -1   66.16   13.84
 -11   0  -1   24.72    5.82
 -10   0  -1  147.05    9.91
  -9   0  -1   10.01    2.78
  -8   0  -1    9.16    2.52
  -7   0  -1  134.38    6.08
  -6   0  -1   37.10    3.87
  -5   0  -1  186.13    7.96
  -4   0  -1  170.40    6.87
  -3   0  -1  195.75    7.17
  -2   0  -1  539.85   16.34
  -1   0  -1   41.59    2.37
   0   0  -1    0.82    0.41
   1   0  -1   40.40    2.20
   2   0  -1  540.52   15.98
   3   0  -1  194.78    6.64
   4   0  -1  169.40    6.32
   5   0  -1  192.86    7.32
   6   0  -1   45.32    3.57
   7   0  -1  124.38    6.47
   8   0  -1    6.98    2.75
   9   0  -1    7.48    2.99
  10   0  -1  135.05   11.76
  11   0  -1   26.61    5.91
  12   0  -1   78.55    9.34
  13   0  -1    6.71    4.58
 -13   1  -1   13.94    8.46
 -12   1  -1   -2.98    3.08
 -11   1  -1   17.03    4.77
 -10   1  -1   -0.10    2.71
  -9   1  -1   13.10    3.06
  -8   1  -1   24.50    3.46
  -7   1  -1  284.39   11.09
  -6   1  -1   29.89    3.25
  -5   1  -1  432.81   14.02
  -4   1  -1   12.70    1.79
  -3   1  -1   48.87    2.73
  -2   1  -1  171.85    6.30
  -1   1  -1   47.23    2.43
   0   1  -1   41.19    2.29
   1   1  -1  141.46    5.78
   2   1  -1   19.43    2.19
   3   1  -1  452.49   13.68
   4   1  -1   25.03    2.00
   5   1  -1   10.99    1.60
   6   1  -1  128.53    6.20
   7   1  -1  183.48   10.89
   8   1  -1   52.54    6.61
   9   1  -1   10.58    3.49
  10   1  -1   34.49    8.37
  11   1  -1   51.93    7.70
  12   1  -1    7.69    4.32
 -14   2  -1    3.86    4.94
 -13   2  -1    4.28    4.17
 -12   2  -1    3.90    3.72
 -11   2  -1  122.67   11.77
 -10   2  -1   38.92    6.29
  -9   2  -1  223.33   10.07
  -8   2  -1    0.84    1.57
  -7   2  -1   13.40    2.38
  -6   2  -1   54.84    4.22
  -5   2  -1  101.17    4.67
  -4   2  -1   16.55    1.81
  -3   2  -1   20.38    1.74
  -2   2  -1  554.06   16.04
  -1   2  -1  139.24    4.54
   0   2  -1  552.86   15.96
   1   2  -1   42.31    2.84
   2   2  -1   16.01    1.36
   3   2  -1   75.21    3.42
   4   2  -1  176.85    6.72
   5   2  -1   32.57    2.82
   6   2  -1   67.11    6.41
   7   2  -1   17.52    3.80
   8   2  -1  173.09   12.02
   9   2  -1   71.14    8.20
  10   2  -1    1.57    3.22
  11   2  -1    8.93    4.04
  12   2  -1   43.55    8.21
 -14   3  -1   57.38    9.43
 -13   3  -1    2.87    3.88
 -12   3  -1   34.57    6.77
 -11   3  -1    3.16    3.50
 -10   3  -1    4.29    3.29
  -9   3  -1   20.66    4.41
  -8   3  -1    1.86    1.55
  -7   3  -1    3.62    1.46
  -6   3  -1  315.59   11.10
  -5   3  -1   70.16    3.24
  -4   3  -1  442.01   13.95
  -3   3  -1  197.07    6.67
  -2   3  -1   41.56    2.13
  -1   3  -1   20.28    1.56
   0   3  -1  212.32    6.61
   1   3  -1   12.91    1.44
   2   3  -1   94.54    5.41
   3   3  -1  319.88   10.54
   4   3  -1  216.25    7.97
   5   3  -1  208.60   11.14
   6   3  -1    0.25    1.79
   7   3  -1    2.70    2.44
   8   3  -1   55.99    7.42
   9   3  -1    2.95    3.13
  10   3  -1   21.98    5.73
  11   3  -1   51.24    8.66
 -14   4  -1   14.61    5.35
 -13   4  -1   53.90    8.44
 -12   4  -1    2.58    3.67
 -11   4  -1    5.70    3.48
 -10   4  -1    3.84    3.11
  -9   4  -1  207.39   12.40
  -8   4  -1   68.53    7.15
  -7   4  -1  208.57    8.34
  -6   4  -1  176.05    5.96
  -5   4  -1   20.49    2.20
  -4   4  -1  160.09    6.27
  -3   4  -1   12.84    1.38
  -2   4  -1   16.22    1.61
  -1   4  -1  460.00   13.68
   0   4  -1  167.70    6.14
   1   4  -1  422.39   13.13
   2   4  -1   49.85    3.14
   3   4  -1    1.72    1.05
   4   4  -1   69.27    6.64
   5   4  -1   -0.04    1.69
   6   4  -1    1.44    2.43
   7   4  -1   63.02    7.66
   8   4  -1   85.82    9.68
   9   4  -1   17.91    5.46
  10   4  -1   70.50    9.70
  11   4  -1    2.36    7.95
 -15   5  -1   14.72    5.83
 -14   5  -1    8.51    4.81
 -13   5  -1   27.72    6.54
 -12   5  -1   14.07    4.48
 -11   5  -1   15.89    4.16
 -10   5  -1   21.88    4.41
  -9   5  -1    0.24    2.26
  -8   5  -1  212.36    9.06
  -7   5  -1   30.85    2.37
  -6   5  -1   10.28    1.78
  -5   5  -1  178.21    7.16
  -4   5  -1  411.76   13.05
  -3   5  -1   93.38    3.47
  -2   5  -1   79.82    3.60
  -1   5  -1   19.59    1.97
   0   5  -1  185.55    7.02
   1   5  -1   23.62    2.36
   2   5  -1   11.91    1.84
   3   5  -1    2.83    1.28
   4   5  -1  198.55   11.51
   5   5  -1   26.18    4.50
   6   5  -1  160.80   12.29
   7   5  -1    4.20    3.26
   8   5  -1   -2.40    3.17
   9   5  -1   -0.82    3.96
  10   5  -1    9.53    6.15
 -15   6  -1   10.56    5.38
 -14   6  -1    3.81    4.28
 -13   6  -1   50.59    8.08
 -12   6  -1   20.71    5.26
 -11   6  -1  139.21   11.69
 -10   6  -1   -0.07    2.37
  -9   6  -1    0.09    1.61
  -8   6  -1   60.44    4.79
  -7   6  -1  130.96    6.43
  -6   6  -1   45.41    3.57
  -5   6  -1   32.54    2.74
  -4   6  -1   48.30    2.68
  -3   6  -1  316.27    8.98
  -2   6  -1  181.72    6.80
  -1   6  -1    8.47    1.54
   0   6  -1   47.16    3.42
   1   6  -1  284.43    9.96
   2   6  -1   -0.89    0.97
   3   6  -1   36.05    4.70
   4   6  -1    8.64    3.00
   5   6  -1   16.26    4.01
   6   6  -1   23.75    5.04
   7   6  -1    1.10    3.06
   8   6  -1   -0.47    3.62
   9   6  -1   72.03   14.28
 -15   7  -1   42.13   12.40
 -14   7  -1   24.90    9.56
 -13   7  -1   -2.07    4.59
 -12   7  -1    5.07    3.69
 -11   7  -1   44.76    6.40
 -10   7  -1    3.43    2.09
  -9   7  -1   20.46    3.18
  -8   7  -1  184.85    8.27
  -7   7  -1  120.91    6.25
  -6   7  -1  279.55   10.03
  -5   7  -1   13.18    1.78
  -4   7  -1    1.10    0.75
  -3   7  -1  207.89    6.61
  -2   7  -1   30.94    2.86
  -1   7  -1  127.82    5.84
   0   7  -1  133.15    5.98
   1   7  -1   22.24    3.67
   2   7  -1  224.10   11.61
   3   7  -1    4.32    2.54
   4   7  -1    5.94    2.99
   5   7  -1   23.14    4.49
   6   7  -1   76.59    9.28
   7   7  -1   38.08    9.93
   8   7  -1   10.50    7.53
 -15   8  -1   13.47    9.00
 -14   8  -1    4.74    6.40
 -13   8  -1    4.10    5.72
 -12   8  -1   64.70   13.03
 -11   8  -1   72.71    8.06
 -10   8  -1  158.38   11.00
  -9   8  -1   42.52    5.54
  -8   8  -1    7.54    2.83
  -7   8  -1   28.70    4.12
  -6   8  -1    2.29    1.78
  -5   8  -1    2.85    1.46
  -4   8  -1   67.39    4.80
  -3   8  -1  211.30    8.32
  -2   8  -1   61.80    4.41
  -1   8  -1  179.01    9.89
   0   8  -1    8.11    2.56
   1   8  -1   11.57    3.18
   2   8  -1   28.17    4.62
   3   8  -1    2.44    2.51
   4   8  -1    5.17    3.40
   5   8  -1   21.01    7.20
   6   8  -1   -2.30    4.57
   7   8  -1   43.41   11.25
 -15   9  -1   41.76   13.52
 -14   9  -1   -1.02    5.71
 -13   9  -1   17.43    7.81
 -12   9  -1   -1.99    4.36
 -11   9  -1   50.01    6.53
 -10   9  -1   23.16    4.43
  -9   9  -1    6.32    2.81
  -8   9  -1    6.12    2.57
  -7   9  -1  221.67   11.72
  -6   9  -1   28.63    4.20
  -5   9  -1  212.15    9.06
  -4   9  -1   -1.39    1.05
  -3   9  -1    0.56    1.38
  -2   9  -1   24.04    3.68
  -1   9  -1   56.98    5.64
   0   9  -1    5.43    2.67
   1   9  -1    0.98    2.42
   2   9  -1  116.34   10.21
   3   9  -1   24.39    7.76
   4   9  -1   69.08   12.86
   5   9  -1    5.41    5.93
   6   9  -1    1.13    5.94
 -14  10  -1   46.80   12.54
 -13  10  -1   19.14    8.72
 -12  10  -1    1.64    4.97
 -11  10  -1   16.60    4.28
 -10  10  -1  126.79   10.70
  -9  10  -1    2.67    2.54
  -8  10  -1   25.79    4.77
  -7  10  -1    6.15    2.83
  -6  10  -1    5.79    2.56
  -5  10  -1   33.51    3.78
  -4  10  -1    3.11    1.88
  -3  10  -1    3.79    2.26
  -2  10  -1  171.80   10.73
  -1  10  -1    8.72    3.11
   0  10  -1  138.81   16.46
   1  10  -1    7.87    5.38
   2  10  -1   -1.56    4.00
   3  10  -1    2.11    5.47
   4  10  -1   21.92    8.72
 -14  11  -1   44.13   12.25
 -13  11  -1    7.54    6.83
 -12  11  -1   23.45    8.22
 -11  11  -1   27.90    5.41
 -10  11  -1   15.41    4.14
  -9  11  -1  102.35    9.60
  -8  11  -1    0.40    2.54
  -7  11  -1    3.15    2.53
  -6  11  -1   10.71    3.33
  -5  11  -1  133.08    9.50
  -4  11  -1   46.37    5.68
  -3  11  -1   59.28    9.98
  -2  11  -1   43.26    8.72
  -1  11  -1   13.95    5.96
   0  11  -1   16.45    6.15
   1  11  -1   11.21    5.95
   2  11  -1   14.86    8.18
   3  11  -1   67.68   13.54
 -14  12  -1   64.84   13.73
 -13  12  -1   14.44    7.76
 -12  12  -1   66.55   13.45
 -11  12  -1    5.55    3.71
 -10  12  -1    0.83    3.00
  -9  12  -1   28.64    5.46
  -8  12  -1    0.36    3.70
  -7  12  -1   16.27    5.64
  -6  12  -1   25.33    6.79
  -5  12  -1    2.79    3.61
  -4  12  -1   91.40   12.57
  -3  12  -1    4.15    3.64
  -2  12  -1    2.59    3.80
  -1  12  -1   48.33   10.48
   0  12  -1   63.29   12.77
   1  12  -1   17.12    7.64
   2  12  -1   -5.60    5.87
 -13  13  -1    0.60    6.54
 -12  13  -1   24.98    9.41
 -11  13  -1   -0.36    7.69
 -10  13  -1    7.05    5.37
  -9  13  -1   76.87   12.24
  -8  13  -1   16.75    6.37
  -7  13  -1   64.03   11.10
  -6  13  -1    4.55    4.64
  -5  13  -1   -0.76    3.08
  -4  13  -1   14.33    6.14
  -3  13  -1   12.12    5.79
  -2  13  -1    3.21    5.08
  -1  13  -1    7.10    5.93
   0  13  -1    1.83    5.76
 -10  14  -1   29.96    8.54
  -9  14  -1    7.07    5.37
  -8  14  -1    2.29    5.02
  -7  14  -1   33.63    7.82
  -6  14  -1    0.79    4.58
  -5  14  -1   13.31    6.20
  -4  14  -1   66.36   12.51
  -3  14  -1   28.78    8.44
  -2  14  -1   38.76   10.30
 -10  15  -1    8.00    6.09
  -9  15  -1   -1.42    5.38
  -8  15  -1   45.88   11.54
  -7  15  -1    3.03    5.08
  -6  15  -1   80.86   13.20
  -5  15  -1    5.97    5.77
   5 -15   0    5.19    5.52
   6 -15   0   -0.95    3.79
   7 -15   0   10.17    5.00
   8 -15   0   35.28    7.30
   9 -15   0   96.01    8.95
  10 -15   0   23.34    5.06
  11 -15   0    0.04    5.78
   1 -14   0  149.34   20.01
   2 -14   0   15.55    9.11
   3 -14   0    2.02    5.93
   4 -14   0    0.14    3.44
   5 -14   0   -0.74    3.54
   6 -14   0   28.01    4.67
   7 -14   0    0.10    2.55
   8 -14   0    2.43    2.58
   9 -14   0   42.57    5.74
  10 -14   0    9.19    3.56
  11 -14   0   29.89    6.25
  12 -14   0    4.82    4.71
  13 -14   0   -1.57    6.04
   0 -13   0   -0.79    4.17
   1 -13   0   17.72    5.92
   2 -13   0    2.94    3.79
   3 -13   0   -0.42    3.55
   4 -13   0   14.42    4.46
   5 -13   0  177.22   14.19
   6 -13   0   77.39    7.37
   7 -13   0   34.98    4.90
   8 -13   0    2.04    2.42
   9 -13   0   33.66    4.91
  10 -13   0   16.43    3.54
  11 -13   0   67.93    8.70
  12 -13   0    1.60    3.38
  13 -13   0   -0.60    3.27
  14 -13   0  199.02   26.73
  -2 -12   0    7.54    5.28
  -1 -12   0    1.55    4.35
   0 -12   0   13.71    5.01
   1 -12   0    4.76    3.54
   2 -12   0  101.80    8.33
   3 -12   0   30.93    4.67
   4 -12   0   52.24    7.43
   5 -12   0   15.28    4.21
   6 -12   0    0.20    1.99
   7 -12   0    2.72    2.17
   8 -12   0    6.90    2.61
   9 -12   0    5.24    2.36
  10 -12   0  100.72    8.59
  11 -12   0   65.93    8.29
  12 -12   0    3.26    3.56
  13 -12   0   15.95    4.20
  14 -12   0   20.00    4.59
  -3 -11   0   31.18    7.17
  -2 -11   0   53.83    8.76
  -1 -11   0   70.32    9.37
   0 -11   0   20.33    5.46
   1 -11   0    7.57    2.90
   2 -11   0    2.99    2.30
   3 -11   0   60.26    5.78
   4 -11   0   13.22    3.15
   5 -11   0   92.61    8.88
   6 -11   0    5.00    2.21
   7 -11   0  458.61   17.71
   8 -11   0    2.99    2.03
   9 -11   0   77.91    6.67
  10 -11   0    7.12    3.37
  11 -11   0   19.69    4.94
  12 -11   0   -1.16    2.68
  13 -11   0    0.38    2.51
  14 -11   0    0.18    2.95
  15 -11   0   20.88    8.63
  -5 -10   0   14.51   14.56
  -4 -10   0   17.72    9.14
  -3 -10   0   32.07    7.03
  -2 -10   0   94.96   10.84
  -1 -10   0    8.88    3.96
   0 -10   0   54.27    5.75
   1 -10   0   49.21    5.19
   2 -10   0    1.51    1.77
   3 -10   0   55.10    5.13
   4 -10   0   58.00    5.00
   5 -10   0   -0.07    1.64
   6 -10   0   20.61    3.19
   7 -10   0   10.15    2.50
   8 -10   0    2.02    1.62
   9 -10   0   33.84    4.15
  10 -10   0   39.69    5.95
  11 -10   0    8.12    3.34
  12 -10   0   95.39    8.05
  13 -10   0    0.73    2.44
  14 -10   0    0.40    2.74
  15 -10   0    2.17    4.29
  -6  -9   0  126.91   20.38
  -5  -9   0   44.36   12.31
  -4  -9   0   28.75    6.53
  -3  -9   0   11.72    4.80
  -2  -9   0   75.21    9.30
  -1  -9   0   38.46    4.53
   0  -9   0  219.75   10.49
   1  -9   0    1.34    1.76
   2  -9   0   12.58    2.59
   3  -9   0  327.84   12.52
   4  -9   0    0.24    1.36
   5  -9   0  147.17    8.88
   6  -9   0   -0.52    1.24
   7  -9   0  125.27    7.13
   8  -9   0   36.18    4.05
   9  -9   0  235.82   10.36
  10  -9   0   48.03    6.28
  11  -9   0    7.39    2.52
  12  -9   0   26.89    4.26
  13  -9   0    7.93    3.11
  14  -9   0    0.46    2.82
  15  -9   0    2.15    4.38
  -7  -8   0   27.79   11.41
  -6  -8   0    8.64    7.26
  -5  -8   0   -1.12    5.57
  -4  -8   0    1.91    3.42
  -3  -8   0    0.39    2.99
  -2  -8   0    2.41    2.05
  -1  -8   0   27.18    3.65
   0  -8   0  177.85    8.54
   1  -8   0    0.07    1.24
   2  -8   0   68.93    5.19
   3  -8   0   99.76    5.92
   4  -8   0   -0.21    1.07
   5  -8   0  123.49    5.17
   6  -8   0   23.44    2.99
   7  -8   0   26.74    3.29
   8  -8   0  181.61    8.27
   9  -8   0    3.25    1.69
  10  -8   0    1.50    2.28
  11  -8   0   79.49    6.61
  12  -8   0   73.54    6.61
  13  -8   0  163.12   10.96
  14  -8   0   25.87    4.75
  15  -8   0    6.77    6.50
  -8  -7   0    6.00    5.55
  -7  -7   0    4.09    4.59
  -6  -7   0   19.42    5.48
  -5  -7   0    6.88    2.72
  -4  -7   0  492.43   18.60
  -3  -7   0   15.91    2.51
  -2  -7   0  121.09    5.93
  -1  -7   0   30.67    2.89
   0  -7   0   68.79    4.17
   1  -7   0    1.48    0.90
   2  -7   0   72.45    5.10
   3  -7   0  109.87    5.54
   4  -7   0  171.31    7.00
   5  -7   0  394.30   11.52
   6  -7   0  177.68    7.61
   7  -7   0   65.15    4.78
   8  -7   0   -0.88    1.13
   9  -7   0   22.48    4.00
  10  -7   0   55.16    5.06
  11  -7   0   13.49    2.97
  12  -7   0    6.88    2.66
  13  -7   0   77.18    7.30
  14  -7   0    1.81    2.65
  15  -7   0   26.03    9.79
  -9  -6   0    5.81    5.66
  -8  -6   0   29.27    6.72
  -7  -6   0   73.16    9.51
  -6  -6   0    2.36    3.18
  -5  -6   0   10.50    3.11
  -4  -6   0   19.58    3.45
  -3  -6   0    1.05    1.66
  -2  -6   0   25.80    3.38
  -1  -6   0  184.20    6.57
   0  -6   0   23.65    2.26
   1  -6   0  382.89   11.01
   2  -6   0    4.98    1.30
   3  -6   0   26.36    2.58
   4  -6   0   -0.52    0.71
   5  -6   0    8.98    1.15
   6  -6   0   18.90    2.35
   7  -6   0    3.34    1.37
   8  -6   0   62.44    4.70
   9  -6   0  318.41   12.52
  10  -6   0   50.50    4.89
  11  -6   0  104.14    7.58
  12  -6   0    0.24    2.06
  13  -6   0   32.75    4.81
  14  -6   0    2.25    3.35
  15  -6   0  128.74   19.10
 -10  -5   0    9.15    5.73
  -9  -5   0    0.38    4.06
  -8  -5   0  154.25   14.56
  -7  -5   0   10.10    4.38
  -6  -5   0   91.62    9.82
  -5  -5   0    0.61    1.92
  -4  -5   0  151.38    8.15
  -3  -5   0  124.26    6.94
  -2  -5   0  405.57   11.76
  -1  -5   0    8.56    1.85
   0  -5   0    4.67    1.03
   1  -5   0  185.90    5.92
   2  -5   0  135.65    5.55
   3  -5   0   -0.31    0.70
   4  -5   0    0.06    0.53
   5  -5   0    2.35    1.05
   6  -5   0  384.86   12.93
   7  -5   0   74.51    4.54
   8  -5   0   98.79    4.99
   9  -5   0    0.23    1.36
  10  -5   0    0.18    1.57
  11  -5   0    6.54    2.40
  12  -5   0    0.60    2.11
  13  -5   0    7.28    3.66
  14  -5   0   53.54    8.05
  15  -5   0   17.22   13.17
 -11  -4   0   42.08   12.48
 -10  -4   0   -1.55    4.82
  -9  -4   0    4.80    4.60
  -8  -4   0   47.54    7.96
  -7  -4   0   10.60    4.40
  -6  -4   0   46.09    6.66
  -5  -4   0   -1.62    1.24
  -4  -4   0   -0.28    1.02
  -3  -4   0  177.11    6.33
  -2  -4   0    0.50    0.68
  -1  -4   0   -0.35    0.61
   0  -4   0  164.32    5.32
   1  -4   0  231.40    6.66
   2  -4   0  805.60   23.71
   3  -4   0  544.28   16.58
   4  -4   0  158.57    6.19
   5  -4   0  194.71    7.12
   6  -4   0    3.91    1.24
   7  -4   0  112.44    4.55
   8  -4   0   -0.44    1.13
   9  -4   0  144.09    7.53
  10  -4   0   18.78    3.02
  11  -4   0  465.17   17.68
  12  -4   0    4.97    3.10
  13  -4   0   22.25    5.27
  14  -4   0    6.42    4.44
 -11  -3   0   17.28    8.80
 -10  -3   0    4.21    4.29
  -9  -3   0   22.13    5.82
  -8  -3   0   64.00    8.43
  -7  -3   0   50.73    5.34
  -6  -3   0  328.24   11.01
  -5  -3   0   92.36    5.11
  -4  -3   0  113.20    5.08
  -3  -3   0   26.25    2.29
  -2  -3   0    0.34    0.66
  -1  -3   0  558.01   14.56
   0  -3   0    3.97    0.96
   1  -3   0   61.30    2.17
   2  -3   0  183.71    6.14
   3  -3   0    5.29    0.99
   4  -3   0  220.90    7.82
   5  -3   0  141.57    4.72
   6  -3   0   27.60    2.07
   7  -3   0  172.99    5.90
   8  -3   0  124.64    6.33
   9  -3   0   -0.51    1.24
  10  -3   0   20.36    3.24
  11  -3   0    4.02    2.30
  12  -3   0    0.82    2.67
  13  -3   0   18.19    5.03
  14  -3   0   22.17    6.05
 -12  -2   0   40.65   11.36
 -11  -2   0    4.49    6.63
 -10  -2   0  117.01   12.15
  -9  -2   0    5.87    3.82
  -8  -2   0   -2.14    1.92
  -7  -2   0   10.86    2.79
  -6  -2   0   67.22    4.50
  -5  -2   0   78.16    4.64
  -4  -2   0    2.54    1.04
  -3  -2   0  139.30    4.96
  -2  -2   0  818.37   20.66
  -1  -2   0  185.84    5.41
   0  -2   0  179.37    5.79
   1  -2   0    1.26    0.54
   2  -2   0  174.82    5.76
   3  -2   0   57.62    2.66
   4  -2   0  813.24   20.46
   5  -2   0    0.26    0.55
   6  -2   0   -0.13    0.58
   7  -2   0  393.94   13.85
   8  -2   0   22.69    2.96
   9  -2   0  117.21    7.01
  10  -2   0    5.09    2.13
  11  -2   0   72.84    8.22
  12  -2   0  100.24   10.20
  13  -2   0   62.26    8.86
  14  -2   0   14.96    5.51
 -12  -1   0   14.26    9.15
 -11  -1   0    2.47    5.15
 -10  -1   0    9.84    3.39
  -9  -1   0   46.88    5.40
  -8  -1   0    1.95    2.09
  -7  -1   0   -0.99    1.48
  -6  -1   0    0.83    1.07
  -5  -1   0  389.93   11.43
  -4  -1   0  186.46    6.26
  -3  -1   0  236.39    6.97
  -2  -1   0   59.59    2.55
  -1  -1   0    2.35    0.54
   0  -1   0    4.70    0.70
   1  -1   0    5.94    0.56
   2  -1   0    1.87    0.46
   3  -1   0  180.33    5.32
   4  -1   0  552.85   14.46
   5  -1   0    0.70    0.61
   6  -1   0    7.17    1.15
   7  -1   0  174.40    7.66
   8  -1   0   24.93    3.15
   9  -1   0   42.39    4.29
  10  -1   0   39.86    6.12
  11  -1   0    5.68    3.53
  12  -1   0   76.62    9.12
  13  -1   0   -0.93    3.51
  14  -1   0   -3.32    5.52
 -13   0   0   -4.20    5.59
 -12   0   0    5.86    4.51
 -11   0   0   10.69    4.40
 -10   0   0   42.58    5.55
  -9   0   0  259.82   11.39
  -8   0   0  183.63    9.30
  -7   0   0   67.88    5.55
  -6   0   0   18.21    2.10
  -5   0   0    2.73    0.97
  -4   0   0  165.56    5.41
  -3   0   0    4.45    0.86
  -2   0   0  174.62    5.94
  -1   0   0    5.42    0.63
   1   0   0    4.52    0.53
   2   0   0  174.09    4.91
   3   0   0    4.56    0.79
   4   0   0  170.94    5.29
   5   0   0    3.62    1.24
   6   0   0   26.70    2.86
   7   0   0   55.41    4.65
   8   0   0  190.70    8.51
   9   0   0  242.39   13.82
  10   0   0   29.04    5.58
  11   0   0   30.46    5.53
  12   0   0    2.20    3.44
  13   0   0    2.17    4.37
 -13   1   0    3.19    4.32
 -12   1   0   72.70    9.62
 -11   1   0    1.55    3.65
 -10   1   0   34.60    6.11
  -9   1   0   33.74    4.24
  -8   1   0   30.38    4.03
  -7   1   0  179.10    8.11
  -6   1   0    7.96    1.30
  -5   1   0    0.02    0.97
  -4   1   0  566.61   17.20
  -3   1   0  203.63    6.49
  -2   1   0    2.48    0.55
  -1   1   0    4.42    0.54
   0   1   0    4.36    0.48
   1   1   0    2.07    0.56
   2   1   0   54.88    2.69
   3   1   0  230.00    8.03
   4   1   0  187.71    7.23
   5   1   0  382.22   13.16
   6   1   0    2.10    1.38
   7   1   0   -0.40    1.31
   8   1   0    1.74    2.13
   9   1   0   36.76    5.95
  10   1   0    3.74    3.01
  11   1   0   -0.47    3.01
  12   1   0   13.44    5.24
  13   1   0  130.13   18.66
 -14   2   0    3.11    5.00
 -13   2   0   45.69    8.27
 -12   2   0   92.67   10.98
 -11   2   0   71.12    9.29
 -10   2   0    2.43    2.88
  -9   2   0  105.08   10.03
  -8   2   0   28.64    3.56
  -7   2   0  395.97   14.07
  -6   2   0    1.07    1.11
  -5   2   0   -0.55    0.80
  -4   2   0  795.81   20.60
  -3   2   0   62.40    3.01
  -2   2   0  173.68    5.00
  -1   2   0    2.27    0.59
   0   2   0  180.85    5.50
   1   2   0  184.60    6.22
   2   2   0  807.96   23.73
   3   2   0  137.09    5.52
   4   2   0    2.79    1.07
   5   2   0   74.54    4.61
   6   2   0   71.95    5.13
   7   2   0   10.97    3.28
   8   2   0    3.25    2.51
   9   2   0   10.30    3.81
  10   2   0  126.93   11.79
  11   2   0    3.20    3.99
  12   2   0   37.51    7.51
 -14   3   0   26.56    7.14
 -13   3   0   24.22    6.09
 -12   3   0    3.29    3.81
 -11   3   0    1.39    3.18
 -10   3   0   13.80    4.32
  -9   3   0    0.54    2.01
  -8   3   0  123.93    6.57
  -7   3   0  169.55    7.23
  -6   3   0   26.29    2.42
  -5   3   0  129.89    5.80
  -4   3   0  230.16    8.08
  -3   3   0    4.82    0.98
  -2   3   0  181.96    6.28
  -1   3   0   60.40    2.61
   0   3   0    4.51    0.72
   1   3   0  561.91   16.81
   2   3   0    0.21    0.77
   3   3   0   32.18    2.84
   4   3   0  114.91    5.66
   5   3   0  105.57    5.89
   6   3   0  332.63   12.52
   7   3   0   44.67    6.45
   8   3   0   57.52    7.67
   9   3   0   38.70    6.68
  10   3   0   -1.63    3.43
  11   3   0    8.76    5.26
 -15   4   0   24.13   10.69
 -14   4   0    5.58    4.72
 -13   4   0   35.35    7.09
 -12   4   0    0.24    3.38
 -11   4   0  466.14   23.64
 -10   4   0   29.46    5.39
  -9   4   0  154.20   11.67
  -8   4   0    0.85    1.90
  -7   4   0  106.25    6.19
  -6   4   0    2.95    1.28
  -5   4   0  181.60    7.19
  -4   4   0  164.41    6.13
  -3   4   0  548.64   14.41
  -2   4   0  798.51   23.65
  -1   4   0  236.09    7.72
   0   4   0  165.75    5.09
   1   4   0    0.94    0.57
   2   4   0    0.76    0.85
   3   4   0  184.12    7.33
   4   4   0    0.65    1.25
   5   4   0    0.38    1.34
   6   4   0   50.89    6.58
   7   4   0   10.64    3.89
   8   4   0   71.30    8.85
   9   4   0    7.96    4.14
  10   4   0   -1.12    3.71
  11   4   0   25.38    7.08
 -15   5   0   25.44    7.11
 -14   5   0   48.63    8.62
 -13   5   0    1.13    3.41
 -12   5   0    5.23    4.05
 -11   5   0    5.35    3.17
 -10   5   0   -0.04    2.19
  -9   5   0   -0.17    2.12
  -8   5   0  101.58    6.67
  -7   5   0   72.50    5.09
  -6   5   0  376.00   13.00
  -5   5   0    4.47    1.15
  -4   5   0    1.11    0.59
  -3   5   0    0.02    0.75
  -2   5   0  142.46    5.44
  -1   5   0  192.50    6.79
   0   5   0    3.22    0.86
   1   5   0   10.85    1.28
   2   5   0  406.68   11.50
   3   5   0  131.45    6.48
   4   5   0  135.04    7.40
   5   5   0   -0.24    2.10
   6   5   0   87.12    9.15
   7   5   0   10.01    4.09
   8   5   0  160.62   14.24
   9   5   0   -0.58    3.73
  10   5   0    2.34    4.83
 -15   6   0   81.40   10.65
 -14   6   0    5.30    4.53
 -13   6   0   25.02    6.16
 -12   6   0    1.32    3.02
 -11   6   0   80.96    9.07
 -10   6   0   47.17    6.34
  -9   6   0  317.31   12.77
  -8   6   0   60.03    4.90
  -7   6   0    0.81    1.09
  -6   6   0   23.03    2.38
  -5   6   0    7.83    1.18
  -4   6   0    0.72    0.95
  -3   6   0   24.81    2.43
  -2   6   0    3.37    1.09
  -1   6   0  375.00   12.48
   0   6   0   25.42    2.07
   1   6   0  176.91    6.31
   2   6   0   23.05    2.93
   3   6   0    0.94    1.46
   4   6   0   24.30    4.43
   5   6   0    7.12    3.40
   6   6   0   -0.60    2.60
   7   6   0   81.13    9.90
   8   6   0   23.96    5.90
   9   6   0   -2.27    4.11
 -15   7   0   40.50   12.65
 -14   7   0    0.55    5.71
 -13   7   0   62.59   14.77
 -12   7   0    0.82    5.39
 -11   7   0    6.04    3.48
 -10   7   0   52.04    5.07
  -9   7   0   14.32    2.49
  -8   7   0   -1.28    1.18
  -7   7   0   66.28    4.99
  -6   7   0  165.65    9.41
  -5   7   0  390.59   13.74
  -4   7   0  167.33    7.14
  -3   7   0  113.10    5.27
  -2   7   0   78.99    4.35
  -1   7   0    1.66    1.08
   0   7   0   69.95    6.30
   1   7   0   26.87    3.17
   2   7   0  118.05    6.87
   3   7   0   22.32    4.29
   4   7   0  511.64   22.90
   5   7   0    4.88    3.37
   6   7   0   24.96    5.87
   7   7   0   -1.11    3.69
   8   7   0    5.72    5.26
 -15   8   0    1.72    6.88
 -14   8   0   15.03    8.34
 -13   8   0  150.89   22.41
 -12   8   0   50.46   12.59
 -11   8   0   69.30    8.36
 -10   8   0   -0.29    2.53
  -9   8   0   -0.49    1.79
  -8   8   0  174.70   10.38
  -7   8   0   25.29    4.08
  -6   8   0   23.46    3.00
  -5   8   0  136.55    6.33
  -4   8   0   -0.35    1.07
  -3   8   0  107.30    5.26
  -2   8   0   66.73    6.07
  -1   8   0    0.55    1.74
   0   8   0  178.79   10.29
   1   8   0   33.65    4.90
   2   8   0    5.32    2.31
   3   8   0    0.51    2.13
   4   8   0    4.09    3.19
   5   8   0   -1.60    2.94
   6   8   0   -1.12    3.49
   7   8   0   48.57    8.71
 -15   9   0   -2.24    7.09
 -14   9   0    1.94    6.66
 -13   9   0    4.14    6.54
 -12   9   0   43.13    6.81
 -11   9   0    1.21    2.86
 -10   9   0   39.25    5.94
  -9   9   0  244.26   13.24
  -8   9   0   31.21    4.70
  -7   9   0  109.86    8.87
  -6   9   0    0.71    1.46
  -5   9   0  142.97    6.97
  -4   9   0    0.18    1.42
  -3   9   0  317.61   15.15
  -2   9   0   15.32    3.32
  -1   9   0   -1.55    1.33
   0   9   0  222.88   12.68
   1   9   0   35.69    5.37
   2   9   0   71.82    8.21
   3   9   0   11.07    3.83
   4   9   0   37.26    6.60
   5   9   0   62.85    8.92
   6   9   0  108.56   11.80
 -15  10   0   -1.85    7.24
 -14  10   0   -0.65    6.06
 -13  10   0    0.28    3.75
 -12  10   0  103.06   10.74
 -11  10   0    8.75    3.99
 -10  10   0   45.75    6.58
  -9  10   0   32.14    5.15
  -8  10   0    1.22    2.33
  -7  10   0   13.43    3.49
  -6  10   0   25.32    3.31
  -5  10   0   -0.28    1.86
  -4  10   0   48.02    5.68
  -3  10   0   47.39    5.71
  -2  10   0    3.84    2.32
  -1  10   0   48.34    6.09
   0  10   0   44.18    6.24
   1  10   0    6.86    3.11
   2  10   0   98.02   10.11
   3  10   0   28.16    6.15
   4  10   0   14.91    5.66
   5  10   0   16.95    9.01
 -14  11   0    3.23    7.02
 -13  11   0    5.03    4.14
 -12  11   0   -0.67    3.22
 -11  11   0   25.96    5.59
 -10  11   0    5.46    3.36
  -9  11   0   61.06    7.53
  -8  11   0    0.93    2.18
  -7  11   0  502.45   22.15
  -6  11   0    1.70    2.40
  -5  11   0   84.93    8.28
  -4  11   0    9.90    3.07
  -3  11   0   62.77    7.01
  -2  11   0    5.24    3.03
  -1  11   0    6.79    3.36
   0  11   0   10.92    4.02
   1  11   0   53.60    7.72
   2  11   0   58.00    8.24
   3  11   0   15.28    7.48
 -14  12   0   26.46   10.94
 -13  12   0    6.39    4.81
 -12  12   0   -0.29    3.71
 -11  12   0   75.71    9.09
 -10  12   0   97.18    9.73
  -9  12   0    3.01    4.22
  -8  12   0    8.26    5.09
  -7  12   0    1.08    2.63
  -6  12   0   -0.65    2.28
  -5  12   0    8.03    3.47
  -4  12   0   56.45    7.09
  -3  12   0   25.89    5.01
  -2  12   0  128.64   11.13
  -1  12   0    0.53    2.79
   0  12   0    1.42    4.29
   1  12   0    2.29    5.32
   2  12   0    7.43    7.16
 -14  13   0  121.86   20.40
 -13  13   0    3.11    4.36
 -12  13   0    4.07    5.33
 -11  13   0   63.01   11.47
 -10  13   0   26.32    7.61
  -9  13   0   19.18    6.93
  -8  13   0    5.07    4.92
  -7  13   0   24.18    5.14
  -6  13   0   76.70    8.91
  -5  13   0  173.01   13.50
  -4  13   0    7.77    3.94
  -3  13   0    4.81    3.54
  -2  13   0    2.47    4.97
  -1  13   0   23.70    8.47
   0  13   0    1.48    5.57
 -13  14   0   -2.89    6.31
 -12  14   0    0.36    6.11
 -11  14   0   24.94    8.45
 -10  14   0   18.17    7.23
  -9  14   0   27.73    8.22
  -8  14   0   -0.71    4.76
  -7  14   0    0.22    3.27
  -6  14   0   22.88    6.66
  -5  14   0    1.72    4.59
  -4  14   0    0.31    4.83
  -3  14   0    5.04    5.73
  -2  14   0   22.17    7.99
 -11  15   0    7.91    7.16
 -10  15   0   32.15    9.72
  -9  15   0  102.37   15.13
  -8  15   0   32.87    9.85
  -7  15   0    3.90    5.07
  -6  15   0    7.62    6.26
  -5  15   0    0.91    5.10
   6 -15   1   69.92   10.08
   7 -15   1   12.30    5.41
   8 -15   1   38.77    7.37
   9 -15   1   -2.49    3.95
  10 -15   1    7.91    5.31
   2 -14   1   61.72   14.85
   3 -14   1   39.68   11.94
   4 -14   1   35.52   11.18
   5 -14   1   11.94    4.69
   6 -14   1    7.29    4.26
   7 -14   1   30.20    6.09
   8 -14   1    2.44    3.35
   9 -14   1    0.07    3.51
  10 -14   1   24.77    6.01
  11 -14   1   55.30   12.40
  12 -14   1    4.18    8.33
   0 -13   1    5.83    5.12
   1 -13   1    5.60    4.80
   2 -13   1   19.34    5.97
   3 -13   1   17.74    8.18
   4 -13   1   27.45    5.89
   5 -13   1    0.14    3.19
   6 -13   1   -0.66    2.90
   7 -13   1   94.89    9.99
   8 -13   1   20.80    5.00
   9 -13   1   58.42    6.35
  10 -13   1    3.75    2.95
  11 -13   1    3.12    3.17
  12 -13   1   18.02    5.20
  13 -13   1    4.03    4.54
  -2 -12   1    3.39    5.06
  -1 -12   1   23.16    6.99
   0 -12   1   77.35   10.24
   1 -12   1   30.82    6.60
   2 -12   1    2.07    3.32
   3 -12   1    3.56    2.85
   4 -12   1   95.66    9.66
   5 -12   1   10.09    3.21
   6 -12   1    9.82    2.76
   7 -12   1   14.56    3.29
   8 -12   1    4.48    2.47
   9 -12   1   28.16    4.25
  10 -12   1    2.11    2.53
  11 -12   1    2.96    3.29
  12 -12   1   67.55    8.95
  13 -12   1    2.80    3.87
  14 -12   1   59.08    9.13
  -3 -11   1   38.21   12.38
  -2 -11   1    1.92    4.79
  -1 -11   1    5.19    4.43
   0 -11   1   24.13    5.97
   1 -11   1   11.36    4.36
   2 -11   1   49.71    5.53
   3 -11   1   59.27    5.94
   4 -11   1   44.43    4.90
   5 -11   1  128.42    8.61
   6 -11   1   13.02    2.86
   7 -11   1    2.09    2.04
   8 -11   1    1.01    1.80
   9 -11   1  106.37    7.81
  10 -11   1   13.40    3.15
  11 -11   1   32.26    5.83
  12 -11   1   44.36    7.26
  13 -11   1   14.04    4.91
  14 -11   1   54.64    8.33
  -4 -10   1   10.08    7.86
  -3 -10   1    4.39    4.72
  -2 -10   1   -2.26    3.62
  -1 -10   1   13.10    4.77
   0 -10   1  105.42   10.75
   1 -10   1   11.96    2.93
   2 -10   1  168.68    8.88
   3 -10   1    3.46    2.02
   4 -10   1    3.29    1.96
   5 -10   1   27.35    3.63
   6 -10   1    6.08    2.05
   7 -10   1    3.20    1.92
   8 -10   1   41.00    4.57
   9 -10   1    1.89    2.02
  10 -10   1  139.45    9.19
  11 -10   1   26.72    5.44
  12 -10   1    4.90    2.78
  13 -10   1   32.17    6.45
  14 -10   1   51.53    8.27
  15 -10   1    4.96    4.82
  -6  -9   1   -2.67    6.16
  -5  -9   1   -5.91    6.00
  -4  -9   1   65.95   14.08
  -3  -9   1   31.92    6.59
  -2  -9   1  114.20   11.37
  -1  -9   1    2.78    3.21
   0  -9   1    6.11    2.29
   1  -9   1   54.21    4.87
   2  -9   1   21.41    3.31
   3  -9   1    1.60    1.70
   4  -9   1   -0.17    1.27
   5  -9   1  218.28    7.80
   6  -9   1   31.56    3.54
   7  -9   1  218.33    9.51
   8  -9   1    6.78    2.30
   9  -9   1    2.60    1.87
  10  -9   1   16.34    4.10
  11  -9   1   52.27    5.51
  12  -9   1    4.02    2.51
  13  -9   1   18.68    5.40
  14  -9   1   13.19    5.07
  15  -9   1   73.56   10.04
  -7  -8   1   41.03   12.98
  -6  -8   1   -2.12    5.73
  -5  -8   1   12.50    7.58
  -4  -8   1    5.03    3.22
  -3  -8   1    2.03    2.65
  -2  -8   1   31.04    5.83
  -1  -8   1   12.48    3.75
   0  -8   1    4.05    1.92
   1  -8   1  207.16    8.76
   2  -8   1   48.37    4.33
   3  -8   1  201.48    8.63
   4  -8   1   71.24    4.95
   5  -8   1    2.95    1.18
   6  -8   1   -0.38    1.26
   7  -8   1   27.40    3.41
   8  -8   1    3.95    1.89
   9  -8   1   38.94    4.20
  10  -8   1  172.30    8.87
  11  -8   1   69.95    6.47
  12  -8   1   98.80    7.96
  13  -8   1   -1.83    2.97
  14  -8   1    5.72    3.96
  15  -8   1    8.06    4.98
  -8  -7   1    2.23    5.26
  -7  -7   1   21.41    5.96
  -6  -7   1   65.71    9.36
  -5  -7   1   14.22    4.93
  -4  -7   1    2.92    2.62
  -3  -7   1    2.39    2.07
  -2  -7   1  227.42    9.95
  -1  -7   1   34.66    3.12
   0  -7   1  141.41    5.86
   1  -7   1  131.16    5.26
   2  -7   1   27.04    2.24
   3  -7   1  212.07    6.80
   4  -7   1    3.48    1.06
   5  -7   1   13.26    1.66
   6  -7   1  264.36   10.43
   7  -7   1  138.65    6.63
   8  -7   1  200.51    8.68
   9  -7   1   25.16    3.46
  10  -7   1    4.04    1.94
  11  -7   1   50.49    5.28
  12  -7   1    3.57    2.48
  13  -7   1   -0.25    3.05
  14  -7   1   19.11    5.06
  15  -7   1   44.88    8.20
  -9  -6   1   61.28   10.27
  -8  -6   1    8.07    5.11
  -7  -6   1    2.71    3.63
  -6  -6   1   15.49    4.46
  -5  -6   1    8.36    3.97
  -4  -6   1    8.57    2.68
  -3  -6   1   31.37    4.03
  -2  -6   1   -0.12    1.08
  -1  -6   1  261.66    8.78
   0  -6   1   45.57    3.08
   1  -6   1    6.99    1.14
   2  -6   1  182.74    5.88
   3  -6   1  305.81   10.84
   4  -6   1   51.28    3.08
   5  -6   1   26.46    2.14
   6  -6   1   46.19    2.70
   7  -6   1  138.13    6.49
   8  -6   1   48.09    4.47
   9  -6   1    0.72    1.27
  10  -6   1    6.07    2.11
  11  -6   1  142.55    8.49
  12  -6   1   17.19    3.61
  13  -6   1   80.39    9.39
  14  -6   1    3.92    3.69
  15  -6   1    3.20    6.95
 -10  -5   1   -0.66    5.20
  -9  -5   1   11.40    5.62
  -8  -5   1   -0.86    3.79
  -7  -5   1    4.06    3.71
  -6  -5   1  122.58   11.39
  -5  -5   1   25.78    3.92
  -4  -5   1  235.03    8.28
  -3  -5   1    3.02    1.08
  -2  -5   1   11.67    1.43
  -1  -5   1   20.15    2.03
   0  -5   1  197.44    6.34
   1  -5   1   24.28    1.89
   2  -5   1   76.35    3.12
   3  -5   1   95.87    3.70
   4  -5   1  410.55   11.45
   5  -5   1  199.80    6.25
   6  -5   1    8.61    1.27
   7  -5   1   26.28    3.01
   8  -5   1  206.24    7.41
   9  -5   1    1.20    1.54
  10  -5   1   24.11    3.50
  11  -5   1    9.38    2.64
  12  -5   1   12.02    3.05
  13  -5   1   23.06    5.44
  14  -5   1   11.32    7.00
 -10  -4   1   57.31    9.98
  -9  -4   1   19.34    5.70
  -8  -4   1   90.49   10.56
  -7  -4   1   46.16    7.12
  -6  -4   1    9.76    2.65
  -5  -4   1    0.28    1.28
  -4  -4   1   74.10    4.59
  -3  -4   1    0.38    0.84
  -2  -4   1   51.90    2.61
  -1  -4   1  412.98   10.18
   0  -4   1  179.37    5.52
   1  -4   1  447.41   11.95
   2  -4   1   14.33    1.32
   3  -4   1   15.71    1.41
   4  -4   1  173.72    5.47
   5  -4   1   21.98    1.80
   6  -4   1  176.78    6.11
   7  -4   1  212.17    7.18
   8  -4   1   74.39    4.19
   9  -4   1  226.14    9.61
  10  -4   1    4.69    1.81
  11  -4   1    9.35    2.77
  12  -4   1    5.86    2.64
  13  -4   1   87.05   10.84
  14  -4   1   28.17    9.20
 -11  -3   1   51.72   13.84
 -10  -3   1   24.04    6.53
  -9  -3   1    2.46    3.90
  -8  -3   1   65.81    6.46
  -7  -3   1    0.91    2.02
  -6  -3   1    2.54    1.81
  -5  -3   1  205.15    7.54
  -4  -3   1  221.56    7.40
  -3  -3   1  315.48    9.50
  -2  -3   1  100.98    3.25
  -1  -3   1   16.13    1.21
   0  -3   1  204.49    5.88
   1  -3   1   22.50    1.54
   2  -3   1   45.43    1.76
   3  -3   1  193.90    5.85
   4  -3   1  447.96   12.00
   5  -3   1   70.99    3.35
   6  -3   1  306.35    9.43
   7  -3   1    1.04    0.93
   8  -3   1    3.40    1.23
   9  -3   1   35.22    3.92
  10  -3   1    3.45    2.08
  11  -3   1    1.64    2.01
  12  -3   1   30.58    4.46
  13  -3   1    6.17    5.77
  14  -3   1   36.76   11.05
 -12  -2   1   48.81   16.99
 -11  -2   1    8.71    8.73
 -10  -2   1    6.98    4.20
  -9  -2   1   51.08    6.01
  -8  -2   1  165.44    9.68
  -7  -2   1   22.47    3.54
  -6  -2   1   55.31    5.03
  -5  -2   1   30.83    2.67
  -4  -2   1  168.81    6.03
  -3  -2   1   74.45    3.43
  -2  -2   1   17.74    1.58
  -1  -2   1   43.66    1.76
   0  -2   1  548.30   13.97
   1  -2   1  135.13    3.61
   2  -2   1  564.79   14.04
   3  -2   1   25.20    1.65
   4  -2   1   15.01    1.47
   5  -2   1   92.82    3.92
   6  -2   1   53.46    3.28
   7  -2   1   14.19    1.89
   8  -2   1   -0.42    1.29
   9  -2   1  210.79    9.52
  10  -2   1   30.02    4.08
  11  -2   1  111.80    8.39
  12  -2   1    3.50    3.42
  13  -2   1    1.75    5.23
  14  -2   1    1.36    8.62
 -12  -1   1   11.42    8.74
 -11  -1   1   62.95    8.98
 -10  -1   1   37.91    8.52
  -9  -1   1   14.80    3.53
  -8  -1   1   46.63    5.10
  -7  -1   1  195.96    9.04
  -6  -1   1  130.49    7.30
  -5  -1   1    7.10    1.30
  -4  -1   1   23.24    1.94
  -3  -1   1  438.02   12.01
  -2  -1   1   21.87    1.59
  -1  -1   1  137.62    4.18
   0  -1   1   44.83    1.69
   1  -1   1   43.42    1.53
   2  -1   1  173.02    4.98
   3  -1   1   42.82    2.23
   4  -1   1   15.45    1.52
   5  -1   1  398.43   11.62
   6  -1   1   22.32    2.19
   7  -1   1  265.98    8.87
   8  -1   1   33.31    3.80
   9  -1   1    8.53    2.48
  10  -1   1    2.58    2.09
  11  -1   1   11.89    3.95
  12  -1   1    0.23    3.79
  13  -1   1   12.09    7.47
 -13   0   1    8.88    8.45
 -12   0   1   68.96   10.16
 -11   0   1   42.72    7.38
 -10   0   1  146.40   12.71
  -9   0   1    4.10    2.36
  -8   0   1    6.62    2.19
  -7   0   1  118.77    7.11
  -6   0   1   47.22    4.12
  -5   0   1  198.46    7.77
  -4   0   1  175.99    6.70
  -3   0   1  195.31    5.75
  -2   0   1  556.40   13.98
  -1   0   1   41.68    1.40
   0   0   1    0.52    0.24
   1   0   1   44.37    2.03
   2   0   1  555.40   14.08
   3   0   1  193.10    6.02
   4   0   1  177.04    5.76
   5   0   1  198.00    6.58
   6   0   1   47.35    3.36
   7   0   1  137.89    5.81
   8   0   1    5.84    1.85
   9   0   1    5.23    2.35
  10   0   1  126.86   11.11
  11   0   1   26.27    5.79
  12   0   1   63.97   12.92
  13   0   1    4.81    7.16
 -13   1   1   14.54    6.01
 -12   1   1    4.06    3.80
 -11   1   1   17.73    5.05
 -10   1   1    3.50    2.82
  -9   1   1   12.40    2.73
  -8   1   1   35.38    3.81
  -7   1   1  253.13   10.52
  -6   1   1   25.70    2.84
  -5   1   1  411.63   13.55
  -4   1   1   17.08    1.87
  -3   1   1   44.88    2.51
  -2   1   1  132.91    3.62
  -1   1   1   43.44    1.23
   0   1   1   43.36    1.51
   1   1   1  132.46    4.21
   2   1   1   20.27    1.58
   3   1   1  444.01   12.22
   4   1   1   18.51    1.90
   5   1   1    4.24    1.27
   6   1   1  135.56    5.61
   7   1   1  198.39    8.88
   8   1   1   46.99    4.79
   9   1   1   17.16    3.22
  10   1   1   20.75    5.15
  11   1   1   50.68    7.92
  12   1   1   19.09    8.91
 -14   2   1   -0.25    4.95
 -13   2   1    0.65    4.20
 -12   2   1    3.99    3.66
 -11   2   1  115.23   11.80
 -10   2   1   41.92    6.57
  -9   2   1  207.44   12.75
  -8   2   1    1.79    1.37
  -7   2   1   12.46    2.07
  -6   2   1   51.42    3.67
  -5   2   1   99.43    4.99
  -4   2   1   14.61    1.34
  -3   2   1   22.30    1.47
  -2   2   1  551.24   11.39
  -1   2   1  133.99    3.33
   0   2   1  542.37   16.33
   1   2   1   45.50    2.44
   2   2   1   16.27    1.54
   3   2   1   75.92    3.58
   4   2   1  170.73    7.34
   5   2   1   23.15    3.02
   6   2   1   51.81    4.74
   7   2   1   27.18    3.50
   8   2   1  159.66    9.31
   9   2   1   54.18    7.34
  10   2   1    4.65    3.75
  11   2   1   13.56    5.22
  12   2   1   60.00   13.96
 -14   3   1   77.39   10.62
 -13   3   1    3.00    4.11
 -12   3   1   25.96    6.00
 -11   3   1    3.23    3.08
 -10   3   1    8.09    3.39
  -9   3   1   33.93    5.36
  -8   3   1    1.64    2.05
  -7   3   1    2.06    1.12
  -6   3   1  311.12    9.35
  -5   3   1   74.21    3.07
  -4   3   1  447.20   11.87
  -3   3   1  194.29    6.80
  -2   3   1   41.99    1.75
  -1   3   1   23.12    1.47
   0   3   1  196.29    6.95
   1   3   1   14.65    1.76
   2   3   1   97.87    4.58
   3   3   1  313.13   11.15
   4   3   1  217.12    8.72
   5   3   1  207.91    8.97
   6   3   1    1.04    1.63
   7   3   1    3.14    2.17
   8   3   1   57.95    7.72
   9   3   1    6.20    3.85
  10   3   1   35.59    7.15
  11   3   1   53.78    8.45
 -14   4   1    7.89    5.37
 -13   4   1   68.86    9.84
 -12   4   1    6.10    3.75
 -11   4   1    9.50    3.73
 -10   4   1    1.74    2.67
  -9   4   1  227.95   12.65
  -8   4   1   77.77    7.38
  -7   4   1  200.45    8.72
  -6   4   1  170.95    7.29
  -5   4   1   20.51    2.28
  -4   4   1  174.45    5.61
  -3   4   1   12.71    1.12
  -2   4   1   16.63    1.48
  -1   4   1  441.16   14.09
   0   4   1  173.23    6.59
   1   4   1  401.70   13.56
   2   4   1   60.75    4.11
   3   4   1    1.46    1.09
   4   4   1   77.34    5.43
   5   4   1   -0.45    1.31
   6   4   1    2.11    1.89
   7   4   1   44.37    6.75
   8   4   1   97.48   10.41
   9   4   1   21.00    5.51
  10   4   1   65.26    9.72
 -15   5   1    9.18    8.06
 -14   5   1   -3.37    3.89
 -13   5   1   16.63    5.76
 -12   5   1   17.76    5.07
 -11   5   1    9.35    3.69
 -10   5   1   29.24    5.20
  -9   5   1    0.68    1.95
  -8   5   1  198.91    9.01
  -7   5   1   32.45    3.25
  -6   5   1    6.22    1.44
  -5   5   1  203.02    7.33
  -4   5   1  410.31   11.37
  -3   5   1   96.44    4.42
  -2   5   1   75.78    3.21
  -1   5   1   22.80    2.35
   0   5   1  196.92    7.60
   1   5   1   26.55    2.82
   2   5   1    9.56    1.93
   3   5   1    1.94    1.39
   4   5   1  216.17    9.56
   5   5   1   25.20    3.74
   6   5   1  141.88   12.12
   7   5   1    4.14    3.79
   8   5   1    0.03    3.59
   9   5   1   10.42    5.35
  10   5   1    1.74    4.92
 -15   6   1    2.71    7.40
 -14   6   1   -1.48    3.96
 -13   6   1   61.70    8.73
 -12   6   1   17.63    4.82
 -11   6   1  117.53   10.95
 -10   6   1    0.62    2.41
  -9   6   1   -0.37    1.39
  -8   6   1   52.90    4.60
  -7   6   1  136.67    6.50
  -6   6   1   43.72    3.42
  -5   6   1   23.76    1.81
  -4   6   1   51.18    3.78
  -3   6   1  313.99   10.81
  -2   6   1  178.64    5.89
  -1   6   1    5.31    1.48
   0   6   1   43.80    3.78
   1   6   1  273.60   10.58
   2   6   1    1.42    1.38
   3   6   1   32.43    3.63
   4   6   1    4.17    2.06
   5   6   1   13.23    3.17
   6   6   1   14.58    4.47
   7   6   1   -0.91    3.18
   8   6   1    8.38    4.77
   9   6   1   74.97   10.18
 -15   7   1   18.22   10.22
 -14   7   1   -0.30    5.82
 -13   7   1    5.97    7.19
 -12   7   1   -2.83    4.08
 -11   7   1   37.48   10.08
 -10   7   1    6.13    3.18
  -9   7   1   18.20    4.23
  -8   7   1  181.63   10.97
  -7   7   1  131.56    8.81
  -6   7   1  264.63   10.64
  -5   7   1   13.94    2.21
  -4   7   1    2.24    1.17
  -3   7   1  213.34    8.11
  -2   7   1   19.24    3.27
  -1   7   1  135.28    6.48
   0   7   1  137.42    6.64
   1   7   1   27.21    3.39
   2   7   1  211.16    9.61
   3   7   1    3.54    1.98
   4   7   1    2.69    2.00
   5   7   1    4.88    3.04
   6   7   1   64.58    8.41
   7   7   1   21.55    5.90
   8   7   1   15.48    5.71
 -15   8   1    8.30    8.47
 -14   8   1    3.08    6.63
 -13   8   1   -0.99    5.96
 -12   8   1   80.20   14.75
 -11   8   1   63.17    8.29
 -10   8   1  169.21   11.97
  -9   8   1   62.98    7.00
  -8   8   1    7.34    2.83
  -7   8   1   23.70    4.03
  -6   8   1   -0.33    1.26
  -5   8   1    0.74    1.30
  -4   8   1   75.44    5.00
  -3   8   1  198.57   10.71
  -2   8   1   60.66    6.10
  -1   8   1  196.96    8.77
   0   8   1    1.32    1.61
   1   8   1    6.10    2.07
   2   8   1   44.01    4.68
   3   8   1   -0.99    2.00
   4   8   1    7.84    3.68
   5   8   1   23.39    5.51
   6   8   1   -0.48    3.82
   7   8   1   59.17    9.43
 -15   9   1   49.06   13.74
 -14   9   1   22.63   10.07
 -13   9   1   34.94   10.77
 -12   9   1    3.19    3.35
 -11   9   1   49.90    7.31
 -10   9   1    9.63    3.58
  -9   9   1    6.02    2.97
  -8   9   1   10.76    3.34
  -7   9   1  205.09    9.52
  -6   9   1   29.02    3.53
  -5   9   1  227.56   11.77
  -4   9   1   -0.79    1.57
  -3   9   1    0.49    1.67
  -2   9   1   19.15    3.79
  -1   9   1   45.43    5.72
   0   9   1    7.87    2.48
   1   9   1    1.01    1.89
   2   9   1  106.13    7.98
   3   9   1   24.28    5.48
   4   9   1   54.06    8.01
   5   9   1    0.34    4.02
   6   9   1    3.56    4.75
 -15  10   1   -6.19    7.83
 -14  10   1   62.39   14.40
 -13  10   1   22.65    6.14
 -12  10   1    1.29    3.35
 -11  10   1   15.23    4.74
 -10  10   1  124.19   11.22
  -9  10   1    5.05    2.84
  -8  10   1   37.73    4.99
  -7  10   1    7.68    2.57
  -6  10   1    7.56    2.95
  -5  10   1   31.31    4.80
  -4  10   1    5.18    2.54
  -3  10   1    0.09    1.94
  -2  10   1  163.50   11.26
  -1  10   1   11.63    3.39
   0  10   1  127.79   11.25
   1  10   1    9.99    3.72
   2  10   1    2.56    3.46
   3  10   1    4.03    3.94
   4  10   1   10.95    5.10
   5  10   1    0.73    4.63
 -14  11   1   43.30   11.58
 -13  11   1    9.09    4.97
 -12  11   1   49.98    7.83
 -11  11   1   28.98    5.79
 -10  11   1   18.15    4.86
  -9  11   1  114.81   10.47
  -8  11   1   10.28    4.75
  -7  11   1   11.57    3.66
  -6  11   1   14.41    3.68
  -5  11   1  143.33   11.14
  -4  11   1   56.98    6.85
  -3  11   1   68.86    7.62
  -2  11   1   55.34    6.75
  -1  11   1   10.71    3.71
   0  11   1   16.44    4.48
   1  11   1   -2.14    3.11
   2  11   1    5.25    3.73
   3  11   1   69.12    9.57
   4  11   1   19.77    8.91
 -14  12   1   53.98    9.09
 -13  12   1    2.87    4.21
 -12  12   1   70.27    9.31
 -11  12   1    2.93    4.59
 -10  12   1   -2.48    3.15
  -9  12   1   11.33    6.62
  -8  12   1    3.84    3.30
  -7  12   1    6.56    3.15
  -6  12   1    9.10    3.44
  -5  12   1    5.60    3.16
  -4  12   1  105.02    9.98
  -3  12   1    0.62    2.72
  -2  12   1    0.53    2.96
  -1  12   1   49.50    6.97
   0  12   1   55.62    8.10
   1  12   1   31.45    6.75
   2  12   1    6.24    4.81
 -13  13   1    8.16    6.98
 -12  13   1   22.00    8.01
 -11  13   1    5.54    5.50
 -10  13   1    4.30    5.01
  -9  13   1   54.69   10.91
  -8  13   1   24.21    5.27
  -7  13   1   71.51    8.78
  -6  13   1    2.14    2.96
  -5  13   1    2.70    3.27
  -4  13   1   15.58    4.96
  -3  13   1   28.51    5.95
  -2  13   1    8.43    4.39
  -1  13   1   14.38    5.16
   0  13   1    5.20    4.49
 -12  14   1    1.93    5.41
 -11  14   1   39.98   11.20
 -10  14   1    9.23    6.24
  -9  14   1    7.94    5.83
  -8  14   1    3.95    3.92
  -7  14   1   33.74    6.71
  -6  14   1    2.17    3.21
  -5  14   1   12.53    4.77
  -4  14   1   50.54    7.93
  -3  14   1   49.36    7.91
  -2  14   1   45.30    8.47
 -10  15   1   11.16    7.62
  -9  15   1   -1.85    5.61
  -8  15   1   55.92    8.63
  -7  15   1    7.32    4.63
  -6  15   1   55.44    8.50
  -5  15   1    0.60    7.04
  -4  15   1    0.22    6.34
   8 -15   2   15.65    8.01
   9 -15   2   11.01    7.89
   2 -14   2    4.57   13.31
   3 -14   2   32.02   11.05
   4 -14   2   11.84    7.49
   5 -14   2    0.33    6.01
   6 -14   2   39.04    7.53
   7 -14   2    7.45    4.71
   8 -14   2    3.11    3.97
   9 -14   2   46.97    7.64
  10 -14   2    7.92    4.60
  11 -14   2   48.13    8.10
   0 -13   2    2.80    5.23
   1 -13   2    6.91    4.91
   2 -13   2    1.80    4.18
   3 -13   2    0.55    3.66
   4 -13   2   10.77    6.67
   5 -13   2   54.49    8.11
   6 -13   2   30.29    6.25
   7 -13   2   55.22    7.95
   8 -13   2   27.09    6.01
   9 -13   2   30.57    6.28
  10 -13   2   18.80    5.24
  11 -13   2   46.22    7.65
  12 -13   2    9.41    6.96
  -1 -12   2   -0.26    4.63
   0 -12   2   11.87    5.16
   1 -12   2    0.21    3.71
   2 -12   2   91.22   10.53
   3 -12   2    5.56    3.70
   4 -12   2   21.05    5.40
   5 -12   2    2.47    3.04
   6 -12   2   40.01    6.47
   7 -12   2    6.04    3.40
   8 -12   2    4.78    3.46
   9 -12   2   17.39    4.81
  10 -12   2    6.54    3.60
  11 -12   2   58.12   12.62
  12 -12   2   30.13    9.23
  13 -12   2    9.47    6.93
  -3 -11   2   39.03   11.91
  -2 -11   2   32.61    7.02
  -1 -11   2   72.76   10.09
   0 -11   2    7.69    4.60
   1 -11   2    4.36    3.33
   2 -11   2    3.70    3.43
   3 -11   2   36.27    4.76
   4 -11   2   71.64    6.39
   5 -11   2   69.42    8.12
   6 -11   2    2.23    2.94
   7 -11   2  303.13   16.73
   8 -11   2    7.07    3.17
   9 -11   2   49.53    6.69
  10 -11   2    6.40    3.49
  11 -11   2   19.62    4.93
  12 -11   2    2.38    3.54
  13 -11   2    7.95    4.64
  14 -11   2   40.99    7.98
  -4 -10   2   10.28    8.46
  -3 -10   2   -2.25    6.03
  -2 -10   2    9.82    5.05
  -1 -10   2    8.87    4.53
   0 -10   2   97.81   10.49
   1 -10   2   27.76    5.25
   2 -10   2   29.71    5.20
   3 -10   2   66.13    5.90
   4 -10   2   71.47    5.89
   5 -10   2   37.35    4.29
   6 -10   2    3.19    2.32
   7 -10   2   12.16    2.73
   8 -10   2  111.74    8.00
   9 -10   2   19.53    3.61
  10 -10   2  102.07    8.18
  11 -10   2    3.21    3.22
  12 -10   2   93.14   10.41
  13 -10   2   -0.16    3.64
  14 -10   2    4.55    4.15
  15 -10   2    5.51    7.12
  -5  -9   2   52.03   13.48
  -4  -9   2   38.91   11.16
  -3  -9   2   31.28    6.78
  -2  -9   2   36.65    6.62
  -1  -9   2   25.61    5.34
   0  -9   2   58.18    7.44
   1  -9   2    9.73    3.33
   2  -9   2    4.74    1.94
   3  -9   2  157.00    8.15
   4  -9   2   48.49    3.83
   5  -9   2   73.77    4.70
   6  -9   2   55.63    5.13
   7  -9   2   70.25    5.78
   8  -9   2   67.35    5.86
   9  -9   2   61.94    5.82
  10  -9   2   30.48    4.37
  11  -9   2    3.03    3.18
  12  -9   2    5.07    3.73
  13  -9   2   32.52    6.60
  14  -9   2    0.46    3.78
  15  -9   2    8.72    5.62
  -6  -8   2    2.90    5.18
  -5  -8   2   27.97    6.35
  -4  -8   2    6.97    3.66
  -3  -8   2   12.44    3.29
  -2  -8   2   90.39    7.37
  -1  -8   2   77.51    6.26
   0  -8   2  104.76    6.71
   1  -8   2   19.75    2.91
   2  -8   2   31.57    3.51
   3  -8   2  101.83    6.67
   4  -8   2   34.25    2.94
   5  -8   2   26.79    2.66
   6  -8   2   37.72    3.25
   7  -8   2   44.39    4.44
   8  -8   2  110.19    7.66
   9  -8   2    2.91    1.94
  10  -8   2   31.93    4.31
  11  -8   2   29.64    5.73
  12  -8   2   45.18    7.25
  13  -8   2   38.79    6.60
  14  -8   2   34.51    7.00
  15  -8   2   42.42    7.78
  -8  -7   2   65.12   11.02
  -7  -7   2    6.27    4.90
  -6  -7   2   60.27    8.78
  -5  -7   2    0.23    3.39
  -4  -7   2  332.22   15.67
  -3  -7   2   20.88    3.65
  -2  -7   2   60.63    5.70
  -1  -7   2   45.30    4.59
   0  -7   2   77.48    4.62
   1  -7   2   16.92    2.09
   2  -7   2   25.27    2.50
   3  -7   2  107.01    4.07
   4  -7   2  132.55    5.30
   5  -7   2  223.62    7.61
   6  -7   2  112.66    5.04
   7  -7   2   85.51    6.07
   8  -7   2   19.49    3.13
   9  -7   2   11.78    2.22
  10  -7   2   80.78    8.58
  11  -7   2   75.03    8.74
  12  -7   2    5.71    3.46
  13  -7   2   49.78    7.70
  14  -7   2    3.01    3.98
  15  -7   2   30.57    6.97
  -9  -6   2   16.88    7.32
  -8  -6   2   34.28    8.20
  -7  -6   2   34.37    7.12
  -6  -6   2   34.72    6.65
  -5  -6   2    2.68    3.25
  -4  -6   2    3.68    2.13
  -3  -6   2   58.01    5.23
  -2  -6   2   35.72    4.04
  -1  -6   2  103.08    5.39
   0  -6   2   17.07    2.00
   1  -6   2  316.12    9.73
   2  -6   2    8.82    1.42
   3  -6   2  146.05    4.67
   4  -6   2   11.82    1.67
   5  -6   2  165.62    6.18
   6  -6   2   18.71    2.11
   7  -6   2   15.76    2.68
   8  -6   2   32.67    3.07
   9  -6   2  158.92    7.09
  10  -6   2   74.50    8.17
  11  -6   2   58.92    7.74
  12  -6   2   32.27    6.22
  13  -6   2   56.12    8.23
  14  -6   2   12.18    4.86
  15  -6   2   22.69    9.71
  -9  -5   2   -0.50    4.69
  -8  -5   2   52.29    8.31
  -7  -5   2    0.92    3.55
  -6  -5   2   48.99    7.31
  -5  -5   2   40.78    4.66
  -4  -5   2   85.50    5.32
  -3  -5   2   28.37    2.84
  -2  -5   2  224.07    7.78
  -1  -5   2  187.39    6.21
   0  -5   2    2.39    0.99
   1  -5   2   45.39    2.96
   2  -5   2   74.34    3.05
   3  -5   2   10.48    1.21
   4  -5   2   63.91    3.22
   5  -5   2    1.97    0.98
   6  -5   2  321.86    9.85
   7  -5   2   24.24    2.11
   8  -5   2  113.11    5.42
   9  -5   2   41.51    3.62
  10  -5   2   32.07    5.33
  11  -5   2    0.11    2.60
  12  -5   2    0.04    2.94
  13  -5   2   21.86    5.75
  14  -5   2   49.70    7.87
 -10  -4   2    6.68    5.08
  -9  -4   2   12.45    5.26
  -8  -4   2   31.35    6.65
  -7  -4   2   60.22    6.25
  -6  -4   2   76.16    6.34
  -5  -4   2   43.10    4.59
  -4  -4   2   33.22    3.13
  -3  -4   2  131.31    5.49
  -2  -4   2   11.91    1.72
  -1  -4   2   59.56    3.08
   0  -4   2  123.43    4.45
   1  -4   2  268.85    8.08
   2  -4   2  245.81    6.69
   3  -4   2  115.04    4.39
   4  -4   2  123.46    4.55
   5  -4   2   48.59    3.15
   6  -4   2    9.69    1.31
   7  -4   2  101.53    4.92
   8  -4   2   28.89    2.88
   9  -4   2   76.06    4.98
  10  -4   2    4.18    2.72
  11  -4   2  314.57   17.21
  12  -4   2    6.82    3.58
  13  -4   2   28.71    6.53
  14  -4   2    3.49    6.17
 -11  -3   2   23.64   11.24
 -10  -3   2    2.13    4.17
  -9  -3   2    4.72    3.38
  -8  -3   2   30.81    4.72
  -7  -3   2   60.73    6.10
  -6  -3   2  171.17    8.77
  -5  -3   2  123.11    6.44
  -4  -3   2  115.73    5.18
  -3  -3   2  141.43    5.52
  -2  -3   2    8.68    1.42
  -1  -3   2  126.77    3.88
   0  -3   2   44.76    2.46
   1  -3   2   84.99    3.32
   2  -3   2  261.41    6.79
   3  -3   2   38.46    2.53
   4  -3   2  293.82    8.31
   5  -3   2   80.91    3.08
   6  -3   2  154.22    5.55
   7  -3   2  140.40    5.67
   8  -3   2   23.04    2.64
   9  -3   2   56.63    5.17
  10  -3   2   19.05    4.44
  11  -3   2    7.65    3.49
  12  -3   2   15.99    4.74
  13  -3   2   12.72    4.75
  14  -3   2   50.21   13.49
 -11  -2   2   -1.83    6.65
 -10  -2   2   89.88    8.41
  -9  -2   2    0.98    2.50
  -8  -2   2   20.75    3.91
  -7  -2   2    3.65    2.13
  -6  -2   2   27.47    3.68
  -5  -2   2   26.02    2.60
  -4  -2   2    7.91    1.47
  -3  -2   2   71.80    3.74
  -2  -2   2  250.99    7.80
  -1  -2   2  264.25    6.77
   0  -2   2  432.43   11.50
   1  -2   2  193.37    5.97
   2  -2   2  409.17   11.48
   3  -2   2   86.10    3.40
   4  -2   2  319.79    8.19
   5  -2   2   11.15    1.38
   6  -2   2   11.27    1.66
   7  -2   2  210.16    7.65
   8  -2   2   39.66    3.43
   9  -2   2   57.95    5.49
  10  -2   2  106.13   10.11
  11  -2   2   30.82    6.12
  12  -2   2    7.74    3.67
  13  -2   2   40.67   12.38
 -12  -1   2    1.81    4.69
 -11  -1   2    4.12    4.57
 -10  -1   2    7.44    4.16
  -9  -1   2   30.35    4.32
  -8  -1   2    4.92    2.35
  -7  -1   2   15.49    3.02
  -6  -1   2   17.50    2.81
  -5  -1   2  324.65    9.78
  -4  -1   2   48.93    2.89
  -3  -1   2  278.68    8.20
  -2  -1   2   84.25    3.36
  -1  -1   2  198.38    5.18
   0  -1   2   48.40    2.36
   1  -1   2   45.38    2.04
   2  -1   2  180.86    5.93
   3  -1   2  301.31    8.07
   4  -1   2  138.95    4.64
   5  -1   2   53.57    3.37
   6  -1   2  177.15    6.57
   7  -1   2  100.54    5.18
   8  -1   2   44.07    3.74
   9  -1   2   67.38    5.85
  10  -1   2   30.70    5.69
  11  -1   2    5.04    3.78
  12  -1   2  107.04   16.86
  13  -1   2    4.66    6.71
 -13   0   2   -0.32    7.27
 -12   0   2   18.09    5.94
 -11   0   2   15.77    5.38
 -10   0   2  104.41   11.20
  -9   0   2   59.13    5.89
  -8   0   2  133.13    7.70
  -7   0   2   78.85    5.96
  -6   0   2   15.60    2.57
  -5   0   2    3.47    0.89
  -4   0   2  121.94    4.37
  -3   0   2   45.10    2.49
  -2   0   2  428.23   11.27
  -1   0   2   46.56    1.80
   0   0   2  853.89   19.25
   1   0   2   44.65    1.82
   2   0   2  438.74   10.30
   3   0   2   38.88    2.34
   4   0   2  114.50    4.57
   5   0   2    1.65    0.98
   6   0   2   17.81    2.31
   7   0   2   75.11    4.81
   8   0   2  121.91    8.05
   9   0   2   58.24    5.54
  10   0   2  122.21   11.28
  11   0   2    6.40    3.94
  12   0   2   16.62    8.63
 -13   1   2   -1.98    4.66
 -12   1   2   85.92   10.83
 -11   1   2    7.17    4.42
 -10   1   2   11.56    4.25
  -9   1   2   60.30    7.71
  -8   1   2   50.26    4.87
  -7   1   2   98.76    6.60
  -6   1   2  183.33    7.65
  -5   1   2   61.28    4.24
  -4   1   2  125.75    4.30
  -3   1   2  257.28    7.58
  -2   1   2  199.06    4.40
  -1   1   2   47.17    1.62
   0   1   2   44.53    1.80
   1   1   2  190.89    5.29
   2   1   2   86.35    3.40
   3   1   2  263.83    8.28
   4   1   2   48.12    3.23
   5   1   2  313.64   10.12
   6   1   2   18.76    2.33
   7   1   2   17.99    2.56
   8   1   2    1.01    2.04
   9   1   2   20.68    3.74
  10   1   2    7.08    3.76
  11   1   2   -1.24    5.89
  12   1   2    0.89    6.53
 -14   2   2   11.22   11.57
 -13   2   2   43.70    8.84
 -12   2   2   13.63    5.38
 -11   2   2   44.17    7.41
 -10   2   2   86.44    9.69
  -9   2   2   64.12    7.71
  -8   2   2   39.21    4.03
  -7   2   2  222.85    9.04
  -6   2   2   16.11    2.22
  -5   2   2    9.27    1.62
  -4   2   2  248.92    6.77
  -3   2   2   84.87    2.43
  -2   2   2  437.25    8.65
  -1   2   2  195.88    4.43
   0   2   2  428.06   11.56
   1   2   2  255.14    7.82
   2   2   2  237.79    7.85
   3   2   2   70.05    4.06
   4   2   2    6.57    1.48
   5   2   2   29.51    2.93
   6   2   2   31.16    3.28
   7   2   2    6.91    2.41
   8   2   2   34.81    4.38
   9   2   2    4.45    2.66
  10   2   2   71.51   14.60
  11   2   2   -5.71    6.31
 -14   3   2   48.62    9.44
 -13   3   2    9.93    5.44
 -12   3   2   28.05    6.45
 -11   3   2   13.99    4.59
 -10   3   2   11.97    4.08
  -9   3   2   54.30    6.98
  -8   3   2   25.47    4.29
  -7   3   2  128.20    6.22
  -6   3   2  141.82    6.12
  -5   3   2   68.44    3.51
  -4   3   2  272.84    8.02
  -3   3   2   45.42    1.92
  -2   3   2  269.19    5.81
  -1   3   2   83.56    2.92
   0   3   2   44.09    2.79
   1   3   2  121.20    4.73
   2   3   2    9.32    1.53
   3   3   2  143.77    5.78
   4   3   2  113.48    5.70
   5   3   2  109.38    7.26
   6   3   2  167.14    8.70
   7   3   2   78.01    6.77
   8   3   2   43.75    5.21
   9   3   2   13.22    7.79
  10   3   2   -2.00    6.51
  11   3   2   35.82   11.68
 -14   4   2    5.85    5.17
 -13   4   2   48.60    8.07
 -12   4   2   -2.50    2.98
 -11   4   2  323.58   18.03
 -10   4   2    2.62    2.81
  -9   4   2   57.34    7.08
  -8   4   2   28.79    4.72
  -7   4   2  112.61    6.60
  -6   4   2    8.75    1.32
  -5   4   2   49.29    2.74
  -4   4   2  120.56    3.92
  -3   4   2  121.63    3.95
  -2   4   2  242.55    7.62
  -1   4   2  265.85    7.21
   0   4   2  115.98    4.70
   1   4   2   58.84    3.70
   2   4   2    9.49    1.97
   3   4   2  135.51    6.65
   4   4   2   28.08    3.49
   5   4   2   34.25    4.24
   6   4   2   61.86    5.99
   7   4   2   68.11    6.55
   8   4   2   29.93    6.28
   9   4   2   38.59   10.60
  10   4   2   12.41    8.74
 -14   5   2   31.01    7.36
 -13   5   2   13.67    5.43
 -12   5   2    4.16    3.72
 -11   5   2    3.38    3.18
 -10   5   2   35.67    5.75
  -9   5   2   39.31    5.52
  -8   5   2  122.93    7.16
  -7   5   2   27.58    3.25
  -6   5   2  315.87   11.50
  -5   5   2    3.51    0.99
  -4   5   2   56.56    3.05
  -3   5   2    8.51    1.32
  -2   5   2   72.15    3.43
  -1   5   2   45.61    3.73
   0   5   2    4.88    1.39
   1   5   2  181.28    7.72
   2   5   2  218.67    9.28
   3   5   2   23.94    3.23
   4   5   2   64.49    5.70
   5   5   2   38.65    4.46
   6   5   2   56.91    5.98
   7   5   2    0.92    2.86
   8   5   2   49.40    7.98
   9   5   2   -0.34    6.33
 -14   6   2    7.63    7.68
 -13   6   2   50.33    8.18
 -12   6   2   35.84    6.50
 -11   6   2   56.35    7.67
 -10   6   2   81.40    8.35
  -9   6   2  169.30    8.72
  -8   6   2   23.55    3.28
  -7   6   2   13.24    2.31
  -6   6   2   18.68    2.14
  -5   6   2  178.22    6.18
  -4   6   2   12.61    1.97
  -3   6   2  143.97    5.38
  -2   6   2    7.95    1.20
  -1   6   2  307.62   11.71
   0   6   2   18.96    2.67
   1   6   2   98.03    6.53
   2   6   2   38.58    4.13
   3   6   2   58.09    5.36
   4   6   2    6.29    2.43
   5   6   2   -0.48    2.04
   6   6   2   33.29    4.96
   7   6   2   29.00    6.53
   8   6   2   35.36    7.44
 -14   7   2    6.78    8.09
 -13   7   2   31.49   11.28
 -12   7   2   13.47    7.32
 -11   7   2   46.08   12.18
 -10   7   2   70.97    8.48
  -9   7   2   15.17    3.78
  -8   7   2   18.35    3.78
  -7   7   2   69.07    6.89
  -6   7   2  103.40    6.65
  -5   7   2  217.37    9.06
  -4   7   2  127.61    6.28
  -3   7   2  110.03    6.37
  -2   7   2   27.31    3.25
  -1   7   2   19.54    2.82
   0   7   2   81.85    5.97
   1   7   2   46.04    4.53
   2   7   2   64.94    5.69
   3   7   2   18.92    3.15
   4   7   2  313.13   13.80
   5   7   2    3.02    2.76
   6   7   2   47.46    8.07
   7   7   2    2.17    4.54
 -14   8   2   36.49   12.06
 -13   8   2   48.23   13.10
 -12   8   2   15.01    7.77
 -11   8   2   35.66    6.37
 -10   8   2   47.34    6.71
  -9   8   2    1.32    2.15
  -8   8   2  135.68   10.31
  -7   8   2   38.29    4.35
  -6   8   2   33.57    3.78
  -5   8   2   19.03    2.73
  -4   8   2   35.14    4.55
  -3   8   2   96.67    8.18
  -2   8   2   29.15    3.30
  -1   8   2   18.34    2.82
   0   8   2  110.29    7.62
   1   8   2   67.82    5.89
   2   8   2  112.94    8.02
   3   8   2    7.15    2.70
   4   8   2    7.47    3.13
   5   8   2   18.34    5.41
   6   8   2    4.57    4.84
   7   8   2    8.48    6.78
 -14   9   2    1.20    6.97
 -13   9   2   14.62    8.25
 -12   9   2   -0.21    2.98
 -11   9   2    4.05    3.35
 -10   9   2   25.14    5.15
  -9   9   2   54.27    6.96
  -8   9   2   64.87    7.18
  -7   9   2   59.95    5.36
  -6   9   2   58.23    6.67
  -5   9   2   69.09    7.29
  -4   9   2   43.84    5.72
  -3   9   2  171.53   11.03
  -2   9   2    6.03    1.98
  -1   9   2    2.81    2.05
   0   9   2   52.05    5.40
   1   9   2   15.99    3.34
   2   9   2   32.01    4.73
   3   9   2   22.33    4.12
   4   9   2   38.33    7.00
   5   9   2   60.70    9.13
   6   9   2   -3.28    6.34
 -14  10   2   14.66    9.66
 -13  10   2   -1.05    3.91
 -12  10   2   98.18   11.05
 -11  10   2    0.88    3.15
 -10  10   2   99.06    9.71
  -9  10   2   16.39    4.37
  -8  10   2   84.51   12.33
  -7  10   2   13.67    3.67
  -6  10   2    3.16    2.71
  -5  10   2   33.99    5.32
  -4  10   2   74.43    7.65
  -3  10   2   81.16    8.18
  -2  10   2   39.10    5.66
  -1  10   2   25.57    3.86
   0  10   2   95.66    7.93
   1  10   2    6.77    2.83
   2  10   2   16.05    3.61
   3  10   2   14.87    5.00
   4  10   2    3.45    4.66
 -14  11   2   19.75    9.99
 -13  11   2    9.16    5.52
 -12  11   2    2.52    4.24
 -11  11   2   14.67    4.93
 -10  11   2   -3.28    3.83
  -9  11   2   29.76    7.34
  -8  11   2    5.52    3.01
  -7  11   2  311.87   17.01
  -6  11   2    2.49    2.59
  -5  11   2   70.69    7.91
  -4  11   2   62.87    7.41
  -3  11   2   40.64    6.21
  -2  11   2    0.07    2.54
  -1  11   2    4.90    3.11
   0  11   2    9.29    4.32
   1  11   2   79.70    7.73
   2  11   2   17.34    5.57
   3  11   2   44.07    8.33
 -14  12   2   21.75   10.04
 -13  12   2   14.60    5.79
 -12  12   2   28.04    9.58
 -11  12   2   99.40   15.33
 -10  12   2   16.24    6.46
  -9  12   2   16.72    6.23
  -8  12   2    6.36    3.61
  -7  12   2    1.65    3.12
  -6  12   2   25.01    5.64
  -5  12   2    2.52    2.97
  -4  12   2   32.96    5.61
  -3  12   2    7.14    3.63
  -2  12   2   99.79   10.31
  -1  12   2    6.72    3.73
   0  12   2   18.92    5.68
   1  12   2   -5.26    3.94
   2  12   2   39.56   16.54
 -13  13   2   -2.10    7.76
 -12  13   2    4.07    5.45
 -11  13   2   38.91   10.36
 -10  13   2    3.33    5.04
  -9  13   2   43.58    9.75
  -8  13   2   25.44    5.88
  -7  13   2   72.03    8.87
  -6  13   2   33.91    6.01
  -5  13   2   49.10    7.49
  -4  13   2   19.69    5.03
  -3  13   2    1.66    3.52
  -2  13   2   -0.06    3.54
  -1  13   2   10.79    5.09
   0  13   2    4.30    6.76
 -11  14   2   43.55   11.99
 -10  14   2    3.25    5.94
  -9  14   2   45.72   10.85
  -8  14   2    5.57    4.35
  -7  14   2    5.12    4.47
  -6  14   2   40.20    7.39
  -5  14   2    0.42    3.35
  -4  14   2    7.86    4.69
  -3  14   2   27.06    6.44
  -2  14   2   29.08   10.73
  -8  15   2   22.14    9.87
  -7  15   2   22.39    9.77
  -6  15   2   16.88    9.04
   5 -14   3    3.14    6.44
   6 -14   3    9.32    7.64
   7 -14   3   25.94   10.09
   8 -14   3    8.71    4.93
   9 -14   3    0.93    4.31
  10 -14   3   11.03    5.43
   1 -13   3   12.66    5.95
   2 -13   3   11.60    5.42
   3 -13   3   24.16    6.06
   4 -13   3   29.50    9.42
   5 -13   3   -2.36    4.72
   6 -13   3    7.32    6.36
   7 -13   3   65.79    8.61
   8 -13   3   19.09    5.55
   9 -13   3   60.44    8.96
  10 -13   3    8.63    4.75
  11 -13   3    3.71    4.28
  -1 -12   3   30.68    8.41
   0 -12   3   47.57    8.65
   1 -12   3   16.54    5.77
   2 -12   3    7.23    4.18
   3 -12   3   -3.59    2.95
   4 -12   3   89.20   10.26
   5 -12   3   -3.55    3.63
   6 -12   3   10.96    4.14
   7 -12   3   11.56    4.68
   8 -12   3    7.60    4.20
   9 -12   3   25.72    6.10
  10 -12   3    3.44    3.76
  11 -12   3   10.63    4.49
  12 -12   3   59.64   13.30
  -2 -11   3    3.73    6.37
  -1 -11   3    6.64    4.69
   0 -11   3   40.75    7.48
   1 -11   3    8.63    4.15
   2 -11   3   27.97    5.96
   3 -11   3   28.05    5.63
   4 -11   3   29.04    5.41
   5 -11   3   67.02    8.07
   6 -11   3   20.43    5.06
   7 -11   3    0.75    2.71
   8 -11   3   12.26    4.36
   9 -11   3   78.26    9.37
  10 -11   3    7.12    4.23
  11 -11   3   32.33    6.60
  12 -11   3   13.77    7.58
  13 -11   3   12.91    8.48
  -3 -10   3    3.51    6.72
  -2 -10   3    5.80    4.38
  -1 -10   3   19.49    5.58
   0 -10   3  125.48   12.03
   1 -10   3   24.45    5.37
   2 -10   3  135.83   11.56
   3 -10   3    2.95    2.61
   4 -10   3    5.17    2.21
   5 -10   3   10.96    2.88
   6 -10   3   13.94    4.10
   7 -10   3    6.12    3.51
   8 -10   3   25.90    5.28
   9 -10   3   -2.87    2.58
  10 -10   3  134.25   12.03
  11 -10   3   14.50    4.90
  12 -10   3   21.14    8.49
  13 -10   3   31.30   10.22
  -5  -9   3    4.04    7.17
  -4  -9   3   54.37   13.16
  -3  -9   3   23.10    8.71
  -2  -9   3   79.36    9.65
  -1  -9   3    2.56    3.32
   0  -9   3    5.76    3.30
   1  -9   3   40.96    6.48
   2  -9   3   18.37    4.18
   3  -9   3   -0.44    1.55
   4  -9   3    4.19    2.10
   5  -9   3  215.72    9.92
   6  -9   3   33.18    4.99
   7  -9   3  105.61    9.77
   8  -9   3   -0.03    2.47
   9  -9   3    3.67    2.93
  10  -9   3   29.34    5.79
  11  -9   3   24.16    8.26
  12  -9   3   -2.29    4.62
  13  -9   3   26.67    9.09
  14  -9   3   11.53    7.55
  -6  -8   3    6.04    5.18
  -5  -8   3    7.48    4.71
  -4  -8   3    8.65    4.48
  -3  -8   3    7.08    2.97
  -2  -8   3   35.59    4.86
  -1  -8   3    0.45    1.88
   0  -8   3    7.02    2.31
   1  -8   3  167.40    8.33
   2  -8   3   81.82    5.00
   3  -8   3  216.21    7.72
   4  -8   3   59.15    5.14
   5  -8   3   13.89    2.59
   6  -8   3    4.57    1.94
   7  -8   3   27.96    5.02
   8  -8   3    3.99    2.80
   9  -8   3   45.22    5.12
  10  -8   3  140.63    9.41
  11  -8   3   42.42    6.48
  12  -8   3   83.65   10.28
  13  -8   3   -2.92    3.00
  14  -8   3   12.34    5.28
  -7  -7   3   36.03    8.00
  -6  -7   3   70.49    9.57
  -5  -7   3   24.03    6.09
  -4  -7   3    5.21    3.40
  -3  -7   3    8.66    2.92
  -2  -7   3  121.45    8.12
  -1  -7   3   28.23    3.69
   0  -7   3  103.22    6.91
   1  -7   3   90.03    5.40
   2  -7   3   13.84    2.08
   3  -7   3  110.52    5.37
   4  -7   3   15.44    2.64
   5  -7   3   12.73    2.37
   6  -7   3  258.09    9.18
   7  -7   3  104.34    7.12
   8  -7   3  179.89    9.13
   9  -7   3   22.17    3.45
  10  -7   3    3.60    2.22
  11  -7   3   32.45    6.12
  12  -7   3   -2.04    2.94
  13  -7   3    6.37    3.95
  14  -7   3   13.55    5.53
  -8  -6   3   11.45    5.80
  -7  -6   3    3.36    4.57
  -6  -6   3    7.02    4.37
  -5  -6   3   14.25    4.26
  -4  -6   3   23.22    4.89
  -3  -6   3   29.67    4.08
  -2  -6   3    7.25    2.16
  -1  -6   3  261.29   10.44
   0  -6   3   47.14    4.34
   1  -6   3   24.69    2.54
   2  -6   3   64.18    4.00
   3  -6   3  216.67    7.88
   4  -6   3   61.85    4.86
   5  -6   3   41.11    3.24
   6  -6   3   50.08    3.71
   7  -6   3   84.99    5.13
   8  -6   3   75.48    5.94
   9  -6   3    0.07    1.66
  10  -6   3    4.19    2.39
  11  -6   3   89.12    9.67
  12  -6   3   13.05    4.58
  13  -6   3   52.44    8.29
  14  -6   3    4.07    4.75
  -9  -5   3    2.58    5.15
  -8  -5   3    3.44    4.44
  -7  -5   3    1.21    3.32
  -6  -5   3   85.30    7.45
  -5  -5   3   11.54    2.91
  -4  -5   3  210.39    8.71
  -3  -5   3   18.78    2.55
  -2  -5   3   11.59    2.39
  -1  -5   3   48.32    4.37
   0  -5   3  148.25    5.50
   1  -5   3   15.43    1.91
   2  -5   3   80.93    4.30
   3  -5   3   49.17    2.67
   4  -5   3  257.42    8.58
   5  -5   3  139.53    5.53
   6  -5   3   26.89    2.62
   7  -5   3   15.48    2.30
   8  -5   3  199.20    9.33
   9  -5   3    5.27    2.22
  10  -5   3   15.16    4.11
  11  -5   3   19.27    5.08
  12  -5   3   30.03    6.26
  13  -5   3   13.79    5.20
  14  -5   3   -0.87    3.75
 -10  -4   3   55.59   13.11
  -9  -4   3   28.35    7.06
  -8  -4   3   90.77    8.43
  -7  -4   3   36.89    5.14
  -6  -4   3    5.30    2.51
  -5  -4   3    1.98    2.04
  -4  -4   3   67.80    4.67
  -3  -4   3   23.29    2.58
  -2  -4   3   63.49    4.24
  -1  -4   3  282.46    8.69
   0  -4   3  133.21    4.98
   1  -4   3  381.51   11.12
   2  -4   3    7.32    1.40
   3  -4   3   28.65    2.24
   4  -4   3  123.48    5.01
   5  -4   3   17.69    2.09
   6  -4   3   54.94    3.85
   7  -4   3  128.90    5.69
   8  -4   3   65.92    5.58
   9  -4   3  226.58   10.41
  10  -4   3   16.92    4.41
  11  -4   3    2.51    3.16
  12  -4   3    8.72    4.15
  13  -4   3   46.62    7.84
  14  -4   3    8.69    5.08
 -10  -3   3   29.02    7.07
  -9  -3   3    5.42    3.40
  -8  -3   3   32.97    4.99
  -7  -3   3    2.35    2.28
  -6  -3   3   -1.14    1.64
  -5  -3   3  199.81    9.38
  -4  -3   3  121.87    5.69
  -3  -3   3  222.21    8.06
  -2  -3   3   59.35    3.86
  -1  -3   3   31.84    2.25
   0  -3   3   94.35    3.80
   1  -3   3   29.13    2.41
   2  -3   3   80.74    3.96
   3  -3   3   85.26    3.89
   4  -3   3  356.03   11.12
   5  -3   3   95.78    4.52
   6  -3   3  302.31    8.80
   7  -3   3   23.56    3.18
   8  -3   3   18.72    3.17
   9  -3   3   29.78    4.03
  10  -3   3    6.45    3.55
  11  -3   3    9.86    4.16
  12  -3   3   11.11    4.61
  13  -3   3    0.96    4.03
  14  -3   3   69.21   14.49
 -11  -2   3   12.68    6.03
 -10  -2   3   17.02    5.58
  -9  -2   3   36.27    5.08
  -8  -2   3  141.04    9.84
  -7  -2   3   12.82    3.00
  -6  -2   3   71.83    6.07
  -5  -2   3   11.84    2.39
  -4  -2   3   68.52    4.21
  -3  -2   3   76.63    4.29
  -2  -2   3    8.73    1.48
  -1  -2   3   90.41    3.26
   0  -2   3  320.62    9.44
   1  -2   3   71.10    3.88
   2  -2   3  319.14    9.36
   3  -2   3   36.67    2.58
   4  -2   3    9.41    1.56
   5  -2   3   55.65    3.73
   6  -2   3   71.76    5.33
   7  -2   3    9.66    2.32
   8  -2   3    4.62    2.10
   9  -2   3  105.67    8.05
  10  -2   3   25.23    5.50
  11  -2   3   83.46    9.63
  12  -2   3    2.78    3.55
  13  -2   3    0.33    4.43
 -12  -1   3    6.72    7.22
 -11  -1   3   25.27    6.72
 -10  -1   3    8.94    4.69
  -9  -1   3   20.07    4.07
  -8  -1   3   42.86    5.04
  -7  -1   3  170.53    9.23
  -6  -1   3   92.28    6.53
  -5  -1   3   26.46    3.29
  -4  -1   3   14.08    1.91
  -3  -1   3  380.51   11.22
  -2  -1   3   39.96    2.04
  -1  -1   3   71.24    3.14
   0  -1   3   62.29    2.44
   1  -1   3   52.88    2.52
   2  -1   3   69.80    3.53
   3  -1   3   77.91    4.09
   4  -1   3   27.29    2.62
   5  -1   3  282.79   10.70
   6  -1   3   48.45    4.48
   7  -1   3  237.03   10.65
   8  -1   3   22.10    3.51
   9  -1   3    1.17    2.37
  10  -1   3    1.35    3.02
  11  -1   3   10.26    4.20
  12  -1   3   14.42    5.18
 -12   0   3   62.72    9.71
 -11   0   3   26.16    6.64
 -10   0   3  124.79   12.59
  -9   0   3    6.14    2.70
  -8   0   3    6.96    2.54
  -7   0   3  106.00    7.31
  -6   0   3   44.19    4.32
  -5   0   3  134.36    5.31
  -4   0   3  128.92    5.01
  -3   0   3   88.55    3.25
  -2   0   3  319.87    8.32
  -1   0   3   54.89    2.25
   0   0   3    0.29    0.54
   1   0   3   54.46    3.04
   2   0   3  312.80    9.66
   3   0   3   85.85    4.72
   4   0   3  136.40    5.08
   5   0   3  135.83    5.75
   6   0   3   37.25    4.30
   7   0   3   96.74    7.38
   8   0   3    7.23    2.64
   9   0   3    4.54    3.24
  10   0   3  122.51   12.00
  11   0   3   19.04    5.81
  12   0   3   47.98   10.18
 -13   1   3   11.36    8.40
 -12   1   3    9.53    4.71
 -11   1   3   16.22    5.34
 -10   1   3    0.18    3.42
  -9   1   3    3.00    2.89
  -8   1   3   17.61    3.26
  -7   1   3  261.36   10.59
  -6   1   3   44.82    4.09
  -5   1   3  280.53    8.59
  -4   1   3   39.31    2.75
  -3   1   3   83.35    3.15
  -2   1   3   73.49    2.74
  -1   1   3   57.08    2.26
   0   1   3   58.31    2.38
   1   1   3   73.60    3.01
   2   1   3   39.57    2.18
   3   1   3  372.60   11.19
   4   1   3   17.20    2.18
   5   1   3   22.68    2.61
   6   1   3   84.23    6.62
   7   1   3  158.10   10.14
   8   1   3   43.63    5.35
   9   1   3   20.91    5.17
  10   1   3    8.25    4.59
  11   1   3   34.83    7.32
 -13   2   3    3.81    5.12
 -12   2   3    4.19    4.34
 -11   2   3   90.01   10.70
 -10   2   3   25.28    5.68
  -9   2   3  101.04   10.06
  -8   2   3    6.45    2.12
  -7   2   3    8.92    2.11
  -6   2   3   63.00    4.79
  -5   2   3   55.87    3.38
  -4   2   3   10.48    1.48
  -3   2   3   35.44    1.88
  -2   2   3  319.64    7.06
  -1   2   3   75.27    2.50
   0   2   3  327.96    9.40
   1   2   3   84.57    3.45
   2   2   3    9.03    1.45
   3   2   3   79.51    4.46
   4   2   3   61.18    4.20
   5   2   3   16.80    2.42
   6   2   3   74.64    6.53
   7   2   3   16.40    3.46
   8   2   3  132.56   12.29
   9   2   3   47.46    7.60
  10   2   3   16.18    5.27
  11   2   3   10.28    7.94
 -13   3   3    4.56    4.74
 -12   3   3   29.90    7.26
 -11   3   3   13.14    4.62
 -10   3   3    8.53    3.78
  -9   3   3   20.35    4.64
  -8   3   3    8.02    3.13
  -7   3   3   16.77    2.57
  -6   3   3  238.17    9.27
  -5   3   3   80.87    3.63
  -4   3   3  376.69    8.31
  -3   3   3   85.38    2.77
  -2   3   3   87.72    2.84
  -1   3   3   37.04    2.13
   0   3   3   80.23    3.93
   1   3   3   29.84    2.61
   2   3   3   51.14    3.67
   3   3   3  215.06    8.25
   4   3   3  113.33    6.09
   5   3   3  203.26    8.27
   6   3   3   -0.80    1.63
   7   3   3    4.31    3.11
   8   3   3   41.10    7.06
   9   3   3    3.24    3.70
  10   3   3   14.43    7.97
 -14   4   3    4.32    6.38
 -13   4   3   37.31    7.81
 -12   4   3    1.38    3.48
 -11   4   3    2.70    3.38
 -10   4   3   21.58    4.73
  -9   4   3  199.81   13.44
  -8   4   3   58.69    6.72
  -7   4   3  104.69    7.79
  -6   4   3   58.01    3.75
  -5   4   3   16.17    1.81
  -4   4   3  136.29    3.82
  -3   4   3   32.76    1.93
  -2   4   3   10.34    1.36
  -1   4   3  384.81   11.38
   0   4   3  133.04    5.38
   1   4   3  267.37    9.09
   2   4   3   57.27    4.18
   3   4   3   19.18    2.67
   4   4   3   63.92    4.89
   5   4   3    8.25    2.59
   6   4   3    4.26    2.41
   7   4   3   33.87    6.31
   8   4   3   96.01   10.91
   9   4   3   29.21   10.40
 -14   5   3    3.82    5.13
 -13   5   3   13.91    5.72
 -12   5   3   25.23    5.95
 -11   5   3   16.07    4.78
 -10   5   3   14.83    4.38
  -9   5   3    4.84    2.92
  -8   5   3  210.07    9.58
  -7   5   3   14.20    2.52
  -6   5   3   20.77    2.27
  -5   5   3  143.81    4.89
  -4   5   3  279.56    7.82
  -3   5   3   53.59    2.97
  -2   5   3   86.85    3.90
  -1   5   3   16.58    2.14
   0   5   3  136.52    5.85
   1   5   3   42.80    3.64
   2   5   3   13.00    2.49
   3   5   3   17.34    3.00
   4   5   3  226.32   10.53
   5   5   3   22.00    3.83
   6   5   3   77.41    9.52
   7   5   3    2.80    3.89
   8   5   3   -1.81    4.38
   9   5   3   13.64    9.29
 -14   6   3    1.86    7.73
 -13   6   3   29.25   11.60
 -12   6   3   17.66    8.30
 -11   6   3   80.97    8.85
 -10   6   3    3.52    2.86
  -9   6   3    2.17    1.89
  -8   6   3   74.02    6.05
  -7   6   3   88.38    5.56
  -6   6   3   44.29    3.48
  -5   6   3   48.10    3.46
  -4   6   3   62.92    3.45
  -3   6   3  235.28    7.97
  -2   6   3   55.21    4.56
  -1   6   3   17.35    2.79
   0   6   3   40.49    4.11
   1   6   3  241.96   10.54
   2   6   3    7.86    2.30
   3   6   3   34.59    4.31
   4   6   3   22.47    3.80
   5   6   3   23.72    4.14
   6   6   3   18.34    5.21
   7   6   3    0.51    3.66
   8   6   3    3.75    7.95
 -14   7   3   25.21   11.74
 -13   7   3    5.90    7.42
 -12   7   3   -1.36    5.86
 -11   7   3   43.05   10.67
 -10   7   3    4.77    3.26
  -9   7   3   11.04    3.61
  -8   7   3  175.06   11.63
  -7   7   3   95.28    8.37
  -6   7   3  237.63   10.35
  -5   7   3    9.71    2.01
  -4   7   3   18.79    2.32
  -3   7   3   94.92    6.76
  -2   7   3   10.07    2.36
  -1   7   3   79.79    6.11
   0   7   3   90.52    6.62
   1   7   3   23.84    3.55
   2   7   3  110.77    7.86
   3   7   3   12.11    3.17
   4   7   3    5.35    2.66
   5   7   3   21.80    4.34
   6   7   3   55.11    8.56
   7   7   3   22.34    9.78
 -14   8   3    9.61    8.63
 -13   8   3    0.73    6.69
 -12   8   3  105.93   17.50
 -11   8   3   32.57    6.36
 -10   8   3  132.39   12.21
  -9   8   3   57.03    7.27
  -8   8   3    0.59    2.16
  -7   8   3   21.17    3.37
  -6   8   3    4.82    1.83
  -5   8   3   11.27    3.19
  -4   8   3   58.56    5.32
  -3   8   3  187.02    9.13
  -2   8   3   75.28    6.02
  -1   8   3  177.63    9.23
   0   8   3    2.25    1.75
   1   8   3    2.58    1.96
   2   8   3   32.75    4.68
   3   8   3    9.91    3.19
   4   8   3   13.28    3.55
   5   8   3   16.19    4.25
   6   8   3    4.07    7.54
 -14   9   3   14.98    9.59
 -13   9   3   29.53   10.59
 -12   9   3   -0.14    3.47
 -11   9   3   33.42    5.95
 -10   9   3   24.81    5.32
  -9   9   3    6.33    3.33
  -8   9   3    3.24    2.68
  -7   9   3  107.04    9.57
  -6   9   3   20.52    4.26
  -5   9   3  200.67   12.55
  -4   9   3    4.86    2.58
  -3   9   3   -0.39    1.60
  -2   9   3   20.90    3.62
  -1   9   3   41.04    4.82
   0   9   3    2.90    2.28
   1   9   3    1.05    2.27
   2   9   3   73.54    7.14
   3   9   3   27.26    4.75
   4   9   3   57.51    7.04
   5   9   3    6.98    8.02
 -14  10   3   35.87   12.31
 -13  10   3   35.97   10.72
 -12  10   3   16.51    5.42
 -11  10   3    6.10    4.07
 -10  10   3  124.84   11.74
  -9  10   3   -0.97    3.86
  -8  10   3   32.20    5.78
  -7  10   3    8.02    3.37
  -6  10   3   13.40    3.87
  -5  10   3   12.93    3.81
  -4  10   3    4.46    2.85
  -3  10   3    8.54    3.41
  -2  10   3  126.51    9.01
  -1  10   3   22.75    4.07
   0  10   3  121.64    9.17
   1  10   3   11.52    3.57
   2  10   3    5.54    3.18
   3  10   3    5.45    3.86
   4  10   3    6.32    6.77
 -14  11   3   25.08   10.63
 -13  11   3    8.54    5.47
 -12  11   3   27.18    6.57
 -11  11   3   42.16   10.16
 -10  11   3    8.04    5.02
  -9  11   3   78.86   13.01
  -8  11   3    6.61    3.57
  -7  11   3    1.61    2.99
  -6  11   3   24.81    5.42
  -5  11   3   69.77    8.32
  -4  11   3   41.26    6.37
  -3  11   3   17.66    4.81
  -2  11   3   24.19    5.35
  -1  11   3    6.49    3.16
   0  11   3   20.71    4.45
   1  11   3   12.06    3.86
   2  11   3    0.92    3.66
   3  11   3   55.33   12.97
 -12  12   3   36.34   10.92
 -11  12   3    5.99    5.88
 -10  12   3   -2.56    5.06
  -9  12   3    5.39    5.54
  -8  12   3    6.31    4.19
  -7  12   3   15.82    4.75
  -6  12   3   11.21    4.60
  -5  12   3   -4.52    2.35
  -4  12   3   95.64   10.25
  -3  12   3    2.35    3.52
  -2  12   3    5.57    4.02
  -1  12   3   18.95    5.78
   0  12   3   56.33    8.11
   1  12   3   11.29    5.54
 -11  13   3   11.12    6.42
 -10  13   3    8.81    6.04
  -9  13   3   32.13    9.47
  -8  13   3   10.24    4.93
  -7  13   3   45.55    7.61
  -6  13   3    4.75    4.11
  -5  13   3   -1.83    3.42
  -4  13   3   15.46    4.99
  -3  13   3   24.16    6.27
  -2  13   3    5.27    4.73
  -1  13   3    5.52    5.55
  -9  14   3    1.14    5.88
  -8  14   3   -1.44    3.94
  -7  14   3   21.92    6.22
  -6  14   3    8.32    4.84
  -5  14   3   14.17    5.36
  -4  14   3   25.43    9.12
   3 -13   4    7.03    5.00
   4 -13   4    0.69    6.62
   5 -13   4   47.45   12.53
   6 -13   4   52.65   13.32
   7 -13   4    7.15    6.72
   8 -13   4   17.56    6.07
   9 -13   4   11.13    5.59
  10 -13   4    3.02    4.60
   0 -12   4    1.87    7.90
   1 -12   4    1.84    4.33
   2 -12   4   80.96   10.65
   3 -12   4    1.17    3.38
   4 -12   4   25.59    5.92
   5 -12   4    4.29    5.66
   6 -12   4    5.63    6.71
   7 -12   4   -0.15    3.22
   8 -12   4   16.89    5.37
   9 -12   4   17.53    5.66
  10 -12   4   90.40   10.98
  11 -12   4   59.78    9.23
  -1 -11   4   55.54    9.47
   0 -11   4    1.88    4.29
   1 -11   4    3.89    3.51
   2 -11   4    9.80    4.19
   3 -11   4   20.04    5.51
   4 -11   4    0.07    2.99
   5 -11   4   20.47    7.23
   6 -11   4   11.53    4.55
   7 -11   4  196.24   15.43
   8 -11   4    4.79    3.66
   9 -11   4   20.68    5.29
  10 -11   4    1.62    3.64
  11 -11   4    6.15    4.56
  12 -11   4   -2.41    5.82
  -2 -10   4  105.11   16.84
  -1 -10   4    2.97    4.25
   0 -10   4   11.88    4.52
   1 -10   4   10.73    4.13
   2 -10   4   23.08    5.03
   3 -10   4   52.10    7.16
   4 -10   4   65.52    7.69
   5 -10   4   22.55    3.88
   6 -10   4   33.04    6.07
   7 -10   4   14.21    4.52
   8 -10   4    4.17    3.36
   9 -10   4    9.92    4.50
  10 -10   4   21.41    5.64
  11 -10   4    0.05    3.42
  12 -10   4  127.88   18.59
  -4  -9   4   13.41    8.38
  -3  -9   4   23.73    9.24
  -2  -9   4   16.55    5.51
  -1  -9   4    8.81    4.11
   0  -9   4   63.90    8.30
   1  -9   4    2.01    2.77
   2  -9   4   24.42    5.18
   3  -9   4   81.94    8.57
   4  -9   4    5.18    2.52
   5  -9   4   51.96    5.46
   6  -9   4   18.40    3.52
   7  -9   4   45.32    6.73
   8  -9   4   39.49    6.51
   9  -9   4   72.77    8.85
  10  -9   4   13.69    4.57
  11  -9   4   13.64    4.51
  12  -9   4   10.46    7.27
  13  -9   4   -0.82    5.91
  -5  -8   4   21.43    6.36
  -4  -8   4   15.48    5.34
  -3  -8   4    5.72    3.47
  -2  -8   4    2.49    2.57
  -1  -8   4   33.49    4.82
   0  -8   4  156.17    9.35
   1  -8   4   21.71    3.63
   2  -8   4   21.46    3.25
   3  -8   4   35.68    4.13
   4  -8   4   22.83    3.51
   5  -8   4  103.93    7.64
   6  -8   4    2.24    2.01
   7  -8   4    5.98    3.25
   8  -8   4  162.28   13.13
   9  -8   4    7.17    3.51
  10  -8   4   15.66    4.66
  11  -8   4   23.87    6.37
  12  -8   4   41.81   11.42
  13  -8   4   46.96   12.12
  -6  -7   4   11.87    5.43
  -5  -7   4   -1.49    3.50
  -4  -7   4  168.91   14.12
  -3  -7   4   23.57    5.19
  -2  -7   4   47.11    5.14
  -1  -7   4    1.44    2.03
   0  -7   4   16.91    2.84
   1  -7   4   13.84    2.85
   2  -7   4    0.99    1.76
   3  -7   4   31.60    3.22
   4  -7   4  127.09    7.99
   5  -7   4   97.02    7.05
   6  -7   4   56.57    5.28
   7  -7   4    9.82    2.55
   8  -7   4   20.66    4.57
   9  -7   4   23.84    5.09
  10  -7   4   58.45    7.98
  11  -7   4    1.54    4.96
  12  -7   4    4.96    5.76
  13  -7   4   74.67   14.94
  -7  -6   4   46.67    8.51
  -6  -6   4   12.57    4.92
  -5  -6   4   11.13    4.31
  -4  -6   4   24.71    5.41
  -3  -6   4   22.25    3.77
  -2  -6   4    5.71    2.32
  -1  -6   4   67.47    5.75
   0  -6   4    9.17    2.42
   1  -6   4  303.97   11.96
   2  -6   4    0.87    1.23
   3  -6   4    6.89    1.81
   4  -6   4    4.44    1.95
   5  -6   4    9.24    2.39
   6  -6   4    8.11    2.36
   7  -6   4    9.61    2.47
   8  -6   4   11.18    3.33
   9  -6   4   83.55    8.90
  10  -6   4   61.37    7.76
  11  -6   4   12.27    6.66
  12  -6   4    6.22    4.88
  13  -6   4   11.60    5.78
  -8  -5   4   57.34    9.13
  -7  -5   4    2.77    3.30
  -6  -5   4   25.50    4.47
  -5  -5   4   28.33    4.29
  -4  -5   4   60.09    7.42
  -3  -5   4  132.92    8.55
  -2  -5   4   99.60    7.19
  -1  -5   4   12.82    2.54
   0  -5   4    1.72    1.56
   1  -5   4   12.22    1.98
   2  -5   4   33.32    3.12
   3  -5   4   10.14    1.93
   4  -5   4   48.31    4.33
   5  -5   4    1.05    1.50
   6  -5   4  276.44   11.82
   7  -5   4    1.50    1.98
   8  -5   4   33.00    3.61
   9  -5   4    6.30    2.44
  10  -5   4   22.92    3.87
  11  -5   4   14.81    4.78
  12  -5   4    3.14    3.84
  13  -5   4    9.66    5.14
  -9  -4   4    0.77    4.78
  -8  -4   4   21.17    4.59
  -7  -4   4    1.80    2.57
  -6  -4   4   64.31    6.68
  -5  -4   4    6.77    2.63
  -4  -4   4   14.34    3.11
  -3  -4   4  154.33    7.20
  -2  -4   4   14.15    2.63
  -1  -4   4   46.01    4.21
   0  -4   4   44.00    3.71
   1  -4   4   61.09    4.14
   2  -4   4  167.76    6.47
   3  -4   4  336.37   12.61
   4  -4   4   36.71    3.86
   5  -4   4   16.01    2.74
   6  -4   4    1.55    1.41
   7  -4   4   37.44    3.63
   8  -4   4   34.69    4.34
   9  -4   4   71.49    6.44
  10  -4   4   23.20    4.14
  11  -4   4  188.30   15.46
  12  -4   4    9.73    4.72
  13  -4   4    8.22    4.72
 -10  -3   4   -4.06    5.61
  -9  -3   4   -1.66    3.11
  -8  -3   4   22.25    4.49
  -7  -3   4   46.06    5.85
  -6  -3   4  100.88    8.01
  -5  -3   4   35.54    4.49
  -4  -3   4   25.47    3.07
  -3  -3   4    8.47    1.87
  -2  -3   4   13.58    2.37
  -1  -3   4  326.28   12.49
   0  -3   4   31.19    2.72
   1  -3   4    2.89    1.24
   2  -3   4  143.41    6.01
   3  -3   4   25.27    3.21
   4  -3   4   62.61    4.16
   5  -3   4   31.60    3.00
   6  -3   4    1.81    1.53
   7  -3   4  195.45    8.74
   8  -3   4  147.96    8.47
   9  -3   4   21.30    3.73
  10  -3   4    5.50    3.52
  11  -3   4    5.52    3.56
  12  -3   4   20.93    5.89
  13  -3   4    5.91    4.82
 -10  -2   4   81.52   11.25
  -9  -2   4   18.33    4.08
  -8  -2   4   19.13    4.26
  -7  -2   4   27.25    4.19
  -6  -2   4   16.74    3.44
  -5  -2   4    6.15    2.25
  -4  -2   4    2.53    1.48
  -3  -2   4   37.89    3.42
  -2  -2   4  174.62    6.61
  -1  -2   4  163.97    5.86
   0  -2   4   35.24    2.93
   1  -2   4   65.40    4.17
   2  -2   4   37.70    2.49
   3  -2   4    3.93    1.24
   4  -2   4  167.47    6.54
   5  -2   4    8.55    1.98
   6  -2   4    5.85    1.72
   7  -2   4  115.53    7.85
   8  -2   4    4.18    2.30
   9  -2   4   36.36    5.14
  10  -2   4    8.51    4.02
  11  -2   4   28.78    6.39
  12  -2   4   58.40    9.11
 -11  -1   4    3.31    4.84
 -10  -1   4    5.55    4.30
  -9  -1   4    8.40    3.50
  -8  -1   4    4.93    2.67
  -7  -1   4   17.22    3.16
  -6  -1   4    9.26    2.62
  -5  -1   4  284.42   11.94
  -4  -1   4   15.66    2.29
  -3  -1   4   61.21    4.22
  -2  -1   4    2.76    0.97
  -1  -1   4   71.05    3.84
   0  -1   4   20.93    1.70
   1  -1   4   20.54    1.82
   2  -1   4   67.79    3.86
   3  -1   4  150.54    6.11
   4  -1   4  327.49   11.02
   5  -1   4   44.60    3.90
   6  -1   4    7.70    2.43
   7  -1   4   63.20    5.86
   8  -1   4    0.57    1.87
   9  -1   4   41.31    5.57
  10  -1   4   16.96    5.38
  11  -1   4   -1.88    3.53
  12  -1   4   47.88    8.59
 -11   0   4    3.55    4.73
 -10   0   4   15.37    4.93
  -9   0   4   62.74    8.51
  -8   0   4  155.23   10.06
  -7   0   4   18.28    3.23
  -6   0   4    9.69    2.35
  -5   0   4   -0.09    1.29
  -4   0   4   36.35    3.16
  -3   0   4   32.17    2.34
  -2   0   4   39.44    2.63
  -1   0   4   22.03    1.78
   0   0   4  970.97   22.48
   1   0   4   19.61    2.09
   2   0   4   37.47    3.05
   3   0   4   26.82    2.88
   4   0   4   38.69    3.69
   5   0   4    1.19    1.76
   6   0   4    6.36    2.28
   7   0   4   14.59    3.48
   8   0   4  169.27   11.08
   9   0   4   52.54    8.05
  10   0   4    6.32    4.21
  11   0   4    5.39    4.48
  12   0   4   -3.69    5.58
 -12   1   4   50.60    9.05
 -11   1   4   -2.04    3.97
 -10   1   4    4.73    3.47
  -9   1   4   36.80    5.97
  -8   1   4    0.26    1.90
  -7   1   4   54.51    5.13
  -6   1   4    8.47    2.21
  -5   1   4   44.88    3.63
  -4   1   4  341.10   10.69
  -3   1   4  153.44    5.17
  -2   1   4   69.01    3.13
  -1   1   4   24.90    2.07
   0   1   4   22.21    1.77
   1   1   4   63.03    3.20
   2   1   4    1.13    1.08
   3   1   4   59.03    4.46
   4   1   4   14.47    2.89
   5   1   4  293.69   12.62
   6   1   4   17.54    3.41
   7   1   4   16.68    3.67
   8   1   4    5.39    2.76
   9   1   4    7.86    4.20
  10   1   4    3.67    4.29
  11   1   4   -3.44    4.32
 -12   2   4   77.59   10.59
 -11   2   4   13.80    5.21
 -10   2   4    6.69    4.06
  -9   2   4   31.42    6.04
  -8   2   4    4.44    2.72
  -7   2   4  113.70    7.01
  -6   2   4    9.49    2.19
  -5   2   4   13.30    1.88
  -4   2   4  172.25    5.54
  -3   2   4    1.94    0.85
  -2   2   4   39.70    2.23
  -1   2   4   67.89    3.22
   0   2   4   37.56    2.62
   1   2   4  154.24    5.32
   2   2   4  163.06    6.33
   3   2   4   30.28    3.79
   4   2   4    2.52    1.87
   5   2   4    4.00    2.31
   6   2   4   10.30    3.13
   7   2   4   24.54    4.44
   8   2   4   17.13    4.18
   9   2   4   11.81    5.13
  10   2   4   92.89   16.76
 -13   3   4    4.40    6.94
 -12   3   4   20.96    6.30
 -11   3   4    8.36    4.66
 -10   3   4   22.05    5.26
  -9   3   4    8.97    3.77
  -8   3   4  101.13    9.73
  -7   3   4  147.00    7.86
  -6   3   4    6.29    1.89
  -5   3   4   41.53    3.28
  -4   3   4   63.49    3.00
  -3   3   4   31.95    2.09
  -2   3   4  154.61    4.43
  -1   3   4    1.74    0.94
   0   3   4   30.61    2.55
   1   3   4  334.50   10.85
   2   3   4   11.84    2.04
   3   3   4   11.07    2.58
   4   3   4   32.89    4.44
   5   3   4   38.57    5.00
   6   3   4   93.41    7.88
   7   3   4   50.84    5.98
   8   3   4   26.74    6.41
   9   3   4   -2.39    3.73
  10   3   4    0.08    5.54
 -13   4   4   17.38    6.29
 -12   4   4    9.43    5.13
 -11   4   4  183.33   15.21
 -10   4   4   21.78    5.47
  -9   4   4   55.14    7.16
  -8   4   4   28.28    4.95
  -7   4   4   32.51    4.99
  -6   4   4    1.65    1.30
  -5   4   4   12.62    1.71
  -4   4   4   35.86    2.36
  -3   4   4  343.77    8.06
  -2   4   4  176.22    5.25
  -1   4   4   60.41    4.13
   0   4   4   37.84    3.35
   1   4   4   40.44    3.60
   2   4   4    7.60    2.00
   3   4   4  133.71    9.26
   4   4   4   26.83    4.26
   5   4   4    6.16    2.92
   6   4   4   57.01    6.83
   7   4   4   -0.79    3.40
   8   4   4   19.04    6.09
   9   4   4    9.32    5.77
 -13   5   4   18.11    5.92
 -12   5   4   -0.66    3.76
 -11   5   4   13.50    4.75
 -10   5   4   18.32    4.97
  -9   5   4    3.45    2.89
  -8   5   4   36.61    5.53
  -7   5   4    0.67    1.76
  -6   5   4  290.60    9.88
  -5   5   4    1.13    1.07
  -4   5   4   45.26    2.70
  -3   5   4    8.87    1.56
  -2   5   4   35.11    3.22
  -1   5   4   13.11    2.06
   0   5   4    0.31    1.27
   1   5   4    6.83    1.87
   2   5   4  109.29    6.75
   3   5   4  111.83    8.52
   4   5   4   47.28    5.90
   5   5   4   34.68    6.35
   6   5   4   25.51    6.12
   7   5   4    2.83    4.12
   8   5   4   40.71    8.55
 -13   6   4    7.82    6.63
 -12   6   4   36.33   11.32
 -11   6   4   50.11   11.69
 -10   6   4   64.67    9.60
  -9   6   4  111.78    9.81
  -8   6   4   20.15    3.56
  -7   6   4   11.43    2.71
  -6   6   4    4.61    1.64
  -5   6   4   11.20    1.95
  -4   6   4    7.56    1.70
  -3   6   4    7.11    1.69
  -2   6   4    0.23    1.36
  -1   6   4  288.20   10.48
   0   6   4    7.14    2.34
   1   6   4   59.41    5.58
   2   6   4    0.45    1.86
   3   6   4   11.92    3.90
   4   6   4   22.54    5.32
   5   6   4    9.91    4.61
   6   6   4   13.46    5.41
   7   6   4   70.15    9.66
 -13   7   4   63.40   15.19
 -12   7   4   -6.71    4.94
 -11   7   4   -4.25    4.75
 -10   7   4   50.77   11.27
  -9   7   4   16.70    4.60
  -8   7   4   15.04    4.17
  -7   7   4   21.35    4.40
  -6   7   4   63.95    5.56
  -5   7   4  111.62    6.75
  -4   7   4  150.77    8.66
  -3   7   4   29.93    3.77
  -2   7   4    3.56    2.13
  -1   7   4    7.91    2.40
   0   7   4   13.61    2.98
   1   7   4    1.95    2.14
   2   7   4   31.38    4.36
   3   7   4   20.86    5.15
   4   7   4  188.64   15.00
   5   7   4    4.82    4.05
   6   7   4   14.54    6.15
 -13   8   4   61.99   14.77
 -12   8   4   19.09    9.40
 -11   8   4   22.51    8.97
 -10   8   4   16.29    5.11
  -9   8   4    6.73    3.45
  -8   8   4  158.47   12.48
  -7   8   4    2.40    1.97
  -6   8   4    3.71    2.62
  -5   8   4   92.61    9.14
  -4   8   4   26.61    3.45
  -3   8   4   32.94    4.19
  -2   8   4   13.93    3.10
  -1   8   4   20.39    3.53
   0   8   4  137.67    9.75
   1   8   4   42.17    5.30
   2   8   4    4.41    2.52
   3   8   4    9.10    4.23
   4   8   4   12.45    5.20
   5   8   4   24.08    6.82
 -13   9   4   -3.08    6.75
 -12   9   4   -1.33    7.28
 -11   9   4   12.73    5.09
 -10   9   4    8.00    4.49
  -9   9   4   58.81    7.85
  -8   9   4   44.22    9.42
  -7   9   4   45.09    6.31
  -6   9   4   17.34    4.25
  -5   9   4   50.60    6.82
  -4   9   4    4.74    2.51
  -3   9   4   90.95    7.49
  -2   9   4   32.27    4.51
  -1   9   4    7.58    2.93
   0   9   4   48.85    5.96
   1   9   4   11.22    3.49
   2   9   4   22.49    4.50
   3   9   4    9.44    5.01
   4   9   4    6.39    5.00
 -13  10   4   -6.38    6.84
 -12  10   4   98.25   11.82
 -11  10   4    7.66    6.44
 -10  10   4    9.80    6.71
  -9  10   4    9.69    5.74
  -8  10   4    3.81    3.33
  -7  10   4   21.89    4.88
  -6  10   4   36.30    6.25
  -5  10   4   15.13    4.38
  -4  10   4   68.38    8.44
  -3  10   4   56.23    6.10
  -2  10   4   17.02    3.63
  -1  10   4   16.67    3.96
   0  10   4   14.44    3.72
   1  10   4    3.86    3.18
   2  10   4   53.17    8.63
   3  10   4    5.33    6.64
 -12  11   4   -2.30    6.05
 -11  11   4    1.86    5.58
 -10  11   4    7.31    6.13
  -9  11   4   21.32    7.47
  -8  11   4    3.54    3.20
  -7  11   4  230.57   15.36
  -6  11   4    8.55    3.94
  -5  11   4   24.77    5.71
  -4  11   4   -1.50    2.81
  -3  11   4   21.92    5.32
  -2  11   4    7.08    3.20
  -1  11   4    0.63    2.81
   0  11   4    5.75    3.67
   1  11   4   52.26    6.92
 -11  12   4   27.83    9.52
 -10  12   4   78.97   14.11
  -9  12   4   12.00    7.34
  -8  12   4   14.72    5.07
  -7  12   4    3.55    4.10
  -6  12   4   14.46    4.77
  -5  12   4    2.56    3.56
  -4  12   4   16.54    5.26
  -3  12   4    0.50    4.13
  -2  12   4   96.59   11.03
  -1  12   4    0.68    3.35
   0  12   4    1.62    6.84
  -9  13   4   21.95    9.24
  -8  13   4   20.98    6.23
  -7  13   4    5.42    4.77
  -6  13   4   60.97    9.18
  -5  13   4   51.53    8.42
  -4  13   4    0.51    4.50
  -3  13   4    2.48    7.24
   2 -12   5    7.05    6.94
   3 -12   5    4.78    4.82
   4 -12   5   83.92   10.25
   5 -12   5    0.44    5.14
   6 -12   5   15.48    7.95
   7 -12   5   21.36    8.83
   8 -12   5   16.03    8.55
   9 -12   5   15.10    5.53
  10 -12   5    7.76    7.12
   0 -11   5   -5.75    6.92
   1 -11   5   25.00    6.75
   2 -11   5    1.50    4.26
   3 -11   5    4.73    4.06
   4 -11   5   20.19    5.59
   5 -11   5   34.31   10.78
   6 -11   5   32.16   10.69
   7 -11   5    3.97    5.58
   8 -11   5   20.18    5.43
   9 -11   5   19.17    5.94
  10 -11   5    4.42    4.60
  11 -11   5    6.69    5.90
  -1 -10   5    2.05    5.39
   0 -10   5  118.47   12.72
   1 -10   5   30.65    6.91
   2 -10   5   93.14   10.46
   3 -10   5    2.63    3.73
   4 -10   5    1.55    3.16
   5 -10   5   21.89    5.41
   6 -10   5   36.16    9.75
   7 -10   5   18.26    5.26
   8 -10   5   20.97    5.69
   9 -10   5    2.99    3.69
  10 -10   5  129.19   13.38
  11 -10   5   14.22    5.68
  -2  -9   5   20.40    8.81
  -1  -9   5   13.77    5.29
   0  -9   5    2.88    3.87
   1  -9   5    0.39    3.35
   2  -9   5   -1.57    2.77
   3  -9   5   -0.84    3.04
   4  -9   5   11.45    4.22
   5  -9   5   27.46    5.24
   6  -9   5    6.74    2.82
   7  -9   5   66.57    8.53
   8  -9   5    6.72    4.16
   9  -9   5   -3.79    3.19
  10  -9   5   45.54    7.69
  11  -9   5   10.05    5.26
  12  -9   5    8.20    9.70
  -4  -8   5   16.99    6.07
  -3  -8   5   17.92    5.32
  -2  -8   5   19.75    5.28
  -1  -8   5   12.47    3.66
   0  -8   5    4.56    2.76
   1  -8   5   82.48    7.27
   2  -8   5  104.14    8.04
   3  -8   5  204.76   10.56
   4  -8   5   20.89    4.64
   5  -8   5    9.14    2.85
   6  -8   5   18.83    3.63
   7  -8   5   11.94    3.96
   8  -8   5    6.58    3.85
   9  -8   5   -1.04    2.55
  10  -8   5   85.00   10.24
  11  -8   5    8.61    4.52
  12  -8   5   86.64   15.73
  -5  -7   5   28.43    7.11
  -4  -7   5    3.72    3.93
  -3  -7   5   20.04    5.03
  -2  -7   5   56.56    5.85
  -1  -7   5    8.00    2.99
   0  -7   5   10.41    2.93
   1  -7   5    7.13    2.40
   2  -7   5   12.44    3.02
   3  -7   5   31.13    4.15
   4  -7   5   10.55    2.78
   5  -7   5    3.86    2.32
   6  -7   5  235.03   11.38
   7  -7   5    8.88    2.91
   8  -7   5   70.55    8.93
   9  -7   5    3.16    3.15
  10  -7   5    4.00    3.91
  11  -7   5   29.95    6.64
  12  -7   5    5.15    6.18
  -6  -6   5    6.79    4.69
  -5  -6   5   37.19    7.31
  -4  -6   5   27.69    5.86
  -3  -6   5   10.75    4.37
  -2  -6   5   21.28    3.83
  -1  -6   5  257.41   11.72
   0  -6   5   16.69    3.44
   1  -6   5   34.04    4.39
   2  -6   5   26.74    3.84
   3  -6   5  141.44    8.34
   4  -6   5    0.15    1.72
   5  -6   5   58.77    5.55
   6  -6   5   10.42    2.79
   7  -6   5    7.37    2.61
   8  -6   5   95.89    9.84
   9  -6   5   -3.81    2.64
  10  -6   5    4.39    3.95
  11  -6   5   27.95    9.71
  12  -6   5   15.72    8.60
  -7  -5   5    2.57    4.51
  -6  -5   5   33.91    6.18
  -5  -5   5   26.05    5.66
  -4  -5   5   25.69    5.36
  -3  -5   5   10.68    3.75
  -2  -5   5    3.13    2.18
  -1  -5   5   62.76    6.00
   0  -5   5    7.79    2.37
   1  -5   5    7.70    2.53
   2  -5   5   86.15    5.60
   3  -5   5    2.95    1.89
   4  -5   5  165.81    9.48
   5  -5   5    4.64    1.86
   6  -5   5   26.19    4.12
   7  -5   5   11.06    2.89
   8  -5   5  232.00   13.66
   9  -5   5   14.80    4.83
  10  -5   5   19.02    5.15
  11  -5   5   40.15   10.53
  12  -5   5   27.52    9.90
  -8  -4   5   84.77    8.64
  -7  -4   5   22.90    4.75
  -6  -4   5    3.63    2.80
  -5  -4   5   16.30    3.71
  -4  -4   5   20.88    4.64
  -3  -4   5   11.67    2.93
  -2  -4   5    0.49    1.64
  -1  -4   5  178.65    8.86
   0  -4   5    3.15    1.98
   1  -4   5  306.70   12.68
   2  -4   5    1.60    1.44
   3  -4   5   15.23    2.62
   4  -4   5    5.26    2.12
   5  -4   5   12.09    3.07
   6  -4   5   29.97    4.19
   7  -4   5   21.78    3.76
   8  -4   5   28.40    5.36
   9  -4   5   31.11    5.47
  10  -4   5   44.59    7.43
  11  -4   5    4.76    5.87
  12  -4   5   30.53   10.48
  -9  -3   5    3.88    4.09
  -8  -3   5    6.44    3.55
  -7  -3   5    4.77    3.16
  -6  -3   5    0.06    2.18
  -5  -3   5  197.25   11.23
  -4  -3   5   33.52    4.52
  -3  -3   5  135.74    8.76
  -2  -3   5    6.83    2.14
  -1  -3   5   13.76    2.85
   0  -3   5   61.06    5.53
   1  -3   5   28.47    3.00
   2  -3   5   28.54    3.18
   3  -3   5   63.39    5.48
   4  -3   5  294.34   12.61
   5  -3   5   87.21    6.78
   6  -3   5  140.32    9.31
   7  -3   5   10.90    2.99
   8  -3   5    4.34    3.31
   9  -3   5    9.65    4.04
  10  -3   5   31.40    6.60
  11  -3   5   12.94    7.82
  12  -3   5   14.86    9.14
  -9  -2   5    4.39    4.10
  -8  -2   5   84.72    8.29
  -7  -2   5    0.80    2.49
  -6  -2   5   94.86    7.82
  -5  -2   5   11.80    2.97
  -4  -2   5   26.32    3.91
  -3  -2   5   83.71    5.64
  -2  -2   5    2.97    1.78
  -1  -2   5   32.38    4.04
   0  -2   5   80.08    5.07
   1  -2   5   50.32    4.02
   2  -2   5   62.34    5.41
   3  -2   5   30.11    3.88
   4  -2   5    3.05    2.12
   5  -2   5    2.33    2.02
   6  -2   5    2.02    2.13
   7  -2   5    1.36    2.21
   8  -2   5   15.15    3.70
   9  -2   5   52.81    6.53
  10  -2   5   25.89    6.55
  11  -2   5   24.53    6.69
  12  -2   5    2.57    7.47
 -10  -1   5   15.57    5.62
  -9  -1   5   34.38    6.85
  -8  -1   5    1.93    2.46
  -7  -1   5   73.25    6.91
  -6  -1   5    7.50    2.75
  -5  -1   5   26.00    3.97
  -4  -1   5   13.79    2.49
  -3  -1   5  316.52   10.90
  -2  -1   5   29.05    3.62
  -1  -1   5   49.89    3.89
   0  -1   5   72.05    4.73
   1  -1   5   74.01    4.85
   2  -1   5   44.36    4.55
   3  -1   5   30.29    3.82
   4  -1   5   10.78    2.25
   5  -1   5  173.99    8.34
   6  -1   5   65.76    6.38
   7  -1   5  241.27   12.20
   8  -1   5    7.29    3.22
   9  -1   5   11.60    3.62
  10  -1   5    7.69    4.49
  11  -1   5   -0.16    4.64
 -10   0   5  121.78   13.00
  -9   0   5    0.17    3.45
  -8   0   5    9.31    3.23
  -7   0   5   12.58    3.43
  -6   0   5    7.75    2.49
  -5   0   5    4.66    2.17
  -4   0   5    6.26    1.87
  -3   0   5   69.54    4.89
  -2   0   5   74.86    4.46
  -1   0   5   71.09    4.58
   0   0   5   -0.77    1.03
   1   0   5   72.72    5.55
   2   0   5   75.02    5.05
   3   0   5   71.97    5.00
   4   0   5    2.45    1.70
   5   0   5    7.23    2.73
   6   0   5   11.54    3.24
   7   0   5   13.38    3.53
   8   0   5    5.95    3.13
   9   0   5    0.65    3.25
  10   0   5  119.32   13.06
  11   0   5    2.39    6.92
 -11   1   5    6.02    4.64
 -10   1   5    1.45    3.73
  -9   1   5    8.57    3.90
  -8   1   5    4.73    3.18
  -7   1   5  261.42   11.89
  -6   1   5   57.59    5.81
  -5   1   5  180.72    8.90
  -4   1   5    8.30    1.98
  -3   1   5   36.77    3.19
  -2   1   5   54.31    4.02
  -1   1   5   74.59    3.97
   0   1   5   81.02    4.61
   1   1   5   43.83    3.74
   2   1   5   31.77    3.42
   3   1   5  305.33   11.22
   4   1   5    5.74    2.37
   5   1   5   34.72    4.60
   6   1   5    7.73    3.00
   7   1   5   66.00    7.13
   8   1   5   -2.48    2.47
   9   1   5   32.33    6.96
  10   1   5   13.52    5.74
 -11   2   5   16.48    5.67
 -10   2   5    6.46    3.91
  -9   2   5   59.58    8.36
  -8   2   5   20.79    4.93
  -7   2   5    2.63    2.18
  -6   2   5    3.07    2.02
  -5   2   5    6.23    2.13
  -4   2   5    4.61    1.65
  -3   2   5   25.42    2.22
  -2   2   5   83.08    4.42
  -1   2   5   49.65    3.06
   0   2   5   73.15    4.90
   1   2   5   27.58    3.21
   2   2   5    0.19    1.50
   3   2   5   84.41    7.01
   4   2   5   17.62    3.68
   5   2   5    7.66    2.89
   6   2   5   95.28    8.50
   7   2   5   -2.31    2.40
   8   2   5   78.53    8.44
   9   2   5    4.08    4.67
 -12   3   5   19.09    8.57
 -11   3   5   14.12    4.94
 -10   3   5   12.88    4.55
  -9   3   5    8.40    3.96
  -8   3   5    7.14    3.60
  -7   3   5   17.44    3.47
  -6   3   5  141.32    8.79
  -5   3   5   91.25    5.61
  -4   3   5  325.55    9.51
  -3   3   5   77.36    3.68
  -2   3   5   31.88    2.50
  -1   3   5   27.00    2.42
   0   3   5   76.10    5.20
   1   3   5   16.54    3.12
   2   3   5    3.05    2.14
   3   3   5  132.31    9.33
   4   3   5   31.65    4.71
   5   3   5  197.11   15.50
   6   3   5    5.19    2.99
   7   3   5   -2.43    2.90
   8   3   5    5.19    3.78
   9   3   5   -0.71    4.72
 -12   4   5   13.66    5.92
 -11   4   5   -2.77    3.39
 -10   4   5   25.49    5.93
  -9   4   5   20.43    5.01
  -8   4   5   19.48    4.62
  -7   4   5   36.55    5.71
  -6   4   5   22.94    3.46
  -5   4   5    8.95    1.67
  -4   4   5    3.84    1.16
  -3   4   5   12.38    1.65
  -2   4   5    2.76    1.32
  -1   4   5  304.58    9.67
   0   4   5   -0.92    2.03
   1   4   5  175.11    9.49
   2   4   5   -1.92    1.84
   3   4   5   13.15    3.35
   4   4   5   19.91    4.18
   5   4   5    9.48    3.62
   6   4   5    7.12    3.53
   7   4   5   24.33    5.37
   8   4   5   57.21    9.78
 -12   5   5   41.63    8.24
 -11   5   5   31.47    6.44
 -10   5   5   13.88    4.98
  -9   5   5    7.98    3.94
  -8   5   5  183.76   12.99
  -7   5   5   13.73    3.69
  -6   5   5   37.62    3.91
  -5   5   5    9.68    1.56
  -4   5   5  181.81    5.53
  -3   5   5    3.28    1.31
  -2   5   5   93.96    5.97
  -1   5   5   10.87    2.33
   0   5   5   12.80    3.08
   1   5   5   68.10    6.55
   2   5   5    3.88    2.36
   3   5   5    8.60    3.05
   4   5   5   27.39    4.90
   5   5   5   12.47    3.97
   6   5   5   27.83    6.56
   7   5   5   -3.54    4.45
 -12   6   5   12.46    7.69
 -11   6   5   10.69    7.91
 -10   6   5    2.05    4.60
  -9   6   5    3.88    5.25
  -8   6   5   89.71   13.81
  -7   6   5    4.72    2.67
  -6   6   5   12.96    2.59
  -5   6   5   67.67    4.46
  -4   6   5   -0.35    1.24
  -3   6   5  146.44    7.82
  -2   6   5   15.08    2.71
  -1   6   5   35.07    3.76
   0   6   5   12.24    3.05
   1   6   5  250.45   12.40
   2   6   5   21.30    4.24
   3   6   5   13.04    4.33
   4   6   5   30.89    6.73
   5   6   5   17.40    5.75
   6   6   5    7.22    5.32
 -12   7   5    4.34    6.97
 -11   7   5    8.63    6.54
 -10   7   5    1.76    5.48
  -9   7   5   -1.02    4.09
  -8   7   5   80.13    8.94
  -7   7   5    5.33    3.21
  -6   7   5  250.06   11.66
  -5   7   5    4.91    2.27
  -4   7   5   17.66    3.40
  -3   7   5   30.98    4.11
  -2   7   5   13.32    3.00
  -1   7   5    7.34    2.75
   0   7   5   13.03    4.13
   1   7   5   11.84    3.92
   2   7   5   65.09    8.64
   3   7   5    9.68    4.30
   4   7   5   -1.26    4.26
   5   7   5   29.99    7.41
 -12   8   5   43.47   12.16
 -11   8   5   15.33    7.93
 -10   8   5   90.91   14.60
  -9   8   5   -1.86    3.29
  -8   8   5   10.43    4.27
  -7   8   5    8.08    3.69
  -6   8   5   23.04    5.09
  -5   8   5   11.53    3.17
  -4   8   5   20.98    3.98
  -3   8   5  195.35   10.78
  -2   8   5   78.86    7.07
  -1   8   5   69.00    6.91
   0   8   5   -0.52    2.96
   1   8   5    1.93    3.51
   2   8   5   12.83    5.34
   3   8   5   25.54    6.58
   4   8   5   23.70    6.63
 -12   9   5    7.26    7.43
 -11   9   5    9.61    7.10
 -10   9   5   24.82    9.33
  -9   9   5    1.59    5.07
  -8   9   5    9.34    6.17
  -7   9   5   67.32    8.18
  -6   9   5   11.03    4.29
  -5   9   5   27.30    5.55
  -4   9   5    7.33    3.01
  -3   9   5    0.61    2.61
  -2   9   5    0.61    2.33
  -1   9   5    1.62    2.69
   0   9   5    2.62    3.48
   1   9   5    2.75    3.90
   2   9   5   19.29    6.47
   3   9   5   15.70    6.41
 -11  10   5   14.65    8.18
 -10  10   5  115.48   17.51
  -9  10   5    7.00    6.34
  -8  10   5   19.52    7.02
  -7  10   5   17.95    5.20
  -6  10   5   33.57    6.27
  -5  10   5   17.17    4.99
  -4  10   5    3.61    2.98
  -3  10   5    3.93    2.78
  -2  10   5   91.44    8.39
  -1  10   5   42.17    7.40
   0  10   5  113.59   12.46
   1  10   5    6.02    4.53
 -10  11   5   -1.52    6.61
  -9  11   5   20.76    8.77
  -8  11   5   11.25    4.79
  -7  11   5    3.34    3.74
  -6  11   5   19.63    5.72
  -5  11   5   15.77    5.49
  -4  11   5   38.15    6.89
  -3  11   5    7.04    3.66
  -2  11   5    2.09    3.60
  -1  11   5   10.50    5.21
  -9  12   5   26.89    9.68
  -8  12   5   14.64    5.94
  -7  12   5   30.22    6.88
  -6  12   5    7.45    5.15
  -5  12   5    4.78    4.83
  -4  12   5   81.35   10.56
  -3  12   5    3.61    5.48
   3 -11   6    9.95    7.08
   4 -11   6   67.18   13.27
   5 -11   6    8.67    8.51
   6 -11   6    1.62    9.03
   0 -10   6   32.40   11.22
   1 -10   6   -0.62    4.26
   2 -10   6   28.03    6.70
   3 -10   6   36.01    6.87
   4 -10   6   35.75    7.07
   5 -10   6   17.05    5.54
   6 -10   6    9.80    6.71
   7 -10   6   12.84    7.85
   8 -10   6   55.10   12.94
   9 -10   6    2.46    4.33
  -1  -9   6    4.16    7.53
   0  -9   6    8.72    4.98
   1  -9   6    0.46    4.15
   2  -9   6    0.30    3.49
   3  -9   6   32.93    6.81
   4  -9   6    6.02    3.91
   5  -9   6   18.14    5.07
   6  -9   6   41.63    7.40
   7  -9   6   17.43    8.46
   8  -9   6   30.04    6.46
   9  -9   6    9.20    5.18
  10  -9   6    0.68    4.48
  -3  -8   6    3.84    6.56
  -2  -8   6   61.99    9.00
  -1  -8   6   40.55    5.76
   0  -8   6   77.60    7.66
   1  -8   6   16.15    3.89
   2  -8   6    6.44    2.80
   3  -8   6    9.96    4.14
   4  -8   6   15.28    4.69
   5  -8   6   20.49    5.22
   6  -8   6    5.85    3.81
   7  -8   6   20.78    5.52
   8  -8   6   54.14    8.75
   9  -8   6    5.25    4.64
  10  -8   6   23.57    6.66
  11  -8   6    9.87    7.63
  -4  -7   6  105.29   16.44
  -3  -7   6   10.46    4.88
  -2  -7   6   15.12    4.80
  -1  -7   6   35.20    5.08
   0  -7   6   12.51    3.53
   1  -7   6   -0.20    2.47
   2  -7   6   14.96    3.77
   3  -7   6   17.77    4.78
   4  -7   6   84.70    9.42
   5  -7   6   34.00    6.08
   6  -7   6   19.64    4.01
   7  -7   6   14.25    3.86
   8  -7   6   23.48    6.09
   9  -7   6   -1.56    3.59
  10  -7   6   39.81    7.56
  11  -7   6   60.63   13.07
  -5  -6   6   -1.43    4.22
  -4  -6   6    0.43    3.46
  -3  -6   6   39.68    7.14
  -2  -6   6    4.56    3.47
  -1  -6   6    8.62    3.19
   0  -6   6    4.18    2.59
   1  -6   6  171.59   11.18
   2  -6   6    4.36    2.47
   3  -6   6   83.89    9.41
   4  -6   6    8.75    3.63
   5  -6   6   27.25    4.26
   6  -6   6    7.71    2.96
   7  -6   6   -0.91    2.39
   8  -6   6    3.26    3.74
   9  -6   6   16.14    5.43
  10  -6   6   42.84    7.31
  11  -6   6   27.50    7.55
  -6  -5   6    9.82    5.12
  -5  -5   6   25.67    6.13
  -4  -5   6    9.90    4.12
  -3  -5   6   28.01    5.78
  -2  -5   6   42.97    5.48
  -1  -5   6   39.43    5.15
   0  -5   6    1.62    2.29
   1  -5   6   25.52    3.84
   2  -5   6   11.43    3.08
   3  -5   6    4.46    3.14
   4  -5   6   39.04    4.98
   5  -5   6    5.94    2.78
   6  -5   6  158.54   10.70
   7  -5   6   12.53    3.56
   8  -5   6   14.92    3.81
   9  -5   6    7.96    4.53
  10  -5   6   37.88    7.54
  11  -5   6   -6.39    6.20
  -7  -4   6   34.60   10.14
  -6  -4   6   53.78    8.44
  -5  -4   6    6.89    4.08
  -4  -4   6   16.22    4.93
  -3  -4   6   77.70    8.82
  -2  -4   6    8.98    3.01
  -1  -4   6   57.63    6.07
   0  -4   6   14.97    3.14
   1  -4   6   39.12    4.85
   2  -4   6   32.84    5.75
   3  -4   6   68.10    6.35
   4  -4   6    9.76    2.85
   5  -4   6   20.24    3.71
   6  -4   6    0.80    2.37
   7  -4   6   17.84    3.95
   8  -4   6   25.12    5.67
   9  -4   6   12.53    4.66
  10  -4   6    9.28    4.88
  -8  -3   6   13.62    7.83
  -7  -3   6   43.05    6.19
  -6  -3   6   36.41    6.69
  -5  -3   6   11.06    4.03
  -4  -3   6   11.72    4.14
  -3  -3   6   60.92    8.13
  -2  -3   6    5.21    2.59
  -1  -3   6   89.09    7.35
   0  -3   6   15.42    3.09
   1  -3   6    3.23    2.16
   2  -3   6  117.04    8.15
   3  -3   6   20.51    3.78
   4  -3   6   40.94    4.95
   5  -3   6   11.56    3.20
   6  -3   6   84.40    7.73
   7  -3   6   72.52    7.35
   8  -3   6   26.56    6.09
   9  -3   6   26.85    6.49
  10  -3   6    5.21    4.94
  -8  -2   6   25.08    5.74
  -7  -2   6    4.21    3.43
  -6  -2   6    4.08    3.09
  -5  -2   6   13.95    3.85
  -4  -2   6    7.54    3.56
  -3  -2   6    5.25    2.40
  -2  -2   6   26.51    4.14
  -1  -2   6  122.06    8.53
   0  -2   6   63.14    5.74
   1  -2   6   88.65    5.91
   2  -2   6   63.56    6.06
   3  -2   6    4.97    2.39
   4  -2   6   20.92    3.96
   5  -2   6   13.17    3.22
   6  -2   6    6.92    3.06
   7  -2   6   37.14    7.03
   8  -2   6    2.96    3.34
   9  -2   6   15.99    5.57
  10  -2   6   46.62    8.75
  -9  -1   6    3.36    5.64
  -8  -1   6    3.02    3.34
  -7  -1   6   21.58    4.47
  -6  -1   6   -1.27    2.56
  -5  -1   6  162.88   10.68
  -4  -1   6   29.78    5.50
  -3  -1   6   51.77    5.54
  -2  -1   6    4.21    2.36
  -1  -1   6   83.25    6.89
   0  -1   6   22.67    3.05
   1  -1   6   21.11    3.53
   2  -1   6   81.22    6.61
   3  -1   6  102.20    8.06
   4  -1   6   56.77    6.33
   5  -1   6   48.04    6.10
   6  -1   6   29.68    6.16
   7  -1   6   21.37    5.69
   8  -1   6   23.48    5.82
   9  -1   6   43.17    8.19
  10  -1   6    9.24    9.95
  -9   0   6    8.43    5.06
  -8   0   6   58.21    8.87
  -7   0   6   15.87    4.14
  -6   0   6    5.96    2.91
  -5   0   6    0.17    2.21
  -4   0   6   18.38    3.43
  -3   0   6   25.83    3.59
  -2   0   6   62.07    5.86
  -1   0   6   16.91    3.19
   0   0   6  153.06    7.84
   1   0   6   23.94    3.75
   2   0   6   76.59    6.67
   3   0   6   11.63    3.19
   4   0   6   19.61    4.10
   5   0   6    0.02    3.19
   6   0   6    4.19    3.61
   7   0   6    8.14    4.73
   8   0   6   72.57   10.09
   9   0   6    7.53    5.32
 -10   1   6   -0.56    5.23
  -9   1   6   41.94    7.69
  -8   1   6   18.48    5.41
  -7   1   6   16.21    3.93
  -6   1   6   40.95    5.02
  -5   1   6   49.52    5.43
  -4   1   6   73.63    5.68
  -3   1   6  112.68    8.11
  -2   1   6   84.04    6.86
  -1   1   6   15.49    2.53
   0   1   6   18.05    3.34
   1   1   6   82.45    7.01
   2   1   6    6.59    2.85
   3   1   6   47.05    5.63
   4   1   6   32.31    6.01
   5   1   6  131.95   13.21
   6   1   6    1.98    3.37
   7   1   6   22.80    5.30
   8   1   6    4.76    3.84
   9   1   6    9.08    4.87
 -10   2   6   53.25    8.35
  -9   2   6    8.76    4.37
  -8   2   6    2.00    3.36
  -7   2   6   41.19    5.30
  -6   2   6    6.59    2.78
  -5   2   6    6.08    2.55
  -4   2   6   27.90    3.53
  -3   2   6    4.88    2.16
  -2   2   6   65.07    4.98
  -1   2   6   87.98    6.68
   0   2   6   68.51    6.34
   1   2   6  106.15    8.29
   2   2   6   27.22    4.55
   3   2   6    5.86    2.83
   4   2   6    8.89    3.32
   5   2   6   11.58    3.81
   6   2   6    7.56    3.71
   7   2   6   -3.34    3.08
   8   2   6   27.29    5.78
 -11   3   6   12.53    7.73
 -10   3   6    9.64    5.13
  -9   3   6   41.57    7.40
  -8   3   6   36.29    6.68
  -7   3   6   70.07    8.67
  -6   3   6   83.37    7.17
  -5   3   6    8.11    2.78
  -4   3   6   45.66    4.15
  -3   3   6   20.14    2.90
  -2   3   6  116.27    8.02
  -1   3   6    2.99    2.19
   0   3   6   21.17    3.15
   1   3   6   84.08    7.33
   2   3   6    3.69    2.60
   3   3   6   87.65    7.98
   4   3   6   19.11    4.42
   5   3   6   24.00    4.66
   6   3   6   28.40    5.52
   7   3   6   39.28    6.62
   8   3   6    1.76    5.17
 -11   4   6   75.91   15.20
 -10   4   6    2.26    4.08
  -9   4   6   15.93    5.23
  -8   4   6   30.65    6.33
  -7   4   6   21.58    5.04
  -6   4   6    9.75    2.89
  -5   4   6   27.91    4.14
  -4   4   6   13.32    2.30
  -3   4   6   78.89    5.09
  -2   4   6   33.92    3.83
  -1   4   6   45.14    4.51
   0   4   6   16.90    3.62
   1   4   6   35.99    5.27
   2   4   6    3.89    2.81
   3   4   6   68.99    7.36
   4   4   6   26.08    5.14
   5   4   6    7.95    3.82
   6   4   6   45.82    6.98
   7   4   6   33.60    8.26
 -11   5   6   10.64    8.12
 -10   5   6   26.77    6.28
  -9   5   6    3.42    4.01
  -8   5   6   23.88    5.61
  -7   5   6   16.91    4.58
  -6   5   6  172.22   11.87
  -5   5   6    3.43    1.83
  -4   5   6   41.85    3.53
  -3   5   6    6.54    2.05
  -2   5   6   14.22    3.29
  -1   5   6   24.47    3.87
   0   5   6    3.28    2.31
   1   5   6   26.98    4.66
   2   5   6   37.33    5.62
   3   5   6   16.84    4.42
   4   5   6   10.75    4.15
   5   5   6   27.75    5.91
   6   5   6   14.38    6.43
 -11   6   6   16.24    9.55
 -10   6   6   47.44   11.48
  -9   6   6   28.37    9.27
  -8   6   6    8.42    6.22
  -7   6   6   -0.19    4.56
  -6   6   6   11.32    3.84
  -5   6   6   38.71    4.95
  -4   6   6    8.29    2.52
  -3   6   6   81.88    7.23
  -2   6   6    7.46    2.80
  -1   6   6  160.14   11.05
   0   6   6    8.84    3.17
   1   6   6   15.25    4.11
   2   6   6    0.04    2.87
   3   6   6   25.00    5.48
   4   6   6   10.02    5.10
   5   6   6   -2.58    4.71
 -11   7   6   32.31   11.06
 -10   7   6   48.69   11.46
  -9   7   6   -2.74    4.80
  -8   7   6   28.24    8.13
  -7   7   6    9.59    6.52
  -6   7   6   13.24    4.56
  -5   7   6   34.59    4.96
  -4   7   6   67.32    7.33
  -3   7   6   19.60    4.92
  -2   7   6    5.43    3.67
  -1   7   6    3.47    3.11
   0   7   6   11.10    4.42
   1   7   6   27.60    6.47
   2   7   6   12.49    5.06
   3   7   6    8.56    5.49
   4   7   6   69.31   14.47
 -11   8   6    4.85    7.84
 -10   8   6   30.42   10.62
  -8   8   6   58.77   12.39
  -7   8   6   37.56    9.71
  -6   8   6    2.97    3.76
  -5   8   6   17.42    3.93
  -4   8   6   27.54    5.84
  -3   8   6   11.64    4.23
  -2   8   6    4.26    3.79
  -1   8   6   12.92    4.56
   0   8   6   63.17    8.86
   1   8   6   40.99    7.37
   2   8   6   45.07    8.49
  -9   9   6   13.53    8.54
  -8   9   6   37.27   10.62
  -7   9   6    9.21    4.80
  -6   9   6   44.62    6.99
  -5   9   6   10.04    4.69
  -4   9   6    2.80    3.37
  -3   9   6   30.77    6.29
  -2   9   6   -2.63    2.75
  -1   9   6    7.78    4.37
   0   9   6    8.99    5.30
   1   9   6   -0.82    5.73
  -9  10   6    2.96    6.58
  -8  10   6   41.25   12.04
  -7  10   6    5.72    4.80
  -6  10   6    9.99    4.80
  -5  10   6   34.94    7.51
  -4  10   6   46.63    7.79
  -3  10   6   34.76    7.18
  -2  10   6   27.04    6.50
  -1  10   6    2.26    6.60
  -8  11   6   -2.45    6.88
  -7  11   6   68.36    9.73
  -6  11   6   -0.24    4.50
  -5  11   6    5.61    7.73
  -4  11   6   48.48   12.62
   3  -9   7    4.76    5.06
   4  -9   7   12.72    5.71
   5  -9   7   45.49    9.12
   6  -9   7   13.43    8.00
   0  -8   7   -1.95    4.58
   1  -8   7   61.04    7.53
   2  -8   7   20.87    6.54
   3  -8   7   51.26    8.45
   4  -8   7   17.75    5.54
   5  -8   7    0.20    3.97
   6  -8   7    5.48    4.28
   7  -8   7    1.62    5.58
   8  -8   7    3.38    7.28
  -2  -7   7   11.22    7.77
  -1  -7   7    0.45    4.25
   0  -7   7   12.99    4.22
   1  -7   7   12.39    4.28
   2  -7   7   -0.31    3.74
   3  -7   7   14.94    5.51
   4  -7   7    0.49    3.15
   5  -7   7    7.18    4.54
   6  -7   7   67.70    9.24
   7  -7   7   20.45    4.76
   8  -7   7   59.34    9.30
   9  -7   7   -0.63    5.74
  -3  -6   7   11.39    7.65
  -2  -6   7    5.09    4.14
  -1  -6   7   67.54    7.50
   0  -6   7   21.36    4.80
   1  -6   7    8.04    3.32
   2  -6   7   15.62    5.05
   3  -6   7   56.04    8.56
   4  -6   7    5.42    3.92
   5  -6   7   20.37    5.37
   6  -6   7   18.83    4.42
   7  -6   7    7.55    3.82
   8  -6   7    5.23    4.49
   9  -6   7    0.31    4.62
  -4  -5   7   52.27    8.86
  -3  -5   7    3.13    4.14
  -2  -5   7   -2.09    3.42
  -1  -5   7   23.78    4.73
   0  -5   7   24.00    4.36
   1  -5   7    2.34    2.68
   2  -5   7   53.36    8.04
   3  -5   7    4.76    3.71
   4  -5   7   61.93    8.15
   5  -5   7   17.11    4.08
   6  -5   7    8.92    3.77
   7  -5   7    3.66    3.38
   8  -5   7   64.22    7.77
   9  -5   7    5.44    5.39
  -5  -4   7   11.22    5.66
  -4  -4   7   18.98    5.84
  -3  -4   7   -0.84    3.32
  -2  -4   7    3.56    3.89
  -1  -4   7   87.89    8.23
   0  -4   7   15.11    3.94
   1  -4   7  129.43    9.68
   2  -4   7    1.92    3.18
   3  -4   7   -1.61    2.89
   4  -4   7   18.35    4.48
   5  -4   7    8.15    3.41
   6  -4   7    7.35    3.54
   7  -4   7   11.37    4.05
   8  -4   7   10.47    5.52
   9  -4   7   43.71    8.48
  -6  -3   7   -3.17    6.36
  -5  -3   7   62.46    9.31
  -4  -3   7   18.02    5.20
  -3  -3   7   58.49    8.42
  -2  -3   7    2.32    2.81
  -1  -3   7    2.75    2.82
   0  -3   7    9.57    3.26
   1  -3   7    0.78    3.22
   2  -3   7   -0.71    2.73
   3  -3   7    9.35    3.89
   4  -3   7  108.26    9.12
   5  -3   7   50.16    6.23
   6  -3   7   67.26    7.63
   7  -3   7   -1.10    3.36
   8  -3   7   -3.09    4.13
   9  -3   7   14.46    9.07
  -7  -2   7    3.60    6.72
  -6  -2   7   11.30    4.80
  -5  -2   7    2.50    4.01
  -4  -2   7   19.04    5.49
  -3  -2   7   56.64    7.92
  -2  -2   7    2.29    2.52
  -1  -2   7    3.00    2.60
   0  -2   7   50.30    5.93
   1  -2   7   12.97    4.11
   2  -2   7   34.88    6.25
   3  -2   7    3.12    2.70
   4  -2   7   -0.83    2.71
   5  -2   7   -0.68    2.62
   6  -2   7    4.86    3.30
   7  -2   7    6.81    4.83
   8  -2   7    7.71    4.92
   9  -2   7   23.44   10.32
  -7  -1   7   77.90    9.79
  -6  -1   7   13.22    5.14
  -5  -1   7    8.65    4.17
  -4  -1   7    3.23    3.60
  -3  -1   7  122.03   11.68
  -2  -1   7   -0.62    2.25
  -1  -1   7   22.14    4.25
   0  -1   7   34.45    6.22
   1  -1   7   30.12    5.93
   2  -1   7   17.32    3.94
   3  -1   7    0.36    2.42
   4  -1   7    0.08    2.45
   5  -1   7   70.03    7.80
   6  -1   7   10.78    5.14
   7  -1   7   82.79   11.32
   8  -1   7   11.44    5.53
  -7   0   7    6.65    3.76
  -6   0   7   17.10    5.64
  -5   0   7   10.82    4.84
  -4   0   7   23.38    5.28
  -3   0   7    9.49    3.47
  -2   0   7   51.03    5.99
  -1   0   7   34.09    4.78
   0   0   7   -0.61    2.86
   1   0   7   38.16    5.15
   2   0   7   55.21    6.32
   3   0   7    6.01    3.26
   4   0   7   14.71    4.28
   5   0   7   14.77    5.57
   6   0   7   14.93    5.66
   7   0   7   12.11    5.54
   8   0   7   -3.62    6.94
  -8   1   7   -1.40    4.21
  -7   1   7   73.31    9.70
  -6   1   7   15.68    4.20
  -5   1   7   81.16    9.52
  -4   1   7    3.90    3.25
  -3   1   7    2.36    2.44
  -2   1   7   10.57    3.45
  -1   1   7   37.68    6.61
   0   1   7   30.79    4.40
   1   1   7   15.66    3.88
   2   1   7    1.37    2.67
   3   1   7  108.37    9.57
   4   1   7    6.62    4.53
   5   1   7    4.21    4.58
   6   1   7    2.82    5.10
   7   1   7   64.13    9.48
  -8   2   7   12.37    5.51
  -7   2   7    4.13    4.06
  -6   2   7    7.18    3.39
  -5   2   7   -0.58    3.04
  -4   2   7    9.09    3.84
  -3   2   7    4.43    2.73
  -2   2   7   43.86    7.41
  -1   2   7   17.76    3.94
   0   2   7   39.44    5.57
   1   2   7    0.18    2.69
   2   2   7    3.19    3.71
   3   2   7   39.23    7.52
   4   2   7    9.39    5.21
   5   2   7    5.97    4.71
   6   2   7   20.71    6.85
  -9   3   7   18.62    8.64
  -8   3   7   -3.55    3.99
  -7   3   7   -0.89    3.42
  -6   3   7   71.59    7.44
  -5   3   7   49.28    7.25
  -4   3   7  139.52   11.81
  -3   3   7   11.56    3.46
  -2   3   7    0.41    3.21
  -1   3   7    0.37    2.53
   0   3   7   18.10    4.33
   1   3   7    4.66    3.86
   2   3   7    3.92    3.96
   3   3   7   64.32    9.61
   4   3   7   14.84    6.37
   5   3   7   71.83   10.78
   6   3   7    0.49    7.24
  -9   4   7   48.90    7.93
  -8   4   7   15.21    5.72
  -7   4   7    8.31    4.50
  -6   4   7    7.64    4.23
  -5   4   7    8.25    4.23
  -4   4   7   11.94    3.57
  -3   4   7   -0.06    3.06
  -2   4   7    4.72    2.93
  -1   4   7  124.76   12.00
   0   4   7   12.73    4.97
   1   4   7   65.74    9.09
   2   4   7    7.65    4.67
   3   4   7    4.55    4.63
   4   4   7    8.96    5.75
   5   4   7   -5.49    6.87
  -9   5   7   16.60    7.53
  -8   5   7   78.81   14.81
  -7   5   7    2.05    4.17
  -6   5   7    5.03    3.71
  -5   5   7   19.11    5.11
  -4   5   7   61.11    8.77
  -3   5   7    2.28    3.94
  -2   5   7   45.47    7.29
  -1   5   7    6.18    4.39
   0   5   7   23.87    6.14
   1   5   7   14.42    4.73
   2   5   7    3.66    4.74
   3   5   7    1.98    4.50
   4   5   7   51.01   17.16
  -9   6   7    7.19    6.38
  -8   6   7   18.84    9.11
  -7   6   7   15.40   11.12
  -4   6   7    7.43    4.31
  -3   6   7   73.50    8.81
  -2   6   7    1.16    3.64
  -1   6   7   10.12    4.59
   0   6   7   18.90    5.77
   1   6   7   69.50    8.43
   2   6   7   14.41    4.75
   3   6   7    7.37    7.54
  -4   7   7   -0.48    4.69
  -3   7   7   22.07    7.68
  -2   7   7    5.18    4.18
  -1   7   7    9.44    4.45
   0   7   7    7.90    4.70
   1   7   7    2.75    4.46
   2   7   7   22.06   10.06
  -4   8   7   13.61    5.16
  -3   8   7   70.92    9.09
  -2   8   7   16.15    5.58
  -1   8   7   63.98    9.58
   0   8   7    0.82    5.91
  -6   9   7   13.61    8.28
  -5   9   7   40.80   11.28
  -4   9   7    6.51    5.01
  -3   9   7   -2.11    4.04
  -2   9   7    0.57    5.95
   1  -6   8   90.40   16.59
   2  -6   8    3.89    7.28
   3  -6   8   35.04    7.83
   4  -6   8   -0.66    5.96
   5  -6   8    1.78    5.69
   0  -5   8    7.24    4.01
   1  -5   8    2.66    4.82
   2  -5   8    9.76    5.36
   3  -5   8   -0.21    4.37
   4  -5   8   22.68    6.17
   5  -5   8    4.23    5.25
  -1  -4   8   25.53    5.70
   0  -4   8    6.72    3.73
   1  -4   8   13.37    5.73
   2  -4   8   38.53    7.70
   3  -4   8   52.32   13.07
   4  -4   8    4.68    4.73
   5  -4   8    8.80    4.83
   6  -4   8    9.42    6.13
  -3  -3   8   50.18   14.19
  -2  -3   8   -4.61    3.89
  -1  -3   8   71.60    7.53
   0  -3   8   12.78    5.42
   1  -3   8   -2.26    3.54
   2  -3   8   48.09    8.30
   3  -3   8    7.30    4.68
   4  -3   8   18.08    6.03
   5  -3   8    5.86    4.45
   6  -3   8   12.02    5.72
  -4  -2   8   -3.65    6.21
  -3  -2   8   14.69    5.36
  -2  -2   8   16.21    5.42
  -1  -2   8   55.02    6.83
   0  -2   8    1.10    4.13
   1  -2   8   36.94    7.19
   2  -2   8    5.57    4.47
   3  -2   8    1.98    4.24
   4  -2   8   25.86    6.76
   5  -2   8   -0.03    3.71
   6  -2   8   -2.02    6.72
  -5  -1   8  118.86   18.47
  -4  -1   8    9.03    5.04
  -3  -1   8   11.76    4.81
  -2  -1   8   -2.00    3.26
  -1  -1   8   27.23    6.79
   0  -1   8    5.19    4.14
   1  -1   8    4.27    4.10
   2  -1   8   25.13    6.34
   3  -1   8   44.35    8.38
   4  -1   8   44.85    6.98
   5  -1   8   21.05    6.61
   6  -1   8    1.13    7.24
  -5   0   8    3.47    4.42
  -4   0   8    8.34    4.59
  -3   0   8   11.77    4.90
  -2   0   8    3.71    3.38
  -1   0   8    6.95    4.57
   0   0   8  163.53   15.41
   1   0   8    3.39    4.22
   2   0   8    6.08    4.65
   3   0   8   11.39    4.58
   4   0   8    6.22    4.88
   5   0   8   -1.45    5.10
  -6   1   8    1.75    6.64
  -5   1   8   19.81    6.23
  -4   1   8   62.84    9.28
  -3   1   8   35.07    6.55
  -2   1   8   29.51    6.72
  -1   1   8    5.75    4.83
   0   1   8    6.49    4.96
   1   1   8   35.18    7.28
   2   1   8    3.42    3.89
   3   1   8   12.47    5.65
   4   1   8    3.24    4.87
  -6   2   8    1.72    6.49
  -5   2   8    1.29    4.20
  -4   2   8   32.35    6.58
  -3   2   8   -1.72    6.32
  -2   2   8   10.86    4.92
  -1   2   8   30.44    7.02
   0   2   8    9.32    5.26
   1   2   8   41.20    6.09
   2   2   8   20.63    6.62
   3   2   8    5.76    4.96
   4   2   8    3.70    8.27
  -6   3   8   32.99   10.18
  -5   3   8    8.73    5.24
  -4   3   8    6.88    4.52
  -3   3   8   12.51    5.31
  -2   3   8   29.75    7.54
  -1   3   8    7.86    5.37
   0   3   8    2.95    4.67
   1   3   8   64.57    9.75
   2   3   8    0.72    4.55
   3   3   8   26.04   10.46
  -6   4   8    4.30    6.70
  -5   4   8    7.14    6.40
  -4   4   8   22.48    9.44
  -3   4   8   75.85   14.94
  -2   4   8   31.68    7.13
  -1   4   8   14.01    8.79
   0   4   8    4.09    4.89
   1   4   8   18.62    6.33
   2   4   8   -3.25    6.54
  -3   5   8   -6.76    6.42
  -2   5   8    4.65    7.90
  -1   5   8    8.10    5.08
   0   5   8    7.77    5.52
   1   5   8   -0.19    6.49
  -3   6   8   10.03    8.87
  -2   6   8   -1.65    4.61
  -1   6   8   80.34   15.71
   0   0   0    0.00    0.00
;
_shelx_hkl_checksum              48251
loop_
_space_group_symop_operation_xyz
'x, y, z'
'-y, x-y, z'
'-x+y, -x, z'
'-x, -y, z+1/2'
'y, -x+y, z+1/2'
'x-y, x, z+1/2'
loop_
_atom_site_label
_atom_site_type_symbol
_atom_site_fract_x
_atom_site_fract_y
_atom_site_fract_z
_atom_site_U_iso_or_equiv
_atom_site_adp_type
_atom_site_occupancy
_atom_site_site_symmetry_order
_atom_site_calc_flag
_atom_site_refinement_flags_posn
_atom_site_refinement_flags_adp
_atom_site_refinement_flags_occupancy
_atom_site_disorder_assembly
_atom_site_disorder_group
Ce Ce 0.12838(5) 0.35722(5) 0.48249(18) 0.01197(13) Uani 1 1 d . . . . .
NiA Ni 0.0000 0.0000 0.2479(13) 0.0125(7) Uani 0.5 3 d S T P . .
Ge Ge 0.3333 0.6667 0.9012(3) 0.0123(4) Uani 1 3 d S T P . .
S1 S 0.2422(3) 0.1551(2) 0.5000(6) 0.0155(4) Uani 1 1 d . . . . .
S2 S 0.5206(3) 0.1044(3) 0.2523(4) 0.0132(5) Uani 1 1 d . . . . .
S3 S 0.3333 0.6667 0.2763(7) 0.0131(8) Uani 1 3 d S T P . .
loop_
_atom_site_aniso_label
_atom_site_aniso_U_11
_atom_site_aniso_U_22
_atom_site_aniso_U_33
_atom_site_aniso_U_23
_atom_site_aniso_U_13
_atom_site_aniso_U_12
Ce 0.0122(2) 0.0110(2) 0.0130(2) -0.0009(3) -0.0011(3) 0.00596(18)
NiA 0.0083(10) 0.0083(10) 0.021(2) 0.000 0.000 0.0041(5)
Ge 0.0137(5) 0.0137(5) 0.0096(7) 0.000 0.000 0.0069(3)
S1 0.0157(10) 0.0131(9) 0.0193(11) -0.0044(13) -0.0019(13) 0.0084(8)
S2 0.0122(11) 0.0135(11) 0.0132(10) 0.0003(9) 0.0020(9) 0.0060(10)
S3 0.0142(13) 0.0142(13) 0.0109(18) 0.000 0.000 0.0071(6)
loop_
_atom_type_symbol
_atom_type_description
_atom_type_scat_dispersion_real
_atom_type_scat_dispersion_imag
_atom_type_scat_source
S S 0.1246 0.1234 'International Tables Vol C Tables 4.2.6.8 and 6.1.1.4'
Ni Ni 0.3393 1.1124 'International Tables Vol C Tables 4.2.6.8 and 6.1.1.4'
Ge Ge 0.1547 1.8001 'International Tables Vol C Tables 4.2.6.8 and 6.1.1.4'
Ce Ce -0.2486 2.6331 'International Tables Vol C Tables 4.2.6.8 and 6.1.1.4'
loop_
_geom_angle_atom_site_label_1
_geom_angle_atom_site_label_2
_geom_angle_atom_site_label_3
_geom_angle
_geom_angle_site_symmetry_1
_geom_angle_site_symmetry_3
S1 Ce S1 83.17(9) 2 .
S1 Ce S2 107.73(8) 2 5_565
S1 Ce S2 142.24(9) . 5_565
S1 Ce S1 77.02(8) 2 6_554
S1 Ce S1 77.01(7) . 6_554
S2 Ce S1 140.16(7) 5_565 6_554
S1 Ce S2 139.90(8) 2 6
S1 Ce S2 74.99(7) . 6
S2 Ce S2 74.04(10) 5_565 6
S1 Ce S2 128.00(7) 6_554 6
S1 Ce S3 150.10(8) 2 .
S1 Ce S3 116.94(6) . .
S2 Ce S3 70.77(7) 5_565 .
S1 Ce S3 85.92(9) 6_554 .
S2 Ce S3 69.58(7) 6 .
S1 Ce S2 71.85(7) 2 2
S1 Ce S2 143.84(8) . 2
S2 Ce S2 72.07(5) 5_565 2
S1 Ce S2 72.27(7) 6_554 2
S2 Ce S2 140.04(7) 6 2
S3 Ce S2 79.68(6) . 2
S1 Ce S1 73.95(7) 2 6
S1 Ce S1 73.93(7) . 6
S2 Ce S1 74.76(7) 5_565 6
S1 Ce S1 140.81(8) 6_554 6
S2 Ce S1 67.92(6) 6 6
S3 Ce S1 130.83(9) . 6
S2 Ce S1 121.10(6) 2 6
S1 Ce NiA 47.65(7) 2 .
S1 Ce NiA 47.65(7) . .
S2 Ce NiA 155.37(8) 5_565 .
S1 Ce NiA 46.76(12) 6_554 .
S2 Ce NiA 122.61(7) 6 .
S3 Ce NiA 129.90(13) . .
S2 Ce NiA 96.57(8) 2 .
S1 Ce NiA 94.06(12) 6 .
S1 Ce NiA 46.46(7) 2 4
S1 Ce NiA 46.46(7) . 4
S2 Ce NiA 116.78(11) 5_565 4
S1 Ce NiA 95.44(12) 6_554 4
S2 Ce NiA 95.82(8) 6 4
S3 Ce NiA 161.79(2) . 4
S2 Ce NiA 118.06(6) 2 4
S1 Ce NiA 45.37(11) 6 4
NiA Ce NiA 48.687(11) . 4
S1 NiA S1 92.5(2) 4_554 5_554
S1 NiA S1 92.5(2) 4_554 6_554
S1 NiA S1 92.5(2) 5_554 6_554
S1 NiA S1 87.85(4) 4_554 2
S1 NiA S1 179.6(3) 5_554 2
S1 NiA S1 87.85(4) 6_554 2
S1 NiA S1 87.85(4) 4_554 3
S1 NiA S1 87.85(4) 5_554 3
S1 NiA S1 179.6(3) 6_554 3
S1 NiA S1 91.8(2) 2 3
S1 NiA S1 179.6(3) 4_554 .
S1 NiA S1 87.85(4) 5_554 .
S1 NiA S1 87.85(4) 6_554 .
S1 NiA S1 91.8(2) 2 .
S1 NiA S1 91.8(2) 3 .
S1 NiA NiA 123.51(15) 4_554 4
S1 NiA NiA 123.51(15) 5_554 4
S1 NiA NiA 123.51(15) 6_554 4
S1 NiA NiA 56.05(14) 2 4
S1 NiA NiA 56.05(14) 3 4
S1 NiA NiA 56.05(14) . 4
S1 NiA NiA 56.49(15) 4_554 4_554
S1 NiA NiA 56.49(15) 5_554 4_554
S1 NiA NiA 56.49(15) 6_554 4_554
S1 NiA NiA 123.95(14) 2 4_554
S1 NiA NiA 123.95(14) 3 4_554
S1 NiA NiA 123.95(15) . 4_554
NiA NiA NiA 180.0 4 4_554
S1 NiA Ce 56.52(7) 4_554 2
S1 NiA Ce 126.83(6) 5_554 2
S1 NiA Ce 126.85(6) 6_554 2
S1 NiA Ce 53.13(8) 2 2
S1 NiA Ce 53.11(8) 3 2
S1 NiA Ce 123.0(2) . 2
NiA NiA Ce 66.98(11) 4 2
NiA NiA Ce 113.02(11) 4_554 2
S1 NiA Ce 126.85(6) 4_554 3
S1 NiA Ce 56.53(7) 5_554 3
S1 NiA Ce 126.83(6) 6_554 3
S1 NiA Ce 123.0(2) 2 3
S1 NiA Ce 53.13(8) 3 3
S1 NiA Ce 53.11(8) . 3
NiA NiA Ce 66.98(11) 4 3
NiA NiA Ce 113.02(11) 4_554 3
Ce NiA Ce 105.71(13) 2 3
S1 NiA Ce 126.83(6) 4_554 .
S1 NiA Ce 126.85(6) 5_554 .
S1 NiA Ce 56.53(7) 6_554 .
S1 NiA Ce 53.11(8) 2 .
S1 NiA Ce 123.0(2) 3 .
S1 NiA Ce 53.13(8) . .
NiA NiA Ce 66.98(11) 4 .
NiA NiA Ce 113.02(11) 4_554 .
Ce NiA Ce 105.71(13) 2 .
Ce NiA Ce 105.71(13) 3 .
S1 NiA Ce 52.06(8) 4_554 4_554
S1 NiA Ce 52.04(8) 5_554 4_554
S1 NiA Ce 120.8(2) 6_554 4_554
S1 NiA Ce 128.02(6) 2 4_554
S1 NiA Ce 59.62(7) 3 4_554
S1 NiA Ce 128.00(5) . 4_554
NiA NiA Ce 115.67(11) 4 4_554
NiA NiA Ce 64.33(11) 4_554 4_554
Ce NiA Ce 75.795(8) 2 4_554
Ce NiA Ce 75.795(8) 3 4_554
Ce NiA Ce 177.3(2) . 4_554
S3 Ge S2 112.83(7) 1_556 5_565
S3 Ge S2 112.83(7) 1_556 4_665
S2 Ge S2 105.92(8) 5_565 4_665
S3 Ge S2 112.82(7) 1_556 6
S2 Ge S2 105.92(8) 5_565 6
S2 Ge S2 105.92(8) 4_665 6
NiA S1 NiA 67.46(6) 4 .
NiA S1 Ce 81.50(7) 4 3
NiA S1 Ce 79.23(7) . 3
NiA S1 Ce 81.48(7) 4 .
NiA S1 Ce 79.22(7) . .
Ce S1 Ce 156.41(9) 3 .
NiA S1 Ce 76.72(15) 4 5
NiA S1 Ce 144.18(17) . 5
Ce S1 Ce 95.93(9) 3 5
Ce S1 Ce 95.92(8) . 5
NiA S1 Ce 142.47(17) 4 5_554
NiA S1 Ce 75.01(15) . 5_554
Ce S1 Ce 91.81(8) 3 5_554
Ce S1 Ce 91.80(9) . 5_554
Ce S1 Ce 140.81(8) 5 5_554
Ge S2 Ce 91.18(9) 4_664 6_654
Ge S2 Ce 88.83(8) 4_664 5_554
Ce S2 Ce 109.73(8) 6_654 5_554
Ge S2 Ce 122.14(10) 4_664 3
Ce S2 Ce 141.36(9) 6_654 3
Ce S2 Ce 91.43(7) 5_554 3
Ge S3 Ce 113.22(8) 1_554 .
Ge S3 Ce 113.23(8) 1_554 3_565
Ce S3 Ce 105.47(9) . 3_565
Ge S3 Ce 113.22(8) 1_554 2_665
Ce S3 Ce 105.47(9) . 2_665
Ce S3 Ce 105.47(9) 3_565 2_665
loop_
_geom_bond_atom_site_label_1
_geom_bond_atom_site_label_2
_geom_bond_distance
_geom_bond_site_symmetry_2
Ce S1 2.829(2) 2
Ce S1 2.830(2) .
Ce S2 2.901(2) 5_565
Ce S1 2.978(3) 6_554
Ce S2 2.992(3) 6
Ce S3 3.0279(18) .
Ce S2 3.035(3) 2
Ce S1 3.169(3) 6
Ce NiA 3.475(3) .
Ce NiA 3.549(3) 4
NiA S1 2.601(5) 4_554
NiA S1 2.601(5) 5_554
NiA S1 2.601(5) 6_554
NiA S1 2.614(5) 2
NiA S1 2.614(5) 3
NiA S1 2.614(5) .
NiA NiA 2.8960(4) 4
NiA NiA 2.8961(4) 4_554
NiA Ce 3.475(3) 2
NiA Ce 3.475(3) 3
NiA Ce 3.549(3) 4_554
Ge S3 2.173(4) 1_556
Ge S2 2.223(3) 5_565
Ge S2 2.223(3) 4_665
Ge S2 2.223(3) 6
S1 NiA 2.601(5) 4
S1 Ce 2.829(2) 3
S1 Ce 2.978(3) 5
S1 Ce 3.169(3) 5_554
S2 Ge 2.223(3) 4_664
S2 Ce 2.901(2) 6_654
S2 Ce 2.992(3) 5_554
S2 Ce 3.035(3) 3
S3 Ge 2.173(4) 1_554
S3 Ce 3.0279(18) 3_565
S3 Ce 3.0279(18) 2_665
