#------------------------------------------------------------------------------
#$Date: 2021-02-27 12:52:30 +0200 (Sat, 27 Feb 2021) $
#$Revision: 262309 $
#$URL: file:///home/coder/svn-repositories/cod/cif/1/56/07/1560714.cif $
#------------------------------------------------------------------------------
#
# This file is available in the Crystallography Open Database (COD),
# http://www.crystallography.net/
#
# All data on this site have been placed in the public domain by the
# contributors.
#
data_1560714
loop_
_publ_author_name
'Mesbah, Adel'
'Prakash, Jai'
'Beard, Jessica C.'
'Malliakas, Christos D.'
'Leb\`egue, S\'ebastien'
'Ibers, James A.'
_publ_section_title
;
 Syntheses, modulated crystal structures of Ba6&#x2212;2xU2+xAg4Se12
 (x&#x202F;=&#x202F;0 and 0.5), and crystal structure and spectroscopy of
 Sr4Th2.78Cu4S12
;
_journal_name_full               'Journal of Solid State Chemistry'
_journal_page_first              30
_journal_page_last               35
_journal_paper_doi               10.1016/j.jssc.2018.08.025
_journal_volume                  268
_journal_year                    2018
_chemical_absolute_configuration ad
_chemical_formula_moiety         'Cu8 S24 Th5.78, 8(Sr)'
_chemical_formula_sum            'Cu8 S24 Sr8 Th5.78'
_chemical_formula_weight         3317.59
_space_group_crystal_system      orthorhombic
_space_group_IT_number           31
_space_group_name_Hall           'P 2ac -2'
_space_group_name_H-M_alt        'P m n 21'
_atom_sites_solution_hydrogens   .
_atom_sites_solution_primary     direct
_cell_angle_alpha                90
_cell_angle_beta                 90
_cell_angle_gamma                90
_cell_formula_units_Z            1
_cell_length_a                   8.2292(3)
_cell_length_b                   11.5252(4)
_cell_length_c                   11.1483(4)
_cell_measurement_reflns_used    9929
_cell_measurement_temperature    100(2)
_cell_measurement_theta_max      35.580
_cell_measurement_theta_min      2.542
_cell_volume                     1057.34(7)
_computing_cell_refinement       'SAINT v8.37A (Bruker, 2015)'
_computing_data_collection       'APEX2 V2014.11-0 (Bruker, 2014)'
_computing_data_reduction        'SAINT v8.37A (Bruker, 2015)'
_computing_molecular_graphics    'Olex2 (Dolomanov et al., 2009)'
_computing_publication_material  'Olex2 (Dolomanov et al., 2009)'
_computing_structure_refinement  'ShelXL (Sheldrick, 2015)'
_computing_structure_solution    'ShelXS (Sheldrick, 2008)'
_diffrn_ambient_temperature      100.0
_diffrn_detector_area_resol_mean 8
_diffrn_measured_fraction_theta_full 0.998
_diffrn_measured_fraction_theta_max 0.998
_diffrn_measurement_device_type  'Bruker Kappa APEX CCD area detector'
_diffrn_measurement_method       '\w and \f scans'
_diffrn_radiation_monochromator  'Quazar optics'
_diffrn_radiation_type           MoK\a
_diffrn_radiation_wavelength     0.71073
_diffrn_reflns_av_R_equivalents  0.0267
_diffrn_reflns_av_unetI/netI     0.0185
_diffrn_reflns_Laue_measured_fraction_full 0.998
_diffrn_reflns_Laue_measured_fraction_max 0.998
_diffrn_reflns_limit_h_max       11
_diffrn_reflns_limit_h_min       -9
_diffrn_reflns_limit_k_max       16
_diffrn_reflns_limit_k_min       -16
_diffrn_reflns_limit_l_max       15
_diffrn_reflns_limit_l_min       -15
_diffrn_reflns_number            20670
_diffrn_reflns_point_group_measured_fraction_full 0.999
_diffrn_reflns_point_group_measured_fraction_max 0.998
_diffrn_reflns_theta_full        25.242
_diffrn_reflns_theta_max         30.000
_diffrn_reflns_theta_min         2.542
_diffrn_source                   microsource
_diffrn_standards_number         .
_exptl_absorpt_coefficient_mu    35.305
_exptl_absorpt_correction_T_max  0.7471
_exptl_absorpt_correction_T_min  0.4422
_exptl_absorpt_correction_type   multi-scan
_exptl_absorpt_process_details
'SADABS-2014/5 (Bruker,2014/5) was used for absorption correction. wR2(int) was 0.0706 before and 0.0437 after correction. The Ratio of minimum to maximum transmission is 0.5919. The \l/2 correction factor is Not present.'
_exptl_crystal_colour            black
_exptl_crystal_colour_primary    black
_exptl_crystal_density_diffrn    5.210
_exptl_crystal_description       needle
_exptl_crystal_F_000             1439
_exptl_crystal_size_max          0.412
_exptl_crystal_size_mid          0.036
_exptl_crystal_size_min          0.025
_refine_diff_density_max         2.643
_refine_diff_density_min         -3.197
_refine_diff_density_rms         0.459
_refine_ls_abs_structure_details
;
 Refined as an inversion twin.
;
_refine_ls_abs_structure_Flack   0.50(3)
_refine_ls_extinction_coef       0.00076(7)
_refine_ls_extinction_expression Fc^*^=kFc[1+0.001xFc^2^\l^3^/sin(2\q)]^-1/4^
_refine_ls_extinction_method     'SHELXL-2016/6 (Sheldrick 2016)'
_refine_ls_goodness_of_fit_ref   1.203
_refine_ls_hydrogen_treatment    undef
_refine_ls_matrix_type           full
_refine_ls_number_parameters     132
_refine_ls_number_reflns         3268
_refine_ls_number_restraints     1
_refine_ls_restrained_S_all      1.203
_refine_ls_R_factor_all          0.0305
_refine_ls_R_factor_gt           0.0247
_refine_ls_shift/su_max          0.000
_refine_ls_shift/su_mean         0.000
_refine_ls_structure_factor_coef Fsqd
_refine_ls_weighting_details
'w=1/[\s^2^(Fo^2^)+(0.0129P)^2^+6.9263P] where P=(Fo^2^+2Fc^2^)/3'
_refine_ls_weighting_scheme      calc
_refine_ls_wR_factor_gt          0.0519
_refine_ls_wR_factor_ref         0.0541
_reflns_Friedel_coverage         0.910
_reflns_Friedel_fraction_full    0.999
_reflns_Friedel_fraction_max     0.998
_reflns_number_gt                2830
_reflns_number_total             3268
_reflns_threshold_expression     'I > 2\s(I)'
_cod_data_source_file            Sr4Cu4Th3S12_TIDYC.CIF
_cod_data_source_block           Cu4S12Sr4Th2.87
_cod_database_code               1560714
_shelx_space_group_comment
;
The symmetry employed for this shelxl refinement is uniquely defined
by the following loop, which should always be used as a source of
symmetry information in preference to the above space-group names.
They are only intended as comments.
;
_shelx_estimated_absorpt_t_max   0.472
_shelx_estimated_absorpt_t_min   0.024
_olex2_refinement_description
;
1. Twinned data refinement
 Scales: 0.50(3)
 0.50(3)
;
_shelx_res_file
;
TITL mo_p8_0m_a.res in Pmn2(1)
    mo_p8_0m_th_vacancies_disorder.res
    created by SHELXL-2016/6 at 08:25:44 on 30-May-2018
rem SUMP 1.5 0.001 0.5 2 1 3 0.5 4
REM OMIT Reflections blocked by beamstop
CELL 0.71073 8.2292 11.5252 11.1483 90 90 90
ZERR 1 0.0003 0.0004 0.0004 0 0 0
LATT -1
SYMM 0.5-X,-Y,0.5+Z
SYMM 0.5+X,-Y,0.5+Z
SYMM -X,+Y,+Z
SFAC Cu S Sr Th
UNIT 8 24 8 5.77

L.S. 10
PLAN  20
SIZE 0.025 0.036 0.412
TEMP -173.15
LIST 4
MORE -1
fmap 2
acta
TWIN -1 0 0 0 -1 0 0 0 -1 2
OMIT -2 60
OMIT 1 0 -1
OMIT 0 1 0
REM <olex2.extras>
REM <HklSrc "%.\\mo_P8_0m_Th_vacancies.hkl">
REM </olex2.extras>

WGHT    0.012900    6.926300
EXTI    0.000761
BASF   0.49675
FVAR       0.13653
TH1   4    0.000000    0.934524    0.262002     0.44130    0.01284    0.01190 =
         0.01446   -0.00189    0.00000    0.00000
TH2   4    0.249779    0.565579    0.280659     0.67893    0.00853    0.00862 =
         0.00774    0.00302   -0.00003   -0.00008
TH3   4    0.000000    0.066602    0.761299     0.32343    0.02246    0.02998 =
         0.02395    0.00374    0.00000    0.00000
SR1   3    0.000000    0.255847    0.087293    10.50000    0.01197    0.01382 =
         0.01260    0.00097    0.00000    0.00000
SR2   3    0.249221    0.244230    0.452929    11.00000    0.01029    0.01217 =
         0.01312   -0.00053    0.00007    0.00018
SR3   3    0.000000    0.744492    0.589910    10.50000    0.01274    0.01431 =
         0.01134   -0.00083    0.00000    0.00000
CU1   1    0.000000    0.462428    0.515743    10.50000    0.01645    0.01422 =
         0.01490   -0.00164    0.00000    0.00000
CU2   1    0.000000    0.539307    0.016063    10.50000    0.01683    0.01379 =
         0.01563    0.00137    0.00000    0.00000
CU3   1    0.251174    0.036722    0.026437    11.00000    0.01167    0.01432 =
         0.01178    0.00111    0.00039    0.00013
S1    2    0.000000    0.055531    0.489519    10.50000    0.01022    0.00914 =
         0.01431   -0.00032    0.00000    0.00000
S2    2    0.243866    0.807343    0.387433    11.00000    0.01674    0.01022 =
         0.00962    0.00015    0.00147   -0.00106
S3    2    0.000000    0.611140    0.818591    10.50000    0.01666    0.01000 =
         0.00753    0.00275    0.00000    0.00000
S4    2    0.000000    0.312240    0.658753    10.50000    0.02160    0.01402 =
         0.01778   -0.00043    0.00000    0.00000
S5    2    0.244367    0.107812    0.219293    11.00000    0.01841    0.01722 =
         0.01561    0.00014   -0.00093   -0.00211
S6    2    0.000000    0.390077    0.318277    10.50000    0.01603    0.00959 =
         0.00846   -0.00217    0.00000    0.00000
S7    2    0.249231    0.443315    0.045940    11.00000    0.01362    0.01937 =
         0.02397   -0.00031    0.00023    0.00015
S8    2    0.000000    0.943760   -0.000146    10.50000    0.01072    0.00967 =
         0.01670   -0.00162    0.00000    0.00000
S9    2    0.000000    0.691044    0.159770    10.50000    0.01969    0.01774 =
         0.01383    0.00011    0.00000    0.00000
HKLF 4




REM  mo_p8_0m_a.res in Pmn2(1)
REM R1 =  0.0247 for    2830 Fo > 4sig(Fo)  and  0.0305 for all    3268 data
REM    132 parameters refined using      1 restraints

END

WGHT      0.0129      6.9263

REM Highest difference peak  2.643,  deepest hole -3.197,  1-sigma level  0.459
Q1    1   0.0000  0.1418  0.7620  10.50000  0.05    2.64
Q2    1   0.0000 -0.0094  0.7657  10.50000  0.05    2.49
Q3    1   0.1031  0.0715  0.7620  11.00000  0.05    1.74
Q4    1   0.3535  0.5640  0.2803  11.00000  0.05    1.61
Q5    1   0.0999  0.9357  0.2627  11.00000  0.05    1.54
Q6    1   0.1503  0.5690  0.2838  11.00000  0.05    1.47
Q7    1   0.0695  0.1175  0.7926  11.00000  0.05    1.24
Q8    1   0.3470  0.2488  0.4613  11.00000  0.05    0.97
Q9    1   0.0959  0.2455  0.0961  11.00000  0.05    0.94
Q10   1   0.3602  0.1198  0.2230  11.00000  0.05    0.86
Q11   1   0.1007  0.7432  0.5837  11.00000  0.05    0.84
Q12   1   0.1766  0.2439  0.4195  11.00000  0.05    0.82
Q13   1   0.1226  0.0360  0.0226  11.00000  0.05    0.80
Q14   1   0.1381  0.1604  0.2810  11.00000  0.05    0.79
Q15   1   0.3352  0.1201  0.2758  11.00000  0.05    0.78
Q16   1   0.1070  0.9385 -0.0240  11.00000  0.05    0.78
Q17   1   0.3961  0.0607  0.2948  11.00000  0.05    0.77
Q18   1   0.1234  0.3010  0.6555  11.00000  0.05    0.75
Q19   1   0.1338  0.5396  0.0170  11.00000  0.05    0.75
Q20   1   0.1019  0.8033  0.5404  11.00000  0.05    0.75
;
_shelx_res_checksum              64387
_shelx_hkl_file
;
  -2   0   0 7.97880 0.90421   6
  -3   0   0 0.36039 0.82444   6
   4   0   0 9151.21 249.575   5
   4   0   0 9056.46 250.612   3
  -4   0   0 9999.99 250.467   6
   5   0   0 -1.5366 1.12833   5
   5   0   0 -2.8427 1.33476   3
  -5   0   0 -0.5636 0.79100   6
   6   0   0 1.96617 1.98454   3
   6   0   0 1.79537 1.60077   5
   7   0   0 0.60315 2.12370   3
   7   0   0 2.36251 1.82969   5
   8   0   0 4659.68 128.140   3
   9   0   0 0.73794 2.52660   3
  10   0   0 0.19645 2.73137   3
   0   1   0 0.96730 0.36009   6
  -1   1   0 3.16658 0.72046   6
   2  -1   0 481.164 14.4053   4
  -2   1   0 491.266 13.8130   6
  -3  -1   0 1.69588 0.69324   6
  -3   1   0 2.86485 0.99224   6
   3   1   0 1.82036 0.50061   7
   4  -1   0 -0.4022 1.19207   5
  -4   1   0 2.78696 1.09923   6
   4  -1   0 1.33860 1.47881   3
   4   1   0 -0.9949 1.27679   3
  -4  -1   0 2.34819 0.79582   6
   5  -1   0 2.36913 1.79076   3
   5  -1   0 1.73127 1.47067   5
  -5  -1   0 2.60742 0.82139   6
  -5   1   0 4.78382 1.21463   6
   5   1   0 3.55966 2.02807   3
  -6   1   0 291.266 10.5965   6
   6  -1   0 298.571 10.2976   5
   6  -1   0 284.549 11.4232   3
   7   1   0 0.39175 2.10086   3
   7  -1   0 0.95548 1.75387   5
   7  -1   0 2.61533 2.25486   3
   8  -1   0 -1.7299 2.23111   3
   8   1   0 -0.8618 2.38084   3
   8  -1   0 0.70315 1.96795   5
   9  -1   0 1.51691 2.17637   5
   9  -1   0 2.33515 2.82992   3
  10  -1   0 182.543 9.83241   3
  11  -1   0 -1.3180 2.67910   3
   0   2   0 1212.35 32.8087   6
  -1   2   0 12.8434 1.26809   6
   1   2   0 9.21395 0.95619   6
   1   2   0 13.2327 1.27767   7
   2  -2   0 1.49208 1.22831   4
   2   2   0 1.57138 0.70703   7
   2  -2   0 1.28279 0.73030   7
   2   2   0 2.27726 0.84791   2
   2  -2   0 1.63053 0.78316   2
   2   2   0 4.22698 0.74344   6
  -2   2   0 2.63404 1.09360   6
  -3   2   0 15.2300 1.57307   6
   3  -2   0 12.6343 1.07624   7
   3  -2   0 7.76038 0.84412   2
   3   2   0 7.49330 0.88795   2
   3  -2   0 7.10658 1.89020   4
   3   2   0 7.56743 0.92595   2
   4  -2   0 684.441 18.8249   7
  -4  -2   0 696.918 19.0030   1
   4   2   0 692.940 18.9053   7
   4  -2   0 699.682 21.4540   3
  -4   2   0 680.781 19.9720   6
   4  -2   0 699.714 20.3869   5
   5  -2   0 10.4882 2.20549   5
  -5   2   0 15.6300 1.05364   1
   5  -2   0 5.99750 2.18927   3
  -5  -2   0 15.5638 1.16666   1
  -5   2   0 11.4321 1.67064   6
   6  -2   0 1.20887 1.87754   3
   6  -2   0 0.69626 1.48941   5
  -6   2   0 -1.0632 1.11380   6
  -6   2   0 2.23135 0.77670   1
  -6  -2   0 1.38673 0.78406   1
   7  -2   0 9.16911 2.29492   5
   7  -2   0 9.45995 2.94496   3
   8  -2   0 260.787 11.2938   3
   8  -2   0 239.545 9.66166   5
   9  -2   0 6.55749 2.60573   5
   9  -2   0 7.08405 3.13771   3
  10  -2   0 -5.5639 2.38075   3
  10  -2   0 2.34444 2.44433   5
  11  -2   0 7.84499 3.60041   3
  12  -2   0 85.1217 7.14337   3
   0   3   0 2.07848 0.93890   7
   0   3   0 2.73506 1.01941   6
   0  -3   0 3.61129 1.13669   7
   1   3   0 24.3563 1.65027   7
   2  -3   0 611.025 17.0028   7
   2  -3   0 602.844 17.2197   2
  -2   3   0 605.987 17.6060   6
   2   3   0 608.421 17.3249   2
   2   3   0 573.565 16.9455   7
   2   3   0 615.436 16.8003   6
   3  -3   0 13.9210 1.39265   2
   3   3   0 15.7661 1.44970   2
   3   3   0 10.6324 1.18509   6
   3  -3   0 18.3929 2.53353   4
   3  -3   0 21.4311 1.60790   2
  -3   3   0 27.0090 2.07043   6
   3  -3   0 14.0935 2.31366   3
   3   3   0 16.5033 1.52728   2
   3  -3   0 20.0927 1.55635   2
  -4   3   0 0.99327 1.25377   6
   4   3   0 2.46814 0.96608   2
   4   3   0 0.92003 0.92102   2
   4  -3   0 1.21009 1.66395   4
  -4   3   0 1.68703 0.84247   1
   4  -3   0 1.91975 0.91158   2
   4  -3   0 1.55353 1.42104   5
  -4  -3   0 1.49157 0.93190   1
   4   3   0 5.16713 1.02014   7
   4  -3   0 1.27582 0.86375   2
   4  -3   0 0.90311 0.80346   7
   4  -3   0 2.96253 1.79549   3
   5  -3   0 12.1124 2.40112   5
   5  -3   0 13.1582 1.31917   2
   5  -3   0 8.80460 2.46041   3
  -5   3   0 21.2172 2.15349   6
   5   3   0 12.2723 1.42041   2
   5   3   0 15.3194 1.26757   7
   5  -3   0 11.2984 1.24820   2
  -5  -3   0 20.6275 1.49482   1
   5  -3   0 15.7994 2.73908   4
   5  -3   0 14.2890 1.25529   7
  -5   3   0 18.1607 1.33427   1
   5   3   0 11.8005 1.30160   2
  -6   3   0 233.403 8.44805   6
   6  -3   0 236.678 9.04419   5
   6   3   0 243.560 7.44164   2
   6   3   0 241.690 6.97106   7
  -6  -3   0 236.719 7.31021   1
   6  -3   0 220.822 10.0108   3
   6   3   0 240.025 7.52105   2
  -6   3   0 239.339 7.20201   1
   6  -3   0 233.882 7.29669   2
   7   3   0 19.1292 1.54964   2
   7  -3   0 15.6631 2.82069   5
   7  -3   0 20.3875 3.54674   3
   8  -3   0 0.49260 2.62485   3
   8   3   0 1.90502 1.17063   2
   8   3   0 2.19264 1.09084   2
   8  -3   0 0.66688 2.05570   5
   9  -3   0 5.42334 3.24509   3
   9  -3   0 6.76139 2.58343   5
  10  -3   0 98.4330 6.05009   5
  10  -3   0 92.6367 7.16663   3
  11  -3   0 6.86721 3.10588   5
  11  -3   0 11.0725 4.13342   3
  12  -3   0 0.00791 3.01351   3
  13  -3   0 4.18504 3.83432   3
   0  -4   0 1079.31 30.2696   7
   0   4   0 1098.44 30.2720   7
   0   4   0 1103.47 30.4688   6
  -1   4   0 30.0037 2.25381   6
   1   4   0 25.6128 1.93973   6
  -1   4   0 27.3888 1.94573   1
   1  -4   0 30.5086 2.06588   7
  -1  -4   0 29.7155 2.05701   1
  -1   4   0 34.4061 2.12633   7
   2   4   0 1.87458 0.99961   7
  -2   4   0 1.65890 1.27403   6
   2  -4   0 7.99992 1.63819   2
  -2  -4   0 0.23266 0.99875   1
   2   4   0 3.26019 1.10183   6
  -2   4   0 2.63906 1.06889   1
   2  -4   0 -0.2236 1.48644   3
   2  -4   0 -0.7701 0.99849   7
   2   4   0 3.47603 1.36305   2
  -3   4   0 35.1307 2.63193   6
   3  -4   0 23.0397 1.96300   2
   3  -4   0 28.8101 3.07572   4
   3  -4   0 18.6082 2.74114   3
   3   4   0 21.6362 1.88087   2
   3  -4   0 27.8625 2.10159   2
   3   4   0 20.3485 1.59096   6
   3   4   0 25.2340 2.05810   2
   4  -4   0 697.992 20.0512   7
   4   4   0 711.695 20.0823   7
  -4   4   0 709.642 21.1648   6
  -4   4   0 710.005 20.0292   1
   4  -4   0 702.991 20.4230   2
   4   4   0 723.267 20.4890   2
   4  -4   0 721.056 22.4597   4
   4   4   0 688.385 20.5295   2
   4  -4   0 675.871 22.3945   3
   4  -4   0 706.659 20.4021   2
   4   4   0 763.397 19.6479   6
  -4  -4   0 704.361 20.0977   1
   5  -4   0 16.0657 1.72698   2
  -5   4   0 19.0979 1.53827   1
   5  -4   0 9.47647 2.72218   3
   5  -4   0 11.3942 2.37498   5
   5  -4   0 9.58354 2.66050   4
   5   4   0 13.8586 1.56312   2
   5  -4   0 13.4538 1.61938   2
  -5  -4   0 16.8571 1.59227   1
  -5   4   0 19.5229 2.23422   6
   5  -4   0 16.8876 1.54084   7
   5   4   0 14.8955 1.77445   2
   5   4   0 17.1956 1.49199   7
   6   4   0 1.59618 0.93012   7
  -6   4   0 0.04842 0.88096   1
  -6   4   0 1.42126 1.51479   6
   6  -4   0 0.20235 0.98967   7
   6  -4   0 0.65862 1.17342   2
   6  -4   0 3.24928 2.36976   3
   6  -4   0 4.18767 2.12114   5
   6   4   0 2.18922 1.26985   2
   6  -4   0 -0.1437 0.93488   2
  -6  -4   0 1.32335 1.10265   1
   6   4   0 1.01853 1.09199   2
   7  -4   0 26.9486 2.09121   2
   7  -4   0 25.2885 3.23965   5
  -7   4   0 30.8080 2.80729   6
   7  -4   0 26.8645 4.01495   3
   7   4   0 24.6286 2.10851   2
  -7  -4   0 32.6151 2.08818   1
   7  -4   0 21.4737 1.96080   2
   7   4   0 26.1620 2.08277   2
   8   4   0 270.429 8.71190   2
   8  -4   0 264.283 8.46701   2
   8  -4   0 264.454 8.51183   2
   8   4   0 261.662 8.56536   2
   8  -4   0 255.749 10.3362   5
   8  -4   0 250.967 11.7026   3
   9  -4   0 6.88479 1.57230   2
   9  -4   0 4.34721 2.66138   5
   9  -4   0 5.98733 1.53375   2
   9  -4   0 3.43811 3.10976   3
   9   4   0 7.09553 1.63715   2
   9   4   0 6.00175 1.66313   2
  10   4   0 -0.0344 1.26519   2
  10  -4   0 1.10183 1.30365   2
  10  -4   0 1.28795 2.59753   5
  10  -4   0 1.43118 1.41321   2
  10  -4   0 -1.8874 2.64439   3
  11   4   0 12.9497 1.83521   2
  11  -4   0 11.9678 4.18304   3
  11  -4   0 15.2169 3.76963   5
  12  -4   0 101.130 6.74776   5
  12  -4   0 97.3571 7.91890   3
   0   5   0 1.08988 1.10625   1
   0  -5   0 1.07102 1.24148   7
   0  -5   0 1.43271 1.19385   1
   0   5   0 1.90405 1.19626   7
   0   5   0 0.33237 1.15625   6
  -1   5   0 33.6570 2.25378   7
  -1  -5   0 29.4434 2.28335   7
   1  -5   0 33.5292 2.31921   7
   1   5   0 35.1881 2.29117   7
   1   5   0 27.9971 2.20912   6
  -1   5   0 24.0881 2.29868   6
   2  -5   0 1408.52 38.9225   2
  -2  -5   0 1413.49 38.3626   7
  -2  -5   0 1340.07 38.2745   1
  -2   5   0 1405.93 38.3500   7
   2   5   0 1388.81 39.0188   2
   2   5   0 1433.03 38.4389   7
   2   5   0 1401.09 38.2282   6
  -2   5   0 1379.87 38.2925   1
   2  -5   0 1305.58 41.0807   3
  -2   5   0 1421.13 39.1064   6
   2  -5   0 1366.68 38.3559   7
   3   5   0 16.5241 1.64786   6
   3  -5   0 19.6258 3.03136   3
   3  -5   0 22.9848 2.25557   2
   3   5   0 27.1050 2.11260   7
  -3  -5   0 29.6188 2.16887   1
  -3   5   0 31.4226 2.12936   1
   3   5   0 19.5471 2.16683   2
   3  -5   0 25.9980 2.11847   7
   3  -5   0 17.8378 2.81731   4
  -3   5   0 28.1008 2.61152   6
  -4  -5   0 0.27946 1.14032   1
   4   5   0 0.07467 1.23453   2
  -4   5   0 2.54723 1.64467   6
   4  -5   0 2.36996 2.02283   4
  -4   5   0 2.31523 1.12775   1
   4  -5   0 0.42213 1.04257   2
   4   5   0 1.49540 1.28265   2
   4  -5   0 4.59497 1.66655   2
   4  -5   0 2.13541 1.95145   3
   4  -5   0 1.32533 1.16363   7
   4   5   0 -0.4381 0.95877   7
  -5   5   0 19.3609 1.74026   1
   5   5   0 16.6901 2.12465   2
   5  -5   0 18.9254 1.80353   7
   5   5   0 19.8247 1.81346   7
  -5   5   0 23.6268 2.54820   6
   5  -5   0 19.0948 3.24594   3
   5  -5   0 22.5075 3.44599   4
   5  -5   0 15.9342 1.93099   2
   5   5   0 17.2175 1.92891   2
  -5  -5   0 23.7991 2.01226   1
   5  -5   0 19.7864 2.13678   2
  -6  -5   0 676.638 19.4115   1
   6  -5   0 654.417 22.5919   3
  -6   5   0 686.597 19.3335   1
   6  -5   0 660.804 22.4652   4
   6  -5   0 659.817 21.1354   5
   6  -5   0 682.685 19.1983   7
   6   5   0 662.150 19.2480   7
   6   5   0 694.810 20.0852   2
  -6   5   0 661.962 20.6814   6
   6   5   0 679.362 19.8963   2
   6  -5   0 675.819 19.8492   2
   6  -5   0 681.358 19.8659   2
   7   5   0 16.0674 2.14678   2
   7  -5   0 11.5148 3.58986   3
   7  -5   0 14.8824 1.62308   7
   7  -5   0 16.1095 2.05719   2
   7  -5   0 16.3792 3.10327   5
  -7  -5   0 19.7992 1.96095   1
  -7   5   0 19.8329 2.52536   6
  -7   5   0 15.7702 1.68247   1
   7  -5   0 13.8623 1.90446   2
   7   5   0 15.0580 1.53660   7
   8  -5   0 4.25417 1.61267   2
   8   5   0 0.55055 1.37966   2
   8  -5   0 -0.7414 2.23021   3
   8  -5   0 2.46992 2.43225   5
   9  -5   0 8.74223 3.39168   3
   9  -5   0 7.62039 3.04874   5
   9   5   0 10.7536 1.91002   2
   9  -5   0 7.72437 1.92175   2
  10   5   0 248.270 8.73204   2
  10  -5   0 258.513 10.8289   5
  10  -5   0 252.705 12.3909   3
  10  -5   0 245.222 8.51556   2
  11  -5   0 7.20055 1.94560   2
  11  -5   0 6.84066 3.25715   5
  11   5   0 2.48331 1.60912   2
  11  -5   0 8.40897 4.09288   3
  12  -5   0 -4.1813 2.81391   3
  12  -5   0 2.71899 3.10481   5
   0   6   0 3780.24 100.001   6
   0   6   0 3493.38 99.5723   7
   0  -6   0 3679.55 99.5759   1
   0   6   0 3895.89 99.6957   1
   0  -6   0 3656.96 99.6154   7
   1  -6   0 16.5975 1.99082   1
   1  -6   0 18.2315 2.06197   7
   1   6   0 15.2404 1.88232   6
  -1   6   0 20.5027 1.97802   1
   1   6   0 18.8492 1.98097   1
  -1  -6   0 16.1776 1.95835   1
  -1   6   0 18.5888 1.96696   7
  -1  -6   0 18.0623 2.05279   7
   1   6   0 17.9426 1.94474   7
  -1   6   0 16.4962 2.09996   6
  -2   6   0 -0.0871 1.15970   7
  -2  -6   0 1.63829 1.37309   1
   2  -6   0 1.55169 1.42641   1
   2   6   0 0.06725 1.11499   7
   2   6   0 0.51742 1.28829   2
   2  -6   0 0.85996 1.38625   2
  -2  -6   0 1.52876 1.40036   7
  -2   6   0 1.98700 1.25654   1
   2  -6   0 0.87186 1.27288   7
  -2   6   0 -0.2522 1.38798   6
   2   6   0 0.00627 1.05223   6
   2   6   0 2.76836 1.23911   1
   3  -6   0 5.47802 1.80664   2
   3  -6   0 6.58107 1.70079   7
   3   6   0 5.73905 1.46297   7
   3  -6   0 2.76248 2.08380   3
  -3   6   0 7.77181 2.05781   6
  -3  -6   0 5.31265 1.63081   7
   3   6   0 4.06869 1.27980   6
  -3   6   0 4.71522 1.40197   1
  -3  -6   0 5.39690 1.56224   1
   3   6   0 2.99285 1.68083   2
  -3   6   0 6.83595 1.74314   7
   3  -6   0 3.36001 2.38786   4
   4   6   0 2639.42 72.1266   7
   4  -6   0 2540.87 75.2661   3
   4  -6   0 2615.67 74.6887   4
  -4   6   0 2587.35 71.9676   1
   4  -6   0 2626.22 72.7063   2
  -4   6   0 2703.11 73.3251   6
   4   6   0 2668.32 72.8924   2
  -4  -6   0 2813.61 72.2020   1
   4  -6   0 2739.89 72.1656   7
   5  -6   0 21.8024 3.51722   4
  -5   6   0 24.2147 2.06203   1
   5   6   0 16.7371 2.30740   2
   5   6   0 21.8982 2.06303   7
  -5  -6   0 23.3025 2.21260   1
   5  -6   0 22.0952 2.44034   2
   5  -6   0 21.4210 2.13315   7
   5  -6   0 20.9679 3.59383   3
  -5   6   0 21.2653 2.70505   6
   6   6   0 -0.3270 1.15437   7
   6  -6   0 0.41916 2.07427   5
  -6   6   0 1.58584 1.79508   6
   6  -6   0 1.30533 1.28984   7
   6   6   0 1.16618 1.50423   2
   6  -6   0 -1.0118 2.22813   4
   6  -6   0 1.96811 1.67219   2
   6  -6   0 0.18111 2.41459   3
  -6   6   0 1.34632 1.16297   1
  -6  -6   0 0.89121 1.38834   1
  -7   6   0 0.72283 1.74592   6
   7   6   0 1.41840 1.51774   2
  -7  -6   0 1.24549 1.49421   1
  -7   6   0 1.04674 1.30050   1
   7  -6   0 1.22611 2.63986   3
   7  -6   0 -1.9568 2.26999   4
   7   6   0 2.23061 1.18145   7
   7  -6   0 1.77077 2.27633   5
   7  -6   0 3.37091 1.89642   2
   7  -6   0 0.93621 1.27287   7
   8  -6   0 1230.09 35.1646   2
   8  -6   0 1206.51 39.0174   3
   8   6   0 1261.21 35.4442   2
   8  -6   0 1268.03 37.0664   5
   9  -6   0 15.2484 3.51049   5
   9  -6   0 12.6987 2.26647   2
   9  -6   0 10.7103 3.77626   3
   9   6   0 16.9631 2.38133   2
  10  -6   0 -2.0384 2.90275   3
  10  -6   0 -0.1980 1.55076   2
  10   6   0 2.32346 1.69154   2
  10  -6   0 1.81485 2.66761   5
  11  -6   0 1.48867 1.78693   2
  11  -6   0 1.93402 2.89694   5
  11   6   0 -2.4261 1.45031   2
  11  -6   0 -3.1232 2.96321   3
  12  -6   0 491.938 18.0835   5
  12  -6   0 500.713 20.3267   3
   0  -7   0 -1.7486 1.35581   1
   0  -7   0 2.60785 1.58530   7
   0   7   0 1.17142 1.27947   1
   0   7   0 0.89263 1.27568   7
   0   7   0 2.81065 1.60982   6
  -1   7   0 4.40485 1.80528   6
  -1  -7   0 4.05106 1.62435   1
  -1   7   0 2.65111 1.44038   7
  -1   7   0 3.24309 1.45313   1
   1  -7   0 2.09853 1.53556   7
  -1  -7   0 2.71515 1.60364   7
   1  -7   0 5.20863 1.77060   1
   1   7   0 0.73325 1.29046   7
   1   7   0 2.53866 1.36170   6
   1   7   0 3.81407 1.54808   1
   2   7   0 1229.06 34.8799   6
  -2  -7   0 1186.14 34.8723   7
  -2   7   0 1205.81 34.8383   7
   2   7   0 1243.59 35.7069   2
   2   7   0 1201.82 34.9074   7
   2   7   0 1270.42 34.9327   1
   2  -7   0 1303.41 34.9373   1
   2  -7   0 1224.75 35.6369   2
   2  -7   0 1266.95 34.9783   7
  -2   7   0 1194.05 35.4967   6
  -2  -7   0 1269.29 34.9832   1
  -2   7   0 1222.11 34.7967   1
  -3   7   0 1.27371 1.64846   6
   3  -7   0 2.55848 2.58360   3
   3   7   0 0.12459 1.39189   2
  -3  -7   0 -0.7976 1.35355   1
   3  -7   0 -0.6261 1.60097   2
   3  -7   0 1.00072 1.36345   7
   3   7   0 0.84594 1.26159   7
  -3   7   0 0.02262 1.15845   1
   3   7   0 -0.3394 1.17886   6
  -4   7   0 0.74021 1.25630   1
   4  -7   0 0.16181 1.64482   2
   4   7   0 1.27777 1.35323   7
   4  -7   0 7.60349 1.96286   7
  -4   7   0 2.77655 1.88851   6
   4  -7   0 -0.3779 2.00666   4
   4   7   0 -0.5986 1.50722   2
   4  -7   0 -0.3834 2.27815   3
  -4  -7   0 0.01544 1.33046   1
   5   7   0 7.19218 2.21770   2
  -5  -7   0 12.2224 1.95480   1
  -5   7   0 8.78911 2.30938   6
   5  -7   0 9.60679 2.37528   2
   5  -7   0 11.1979 3.29475   3
   5   7   0 6.08083 1.65286   7
  -5   7   0 8.21859 1.80322   1
   5  -7   0 9.00449 2.00283   7
   5  -7   0 6.46876 2.92108   4
   6   7   0 727.387 20.7306   7
   6  -7   0 708.370 20.5787   7
  -6   7   0 701.799 22.0587   6
   6  -7   0 682.779 24.2636   3
  -6  -7   0 692.364 20.6966   1
   6   7   0 712.440 21.6506   2
  -6   7   0 696.624 20.5994   1
   6  -7   0 690.014 23.7555   4
   6  -7   0 711.501 21.4780   2
   7  -7   0 -0.6165 2.32710   5
   7  -7   0 5.28432 3.22659   3
   7  -7   0 1.47209 1.45790   7
   7  -7   0 -2.9892 2.32438   4
  -7   7   0 1.95881 1.36555   1
   7   7   0 0.66273 1.76018   2
  -7   7   0 2.26505 2.04122   6
   7   7   0 1.49611 1.26265   7
   7  -7   0 -0.3320 1.66574   2
  -7  -7   0 0.61235 1.48974   1
   8   7   0 -0.5354 1.09047   7
   8  -7   0 -1.7466 2.46257   5
   8   7   0 0.07421 1.56644   2
  -8  -7   0 1.49210 1.67616   1
  -8   7   0 0.23039 1.37664   1
   8  -7   0 3.05937 3.12662   3
   8  -7   0 0.57607 1.85807   2
   9  -7   0 9.87086 2.48912   2
   9  -7   0 7.30552 3.18204   5
   9   7   0 9.11535 2.26613   2
   9  -7   0 10.0029 4.04619   3
  10  -7   0 332.015 15.1423   3
  10  -7   0 316.029 13.0305   5
  10  -7   0 323.388 11.1537   2
  10   7   0 316.850 11.2232   2
  11  -7   0 0.22606 1.94940   2
  11  -7   0 0.55543 3.01881   5
  11  -7   0 1.13623 3.67147   3
  11   7   0 0.16857 1.73744   2
  12  -7   0 -1.1172 3.15050   5
  12  -7   0 -0.8965 3.55935   3
   0   8   0 1079.45 30.9602   1
   0  -8   0 1110.53 30.9545   1
   0  -8   0 1071.13 30.9795   7
   0   8   0 1063.99 31.3391   6
   0   8   0 1047.60 30.9521   7
   1  -8   0 1.46924 1.60102   7
  -1   8   0 1.40388 1.60368   6
   1   8   0 0.95353 1.36033   1
   1  -8   0 -0.2660 1.51516   1
  -1   8   0 1.32881 1.24200   7
   1   8   0 0.34071 1.33138   7
   1   8   0 0.65310 1.46703   6
  -1  -8   0 -0.1190 1.56764   7
  -1   8   0 0.75494 1.41817   1
  -1  -8   0 -0.6633 1.54614   1
   2  -8   0 1.15086 1.63800   1
  -2  -8   0 3.05998 1.71101   7
  -2   8   0 1.06730 1.41161   1
   2  -8   0 2.54676 1.80290   7
   2   8   0 1.42801 1.48086   1
  -2   8   0 8.04394 2.40866   6
  -2  -8   0 3.79321 1.80040   1
  -2   8   0 2.71344 1.48047   7
   2   8   0 3.08582 1.67263   6
   2   8   0 1.35688 1.41465   7
   3  -8   0 0.83679 1.79554   2
   3  -8   0 1.21767 2.82823   3
   3   8   0 -0.6452 1.20523   6
   3  -8   0 -1.9637 1.52390   7
  -3   8   0 -0.2185 1.21366   1
   3   8   0 -0.0274 1.37701   7
  -3  -8   0 1.86831 1.55279   1
  -3   8   0 0.45881 1.76189   6
   3   8   0 1.61473 1.80518   2
  -4   8   0 767.656 23.0872   1
   4  -8   0 756.664 23.1072   7
   4  -8   0 805.125 24.0411   2
   4   8   0 779.720 24.1797   2
  -4   8   0 772.337 24.2576   6
  -4  -8   0 847.482 23.3451   1
   4   8   0 781.056 23.2192   7
   4  -8   0 764.533 27.0458   3
   4  -8   0 780.692 25.9886   4
   5   8   0 -0.0447 1.67445   2
  -5   8   0 1.36169 1.95110   6
   5  -8   0 1.05038 2.50739   4
  -5   8   0 0.13696 1.30674   1
   5  -8   0 -0.0170 2.36336   3
   5  -8   0 0.05236 1.86071   2
   5  -8   0 -0.3903 1.64217   7
  -5  -8   0 -1.3284 1.58170   1
   5   8   0 0.65045 1.48970   7
   6  -8   0 0.03656 2.71075   3
   6  -8   0 0.19973 1.64048   7
   6  -8   0 3.62832 2.99485   4
  -6   8   0 2.32057 2.01240   6
  -6  -8   0 -0.5221 1.55671   1
  -6   8   0 0.30462 1.39466   1
   6  -8   0 -0.2418 1.81228   2
   6   8   0 4.04089 1.68824   7
   6   8   0 0.08308 1.77997   2
  -7   8   0 1.30712 1.96214   6
  -7  -8   0 1.13129 1.66622   1
   7  -8   0 -0.2288 1.55902   7
   7   8   0 1.46575 1.44241   7
   7   8   0 -0.1242 1.65442   2
   7  -8   0 3.23373 2.94082   3
  -7   8   0 0.11258 1.46019   1
   7  -8   0 -1.0740 2.33315   5
   7  -8   0 2.39573 2.05540   2
   7  -8   0 2.05778 2.69590   4
   8  -8   0 370.871 12.9091   2
   8  -8   0 378.103 11.8538   7
  -8   8   0 370.410 13.6293   6
  -8  -8   0 370.967 11.9939   1
   8   8   0 371.613 11.8243   7
   8   8   0 383.622 13.2016   2
   8  -8   0 357.122 14.3201   5
  -8   8   0 383.990 12.0981   1
   8  -8   0 380.322 16.3704   3
   9  -8   0 6.68200 3.22502   5
   9  -8   0 1.65520 2.08617   2
   9  -8   0 1.50970 3.26605   3
   9   8   0 0.11404 1.80117   2
  10  -8   0 -0.0536 2.82373   5
  10   8   0 -0.7214 1.73954   2
  10  -8   0 1.20107 3.50715   3
  10  -8   0 -0.1465 2.09765   2
  11  -8   0 1.18924 3.30714   2
  11  -8   0 1.85966 3.57189   3
  11   8   0 1.11219 2.15366   2
  11  -8   0 2.13461 3.35363   5
  12  -8   0 133.452 8.52252   5
   0  -9   0 2.01667 1.77620   1
   0   9   0 -0.6786 1.48878   6
   0   9   0 0.01115 1.42411   7
   0   9   0 0.31271 1.57214   1
   0  -9   0 3.87264 1.92072   7
  -1   9   0 6.45879 1.90893   7
  -1   9   0 6.13627 1.89364   1
  -1  -9   0 8.24936 2.22780   7
  -1   9   0 7.07889 2.30241   6
   1  -9   0 8.06945 2.19540   7
  -1  -9   0 4.80474 2.14182   1
   1   9   0 8.07732 2.19146   6
   1   9   0 9.59342 2.17189   1
   1  -9   0 5.25215 2.08151   1
   1   9   0 3.39641 1.62424   7
   2   9   0 1590.68 44.7772   6
  -2  -9   0 1541.21 44.6643   1
   2  -9   0 1587.71 44.4612   1
  -2   9   0 1592.91 44.6807   7
  -2   9   0 1580.83 45.5353   6
  -2   9   0 1613.54 44.7670   1
   2  -9   0 1573.37 44.7606   7
  -2  -9   0 1585.99 44.8045   7
   2   9   0 1534.44 44.5796   1
   2   9   0 1679.89 44.9385   7
   3  -9   0 0.78421 3.30449   3
  -3   9   0 0.70526 1.84837   6
  -3  -9   0 2.49192 1.98997   1
   3   9   0 3.34686 1.67283   7
  -3   9   0 2.94935 1.73564   1
   3  -9   0 6.47196 2.17901   7
   4  -9   0 3.94252 3.08826   4
  -4   9   0 3.30028 1.67686   1
  -4  -9   0 -3.7175 1.48526   1
   4  -9   0 2.39908 2.88839   3
   4  -9   0 -0.7973 1.72841   7
   4   9   0 1.05611 1.69537   7
  -4   9   0 4.99532 2.35208   6
  -5   9   0 6.16934 1.88187   1
   5  -9   0 7.62533 3.16998   4
   5  -9   0 7.08832 2.58342   2
   5   9   0 7.95783 2.06524   7
  -5   9   0 10.6417 2.71324   6
   5  -9   0 7.05258 2.24309   7
  -5  -9   0 4.39064 2.14974   1
   5  -9   0 7.66357 3.49268   3
   6  -9   0 941.069 32.9617   3
   6  -9   0 994.603 28.7027   7
  -6   9   0 993.743 28.6402   1
  -6   9   0 986.446 30.1372   6
   6  -9   0 1026.56 29.7806   2
   6   9   0 984.667 28.6992   7
   6   9   0 976.073 29.7601   2
   6  -9   0 970.737 32.0225   4
  -6  -9   0 999.376 28.7464   1
   7  -9   0 0.07835 2.68965   5
  -7   9   0 0.42445 1.49555   1
   7  -9   0 -0.6116 2.00031   2
   7   9   0 1.36921 1.93914   2
  -7   9   0 0.25887 2.04713   6
  -7  -9   0 4.23509 1.99195   1
   7  -9   0 1.40095 3.07960   4
   7   9   0 0.09142 1.46243   7
   7  -9   0 -1.8598 3.10362   3
   7  -9   0 1.96929 1.84905   7
  -8   9   0 -0.5088 2.13102   6
   8  -9   0 0.83074 3.25690   3
   8   9   0 0.13877 1.85527   2
   8  -9   0 -1.3854 2.75100   5
  -8   9   0 2.71066 1.69231   1
   8  -9   0 -0.6089 1.70530   7
   8  -9   0 1.24475 2.98079   4
  -8  -9   0 -1.9156 1.62653   1
   8  -9   0 -0.9174 2.06628   2
   8   9   0 -0.0775 1.39111   7
   9  -9   0 13.6800 3.98049   5
   9   9   0 5.40393 2.33257   2
   9  -9   0 2.24566 2.30338   2
   9  -9   0 9.28976 4.14708   3
  10   9   0 441.530 15.0383   2
  10  -9   0 442.173 16.7928   5
  10  -9   0 430.771 18.8874   3
  10  -9   0 440.760 14.8854   2
  11  -9   0 -2.6344 3.27441   3
  11  -9   0 2.42775 3.53679   5
   0  10   0 1597.93 44.3560   7
   0 -10   0 1532.43 44.1206   1
   0  10   0 1532.71 44.2133   1
   0 -10   0 1611.93 44.4476   7
   0  10   0 1530.51 44.6493   6
  -1  10   0 20.8094 2.61763   7
  -1 -10   0 18.8513 2.84897   7
  -1  10   0 18.2836 2.51609   1
  -1  10   0 16.9951 2.76244   6
   1  10   0 13.7487 2.66497   1
   1 -10   0 12.6240 2.70938   7
   1 -10   0 20.5767 2.94679   1
   1  10   0 20.9597 2.66913   7
   1  10   0 15.8967 2.57235   6
  -1 -10   0 18.3151 2.79914   1
   2  10   0 2.73452 1.76866   7
   2  10   0 -1.2923 1.52745   6
  -2  10   0 0.72759 2.04481   6
   2  10   0 2.51503 1.82625   1
  -2  10   0 2.57484 1.79862   1
   2 -10   0 0.22947 1.83362   7
   2 -10   0 -1.2930 1.70879   1
  -2 -10   0 0.36895 2.01786   1
   3 -10   0 15.5459 5.28206   3
   3 -10   0 10.4314 2.44340   7
  -3  10   0 9.05705 2.14299   1
   3  10   0 8.73605 2.28575   7
  -3  10   0 6.63072 2.52551   6
  -3 -10   0 10.6869 2.62007   1
  -4  10   0 1181.13 35.4013   6
   4  10   0 1166.53 34.2132   7
  -4  10   0 1180.32 34.1198   1
   4 -10   0 1223.20 37.7729   4
   4 -10   0 1192.17 39.7555   3
   4 -10   0 1148.75 34.2000   7
  -4 -10   0 1197.46 34.2548   1
   5 -10   0 13.5688 3.99705   4
   5 -10   0 13.7480 4.64233   3
   5  10   0 16.1469 2.48803   7
  -5  10   0 9.44227 2.92560   6
  -5 -10   0 18.5175 2.86507   1
   5 -10   0 20.8427 2.87928   7
  -5  10   0 10.9933 2.31889   1
   6 -10   0 -2.2748 1.69145   7
   6  10   0 0.68886 1.63922   7
  -6  10   0 -1.3985 1.90409   6
   6 -10   0 -2.4652 2.90340   3
  -6  10   0 -0.3316 1.55589   1
   6 -10   0 0.19106 2.61295   4
  -6 -10   0 -1.2336 1.82724   1
   7  10   0 3.41575 1.87101   7
  -7  10   0 2.54560 1.69735   1
   7 -10   0 5.40610 3.59560   3
  -7  10   0 5.75018 2.69456   6
   7 -10   0 1.77081 3.32556   4
  -7 -10   0 2.84369 2.12073   1
   7 -10   0 2.80564 2.01718   7
   8 -10   0 604.076 19.6265   2
  -8  10   0 613.848 20.2356   6
   8 -10   0 606.532 18.3689   7
  -8  10   0 620.681 18.6615   1
   8  10   0 621.384 18.4652   7
   8 -10   0 590.278 20.9953   5
   8 -10   0 570.603 23.3109   3
  -8 -10   0 583.442 18.5020   1
   8 -10   0 615.242 22.4918   4
   9 -10   0 10.2585 4.60720   3
  -9 -10   0 7.99791 2.41061   1
   9 -10   0 12.3335 3.03284   2
   9 -10   0 10.6325 3.88509   5
  10  10   0 3.11041 2.42282   2
  10 -10   0 -0.5436 3.57265   3
  10 -10   0 -0.4161 2.28295   2
  10 -10   0 4.76131 3.78728   5
  11 -10   0 3.07096 3.67491   5
  11 -10   0 1.90540 3.80423   3
   0  11   0 -1.4454 1.49629   7
   0 -11   0 1.74753 2.29329   7
   0  11   0 -0.7063 1.64286   1
   0 -11   0 0.60159 1.95484   1
   0  11   0 -0.2255 2.01209   6
   1 -11   0 21.8592 3.13775   7
  -1  11   0 25.9064 2.96278   7
   1  11   0 23.6148 2.83311   1
   1 -11   0 17.1872 2.72656   1
  -1  11   0 17.3338 2.65905   1
  -1  11   0 18.9678 3.03865   6
   1  11   0 21.3930 2.72301   7
   1  11   0 18.9001 2.84498   6
  -1 -11   0 23.6513 3.17076   7
  -1 -11   0 25.0010 3.20789   1
   2 -11   0 1.75892 2.09049   7
   2  11   0 1.35735 1.87177   6
  -2  11   0 0.57064 1.76616   1
  -2 -11   0 2.31431 2.25836   1
  -2  11   0 2.97022 2.30092   6
   2  11   0 1.36672 1.86731   7
  -3  11   0 17.1906 2.77337   1
   3 -11   0 26.3647 6.41505   3
  -3 -11   0 27.9902 3.33440   1
  -3  11   0 11.5762 3.02913   6
   3  11   0 16.7556 2.62657   7
   3 -11   0 24.4253 3.14267   7
  -4 -11   0 2.13682 2.28921   1
   4 -11   0 -0.3697 1.98815   7
   4  11   0 3.56047 1.99139   7
  -4  11   0 -0.2897 1.64341   1
   4 -11   0 0.49183 3.17457   4
   4 -11   0 0.33178 3.93200   3
   5 -11   0 14.1729 4.29030   4
   5 -11   0 15.2618 5.09060   3
  -5 -11   0 17.8513 2.79955   1
  -5  11   0 10.5361 2.96962   6
  -5  11   0 9.69904 2.37555   1
   5  11   0 10.6941 2.42884   7
   5 -11   0 15.8350 2.97269   7
   6  11   0 -0.3471 1.67780   7
  -6  11   0 2.74160 1.80515   1
   6 -11   0 7.44108 4.31763   3
  -6  11   0 3.81181 2.51297   6
   6 -11   0 3.31000 3.46451   4
   6 -11   0 4.48766 2.31979   7
  -6 -11   0 2.65340 2.23643   1
   7 -11   0 10.1732 4.73530   3
   7  11   0 6.25502 1.94196   7
  -7  11   0 9.07331 2.22473   1
  -7  11   0 7.47188 2.79574   6
   7 -11   0 9.89753 2.61210   7
  -7 -11   0 10.6276 2.47749   1
   7 -11   0 6.65126 3.82828   4
  -8  11   0 0.62197 1.74120   1
   8 -11   0 -0.4999 1.93460   7
   8 -11   0 2.02799 3.61424   3
   8  11   0 0.74328 1.67307   7
   8 -11   0 -0.2122 3.42105   4
   8 -11   0 1.14912 3.01451   5
  -8 -11   0 0.61141 2.08069   1
  -8  11   0 -1.2836 2.08519   6
   9 -11   0 1.56353 4.23634   3
   9 -11   0 4.41850 3.78139   5
  -9 -11   0 5.46116 2.44724   1
  -9  11   0 4.79779 2.06785   1
  10 -11   0 2.22187 4.42179   3
  10 -11   0 -0.6369 3.60984   5
   0 -12   0 19.0259 3.10161   1
   0  12   0 19.0925 3.16134   6
   0  12   0 18.6661 2.82534   7
   0  12   0 18.7824 2.82219   1
   0 -12   0 17.4398 3.55061   7
  -1 -12   0 10.1623 2.75644   1
   1  12   0 16.9806 2.72185   7
  -1  12   0 16.6773 2.70568   7
   1  12   0 18.6384 2.97765   6
  -1  12   0 16.3815 3.36485   6
   1  12   0 19.4132 2.75301   1
   1 -12   0 17.8600 2.86207   1
  -1  12   0 12.2208 2.66547   1
  -1 -12   0 12.8070 3.06376   7
   1 -12   0 13.5170 2.93266   7
   2  12   0 -0.1693 2.20550   6
   2  12   0 1.84945 1.97080   7
   2 -12   0 -4.1402 1.91030   7
  -2 -12   0 0.54676 2.27550   1
  -2  12   0 -2.0769 1.70639   1
  -2  12   0 -0.0891 2.12582   6
   3 -12   0 21.2485 3.27006   7
  -3  12   0 11.4885 2.62675   1
  -3 -12   0 9.61164 2.88485   1
  -3  12   0 17.9374 3.04573   6
   3  12   0 19.9269 2.92095   7
   3 -12   0 14.2889 5.12322   3
  -4  12   0 20.0051 3.25467   6
   4 -12   0 26.3159 5.48579   4
   4 -12   0 23.8213 6.74034   3
   4 -12   0 19.0343 3.11094   7
  -4  12   0 18.7909 2.69085   1
   4  12   0 21.5566 3.43792   7
  -4 -12   0 21.6242 3.67532   1
   5 -12   0 4.65231 4.75792   3
   5 -12   0 10.4573 2.74335   7
   5  12   0 8.19349 2.38574   7
  -5 -12   0 6.42306 2.68102   1
  -5  12   0 5.13793 2.14975   1
   5 -12   0 2.75251 3.77989   4
  -5  12   0 11.8592 3.09443   6
   6 -12   0 -0.9894 3.66200   3
   6 -12   0 -4.3477 2.89251   4
   6  12   0 -0.8723 1.61234   7
   6 -12   0 4.32891 2.36442   7
  -6 -12   0 -1.7450 1.94687   1
  -6  12   0 2.06463 2.47445   6
  -6  12   0 2.08141 1.86103   1
  -7  12   0 10.5426 4.13221   6
   7 -12   0 11.8217 4.28522   4
  -7  12   0 10.9071 2.45339   1
   7 -12   0 6.99759 4.84069   3
   7  12   0 9.90213 2.36379   7
  -7 -12   0 8.51584 2.66914   1
   7 -12   0 12.6445 2.93657   7
   8 -12   0 17.4770 4.74276   5
   8 -12   0 16.0373 4.52778   4
   8 -12   0 19.8426 3.30655   7
   8 -12   0 9.34143 4.88261   3
  -8  12   0 15.5740 2.50458   1
  -8 -12   0 17.4828 3.27262   1
   8  12   0 16.1003 2.58614   7
   9 -12   0 3.77283 3.73622   5
  -9 -12   0 3.87086 2.42547   1
   9 -12   0 2.92427 4.23527   3
  -9  12   0 5.86721 2.12276   1
  10 -12   0 -1.8292 3.50131   5
  10 -12   0 9.76894 5.46366   3
   0 -13   0 -1.4819 2.17036   7
   0  13   0 -1.0576 1.77224   1
   0  13   0 0.58738 2.28848   6
   0 -13   0 -0.4175 2.33313   1
   0  13   0 1.60731 2.03096   7
   1 -13   0 16.7737 3.37574   7
   1  13   0 21.0746 2.96783   1
  -1 -13   0 17.4139 3.22890   1
   1 -13   0 20.4804 3.23234   1
  -1  13   0 24.5289 3.30695   6
   1  13   0 20.4923 3.14292   6
  -1  13   0 25.4045 3.24764   1
   1  13   0 9.76869 2.65087   7
  -2  13   0 700.236 22.9353   6
  -2 -13   0 667.052 22.0132   1
   2  13   0 714.393 22.3614   7
  -2  13   0 732.837 22.2754   1
   2 -13   0 707.921 22.3228   7
  -3 -13   0 20.1846 3.26292   1
   3 -13   0 17.5884 5.43165   3
  -3  13   0 15.4559 3.53946   6
  -3  13   0 9.52497 2.55686   1
   3 -13   0 11.8125 3.03788   7
   3  13   0 11.9752 2.80601   7
   4 -13   0 -1.0639 2.92252   4
  -4  13   0 2.14492 2.47942   6
   4 -13   0 3.70081 4.59158   3
   4  13   0 2.27297 1.92807   7
   4 -13   0 1.19958 2.44928   7
  -4  13   0 2.32814 1.88894   1
  -4 -13   0 -2.6821 2.33388   1
   5 -13   0 17.2860 4.79090   4
   5  13   0 10.2998 2.54532   7
  -5  13   0 10.7123 3.18975   6
   5 -13   0 9.62858 2.80458   7
   5 -13   0 17.2729 6.37165   3
  -5 -13   0 19.2148 3.09711   1
  -5  13   0 14.6611 2.84111   1
  -6  13   0 423.591 14.4109   1
   6 -13   0 395.478 14.3066   7
   6 -13   0 462.582 18.3937   4
   6  13   0 425.143 14.5057   7
   6 -13   0 444.238 20.5147   3
  -6 -13   0 408.358 14.3279   1
  -7  13   0 8.64746 2.46125   1
   7 -13   0 5.66421 4.18711   4
  -7 -13   0 12.6329 3.19331   1
   7  13   0 7.61476 2.37293   7
   7 -13   0 5.16729 2.57869   7
   7 -13   0 12.1666 5.58229   3
  -8  13   0 -2.1890 1.69946   1
   8 -13   0 1.02858 3.40997   5
  -8 -13   0 1.67017 2.37453   1
   8 -13   0 -3.1526 4.03351   3
   9 -13   0 15.5188 5.00708   5
   9 -13   0 8.77527 5.06091   3
  -9  13   0 10.7466 2.47552   1
  -9 -13   0 11.2020 2.97698   1
   0 -14   0 26.1939 4.26213   7
   0  14   0 25.2674 3.27122   7
   0  14   0 30.4978 3.76779   6
   0  14   0 27.2933 3.49489   1
   0 -14   0 31.8814 3.75511   1
  -1  14   0 5.69352 2.79758   6
   1 -14   0 3.97082 2.81245   7
   1  14   0 2.01593 2.45655   6
  -1  14   0 4.17409 2.35657   1
   1  14   0 2.48548 2.43048   1
   1  14   0 4.87911 2.39498   7
  -1 -14   0 -0.5883 2.46143   1
   2 -14   0 -0.1164 2.46716   7
  -2  14   0 1.20042 2.40647   6
   2 -14   0 1.26457 3.09415   3
  -2  14   0 3.73330 2.22857   1
   2  14   0 0.09063 1.92139   7
  -2 -14   0 4.01309 2.75970   1
   3 -14   0 3.68336 2.62997   7
   3 -14   0 0.59549 3.89018   3
  -3  14   0 -2.1571 1.73067   1
   3  14   0 0.67576 2.06128   7
  -3 -14   0 1.70500 2.64018   1
  -3  14   0 -2.6016 2.06900   6
  -4 -14   0 23.0148 3.89306   1
   4 -14   0 16.4182 3.47777   7
   4 -14   0 32.1573 6.94164   3
   4  14   0 18.5688 2.98973   7
   4 -14   0 20.2570 4.93397   4
  -4  14   0 23.5758 4.45590   6
  -4  14   0 19.2329 3.41204   1
   5 -14   0 3.70419 4.83506   3
  -5 -14   0 2.63226 2.72238   1
  -5  14   0 0.82375 1.92170   1
   5 -14   0 -0.5122 2.46086   7
   5  14   0 4.09862 2.10618   7
   5 -14   0 1.14736 3.46552   4
  -6  14   0 -1.1410 1.99351   1
  -6 -14   0 0.54559 2.54971   1
   6  14   0 2.93875 2.06859   7
   6 -14   0 1.70579 3.65792   4
   6 -14   0 -0.9180 2.38369   7
   6 -14   0 1.34508 4.65905   3
   7 -14   0 0.51483 4.68443   3
  -7  14   0 0.94806 2.08757   1
  -7 -14   0 1.86320 2.61734   1
  -8  14   0 12.1786 2.87553   1
   8 -14   0 0.08328 4.03943   5
   8 -14   0 1.38628 5.23398   3
  -8 -14   0 8.29476 3.02772   1
   0 -15   0 -2.6368 2.41739   7
   0  15   0 0.67088 2.29607   6
   0 -15   0 -1.4804 2.66830   1
   0  15   0 -0.5254 2.08831   1
  -1 -15   0 6.41343 3.16441   1
  -1  15   0 -1.2019 2.23229   6
  -1  15   0 1.21776 2.36017   1
   1  15   0 3.59057 2.32740   7
   1 -15   0 1.79567 2.79574   7
  -2  15   0 1179.99 36.2095   6
   2 -15   0 1193.45 35.3935   7
   2 -15   0 1135.43 38.9167   3
  -2 -15   0 1163.57 35.1280   1
   2  15   0 1228.93 35.5017   7
  -2  15   0 1201.61 35.2617   1
   3 -15   0 -1.1360 2.42533   7
   3 -15   0 -2.4878 3.02205   3
  -3 -15   0 0.06210 2.73857   1
  -3  15   0 -0.3226 1.94467   1
   3  15   0 -1.2802 1.78815   7
   4 -15   0 4.75885 4.26375   3
  -4  15   0 4.07477 2.40774   1
  -4 -15   0 0.23505 2.62753   1
   4  15   0 3.48516 2.41052   7
   4 -15   0 -0.4961 2.55108   7
   4 -15   0 -0.8841 3.14702   4
  -5  15   0 -0.2404 2.07174   1
   5 -15   0 -0.8944 3.07825   4
  -5 -15   0 -0.8543 2.55001   1
   5 -15   0 0.52756 2.59757   7
   5  15   0 -0.9365 1.91432   7
   5 -15   0 -1.8158 4.07189   3
   6 -15   0 838.990 31.5208   3
  -6  15   0 816.139 25.0483   1
  -6 -15   0 768.724 24.8573   1
  -7 -15   0 3.58550 2.79098   1
   7 -15   0 2.30792 4.97146   3
  -7  15   0 3.39955 2.30516   1
   0  16   0 776.216 24.5755   1
  -1  16   0 -0.9005 2.31027   1
   1  16   0 -1.7768 1.98913   7
   1 -16   0 -0.8117 2.68045   7
  -1 -16   0 3.58184 2.99479   1
  -2  16   0 1.81952 2.39130   1
   2 -16   0 2.82856 2.80989   7
   2 -16   0 -1.1080 3.41786   3
   2  16   0 -1.9426 1.78325   7
  -2 -16   0 -2.6012 2.68445   1
   3 -16   0 -2.2221 2.96570   4
   3  16   0 2.25320 2.35744   7
  -3 -16   0 0.38029 2.70192   1
  -3  16   0 1.55715 2.28324   1
   3 -16   0 1.71680 3.69977   3
   3 -16   0 4.10932 2.92711   7
   4 -16   0 569.479 23.4992   3
  -4  16   0 589.583 19.6458   1
   4 -16   0 613.758 22.4240   4
  -4 -16   0 609.294 19.7741   1
  -5 -16   0 1.65311 2.88709   1
   5 -16   0 -1.7774 3.61440   3
  -5  16   0 0.67968 2.30839   1
  -6  16   0 1.78068 2.91561   1
  -6 -16   0 -0.9336 3.44751   1
   6 -16   0 -0.6208 4.02632   3
   1  17   0 4.59465 2.63007   7
   1 -17   0 5.22319 3.05389   7
   1 -17   0 2.81185 3.03558   3
  -1 -17   0 2.04356 2.98167   1
  -1  17   0 4.78182 2.79236   1
  -2 -17   0 152.925 7.71179   1
   2 -17   0 134.534 9.42116   3
  -2  17   0 151.834 7.68459   1
   3 -17   0 0.41618 3.59687   3
  -3  17   0 3.54414 2.52456   1
  -3 -17   0 0.90845 2.79611   1
  -4 -17   0 -2.8445 2.66313   1
   4 -17   0 -1.2662 3.42713   3
  -4  17   0 -0.5569 2.29113   1
   5 -17   0 2.41600 4.19386   3
  -1  18   0 6.38514 2.81524   1
   1 -18   0 6.23168 3.62171   3
  -2  18   0 2.03922 2.46440   1
  -2 -18   0 0.56007 3.02432   1
   2 -18   0 0.98546 3.57943   3
   3 -18   0 4.10571 3.72790   3
   0   0  -1 0.59562 0.41494   6
  -1   0  -1 4.89577 0.76687   6
  -2   0  -1 2.89320 0.71925   6
  -3   0  -1 17.8756 1.23766   6
  -3   0   1 10.2876 1.40951   6
   3   0   1 4.44376 0.87475   7
  -4   0  -1 0.49093 0.73221   6
   4   0  -1 0.16055 1.12938   5
   4   0   1 -0.2118 1.14264   5
   4   0  -1 -0.8381 1.19543   3
   4   0   1 2.52265 1.55294   3
  -4   0   1 3.96667 1.25237   6
   5   0   1 27.0289 3.24783   3
   5   0  -1 30.4842 2.67098   5
   5   0  -1 26.7961 3.29698   3
   5   0   1 28.7846 2.71386   5
   6   0   1 5.47711 1.95428   5
   6   0   1 2.85688 2.07795   3
   6   0  -1 2.47248 1.53206   5
   6   0  -1 -0.5546 1.73661   3
   7   0  -1 11.0241 3.21634   3
   7   0   1 5.68761 2.59318   3
   7   0  -1 3.49972 2.03280   5
   7   0   1 5.64498 2.21574   5
   8   0   1 0.97171 2.47379   3
   8   0  -1 -0.1656 2.34952   3
   9   0   1 33.0185 4.60742   3
   9   0  -1 31.4222 4.54235   3
  10   0   1 4.80030 3.14390   3
  10   0  -1 7.49918 3.41845   3
   0   1  -1 106.685 3.53500   6
  -1   1   1 11.2566 1.22120   6
  -1   1  -1 16.1575 1.24335   6
   2  -1   1 51.9189 2.00821   7
   2   1  -1 51.9651 2.27653   6
   2  -1   1 50.7137 1.80355   2
   2   1  -1 50.9837 1.95427   7
  -2   1   1 54.3867 2.56135   6
   2  -1  -1 52.4377 1.93853   7
   2   1   1 51.2760 1.91115   2
  -2   1  -1 54.1704 2.31722   6
   2   1   1 52.1889 2.00899   7
  -3   1   1 17.4856 1.74275   6
   3  -1  -1 18.9132 1.05475   7
   3   1   1 15.5981 1.10706   7
   3  -1  -1 10.7326 1.96289   4
   3  -1  -1 17.7527 1.03830   7
  -3   1  -1 18.7867 1.46966   6
  -4   1   1 64.8768 3.21040   6
   4  -1   1 63.1515 3.96180   3
   4  -1   1 79.4459 3.71291   5
   4   1   1 62.2583 3.88181   3
   4  -1  -1 63.8222 3.27473   5
  -4  -1   1 64.1357 2.83174   6
  -4   1  -1 63.2688 2.85450   6
   4   1   1 62.6552 2.16612   7
  -5  -1  -1 19.2662 1.25946   1
   5  -1   1 17.5206 2.47927   5
   5  -1   1 21.1987 2.98055   3
   5   1  -1 20.6848 2.99813   3
   5  -1  -1 16.2731 2.19327   5
  -5  -1   1 17.1378 1.10194   1
   5   1   1 17.4235 2.86053   3
   5  -1  -1 13.4028 2.90639   3
  -5   1  -1 13.1614 1.12430   1
   6  -1   1 36.3196 3.18051   5
  -6   1   1 40.2691 2.64541   6
   6   1  -1 44.7079 3.97939   3
   6  -1   1 39.3425 3.79261   3
   6   1   1 40.7115 3.80378   3
   6  -1  -1 47.5756 3.30018   5
   6  -1  -1 42.7790 3.96897   3
   7   1  -1 9.03762 3.02086   3
   7  -1   1 10.9416 2.46940   5
   7  -1   1 4.98503 2.63401   3
   7  -1  -1 12.1056 3.23433   3
   7   1   1 8.03568 2.83564   3
   7  -1  -1 12.8036 2.51294   5
   8  -1   1 21.4779 3.14419   5
   8   1  -1 29.2139 4.11116   3
   8  -1   1 30.9580 4.07459   3
   8   1   1 30.0167 4.03318   3
   8  -1  -1 30.6505 4.06309   3
   8  -1  -1 32.5776 3.31793   5
   9  -1   1 13.0083 3.69842   3
   9  -1   1 16.7540 3.24339   5
   9  -1  -1 13.8261 3.93280   3
   9  -1  -1 14.0914 3.07331   5
  10  -1   1 25.7401 4.89608   3
  10  -1  -1 27.9928 4.50666   3
  11  -1   1 2.95487 3.39435   3
  11  -1  -1 1.45819 3.02214   3
   0   2   1 107.224 3.76365   6
   1  -2   1 9.64925 1.21164   7
  -1   2   1 8.92988 1.36451   6
   1   2  -1 4.99588 1.14778   6
   1   2  -1 7.86175 1.07159   7
  -1   2  -1 13.6436 1.39485   6
   1   2   1 7.50610 0.94061   6
   1   2   1 10.4724 1.18543   7
   1  -2  -1 10.2830 1.16809   7
   2  -2   1 2074.14 55.9117   2
   2   2  -1 2035.34 55.6068   2
   2  -2   1 2076.04 55.8268   7
   2  -2   1 2092.31 56.8154   4
  -2   2   1 2128.75 56.5516   6
   2   2  -1 2055.95 55.4866   7
   2   2  -1 2128.58 55.7158   6
   2  -2  -1 2056.11 56.8774   4
   2   2   1 2067.80 55.8485   7
   2  -2  -1 2112.35 55.6809   2
   2  -2  -1 2053.35 55.4487   7
   2   2   1 2076.14 56.0999   2
  -2   2  -1 2046.67 55.9997   6
   2  -2  -1 2103.52 55.4728   7
   3   2  -1 4.91959 1.30822   6
   3  -2   1 6.93571 0.99023   2
   3  -2   1 9.75890 2.03892   4
   3   2  -1 8.57762 1.02767   7
   3   2  -1 11.9829 1.03674   2
   3  -2   1 8.96605 1.15226   7
   3  -2   1 7.27595 1.69322   5
   3   2  -1 7.89763 1.03754   2
   3  -2  -1 8.92517 2.11418   3
   3  -2  -1 6.67048 0.95106   2
   3  -2  -1 11.9028 2.10533   4
   3   2   1 7.52400 1.08315   2
   3  -2  -1 10.5501 0.95170   2
   4   2  -1 48.2322 1.97573   7
   4  -2   1 48.6939 2.07594   7
   4  -2   1 44.9887 3.03887   5
  -4   2   1 47.8630 2.01936   1
   4  -2   1 47.1959 3.49821   3
  -4  -2  -1 44.8466 2.06269   1
  -4   2   1 48.1696 2.87961   6
   4   2   1 47.7719 1.96930   2
  -4   2  -1 45.8158 1.98453   1
   4  -2  -1 44.1614 2.83131   5
  -4   2  -1 45.3024 2.60178   6
   4  -2  -1 45.4954 1.84411   7
   4   2   1 46.5350 2.00522   7
  -4  -2   1 46.6067 2.02289   1
   4  -2  -1 39.3474 3.39031   3
   4  -2  -1 43.8955 3.39164   4
   4   2   1 46.9443 2.06245   2
  -5  -2  -1 10.7286 1.17195   1
  -5   2   1 10.2894 1.73572   6
  -5   2   1 8.56034 0.95976   1
   5  -2   1 5.08296 0.90915   7
   5   2  -1 8.04781 0.86032   7
   5  -2   1 5.89236 2.17093   3
   5  -2   1 5.60256 1.75286   5
  -5   2  -1 13.0033 1.67732   6
  -5  -2   1 9.88020 1.05393   1
   5   2   1 9.41083 0.88100   7
   5  -2  -1 5.76108 2.17380   3
  -5  -2   1 9.74989 1.31435   6
  -5   2  -1 6.94819 0.98272   1
   5  -2  -1 5.83518 1.73081   5
  -6   2   1 907.973 24.3742   1
  -6   2   1 914.668 25.9753   6
  -6  -2  -1 914.778 24.7435   1
   6  -2   1 886.358 27.7799   3
   6  -2   1 886.512 26.5573   5
  -6  -2   1 892.301 24.4037   1
   6  -2  -1 905.778 26.6310   5
   6  -2  -1 916.896 28.2637   3
  -6   2  -1 899.366 24.6859   1
  -6   2  -1 900.495 25.8530   6
   7  -2   1 10.8272 3.05651   3
   7  -2   1 9.19723 2.49936   5
   7  -2  -1 10.7761 2.95824   3
   7  -2  -1 10.0409 2.35412   5
   8  -2   1 14.4938 2.98015   5
   8  -2   1 9.04572 3.17887   3
   8  -2  -1 14.4331 2.84275   5
   8  -2  -1 6.53895 3.15828   3
   9  -2   1 5.68504 3.16700   3
   9  -2   1 5.34008 2.65044   5
   9  -2  -1 4.09336 2.33548   5
   9  -2  -1 5.75939 3.16771   3
  10  -2   1 344.639 14.5514   3
  10  -2   1 341.287 12.9775   5
  10  -2  -1 358.058 12.9683   5
  10  -2  -1 330.917 14.4882   3
  11  -2   1 2.44386 3.30780   3
  11  -2  -1 7.54163 3.68443   3
  12  -2   1 5.03787 3.58453   3
  12  -2  -1 3.67521 3.57461   3
   0  -3  -1 2271.91 61.2540   7
   0   3   1 2331.38 62.9647   6
   0  -3   1 2331.73 62.8347   7
   0   3  -1 2269.80 61.2219   7
   0  -3  -1 2289.88 61.2465   7
   0   3  -1 2282.36 61.4880   6
   0   3   1 2354.42 62.9096   7
   1   3  -1 3.19573 0.95541   7
   1   3  -1 1.75938 0.98383   6
  -1   3   1 2.50902 1.22182   6
   1  -3   1 1.61459 1.01753   7
  -1   3  -1 2.31181 1.16895   6
   1  -3  -1 2.12309 0.97610   7
   1   3   1 0.78800 0.82666   6
   1  -3  -1 3.49125 1.10301   7
   1   3   1 1.66952 1.01470   7
   2   3  -1 3106.19 83.6557   6
   2   3  -1 3111.72 83.8622   2
  -2   3   1 3260.77 87.9461   6
   2   3  -1 3092.29 83.5365   7
   2  -3   1 3257.70 87.2081   7
   2  -3   1 3264.77 88.2892   4
   2  -3   1 3161.98 87.4124   2
   2  -3  -1 3221.84 83.9017   2
  -2   3  -1 3137.65 84.1554   6
   2  -3  -1 3090.87 83.5272   7
   2   3   1 3251.85 87.6568   2
   2   3   1 3348.65 86.7538   6
   2   3   1 3307.44 87.2969   7
   3  -3   1 6.01960 1.16138   7
   3  -3   1 2.56537 1.59806   3
   3   3  -1 2.45409 1.04545   6
  -3   3   1 7.13031 1.11483   1
  -3   3   1 6.72469 1.75715   6
   3  -3   1 3.03739 1.11492   2
   3   3  -1 3.80677 1.05125   2
   3   3  -1 5.64653 1.11522   7
   3  -3   1 3.19765 1.64751   4
   3  -3   1 5.04061 1.22771   2
  -3  -3  -1 5.01039 1.15979   1
   3   3  -1 2.88756 1.05058   2
  -3   3  -1 8.48686 1.51198   6
   3   3   1 5.84637 1.08720   2
   3  -3  -1 3.61438 1.76555   4
   3  -3  -1 3.54467 1.19195   2
   3   3   1 2.60349 1.13844   2
   3  -3  -1 1.85393 1.51586   3
   3  -3  -1 7.92404 1.16622   7
   3  -3  -1 4.25850 1.04046   2
  -3   3  -1 7.52144 1.10803   1
   3   3   1 8.40633 1.19674   7
  -3  -3   1 5.54178 1.16038   1
   4  -3   1 1548.34 45.3903   3
  -4   3   1 1628.02 43.0727   1
   4  -3   1 1603.82 43.3418   2
  -4   3   1 1611.34 44.3232   6
   4   3  -1 1590.44 42.9474   2
   4  -3   1 1604.70 45.2652   4
  -4  -3  -1 1588.92 42.7935   1
   4   3  -1 1587.85 42.9661   2
   4  -3   1 1573.33 43.0436   7
   4   3  -1 1596.25 42.7436   7
   4  -3   1 1574.85 43.1809   2
   4   3  -1 1598.68 42.8167   6
   4  -3   1 1582.05 44.3634   5
   4  -3  -1 1557.98 45.1170   3
   4  -3  -1 1571.63 42.5987   7
   4   3   1 1621.61 43.1045   7
   4   3   1 1588.11 43.4924   2
  -4  -3   1 1593.70 43.0625   1
  -4   3  -1 1571.65 42.6643   1
   4  -3  -1 1574.59 42.7831   2
   4   3   1 1574.98 43.2705   2
  -4   3  -1 1561.57 43.6799   6
   4  -3  -1 1578.96 42.8806   2
   4  -3  -1 1563.98 45.1524   4
   5   3  -1 0.16077 0.84469   2
   5   3  -1 0.33584 0.80008   7
   5  -3   1 2.23433 1.85975   3
   5  -3   1 -0.1585 0.83448   2
   5  -3   1 0.75242 0.92582   2
  -5   3   1 0.49049 1.22870   6
  -5  -3  -1 -1.0400 0.84916   1
  -5   3   1 0.18355 0.74108   1
   5  -3   1 1.02309 0.89729   7
   5  -3   1 -1.0068 1.37439   5
   5   3  -1 -0.4422 0.81564   2
   5  -3  -1 0.01466 1.73335   4
   5   3   1 -0.7107 0.93346   2
   5  -3  -1 0.52192 0.83927   2
   5  -3  -1 0.36790 1.63380   3
   5   3   1 0.66812 0.84657   2
  -5   3  -1 1.01922 0.80065   1
   5  -3  -1 0.30233 0.90001   2
   5   3   1 0.96299 0.78721   7
  -5  -3   1 0.40586 0.88428   1
   5  -3  -1 0.01683 1.46100   5
  -5   3  -1 0.24264 1.23199   6
   5  -3  -1 1.30443 0.81658   7
   6   3  -1 1364.26 36.7261   2
  -6   3   1 1315.76 35.9995   1
   6  -3   1 1341.56 36.3016   2
   6  -3   1 1351.60 35.7683   7
   6  -3   1 1298.28 39.5081   3
   6   3  -1 1375.35 36.2379   7
  -6   3   1 1331.39 37.6255   6
   6  -3   1 1315.41 36.1636   2
   6   3  -1 1335.12 36.7303   2
   6  -3   1 1324.79 38.1270   5
  -6  -3  -1 1390.92 36.6374   1
  -6  -3   1 1324.51 36.0766   1
  -6   3  -1 1339.10 37.7886   6
   6   3   1 1329.07 36.3152   2
   6  -3  -1 1320.35 38.3320   5
   6   3   1 1357.90 36.5358   2
  -6   3  -1 1336.75 36.5103   1
   6  -3  -1 1294.25 39.8694   3
   6   3   1 1330.57 35.8355   7
   7  -3   1 6.66793 2.49374   5
   7  -3   1 8.90573 1.29934   2
   7   3  -1 3.55593 1.18071   2
   7  -3   1 3.70056 2.47956   3
   7   3  -1 6.71776 1.21392   2
   7   3   1 5.71736 1.27351   2
   7   3   1 5.40113 1.41982   2
   7  -3  -1 4.46644 2.13193   5
   7  -3  -1 7.34763 2.80699   3
   8  -3   1 678.348 21.9692   5
   8  -3   1 724.906 23.8301   3
   8   3  -1 696.216 19.5154   2
   8  -3  -1 676.253 23.4205   3
   8   3   1 696.595 19.9158   2
   8  -3  -1 697.500 21.6710   5
   8   3   1 694.133 19.7659   2
   9   3  -1 -0.9396 0.99769   2
   9  -3   1 1.04052 2.66804   3
   9  -3   1 0.44483 2.25433   5
   9  -3  -1 -1.1842 2.42963   3
   9   3   1 1.03682 1.14853   2
   9   3   1 1.32000 1.26853   2
   9  -3  -1 2.10065 2.17054   5
  10  -3   1 466.092 16.2458   5
  10  -3   1 454.463 17.9105   3
  10  -3  -1 460.223 17.9331   3
  10  -3  -1 457.829 16.0405   5
  11  -3   1 0.91058 3.08055   3
  11  -3   1 4.57349 3.07334   5
  11  -3  -1 4.70037 3.51890   3
  11  -3  -1 3.44476 2.84192   5
  12  -3   1 283.162 13.6404   3
  12  -3  -1 285.189 13.5817   3
  13  -3   1 -1.8170 3.20581   3
  13  -3  -1 2.95476 3.60245   3
   0   4  -1 8.19874 1.61919   6
   0  -4  -1 9.64939 1.49637   7
   0   4  -1 8.30713 1.44236   7
   0   4   1 10.2635 1.67887   7
   0  -4   1 12.0539 1.57124   7
   0  -4  -1 11.0854 1.52178   7
   0   4   1 9.45632 1.44559   6
   1  -4   1 0.90363 1.05925   7
   1   4  -1 1.52569 1.08679   6
  -1   4   1 -0.9621 1.06678   6
  -1  -4  -1 -1.6537 0.97934   7
  -1  -4  -1 -0.9615 0.97764   1
   1   4  -1 -0.6864 0.82901   7
  -1   4   1 0.12419 0.90363   7
  -1   4   1 0.38442 0.98789   1
  -1  -4  -1 -0.3634 1.04742   7
  -1   4  -1 0.46736 1.24111   6
  -1   4  -1 0.28842 0.95783   1
  -1  -4   1 -0.0935 1.03813   1
  -1   4  -1 -1.0362 0.84343   7
   1   4   1 0.31864 0.97213   7
   1  -4  -1 -0.0736 1.04331   7
  -1  -4   1 -0.3647 1.03481   7
   1   4   1 0.38025 0.93601   6
  -2   4   1 3424.39 88.7707   1
   2  -4   1 3117.72 91.2319   3
   2  -4   1 3272.80 89.1009   2
   2   4  -1 3307.52 86.9886   6
  -2   4   1 3337.47 89.4971   6
   2   4  -1 3222.00 87.2779   2
   2  -4   1 3198.88 88.7163   7
  -2  -4  -1 3122.31 86.7753   1
   2   4  -1 3159.96 86.8109   7
   2  -4   1 3275.46 89.9725   4
   2   4   1 3455.68 88.8678   7
   2  -4  -1 3303.13 88.8851   3
  -2  -4   1 3301.67 88.7088   1
  -2   4  -1 3241.78 86.7666   1
   2   4   1 3340.74 88.3431   6
  -2   4  -1 3247.37 87.4814   6
   2  -4  -1 3301.84 87.2798   2
   2   4   1 3370.87 89.3429   2
   2  -4  -1 3244.75 86.8384   7
  -3  -4  -1 1.22324 1.02769   1
   3  -4   1 0.57151 1.14661   2
  -3   4   1 -1.6528 1.03529   6
   3  -4   1 0.27972 1.44734   4
   3   4  -1 -0.0146 0.93017   2
   3   4  -1 -1.1813 0.85685   6
   3   4  -1 0.56383 0.88979   7
  -3   4   1 0.67710 0.92585   1
   3  -4   1 -0.7970 0.90097   2
   3   4  -1 -0.0932 0.93420   2
   3  -4   1 -0.7019 1.47484   3
   3  -4   1 0.08810 0.98769   7
   3  -4  -1 -0.1079 1.08129   2
   3  -4  -1 -0.1198 0.92415   2
   3  -4  -1 0.07755 0.95280   7
  -3   4  -1 0.27852 1.22255   6
   3  -4  -1 -2.0584 1.31686   4
  -3  -4   1 0.67070 1.02864   1
   3  -4  -1 -1.0932 0.98615   2
   3  -4  -1 0.19801 1.46904   3
   3   4   1 -0.6448 0.57573   6
   3   4   1 1.30758 1.11314   2
   3   4   1 0.81423 1.18675   2
   3   4   1 0.53526 0.93956   7
  -3   4  -1 -0.0701 0.88779   1
   4  -4   1 11.1304 2.65976   3
   4  -4   1 11.3787 1.57999   2
  -4  -4  -1 13.2976 1.50882   1
   4   4  -1 12.3008 1.55500   2
  -4   4   1 10.7351 1.37250   1
   4   4  -1 12.4788 1.54676   2
  -4   4   1 12.9950 2.35304   6
   4  -4   1 12.4656 2.72376   4
   4   4  -1 13.2920 1.54608   6
   4  -4   1 9.69726 1.43247   7
   4  -4   1 10.1487 1.51568   2
   4   4  -1 9.10706 1.30742   7
  -4  -4   1 11.0710 1.46783   1
   4  -4  -1 11.6561 1.43046   7
   4  -4  -1 14.5977 2.97134   4
   4  -4  -1 13.5452 2.80355   3
   4   4   1 11.7467 1.48071   2
  -4   4  -1 14.7460 1.99667   6
   4  -4  -1 9.41547 1.54575   2
   4  -4  -1 10.2433 1.42898   2
   4   4   1 10.5674 1.62293   2
   4   4   1 8.59355 1.29650   7
  -4   4  -1 10.7392 1.34769   1
   5  -4   1 0.48420 1.02383   7
  -5  -4  -1 1.71159 1.12175   1
   5  -4   1 0.71870 1.09273   2
   5  -4   1 1.02167 1.89936   4
   5  -4   1 0.54808 1.65449   5
  -5   4   1 2.26830 1.63744   6
   5  -4   1 1.62645 1.22897   2
   5   4  -1 -0.0771 0.88150   7
  -5   4   1 0.13949 0.90375   1
   5  -4   1 1.76626 2.01851   3
   5   4  -1 -0.5853 1.01973   2
   5   4  -1 0.66629 1.07729   2
  -5  -4   1 0.14570 0.95776   1
   5  -4  -1 0.29831 0.97097   2
   5   4   1 0.35987 0.94053   7
  -5   4  -1 0.67617 0.86432   1
  -5   4  -1 0.89403 1.37929   6
   5  -4  -1 0.89246 1.52148   5
   5   4   1 0.90275 1.02535   2
   5  -4  -1 0.76952 1.19155   2
   5  -4  -1 -2.0698 1.71654   4
   5   4   1 -0.0628 1.12477   2
   5  -4  -1 -2.6471 1.43370   3
   5  -4  -1 1.46059 0.98673   7
   6  -4   1 1607.90 43.7473   2
   6  -4   1 1583.08 45.2550   5
   6   4  -1 1605.00 43.8970   2
   6   4  -1 1614.88 43.3323   7
   6  -4   1 1563.94 43.5644   2
   6  -4   1 1601.08 46.8720   3
   6  -4   1 1651.60 43.1779   7
  -6   4   1 1577.96 43.1778   1
  -6   4   1 1571.33 44.7644   6
   6   4  -1 1625.05 43.9329   2
  -6  -4  -1 1634.97 43.5417   1
   6   4   1 1601.34 43.9221   2
  -6   4  -1 1639.88 44.8474   6
   6  -4  -1 1580.86 45.3010   5
  -6  -4   1 1531.93 43.1302   1
   6  -4  -1 1555.73 46.9908   3
   6  -4  -1 1590.86 43.1478   7
   6  -4  -1 1571.65 46.8240   4
   6  -4  -1 1595.64 43.7600   2
  -6   4  -1 1586.17 43.4386   1
   6  -4  -1 1565.83 43.6885   2
   6   4   1 1621.72 43.7500   2
   6   4   1 1586.83 43.1103   7
   7  -4   1 2.01452 2.09626   5
   7  -4   1 0.49070 1.29326   2
  -7   4   1 0.36264 1.60951   6
  -7  -4  -1 0.33658 1.14273   1
   7  -4   1 -0.0809 1.18670   2
   7   4  -1 1.06897 1.11872   2
   7  -4   1 2.51187 2.51792   3
   7   4  -1 2.19932 1.30592   2
  -7  -4   1 1.33766 1.18274   1
   7   4   1 1.29085 1.20332   2
   7  -4  -1 -0.4912 1.18665   2
   7   4   1 2.18387 1.40534   2
   7  -4  -1 -0.2973 1.77130   5
  -7   4  -1 -0.2005 0.99367   1
   7   4   1 0.37338 0.80521   7
   7  -4  -1 1.37616 1.11765   2
   7  -4  -1 3.34138 2.42421   3
   8   4  -1 2.10165 1.33223   2
   8  -4   1 1.62077 2.74221   3
   8  -4   1 5.41405 2.54482   5
   8  -4   1 4.05345 1.52682   2
   8  -4   1 0.89814 1.33377   2
   8   4  -1 1.67610 1.35442   2
   8  -4  -1 1.51859 1.24803   2
   8  -4  -1 2.48583 1.34132   2
   8  -4  -1 0.49927 2.49218   3
   8  -4  -1 3.18415 1.46978   2
   8   4   1 2.97292 1.50241   2
   8   4   1 1.41818 1.34045   2
   8  -4  -1 2.53787 2.25846   5
   9   4  -1 2.53102 1.35022   2
   9  -4   1 1.72874 1.41239   2
   9  -4   1 -2.1278 2.48534   3
   9  -4   1 0.97968 1.33025   2
   9   4  -1 1.03586 1.28397   2
   9  -4   1 0.62125 2.33283   5
   9  -4  -1 0.19956 1.22948   2
   9  -4  -1 0.95072 2.34009   5
   9   4   1 -0.2286 1.23893   2
   9   4   1 2.40939 1.44982   2
   9  -4  -1 3.14743 3.19040   3
   9  -4  -1 1.93997 1.33465   2
  10  -4   1 576.320 17.3123   2
  10  -4   1 590.262 21.8052   3
  10  -4   1 619.387 19.5330   2
  10   4  -1 590.501 17.2810   2
  10  -4   1 602.857 20.0567   5
  10  -4  -1 582.149 17.1382   2
  10   4   1 587.962 17.6088   2
  10  -4  -1 574.595 17.1107   2
  10  -4  -1 612.941 19.7541   5
  10  -4  -1 589.654 21.6603   3
  11  -4   1 1.32780 2.96480   5
  11   4  -1 1.60562 1.36959   2
  11  -4   1 -0.3701 1.30987   2
  11  -4   1 3.15462 3.55644   3
  11  -4  -1 0.80840 2.64208   5
  11   4   1 1.52699 1.41930   2
  11  -4  -1 1.58127 3.07700   3
  12  -4   1 -3.2932 2.87777   3
  12  -4  -1 -3.7027 3.00029   5
  12  -4  -1 3.54559 3.63099   3
  13  -4   1 -1.2562 4.44294   3
   0   5   1 904.671 26.1703   1
   0   5  -1 895.602 25.4321   7
   0   5  -1 875.967 25.3673   1
   0   5   1 917.210 26.2502   7
   0   5   1 930.652 26.4468   6
   0   5  -1 904.258 25.7898   6
   0  -5  -1 911.385 25.4467   1
   0  -5   1 942.583 26.2417   7
   0  -5   1 929.351 26.1834   1
   1   5  -1 6.49097 1.40407   7
  -1  -5  -1 4.79048 1.42844   1
  -1  -5  -1 11.6103 1.67375   7
  -1   5   1 3.99064 1.29188   7
   1  -5   1 5.67129 1.48738   7
  -1   5   1 6.92397 1.53609   1
  -1   5   1 4.74498 1.65809   6
   1   5  -1 5.57016 1.48927   6
  -1  -5   1 4.13162 1.48364   7
  -1   5  -1 4.33398 1.27470   7
   1   5   1 3.86264 1.33173   7
   1  -5  -1 2.10045 1.32850   7
   1   5   1 3.26994 1.46063   1
   1   5   1 5.33326 1.37562   6
  -1   5  -1 5.63272 1.41958   1
  -1  -5   1 8.53880 1.65507   1
  -1   5  -1 4.27460 1.51514   6
   2  -5   1 33.6414 2.65821   2
   2   5  -1 33.8012 2.34230   6
   2   5  -1 34.8677 2.68891   2
  -2   5   1 36.3509 2.37806   7
   2  -5   1 34.6522 2.43896   7
  -2   5   1 30.0544 2.63874   6
  -2  -5  -1 33.5416 2.37418   1
  -2   5   1 37.1209 2.36768   1
  -2  -5  -1 35.5714 2.49888   7
   2   5  -1 32.8194 2.30737   7
   2   5   1 39.2478 2.90605   2
   2  -5  -1 33.7979 2.39237   7
   2   5   1 34.5264 2.15453   6
  -2  -5   1 48.1395 2.71640   1
  -2   5  -1 32.4908 2.28304   1
  -2   5  -1 34.4726 2.70171   6
   2  -5  -1 44.3996 3.87870   3
  -2  -5   1 39.6753 2.54238   7
   2   5   1 40.0164 2.48250   7
  -2   5  -1 37.2087 2.34308   7
   2  -5  -1 32.1894 2.57692   2
   3   5  -1 5.40037 1.33136   6
  -3   5   1 6.43639 1.38255   1
   3   5  -1 4.26117 1.27010   7
  -3  -5  -1 4.59838 1.42013   1
   3  -5   1 5.39351 1.60613   2
   3  -5   1 2.57360 1.95355   3
  -3   5   1 3.62007 1.63839   6
   3  -5   1 4.50437 1.43479   7
   3  -5   1 4.92825 2.07277   4
   3   5  -1 5.32670 1.55598   2
   3   5   1 3.27204 1.42658   2
   3  -5  -1 6.13696 2.24560   3
   3  -5  -1 6.73486 1.47615   7
  -3   5  -1 5.36743 1.30058   1
  -3   5  -1 4.29561 1.55736   6
  -3  -5   1 4.94858 1.41940   1
   3   5   1 2.29682 0.91781   6
   3   5   1 4.79531 1.38863   7
   3  -5  -1 3.87195 1.54624   2
   3  -5  -1 1.04621 1.80043   4
   4  -5   1 602.496 17.8680   7
  -4   5   1 632.555 17.8909   1
   4   5  -1 631.929 17.9972   6
   4   5  -1 616.571 18.4613   2
   4  -5   1 621.891 18.4351   2
   4   5  -1 593.417 17.9197   7
   4   5  -1 626.661 18.5105   2
   4  -5   1 611.862 18.3743   2
   4  -5   1 628.224 19.9751   4
   4  -5   1 595.034 20.5318   3
  -4  -5  -1 649.155 18.0308   1
  -4   5   1 619.292 19.0276   6
   4  -5  -1 597.496 20.3265   3
  -4   5  -1 616.724 18.9047   6
   4   5   1 620.614 18.5955   2
   4  -5  -1 631.181 18.4194   2
   4  -5  -1 588.032 18.3370   2
   4   5   1 612.545 18.4176   2
   4  -5  -1 606.720 17.8646   7
   4  -5  -1 625.352 20.4431   4
   4   5   1 605.351 17.8784   7
  -4   5  -1 603.145 17.8583   1
  -4  -5   1 595.639 17.8365   1
   5  -5   1 3.67490 2.46721   4
   5  -5   1 4.65168 1.68363   2
  -5   5   1 5.52804 1.36123   1
   5  -5   1 3.71801 1.36979   7
   5  -5   1 4.48509 2.01985   5
  -5  -5  -1 4.70493 1.48966   1
   5  -5   1 3.87830 1.55015   2
   5   5  -1 2.57407 1.46873   2
  -5   5   1 4.14065 1.86477   6
   5   5  -1 4.07942 1.28129   7
   5  -5   1 0.26278 1.88529   3
   5   5  -1 2.49242 1.36482   2
   5   5   1 3.01962 1.19084   7
   5  -5  -1 3.36244 2.22024   4
   5   5   1 5.03879 1.53195   2
  -5   5  -1 5.45638 1.32213   1
   5   5   1 3.48635 1.59302   2
   5  -5  -1 4.74133 2.44755   3
  -5  -5   1 5.91635 1.49730   1
   5  -5  -1 3.60081 1.47585   2
   5  -5  -1 3.99083 1.47856   2
  -5   5  -1 6.93667 1.87581   6
   5  -5  -1 3.49038 1.27089   7
   6  -5   1 11.9646 1.99039   2
  -6   5   1 16.5035 2.86732   6
   6  -5   1 15.1964 3.06957   5
   6   5  -1 16.0893 1.96211   2
   6   5  -1 11.6835 1.54609   7
   6  -5   1 26.1472 4.45595   3
   6  -5   1 21.3678 3.96559   4
   6   5  -1 11.9230 1.87281   2
  -6   5   1 13.7490 1.62650   1
  -6  -5  -1 13.2048 1.72293   1
   6  -5   1 11.3836 1.80830   2
   6  -5   1 12.8866 1.69025   7
  -6   5  -1 16.1238 2.85320   6
   6  -5  -1 13.3270 3.45550   4
   6   5   1 13.0178 2.01547   2
  -6   5  -1 12.9359 1.58026   1
   6  -5  -1 13.8767 1.94549   2
   6   5   1 14.3224 1.59890   7
   6  -5  -1 17.9298 3.01371   5
   6  -5  -1 16.1186 3.51945   3
   6  -5  -1 13.6708 1.87023   2
   6  -5  -1 12.6441 1.55115   7
  -6  -5   1 16.4166 1.82795   1
   6   5   1 13.9085 1.85567   2
  -7   5   1 3.59883 1.21477   1
   7  -5   1 2.00823 1.43049   2
   7   5  -1 4.05728 1.23729   7
  -7   5   1 1.84204 1.82537   6
   7   5  -1 4.02239 1.61056   2
   7  -5   1 1.78495 2.68258   3
   7  -5   1 2.99866 1.61167   2
   7  -5   1 3.32195 2.43738   5
   7  -5   1 4.46752 1.35653   7
  -7  -5  -1 4.95893 1.50482   1
   7  -5  -1 2.01217 2.61017   3
   7   5   1 2.80383 1.12727   7
   7  -5  -1 2.96019 1.17043   7
  -7   5  -1 3.38143 1.87861   6
   7  -5  -1 3.07274 2.06349   5
   7  -5  -1 4.34950 1.67271   2
  -7  -5   1 4.99075 1.49142   1
   7  -5  -1 1.66692 1.38830   2
  -7   5  -1 3.24075 1.22757   1
   7   5   1 1.86485 1.50314   2
   8   5  -1 273.714 9.33331   2
   8  -5   1 292.876 12.8127   3
   8  -5   1 280.381 9.51204   2
   8  -5   1 286.202 11.3057   5
   8  -5  -1 275.266 12.3449   3
   8   5   1 287.148 9.76993   2
   8  -5  -1 277.182 9.27363   2
   8  -5  -1 274.446 10.8924   5
   9  -5   1 1.91485 1.62505   2
   9  -5   1 2.59217 2.60497   5
   9  -5   1 1.33615 3.03406   3
   9   5  -1 0.06019 1.41576   2
   9  -5  -1 3.37355 1.70943   2
   9  -5  -1 -0.5960 2.22004   5
   9  -5  -1 -0.0852 2.54474   3
   9   5   1 3.16080 1.58273   2
  10  -5   1 2.65473 1.73989   2
  10  -5   1 6.14625 2.92659   5
  10   5  -1 2.36323 1.66709   2
  10  -5   1 1.94937 3.21732   3
  10  -5  -1 7.32266 1.93134   2
  10  -5  -1 2.82047 2.82027   5
  10  -5  -1 0.24998 3.05563   3
  10   5   1 6.78242 1.95599   2
  11  -5   1 2.49536 3.04160   5
  11  -5   1 1.47406 1.75432   2
  11  -5   1 1.11843 3.27452   3
  11   5  -1 1.11062 1.48600   2
  11  -5  -1 1.89716 1.70953   2
  11   5   1 2.41115 1.64371   2
  11  -5  -1 0.70880 2.76603   5
  11  -5  -1 1.85122 3.06565   3
  12  -5   1 119.192 8.71459   3
  12  -5   1 117.987 7.42014   5
  12  -5  -1 113.188 8.42327   3
  12  -5  -1 109.458 7.28975   5
   0  -6  -1 75.7338 3.76891   1
   0  -6  -1 82.3012 3.92846   7
   0  -6   1 76.8548 3.83670   7
   0   6  -1 72.0713 3.68151   7
   0   6  -1 72.8759 3.97679   6
   0  -6   1 73.9421 3.78076   1
   0   6  -1 74.5410 3.73276   1
   0   6   1 71.7479 3.76231   7
   0   6   1 75.1679 3.95856   6
   0   6   1 78.1008 3.82362   1
   1   6  -1 23.2253 2.11960   7
  -1   6   1 21.4357 2.12554   7
   1   6  -1 21.1769 2.02112   1
   1  -6   1 23.2908 2.24421   7
  -1  -6  -1 19.3847 2.07057   1
  -1   6   1 15.9574 1.95640   1
  -1   6   1 18.5894 2.22406   6
  -1  -6  -1 22.7321 2.25037   7
   1  -6   1 24.3346 2.30065   1
   1   6  -1 20.1657 2.15803   6
   1  -6  -1 24.4632 2.26467   7
  -1  -6   1 25.7436 2.25330   1
  -1   6  -1 22.3037 2.07947   7
   1  -6  -1 19.0208 2.16302   1
   1   6   1 23.7167 2.16876   1
  -1   6  -1 22.2082 2.10226   1
  -1   6  -1 21.2880 2.31238   6
  -1  -6   1 21.9672 2.22202   7
   1   6   1 20.7268 2.04350   6
   1   6   1 19.9729 2.10067   7
  -2   6   1 258.235 8.77879   1
   2  -6   1 253.533 8.72953   1
   2   6  -1 234.972 8.59079   7
   2   6  -1 251.935 8.74284   6
   2   6  -1 267.983 8.69458   1
   2   6  -1 255.526 9.28297   2
  -2  -6  -1 255.035 8.72250   7
  -2  -6  -1 229.221 8.58359   1
   2  -6   1 255.158 9.34002   2
   2  -6   1 262.455 8.87070   7
  -2   6   1 245.838 8.72813   7
  -2   6   1 263.878 9.46365   6
  -2   6  -1 256.266 9.31931   6
   2   6   1 253.667 8.83161   7
  -2   6  -1 260.601 8.65183   1
  -2  -6   1 251.044 8.81615   7
   2  -6  -1 252.372 10.9923   3
   2  -6  -1 272.337 8.78752   1
   2   6   1 260.918 8.61167   6
  -2   6  -1 259.390 8.67232   7
   2   6   1 263.729 9.50317   2
   2  -6  -1 254.274 9.24231   2
   2   6   1 264.875 8.76515   1
   2  -6  -1 257.734 8.70368   7
  -2  -6   1 272.154 8.87360   1
   3  -6   1 15.6466 2.03089   7
   3  -6   1 8.36119 2.56678   4
   3  -6   1 10.5186 3.17891   3
  -3  -6  -1 20.7889 2.16470   1
  -3  -6  -1 19.5010 2.17440   7
   3   6  -1 11.1981 1.74374   6
   3   6  -1 17.9314 1.97755   7
   3   6  -1 15.4567 2.18496   2
   3  -6   1 15.0477 2.17347   2
  -3   6   1 16.9440 2.41285   6
  -3   6   1 17.4354 1.96024   1
   3   6   1 12.8176 2.07315   2
  -3  -6   1 18.9431 2.15686   7
  -3   6  -1 18.1363 2.34934   7
  -3   6  -1 19.3616 1.99472   1
  -3   6  -1 17.9688 2.31704   6
  -3  -6   1 16.3728 2.04285   1
   3  -6  -1 19.2525 2.07766   7
   3   6   1 14.3208 1.81504   7
   3  -6  -1 15.2085 2.21230   2
   3   6   1 15.0048 1.58391   6
   3  -6  -1 7.91486 2.61485   3
   4  -6   1 44.5794 3.18930   2
   4   6  -1 40.5806 3.09531   2
  -4   6   1 40.1981 2.68007   1
   4  -6   1 43.2052 2.80733   7
   4  -6   1 37.2520 4.26482   3
  -4  -6  -1 41.6968 2.82838   1
   4  -6   1 40.6142 3.84654   4
   4   6  -1 41.7360 2.78736   7
  -4   6   1 42.3017 3.38203   6
  -4  -6   1 41.7202 2.79975   1
   4  -6  -1 43.6012 3.13603   2
  -4   6  -1 41.3090 2.66977   1
   4   6   1 44.7232 3.28900   2
   4   6   1 46.9405 2.84535   7
   4  -6  -1 42.0983 4.17068   4
   4  -6  -1 45.7235 4.34414   3
  -4   6  -1 47.4486 3.45730   6
   4  -6  -1 45.2090 2.86343   7
   5  -6   1 16.1023 2.00591   7
  -5  -6  -1 17.7345 2.04017   1
  -5   6   1 17.2528 1.94621   1
   5  -6   1 9.76646 3.04687   3
   5   6  -1 17.2158 1.91024   7
   5   6  -1 18.7627 2.26711   2
  -5   6   1 16.6234 2.50954   6
   5  -6   1 19.6586 2.41784   2
   5  -6   1 12.8145 3.16155   4
   5  -6  -1 8.82909 2.72588   3
   5  -6  -1 15.6445 3.53382   4
  -5   6  -1 15.5857 1.84764   1
   5   6   1 14.8185 1.83977   7
  -5   6  -1 16.1398 2.40007   6
   5   6   1 13.5048 2.14872   2
   5  -6  -1 15.4442 2.25351   2
   5  -6  -1 17.4246 1.97664   7
  -5  -6   1 18.5379 2.06583   1
  -6  -6  -1 150.857 5.83816   1
   6  -6   1 155.521 6.44799   2
  -6   6   1 156.317 5.81370   1
   6  -6   1 151.980 5.79729   7
   6  -6   1 160.927 7.38358   5
   6   6  -1 159.127 5.80618   7
   6   6  -1 149.748 6.33829   2
   6  -6   1 145.134 8.46191   3
   6  -6   1 153.510 8.18655   4
  -6   6   1 147.607 6.97695   6
  -6  -6   1 165.594 6.00288   1
   6   6   1 156.059 5.85837   7
   6  -6  -1 145.652 8.24048   3
   6  -6  -1 148.987 5.62501   7
  -6   6  -1 154.415 5.74633   1
   6   6   1 155.678 6.55682   2
  -6   6  -1 149.246 6.77206   6
   6  -6  -1 156.761 8.35083   4
   6  -6  -1 150.352 6.27836   2
  -7   6   1 6.66763 1.53459   1
   7   6  -1 6.67432 1.48058   7
   7  -6   1 9.57911 1.83497   7
  -7  -6  -1 9.60848 1.88023   1
   7  -6   1 4.81613 3.01278   3
  -7   6   1 9.81471 2.43387   6
   7  -6   1 7.47850 2.05183   2
   7   6  -1 6.93537 2.00658   2
   7  -6   1 9.57834 2.82562   5
   7  -6  -1 6.49181 2.58412   5
  -7   6  -1 6.33511 2.22890   6
   7  -6  -1 6.49274 1.97104   2
  -7  -6   1 7.83978 1.75310   1
  -7   6  -1 10.9681 1.65042   1
   7  -6  -1 2.06021 2.60507   4
   7  -6  -1 7.81716 1.56774   7
   7   6   1 5.51170 1.45944   7
   7  -6  -1 3.65708 2.91092   3
   7   6   1 8.28175 2.10861   2
   8  -6   1 13.2293 4.06776   3
   8  -6   1 11.6973 2.39793   2
   8  -6   1 8.58136 3.09343   5
  -8  -6  -1 11.6215 2.58286   1
   8   6  -1 13.2012 2.55528   2
   8  -6  -1 13.0291 3.98538   3
   8   6   1 10.6294 2.46512   2
   8  -6  -1 9.42278 2.31103   2
   8  -6  -1 9.06120 2.94815   5
   9   6  -1 6.71808 1.95267   2
   9  -6   1 12.6997 3.52619   5
   9  -6   1 8.40858 2.15571   2
   9  -6   1 4.53384 3.21617   3
   9   6   1 6.01304 1.87062   2
   9  -6  -1 10.6120 3.10631   5
   9  -6  -1 7.14796 3.36938   3
   9  -6  -1 9.28343 2.17148   2
  10  -6   1 78.9278 4.25490   2
  10   6  -1 71.5371 4.10339   2
  10  -6   1 73.9172 6.85838   3
  10  -6   1 82.2850 6.00697   5
  10  -6  -1 77.8087 4.18279   2
  10   6   1 74.8885 4.27382   2
  10  -6  -1 71.8052 6.65829   3
  10  -6  -1 78.3708 5.75774   5
  11   6  -1 2.93743 1.75899   2
  11  -6   1 8.79265 3.38479   5
  11  -6   1 -3.6237 2.98445   3
  11  -6   1 1.63286 1.86518   2
  11  -6  -1 7.22213 3.75130   3
  11  -6  -1 5.19980 2.02711   2
  11  -6  -1 10.4503 3.28830   5
  11   6   1 3.86996 1.99059   2
  12  -6   1 2.25592 3.73743   3
  12  -6   1 6.41559 3.56796   5
  12  -6  -1 2.79033 3.38407   5
  12  -6  -1 0.37169 3.40617   3
   0  -7  -1 1008.94 29.2443   7
   0   7   1 1106.38 29.5483   7
   0   7   1 1030.11 29.3333   1
   0   7  -1 997.472 29.1909   7
   0  -7   1 897.932 29.0327   1
   0  -7  -1 981.755 29.1414   1
   0   7  -1 1025.06 29.6195   6
   0   7  -1 1082.73 29.3275   1
   0   7   1 1030.20 29.6703   6
   0  -7   1 1051.08 29.4273   7
   1   7  -1 25.0933 2.32759   1
   1   7  -1 25.7572 2.53666   6
  -1   7   1 25.7635 2.42870   1
  -1  -7  -1 30.4768 2.65467   7
  -1  -7  -1 25.6851 2.41033   1
   1   7  -1 28.9252 2.48727   7
  -1   7   1 26.8948 2.69984   6
   1  -7   1 33.0107 2.71823   7
  -1   7   1 24.9635 2.37488   7
  -1   7  -1 27.3638 2.44184   1
   1   7   1 27.0514 2.45747   1
  -1   7  -1 26.0451 2.66120   6
   1   7   1 24.3288 2.43102   7
   1  -7  -1 30.7877 2.64541   7
  -1  -7   1 29.4030 2.63218   7
  -1  -7   1 29.0488 2.55999   1
  -1   7  -1 27.8667 2.42050   7
   1  -7  -1 29.4701 2.60434   1
   1   7   1 25.6638 2.44909   6
  -2   7   1 2146.26 58.5732   7
  -2   7   1 2119.45 59.3703   6
   2  -7   1 2069.40 59.2311   2
   2  -7   1 2220.66 58.5918   1
   2   7  -1 2079.24 56.5607   1
   2   7  -1 2039.42 56.6197   7
  -2  -7  -1 2142.60 56.6395   1
   2  -7   1 2094.01 58.5768   7
  -2   7   1 2150.53 58.5461   1
  -2  -7  -1 2004.23 56.5640   7
   2   7  -1 2112.49 57.3750   2
   2   7  -1 2064.43 56.7025   6
   2   7   1 2126.76 58.6588   7
  -2   7  -1 1980.24 56.4405   1
   2   7   1 2123.69 58.4017   6
   2  -7  -1 2034.33 56.5541   7
  -2   7  -1 2104.51 57.4474   6
   2   7   1 2184.55 58.5096   1
   2   7   1 2066.59 59.4676   2
   2  -7  -1 2046.60 60.1487   3
  -2  -7   1 2149.77 58.5533   1
  -2  -7   1 2123.61 58.5919   7
   2  -7  -1 1920.12 56.3800   1
   2  -7  -1 2046.43 57.3627   2
  -2   7  -1 2157.07 56.6628   7
   3   7  -1 23.3571 2.29569   7
   3  -7   1 21.8781 4.83918   3
  -3   7   1 21.2888 2.17518   1
  -3   7   1 23.2737 2.75274   6
   3  -7   1 24.8067 2.53202   7
  -3  -7  -1 24.2582 2.32053   1
   3  -7   1 20.2585 3.30536   4
   3  -7   1 20.8474 2.61351   2
   3   7  -1 19.5640 2.16970   6
   3   7  -1 25.8059 2.76333   2
   3  -7  -1 22.9549 3.62621   3
   3   7   1 21.5633 2.29030   7
  -3   7  -1 20.5563 2.61246   6
  -3   7  -1 21.6603 2.16434   1
   3   7   1 19.2568 2.49037   2
   3  -7  -1 25.9252 2.47317   7
  -3  -7   1 22.8013 2.33201   1
   3  -7  -1 21.6320 2.63830   2
   3   7   1 17.6638 1.93113   6
  -4   7   1 743.751 22.6729   6
   4  -7   1 705.538 25.1404   3
  -4  -7  -1 698.193 21.3593   1
   4   7  -1 729.861 21.4374   7
   4  -7   1 753.438 22.1983   2
  -4   7   1 711.896 21.3506   1
   4   7  -1 759.579 22.3100   2
   4  -7   1 743.042 23.6500   4
   4  -7   1 733.056 21.4682   7
   4  -7  -1 700.239 24.3180   3
   4   7   1 704.044 21.4311   7
   4  -7  -1 712.133 24.3335   4
  -4  -7   1 714.044 21.4019   1
   4  -7  -1 728.520 21.3840   7
   4   7   1 732.090 22.3962   2
   4  -7  -1 744.347 22.1837   2
  -4   7  -1 722.815 22.4535   6
  -4   7  -1 729.890 21.3328   1
  -5   7   1 21.7156 2.24624   1
   5  -7   1 13.9551 3.68042   3
   5   7  -1 18.7228 2.47025   2
  -5   7   1 23.9694 3.02912   6
  -5  -7  -1 19.6251 2.28823   1
   5  -7   1 20.6026 2.72542   2
   5  -7   1 13.5214 3.36360   4
   5  -7   1 19.5976 2.30553   7
   5   7  -1 19.0771 2.16789   7
   5   7   1 15.6874 2.44571   2
   5  -7  -1 22.5552 2.69867   2
  -5   7  -1 20.8203 2.09863   1
   5   7   1 20.6058 2.19454   7
  -5   7  -1 17.3671 2.56288   6
   5  -7  -1 14.5009 3.50278   4
   5  -7  -1 20.9482 2.25441   7
   5  -7  -1 13.1084 3.47701   3
  -5  -7   1 20.1238 2.24256   1
   6   7  -1 1073.45 30.8732   2
  -6  -7  -1 1027.65 29.9646   1
   6  -7   1 1035.26 33.6728   3
   6  -7   1 1031.89 30.3592   2
   6   7  -1 1102.28 30.0306   7
  -6   7   1 1033.68 29.5467   1
   6  -7   1 1021.15 29.5147   7
   6  -7   1 1053.11 32.6965   4
   6  -7   1 1057.59 31.5224   5
  -6   7   1 1047.57 31.1620   6
   6  -7  -1 1038.40 33.6346   3
   6   7   1 1062.50 29.6736   7
  -6   7  -1 1075.02 29.9519   1
   6  -7  -1 1077.43 29.9066   7
  -6   7  -1 1027.54 31.2725   6
   6   7   1 1063.55 30.6804   2
  -6  -7   1 1018.74 29.6031   1
   6  -7  -1 1032.31 30.6694   2
   6  -7  -1 1028.49 33.4706   4
   7   7  -1 7.93851 2.16001   2
   7   7  -1 11.9350 1.83695   7
   7  -7   1 4.41889 3.21120   4
   7  -7   1 16.7890 2.56433   2
   7  -7   1 11.1202 3.86437   3
  -7   7   1 14.1343 3.02243   6
   7  -7   1 12.4662 3.24437   5
  -7   7   1 9.11966 1.85021   1
   7  -7   1 14.3282 2.05809   7
  -7  -7  -1 19.7961 2.37265   1
  -7   7  -1 15.3182 2.64690   6
   7  -7  -1 11.1444 3.63139   4
   7   7   1 15.9410 1.95075   7
   7  -7  -1 8.78869 2.74618   5
   7  -7  -1 14.8192 1.96646   7
   7  -7  -1 8.86075 3.66061   3
  -7   7  -1 9.35113 1.89033   1
   7   7   1 8.78887 2.38409   2
   7  -7  -1 10.9516 2.45491   2
  -7  -7   1 18.0613 2.30133   1
   8   7  -1 309.220 11.1455   2
   8  -7   1 322.944 12.6007   5
  -8   7   1 297.290 11.7003   6
   8   7  -1 331.961 10.2551   7
   8  -7   1 308.843 11.0928   2
  -8  -7  -1 331.166 10.4879   1
  -8   7   1 326.538 10.7973   1
   8  -7   1 328.087 14.5844   3
   8  -7  -1 308.860 11.0259   2
   8   7   1 311.867 11.3193   2
   8  -7  -1 303.944 14.0843   3
  -8  -7   1 336.603 10.5227   1
   8   7   1 317.127 10.0489   7
   8  -7  -1 320.088 12.5622   5
  -8   7  -1 314.895 10.3323   1
   9  -7   1 12.9842 2.44011   2
   9   7  -1 10.0085 2.32443   2
   9  -7   1 8.05963 3.70686   3
   9  -7   1 8.31489 3.11039   5
   9   7   1 8.87880 2.39889   2
   9  -7  -1 8.74451 2.44209   2
   9  -7  -1 9.72402 3.89383   3
   9  -7  -1 3.73737 2.87277   5
  10   7  -1 387.136 12.9122   2
  10  -7   1 366.153 16.6596   3
  10  -7   1 376.352 12.7898   2
  10  -7   1 377.984 14.7848   5
  10  -7  -1 379.707 12.8193   2
  10   7   1 405.562 13.1810   2
  10  -7  -1 379.225 16.6701   3
  10  -7  -1 397.502 14.9936   5
  11  -7   1 6.02042 2.37473   2
  11   7  -1 3.64690 1.99645   2
  11  -7   1 4.61279 4.05293   3
  11  -7   1 4.58331 3.46144   5
  11  -7  -1 8.32988 4.15956   3
  11  -7  -1 4.80700 3.44112   5
  11  -7  -1 3.34319 2.16041   2
  11   7   1 6.55151 2.24158   2
  12  -7   1 119.219 7.72353   5
  12  -7   1 107.994 8.90062   3
  12  -7  -1 105.072 7.44060   5
  12  -7  -1 100.686 8.40437   3
   0   8   1 292.200 10.2767   6
   0   8  -1 306.078 10.1621   1
   0   8  -1 294.979 10.5267   6
   0  -8   1 295.935 10.1510   7
   0   8  -1 279.559 10.0600   7
   0   8   1 300.096 10.1139   1
   0   8   1 288.545 10.0913   7
   0  -8   1 252.529 9.76437   1
   0  -8  -1 295.599 10.2201   7
   0  -8  -1 272.138 9.98861   1
   1   8  -1 35.1451 2.78921   1
  -1  -8  -1 38.6409 3.10622   7
   1   8  -1 31.4288 2.88022   6
  -1   8   1 35.4701 3.00521   7
  -1  -8  -1 32.1417 2.87071   1
   1   8  -1 30.7963 2.70307   7
   1  -8   1 37.1924 3.01261   1
  -1   8   1 28.6973 3.02781   6
   1  -8   1 39.9508 3.11590   7
  -1   8   1 31.6145 2.77256   1
   1   8   1 29.8712 2.70047   1
   1  -8  -1 28.3636 2.64963   1
  -1   8  -1 28.7785 2.90130   6
   1   8   1 32.9836 2.84977   7
  -1   8  -1 34.5945 2.78585   1
   1  -8  -1 34.7465 3.00350   7
  -1  -8   1 28.0339 2.82467   7
  -1   8  -1 31.8319 2.72494   7
  -1  -8   1 35.0276 2.91368   1
   1   8   1 31.2379 2.72759   6
   2   8  -1 152.298 6.42194   7
  -2   8   1 143.732 6.26841   7
  -2   8   1 152.603 6.93685   6
  -2  -8  -1 152.091 6.51484   7
   2  -8   1 153.637 6.33233   1
   2  -8   1 166.792 6.57479   7
   2   8  -1 148.602 6.31081   1
   2   8  -1 157.735 6.59372   6
  -2   8   1 151.814 6.33150   1
  -2  -8  -1 152.183 6.43391   1
  -2   8  -1 158.005 7.10872   6
   2   8   1 157.376 6.27047   6
  -2   8  -1 161.665 6.45055   1
  -2  -8   1 124.331 6.01156   1
  -2   8  -1 150.202 6.36223   7
  -2  -8   1 151.883 6.37524   7
   2   8   1 165.894 6.39602   1
   2   8   1 146.529 6.29789   7
   2  -8  -1 180.785 6.68764   1
   2  -8  -1 150.110 6.38080   7
   3   8  -1 25.5150 2.52810   6
   3  -8   1 28.6732 3.13254   2
   3   8  -1 26.2893 2.98006   2
  -3  -8  -1 27.1466 2.67813   1
  -3   8   1 26.1763 2.56080   1
   3   8  -1 26.2362 2.56774   7
  -3   8   1 25.3712 3.10555   6
   3  -8   1 29.6816 4.06781   4
   3  -8   1 32.8111 2.99284   7
   3  -8   1 18.2046 5.08235   3
   3  -8  -1 25.8160 3.09290   2
   3   8   1 16.2159 2.86270   2
  -3  -8   1 27.1801 2.73942   1
   3  -8  -1 24.1713 4.11042   3
   3   8   1 31.1219 2.66159   7
  -3   8  -1 27.8725 3.00415   6
   3   8   1 25.9789 2.37870   6
  -3   8  -1 27.1157 2.48163   1
   3  -8  -1 33.5068 2.90378   7
   4  -8   1 203.965 7.81169   7
   4  -8   1 208.447 9.59880   4
   4  -8   1 205.655 8.48341   2
  -4  -8  -1 220.528 7.96562   1
  -4   8   1 202.332 8.60637   6
   4   8  -1 210.561 8.61037   2
   4   8  -1 213.888 7.88648   7
  -4   8   1 207.393 7.73728   1
   4  -8   1 188.479 10.8342   3
   4  -8  -1 197.023 10.3613   3
  -4   8  -1 188.022 7.56886   1
  -4   8  -1 200.372 8.65707   6
   4  -8  -1 211.977 8.61057   2
  -4  -8   1 211.484 7.80980   1
   4  -8  -1 203.372 10.4264   4
   4   8   1 206.132 8.56963   2
   4   8   1 195.785 7.71562   7
   4  -8  -1 213.608 7.86935   7
   5  -8   1 20.8576 3.71602   4
  -5   8   1 25.9366 2.52968   1
   5   8  -1 21.7315 2.89986   2
   5  -8   1 20.6673 2.62884   7
   5  -8   1 24.4967 3.04624   2
   5  -8   1 18.3010 4.36226   3
  -5   8   1 21.0967 2.89044   6
  -5  -8  -1 25.4924 2.66656   1
   5   8  -1 25.0387 2.49070   7
   5  -8  -1 22.2246 3.87480   3
  -5   8  -1 21.4502 2.32312   1
  -5   8  -1 20.7491 2.98221   6
   5   8   1 26.0699 2.46547   7
  -5  -8   1 26.3057 2.68991   1
   5  -8  -1 23.8495 3.03428   2
   5  -8  -1 24.9429 2.64619   7
   5  -8  -1 22.3572 3.85847   4
   5   8   1 19.0380 2.77939   2
   6  -8   1 83.3942 6.25382   4
   6  -8   1 94.5354 4.52977   7
   6  -8   1 89.3881 5.10391   2
  -6  -8  -1 84.4625 4.47674   1
  -6   8   1 86.0265 5.29880   6
   6   8  -1 90.7997 4.41012   7
  -6   8   1 83.7582 4.24830   1
   6   8  -1 85.9974 5.11193   2
   6  -8   1 87.5182 7.18716   3
  -6  -8   1 88.0122 4.36798   1
   6  -8  -1 95.8880 4.53520   7
   6  -8  -1 79.7793 6.44807   4
  -6   8  -1 88.3759 4.38854   1
   6  -8  -1 91.4292 5.16024   2
   6   8   1 81.7342 5.04784   2
  -6   8  -1 88.9789 5.32737   6
   6   8   1 87.9063 4.40867   7
   6  -8  -1 79.6919 6.62773   3
  -7   8   1 17.4121 2.75820   6
   7   8  -1 15.7134 2.05415   7
   7  -8   1 14.1300 3.82411   4
   7  -8   1 15.6824 3.49654   5
   7   8  -1 16.5335 2.70452   2
  -7   8   1 17.9283 2.21292   1
   7  -8   1 18.3078 4.49973   3
   7  -8   1 17.9364 2.29794   7
  -7  -8  -1 15.5790 2.39347   1
   7  -8   1 16.7602 2.82745   2
   7  -8  -1 13.8155 3.42115   5
   7  -8  -1 14.1002 4.09394   4
  -7   8  -1 10.1962 2.65472   6
   7  -8  -1 19.9234 2.32511   7
   7   8   1 14.4112 2.66347   2
   7  -8  -1 11.9521 3.93040   3
   7  -8  -1 18.7126 2.84376   2
  -7  -8   1 17.1414 2.45816   1
  -7   8  -1 13.1300 2.13424   1
   7   8   1 19.0981 2.25128   7
   8   8  -1 78.4824 3.88605   7
   8  -8   1 78.0419 4.79107   2
   8  -8   1 78.8155 5.80460   5
  -8   8   1 86.4782 4.12386   1
   8  -8   1 79.7049 4.04750   7
  -8   8   1 76.4810 5.19871   6
  -8  -8  -1 80.9873 4.29512   1
   8  -8   1 84.8565 7.23825   3
   8   8  -1 82.1542 4.83807   2
   8   8   1 75.7584 3.84819   7
   8  -8  -1 71.0670 5.81333   5
   8  -8  -1 82.5145 4.03196   7
   8  -8  -1 85.8547 6.88693   4
  -8   8  -1 79.8456 4.10284   1
   8  -8  -1 74.8981 4.73911   2
   8   8   1 76.9517 4.80132   2
   8  -8  -1 65.8391 6.60151   3
  -8  -8   1 75.3988 4.17301   1
   9  -8   1 15.6202 3.91151   5
   9  -8   1 13.1219 2.81848   2
   9  -8   1 13.6814 4.54213   3
   9   8  -1 13.1693 2.46490   2
   9  -8  -1 7.20663 3.17028   5
   9   8   1 10.5536 2.52293   2
   9  -8  -1 10.8111 4.15835   3
   9  -8  -1 15.1308 2.79646   2
  10  -8   1 41.6132 3.64517   2
  10  -8   1 36.6175 5.70437   3
  10  -8   1 34.7461 4.76033   5
  10   8  -1 31.4391 3.16814   2
  10  -8  -1 35.9740 3.44354   2
  10   8   1 42.5049 3.63090   2
  10  -8  -1 34.3383 5.48983   3
  10  -8  -1 40.9744 5.06672   5
  11  -8   1 12.0610 3.82857   5
  11  -8   1 8.40466 4.29178   3
  11   8  -1 6.49434 3.65879   2
  11  -8  -1 6.05266 4.01419   3
  11  -8  -1 7.18180 3.62803   5
  11   8   1 3.73650 2.44134   2
  12  -8   1 38.1260 7.09429   5
  12  -8  -1 37.8615 5.83488   5
   0  -9   1 1065.17 31.2051   7
   0   9   1 1099.87 31.2778   7
   0   9  -1 1023.96 30.1393   6
   0   9   1 999.306 30.9907   1
   0   9  -1 1004.91 29.5343   1
   0  -9  -1 937.318 29.4235   1
   0  -9   1 1168.84 31.1848   1
   0   9   1 1037.35 31.4963   6
   0  -9  -1 1038.03 29.6972   7
   0   9  -1 1072.49 29.8285   7
   1   9  -1 23.5647 2.72583   6
   1  -9   1 24.6797 2.75131   1
   1   9  -1 21.8578 2.55792   7
   1  -9   1 27.0011 2.93036   7
  -1   9   1 24.1639 2.95265   6
  -1   9   1 32.0347 2.87390   7
  -1  -9  -1 28.0831 2.91895   7
  -1  -9  -1 19.9559 2.66480   1
  -1   9   1 25.5629 2.68854   1
   1   9  -1 22.4031 2.48853   1
  -1   9  -1 20.1809 2.44090   7
   1   9   1 23.1295 2.65366   6
  -1  -9   1 28.8373 2.95580   1
   1   9   1 26.2547 2.73330   7
   1  -9  -1 26.8795 2.87092   7
   1   9   1 25.5896 2.66229   1
  -1   9  -1 23.7352 2.88666   6
  -1   9  -1 23.6433 2.56990   1
   1  -9  -1 27.6818 3.04711   1
  -1  -9   1 28.9850 2.96467   7
  -2   9   1 101.747 5.22679   7
  -2  -9  -1 105.082 5.33298   7
   2   9  -1 111.148 5.27511   7
  -2   9   1 106.462 5.71880   6
   2  -9   1 112.360 5.52252   7
  -2  -9  -1 98.2684 5.14050   1
  -2   9   1 112.617 5.26384   1
   2  -9   1 98.1611 5.17668   1
   2   9  -1 105.139 5.30420   6
   2   9  -1 106.673 5.09988   1
   2  -9  -1 106.585 5.18824   1
  -2  -9   1 108.060 5.35168   7
   2   9   1 109.800 5.14351   6
  -2   9  -1 106.606 5.16876   7
  -2  -9   1 92.2056 5.08518   1
   2   9   1 110.950 5.25058   1
  -2   9  -1 101.425 5.04303   1
   2   9   1 103.915 5.27564   7
  -2   9  -1 94.1131 5.47575   6
   2  -9  -1 103.552 5.22981   7
  -3   9   1 23.0273 2.52864   1
   3   9  -1 27.3612 2.79357   7
   3  -9   1 16.5248 5.24272   3
  -3   9   1 23.7434 3.01683   6
   3  -9   1 24.8632 2.79548   7
   3   9  -1 25.0734 2.65410   6
  -3  -9  -1 26.3546 2.81475   1
   3  -9  -1 28.7639 2.85316   7
  -3   9  -1 27.8772 3.27585   6
   3   9   1 24.3716 2.68226   7
  -3   9  -1 25.9626 2.72713   1
   3  -9  -1 21.5838 4.76340   3
  -3  -9   1 27.4721 2.96667   1
   4  -9   1 743.480 28.0568   3
   4   9  -1 760.116 22.6509   7
   4  -9   1 782.300 25.1504   4
  -4  -9  -1 726.063 22.5502   1
   4  -9   1 748.717 22.6360   7
  -4   9   1 770.527 23.8098   6
  -4   9   1 778.810 22.5720   1
   4   9   1 709.681 22.5148   7
  -4   9  -1 774.227 23.8031   6
  -4  -9   1 732.723 22.4832   1
  -4   9  -1 770.607 22.5088   1
   4  -9  -1 744.721 22.5595   7
   4  -9  -1 748.607 26.3480   4
   4  -9  -1 735.875 26.1971   3
  -5  -9  -1 13.4492 2.65114   1
   5  -9   1 13.8755 2.68184   7
   5  -9   1 10.5387 2.81911   2
   5   9  -1 14.9496 2.31859   7
   5  -9   1 8.53070 3.95668   3
  -5   9   1 17.0321 2.97238   6
  -5   9   1 14.3266 2.24409   1
   5  -9   1 10.9597 3.37077   4
   5  -9  -1 11.8776 2.38543   7
  -5   9  -1 8.37681 2.08108   1
  -5  -9   1 17.8421 2.63504   1
   5  -9  -1 16.3576 2.91189   2
  -5   9  -1 10.8229 2.83796   6
   5   9   1 9.44339 2.17640   7
   5  -9  -1 7.09238 3.25250   3
   5  -9  -1 11.5175 3.81298   4
  -6   9   1 76.0479 5.03224   6
   6  -9   1 69.5107 4.15226   7
  -6  -9  -1 71.2894 4.17181   1
   6  -9   1 70.1196 5.76957   4
   6  -9   1 69.8143 6.91377   3
   6   9  -1 72.1113 4.79505   2
   6  -9   1 78.7508 4.93805   2
   6   9  -1 59.6421 3.82497   7
  -6   9   1 73.0847 4.11272   1
   6   9   1 67.3644 4.79478   2
  -6   9  -1 70.6947 4.04176   1
  -6   9  -1 75.5008 4.98247   6
   6  -9  -1 60.1595 6.03867   3
   6  -9  -1 70.3577 6.38209   4
   6   9   1 68.5742 4.01829   7
  -6  -9   1 60.8846 3.91182   1
   6  -9  -1 67.4649 4.05381   7
   6  -9  -1 75.8454 4.86083   2
   7  -9   1 12.3312 2.47418   7
   7   9  -1 18.2587 2.89795   2
   7  -9   1 14.3370 4.52978   3
   7  -9   1 22.3125 3.18943   2
   7  -9   1 19.5304 4.28716   4
  -7   9   1 19.6100 3.13424   6
   7   9  -1 17.5535 2.27391   7
  -7   9   1 17.3658 2.33344   1
  -7  -9  -1 25.3588 2.88192   1
   7  -9   1 12.1203 3.39109   5
   7  -9  -1 19.6378 2.60240   7
   7   9   1 18.3141 2.96633   2
  -7   9  -1 17.5801 2.42852   1
  -7   9  -1 21.8797 3.10596   6
   7  -9  -1 16.2548 3.02308   2
   7  -9  -1 10.3106 3.92492   4
   7  -9  -1 18.6537 4.70518   3
   7   9   1 17.4613 2.29092   7
  -7  -9   1 22.7904 2.73872   1
   8   9  -1 360.135 11.8840   7
  -8   9   1 376.146 13.9367   6
  -8  -9  -1 372.675 12.2338   1
   8  -9   1 370.215 13.2917   2
   8  -9   1 376.584 12.2713   7
   8   9  -1 373.780 13.1542   2
  -8   9   1 372.546 12.3202   1
   8  -9   1 386.361 14.7924   5
   8  -9   1 371.168 16.9656   3
   8  -9  -1 362.347 14.5082   5
   8  -9  -1 351.541 16.0126   3
  -8   9  -1 356.127 13.4481   6
   8  -9  -1 377.608 13.1343   2
   8   9   1 372.242 12.1728   7
  -8   9  -1 388.882 12.2423   1
  -8  -9   1 409.604 12.6454   1
   8  -9  -1 354.308 11.7650   7
   8  -9  -1 378.885 16.0196   4
   8   9   1 376.250 13.4927   2
   9   9  -1 2.04162 1.97648   2
   9  -9   1 4.83787 3.10402   5
   9  -9   1 3.74350 2.33593   2
   9  -9   1 3.53367 4.03139   3
   9  -9  -1 6.43109 3.43766   5
   9  -9  -1 5.65618 2.54560   2
   9  -9  -1 2.20502 3.48703   3
   9   9   1 4.71673 2.34438   2
  10  -9   1 29.1949 3.51836   2
  10  -9   1 38.8820 6.07718   3
  10   9  -1 29.5019 3.23516   2
  10  -9   1 32.0448 5.29611   5
  10   9   1 36.9114 3.59315   2
  10  -9  -1 35.6920 5.43876   3
  10  -9  -1 32.5158 4.90316   5
  10  -9  -1 29.2000 3.51618   2
  11  -9   1 2.27330 4.03405   3
  11  -9   1 12.0429 3.97551   5
  11  -9  -1 4.54868 3.54500   5
  11  -9  -1 8.28781 4.30233   3
   0 -10  -1 55.4582 3.96818   7
   0  10  -1 46.7687 3.58457   1
   0 -10  -1 50.6546 3.85233   1
   0  10   1 54.0517 3.87023   7
   0  10   1 48.1054 3.85531   6
   0 -10   1 53.9892 3.94956   7
   0 -10   1 40.9238 3.48299   1
   0  10  -1 50.2103 3.95671   6
   0  10  -1 51.1184 3.67660   7
   0  10   1 44.0106 3.50114   1
  -1  10   1 6.17695 2.10501   1
   1  10  -1 6.17060 2.07639   7
  -1 -10  -1 6.38425 2.24076   1
   1 -10   1 9.91035 2.62922   7
   1  10  -1 10.2928 2.51884   6
  -1  10   1 8.32327 2.21949   7
   1 -10   1 6.18341 2.33143   1
  -1  10   1 3.87126 2.19238   6
   1  10  -1 9.71237 2.26870   1
  -1 -10  -1 9.79472 2.65226   7
  -1 -10   1 7.90733 2.40695   1
   1  10   1 5.43502 2.08983   6
  -1 -10   1 4.47598 2.27565   7
  -1  10  -1 5.69197 2.04795   1
   1 -10  -1 9.03241 2.44826   7
  -1  10  -1 7.31632 2.38018   6
   1  10   1 7.76873 2.27071   1
   1  10   1 6.79050 2.13517   7
  -1  10  -1 9.73877 2.24225   7
   1 -10  -1 9.06573 2.45836   1
  -2  10   1 300.410 11.6300   6
  -2 -10  -1 291.649 10.6951   1
   2 -10   1 309.504 11.2664   1
   2  10  -1 286.267 10.5786   7
   2  10  -1 296.045 10.5178   1
   2  10  -1 292.885 10.7389   6
   2 -10   1 315.348 11.1634   7
  -2  10   1 292.978 10.7785   1
  -2  10  -1 286.796 10.4345   1
   2 -10  -1 284.012 12.1315   1
   2  10   1 310.812 11.1166   7
   2 -10  -1 295.039 10.6364   7
   2  10   1 294.042 10.8005   6
  -2 -10   1 314.028 11.0497   1
   2  10   1 303.562 10.8570   1
  -2  10  -1 297.117 11.2638   6
  -3  10   1 6.96823 2.51625   6
   3 -10   1 14.5711 2.75512   7
   3 -10   1 4.41240 5.10489   3
  -3 -10  -1 12.8067 2.76881   1
   3  10  -1 7.03204 2.13757   7
  -3  10   1 9.38690 2.17494   1
  -3  10  -1 9.81725 2.24769   1
  -3  10  -1 8.78518 2.66636   6
   3 -10  -1 13.2782 4.32877   3
   3 -10  -1 10.5931 2.43832   7
   3  10   1 11.7557 2.40435   7
  -3 -10   1 10.1573 2.64936   1
  -4 -10  -1 33.0786 3.29596   1
  -4  10   1 32.6327 3.63507   6
  -4  10   1 35.7844 3.19507   1
   4 -10   1 44.3975 8.09814   3
   4 -10   1 50.3853 3.70819   7
   4  10  -1 26.3387 2.91850   7
   4 -10   1 40.7297 4.61947   4
  -4  10  -1 36.9070 3.75516   6
  -4 -10   1 35.5209 3.30803   1
   4 -10  -1 33.5422 5.33677   4
   4 -10  -1 43.6997 5.48888   3
  -4  10  -1 33.7134 3.04767   1
   4  10   1 31.7867 3.05690   7
   4 -10  -1 31.0346 3.15958   7
  -5 -10  -1 2.19100 1.95806   1
   5 -10   1 6.19582 2.47916   7
   5 -10   1 0.31119 2.66718   4
   5 -10   1 -1.7789 3.23309   3
  -5  10   1 0.82509 2.12411   6
  -5  10   1 0.98236 1.79571   1
   5  10  -1 3.33328 1.86919   7
   5 -10  -1 4.15398 2.17923   7
  -5 -10   1 2.58636 1.88962   1
   5 -10  -1 1.62409 3.16757   4
   5 -10  -1 3.44154 3.28512   3
  -5  10  -1 2.67284 1.72639   1
   5  10   1 1.41229 1.69172   7
  -5  10  -1 3.38757 2.23643   6
   6 -10   1 189.056 9.93762   4
   6  10  -1 191.694 7.66283   7
  -6  10   1 184.583 8.75039   6
  -6  10   1 195.141 7.69358   1
   6 -10   1 182.178 11.5894   3
   6 -10   1 197.730 7.81542   7
  -6 -10  -1 195.754 7.90024   1
   6 -10  -1 186.389 10.6323   4
   6 -10  -1 188.950 10.8262   3
   6  10   1 185.858 7.63980   7
  -6  10  -1 193.269 8.74969   6
  -6  10  -1 200.955 7.71793   1
   6 -10  -1 186.177 7.67030   7
  -6 -10   1 195.701 7.69872   1
   7 -10   1 11.8551 3.96137   4
  -7  10   1 8.49134 2.81751   6
   7 -10   1 6.45765 2.18985   7
   7  10  -1 9.90477 2.22313   7
  -7  10   1 4.51991 1.84339   1
  -7 -10  -1 7.03549 2.38762   1
   7 -10   1 7.02416 3.28193   5
   7 -10   1 5.49063 4.03283   3
   7 -10  -1 7.14512 3.94181   3
  -7 -10   1 12.7362 2.58066   1
   7  10   1 6.88897 2.00442   7
   7 -10  -1 6.34499 3.80075   4
  -7  10  -1 6.81650 2.59874   6
  -7  10  -1 9.47598 2.31201   1
   7 -10  -1 6.10979 2.24968   7
   8 -10   1 20.2107 3.31809   2
  -8  10   1 16.5759 3.75714   6
  -8 -10  -1 21.2700 3.15320   1
  -8  10   1 14.8550 2.29319   1
   8 -10   1 9.96603 3.78271   5
   8 -10   1 16.0084 5.48428   3
   8 -10   1 21.3796 4.96788   4
   8 -10   1 16.7246 2.58438   7
   8  10  -1 15.5769 2.30100   7
   8 -10  -1 19.2305 4.43224   5
   8 -10  -1 13.8951 3.41921   2
  -8 -10   1 18.2463 3.08193   1
   8 -10  -1 21.2894 5.03336   4
   8  10   1 15.6351 2.30745   7
   8 -10  -1 16.9531 2.58107   7
  -8  10  -1 14.9237 2.37325   1
  -8  10  -1 15.9155 3.41857   6
   8 -10  -1 16.4123 4.90221   3
   9 -10   1 3.38644 3.18216   5
   9 -10   1 -0.5729 3.84954   3
  -9 -10  -1 -0.0594 1.97212   1
   9 -10   1 2.26089 2.39580   2
   9 -10  -1 -1.6760 3.06276   3
   9 -10  -1 2.71523 3.47061   5
   9 -10  -1 -0.5272 2.12034   2
  -9 -10   1 2.12718 2.00349   1
  10 -10   1 107.425 7.45405   5
  10 -10   1 103.661 9.38360   3
  10  10  -1 106.675 6.02853   2
  10 -10   1 110.374 6.10288   2
  10 -10  -1 111.698 6.04405   2
  10 -10  -1 106.962 7.78793   5
  10 -10  -1 90.2431 8.15050   3
  11 -10   1 7.46059 3.99906   5
  11 -10   1 4.39120 4.71907   3
  11 -10  -1 8.91300 4.28276   5
  11 -10  -1 -1.0284 3.59231   3
   0  11  -1 633.689 19.7981   1
   0 -11  -1 589.446 19.6539   1
   0  11   1 681.692 21.4498   1
   0 -11   1 774.960 21.7204   1
   0  11   1 677.797 21.5585   7
   0 -11  -1 644.123 20.0194   7
   0  11  -1 644.575 20.4525   6
   0  11   1 655.385 21.7734   6
   0 -11   1 663.328 21.4824   7
   0  11  -1 635.693 19.9543   7
   1  11  -1 1.21639 1.94229   6
   1  11  -1 1.19446 1.79658   1
  -1  11   1 0.20509 1.66383   1
   1  11  -1 0.53251 1.71407   7
  -1  11   1 3.94101 2.04167   7
  -1 -11  -1 -0.8173 2.13301   1
  -1 -11  -1 2.94959 2.34572   7
  -1  11   1 1.15180 1.99204   6
   1 -11   1 3.13737 2.27256   7
   1 -11   1 2.96527 2.23437   1
  -1 -11   1 0.21259 2.23363   7
   1  11   1 4.18177 2.07099   7
  -1  11  -1 0.66587 1.73423   7
   1  11   1 3.04965 2.10681   6
  -1 -11   1 3.68314 2.33039   1
   1 -11  -1 2.21066 2.01884   1
  -1  11  -1 2.87856 2.11441   6
   1 -11  -1 4.10548 2.21676   7
  -1  11  -1 3.62164 1.89875   1
   1  11   1 0.06163 1.80257   1
  -2  11   1 305.629 11.4301   1
  -2 -11  -1 308.470 11.2992   1
  -2  11   1 309.355 12.1548   6
   2  11  -1 306.956 11.3929   6
   2  11  -1 306.108 11.2210   7
   2 -11   1 303.881 11.5748   7
   2 -11  -1 301.010 11.2167   7
   2  11   1 328.130 11.7394   7
  -2  11  -1 315.586 11.1716   1
   2  11   1 311.368 11.5796   6
  -2 -11   1 376.253 11.8067   1
  -2  11  -1 306.799 11.8281   6
  -3 -11  -1 1.34801 2.34950   1
  -3  11   1 4.89265 2.07696   1
   3  11  -1 -1.4873 1.43969   7
   3 -11   1 -4.7178 4.24585   3
   3 -11   1 6.19117 2.51090   7
  -3  11   1 1.00085 2.21742   6
   3  11   1 6.85728 2.20085   7
   3 -11  -1 3.45265 2.30070   7
  -3 -11   1 0.65653 2.11121   1
  -3  11  -1 0.99971 1.77362   1
  -3  11  -1 2.10213 2.08393   6
   3 -11  -1 4.46027 4.32017   3
   4  11  -1 486.941 16.2736   7
  -4  11   1 493.375 16.5891   1
   4 -11   1 542.933 24.1980   3
   4 -11   1 517.756 19.3063   4
  -4 -11  -1 469.460 16.2425   1
   4 -11   1 525.963 16.8098   7
  -4  11   1 508.600 17.7688   6
  -4  11  -1 498.411 17.2465   6
  -4  11  -1 522.662 16.2679   1
   4 -11  -1 498.257 20.3984   3
   4 -11  -1 476.270 16.1789   7
   4  11   1 502.430 16.6878   7
   4 -11  -1 565.264 21.6364   4
  -4 -11   1 531.127 16.6413   1
   5  11  -1 0.94369 1.82653   7
   5 -11   1 4.20400 3.30250   4
  -5  11   1 2.39975 1.82090   1
   5 -11   1 2.31263 2.29878   7
  -5  11   1 1.35166 2.23515   6
   5 -11   1 -1.7890 3.51478   3
  -5 -11  -1 -1.7189 2.10795   1
  -5 -11   1 3.53320 2.17651   1
   5 -11  -1 -0.3532 3.23487   4
  -5  11  -1 -1.0615 1.65056   1
   5  11   1 -2.4422 1.60256   7
   5 -11  -1 0.37874 2.14104   7
   5 -11  -1 0.69043 3.43382   3
  -5  11  -1 -0.0311 2.13082   6
   6 -11   1 175.623 9.60016   4
   6 -11   1 167.092 11.7032   3
   6  11  -1 178.472 7.41765   7
  -6  11   1 178.573 8.52326   6
  -6 -11  -1 190.525 7.74217   1
   6 -11   1 185.434 7.64531   7
  -6  11   1 175.228 7.39134   1
   6  11   1 175.567 7.40059   7
  -6  11  -1 173.352 7.30900   1
   6 -11  -1 176.844 7.39335   7
  -6  11  -1 169.347 8.26588   6
  -6 -11   1 170.801 7.44940   1
   6 -11  -1 161.223 10.4254   3
   6 -11  -1 176.746 10.5855   4
   7 -11   1 4.36527 2.99783   5
  -7  11   1 2.79241 2.40828   6
  -7 -11  -1 1.50262 2.11486   1
  -7  11   1 0.90710 1.77879   1
   7 -11   1 2.97543 2.19771   7
   7 -11   1 2.92743 3.26483   4
   7  11  -1 2.70072 1.75790   7
   7 -11   1 -3.1750 3.25764   3
  -7  11  -1 2.18509 1.85241   1
   7 -11  -1 3.42607 3.76662   4
  -7  11  -1 0.57722 2.17979   6
   7  11   1 1.51328 1.74609   7
  -7 -11   1 -1.3778 1.91979   1
   7 -11  -1 -0.6815 1.92067   7
   7 -11  -1 3.01814 3.52479   3
  -8  11   1 280.897 13.7756   6
   8 -11   1 273.191 9.83457   7
   8 -11   1 290.310 13.0514   4
   8  11  -1 278.502 9.85598   7
  -8  11   1 263.926 9.79016   1
  -8 -11  -1 269.193 10.0248   1
   8 -11   1 263.857 14.9780   3
   8 -11   1 265.035 11.9285   5
  -8 -11   1 273.002 9.91140   1
   8 -11  -1 279.632 14.2476   3
   8 -11  -1 268.856 13.5240   4
  -8  11  -1 264.634 9.90040   1
   8  11   1 262.952 9.68407   7
   8 -11  -1 277.561 9.91461   7
  -8  11  -1 283.003 11.4385   6
   8 -11  -1 271.333 12.4432   5
  -9  11   1 -0.5706 1.68358   1
   9 -11   1 1.04232 3.89024   3
   9 -11   1 -0.7278 3.16896   5
  -9 -11  -1 -1.5854 1.95614   1
  -9  11  -1 1.20748 1.80794   1
  -9 -11   1 -1.2818 1.90092   1
   9 -11  -1 6.32623 3.96041   5
   9 -11  -1 -2.8315 3.35421   3
  10 -11   1 65.9861 8.39096   3
  10 -11   1 64.9121 6.30987   5
  10 -11  -1 73.5267 7.70439   3
  10 -11  -1 76.5069 6.98008   5
   0  12   1 449.587 14.8140   1
   0  12   1 384.983 14.5505   7
   0  12   1 425.693 15.0823   6
   0  12  -1 422.738 14.4005   7
   0 -12  -1 413.509 14.4121   7
   0 -12  -1 400.390 14.2275   1
   0 -12   1 461.925 14.9310   1
   0  12  -1 425.467 14.3313   1
   0  12  -1 417.459 14.7985   6
   0 -12   1 434.996 14.9180   7
   1  12  -1 0.04122 1.90929   6
  -1 -12  -1 -2.5888 2.06930   7
  -1  12   1 -0.7862 1.80532   1
  -1 -12  -1 2.15740 2.35020   1
   1  12  -1 -0.4700 1.69315   1
  -1  12   1 0.04708 1.77578   7
   1 -12   1 0.31708 2.03874   1
  -1  12   1 -0.8098 2.09722   6
   1  12  -1 -1.8237 1.60886   7
   1 -12   1 -0.6100 2.24646   7
   1  12   1 0.65066 1.93845   6
  -1  12  -1 -0.1440 1.94862   6
  -1 -12   1 -3.1715 2.11511   7
   1 -12  -1 -1.4009 2.05197   1
  -1 -12   1 0.57714 2.18491   1
   1  12   1 0.01684 1.84122   1
   1 -12  -1 2.14817 2.34115   7
  -1  12  -1 -1.3921 1.59614   1
  -1  12  -1 0.38766 1.92440   7
   1  12   1 1.11699 1.88858   7
  -2  12   1 731.722 23.1824   6
  -2 -12  -1 685.006 21.8023   1
   2 -12   1 671.707 22.1800   7
   2  12  -1 706.762 22.1298   6
   2  12  -1 700.723 21.8767   7
  -2  12   1 712.000 22.2629   1
   2 -12  -1 714.798 25.8208   3
  -2  12  -1 715.250 22.7608   6
  -2 -12   1 737.419 22.2587   1
  -2  12  -1 677.784 21.6493   1
   2 -12  -1 680.135 21.8055   7
   2  12   1 712.062 22.2928   7
   3  12  -1 0.30862 1.78661   7
  -3  12   1 -2.0157 2.06030   6
   3 -12   1 1.60982 4.23075   3
   3 -12   1 1.65564 2.30464   7
  -3 -12  -1 -1.0361 2.16434   1
  -3  12   1 0.57877 1.89360   1
   3 -12  -1 1.56624 3.35619   3
  -3  12  -1 3.36744 2.41106   6
   3 -12  -1 0.75573 2.19858   7
  -3  12  -1 -0.5434 1.71786   1
  -3 -12   1 0.45119 2.32015   1
   3  12   1 1.95975 1.93000   7
  -4  12   1 319.749 11.8479   1
   4  12  -1 328.858 11.8917   7
   4 -12   1 374.256 19.8715   3
   4 -12   1 326.146 11.9586   7
  -4  12   1 332.406 13.0367   6
  -4 -12  -1 277.925 11.5551   1
   4 -12   1 356.415 14.8472   4
  -4  12  -1 316.358 11.5893   1
   4 -12  -1 366.456 16.5248   4
   4 -12  -1 354.026 16.3504   3
   4  12   1 328.639 12.0291   7
   4 -12  -1 324.393 11.7680   7
  -4 -12   1 324.727 11.9032   1
  -4  12  -1 334.170 12.7908   6
  -5  12   1 0.57058 1.76897   1
   5  12  -1 1.65583 2.00458   7
   5 -12   1 -1.3161 2.70925   4
  -5  12   1 -0.5180 2.19200   6
   5 -12   1 0.12230 2.19047   7
  -5 -12  -1 -1.4588 2.17462   1
   5 -12   1 -5.3589 4.09699   3
   5  12   1 0.14980 1.83188   7
   5 -12  -1 -0.5312 2.13480   7
   5 -12  -1 4.60770 3.86927   3
  -5  12  -1 1.51194 2.39470   6
  -5 -12   1 -1.1958 2.15002   1
   5 -12  -1 2.92854 3.72350   4
  -5  12  -1 -1.1514 1.56462   1
  -6  12   1 452.474 16.3837   6
   6 -12   1 446.102 21.6225   3
  -6  12   1 455.893 15.0001   1
   6 -12   1 450.800 15.0763   7
   6 -12   1 441.836 17.6360   4
   6  12  -1 461.631 15.2702   7
  -6 -12  -1 431.660 15.1737   1
   6  12   1 454.962 14.9881   7
  -6  12  -1 482.861 16.7107   6
  -6  12  -1 448.196 15.1936   1
  -6 -12   1 433.643 14.9555   1
   6 -12  -1 487.757 19.7363   4
   6 -12  -1 447.697 15.1517   7
   6 -12  -1 466.283 19.8135   3
   7  12  -1 0.78596 1.72163   7
   7 -12   1 3.88816 3.58337   4
  -7 -12  -1 0.44659 2.16659   1
   7 -12   1 -0.0721 4.37974   3
  -7  12   1 -1.0989 1.72297   1
   7 -12   1 -0.3595 2.08188   7
   7 -12  -1 1.16307 3.98871   4
  -7  12  -1 -0.3897 2.81621   6
  -7  12  -1 0.92627 1.83235   1
  -7 -12   1 0.93073 2.25093   1
   7  12   1 2.66102 1.88304   7
   7 -12  -1 2.13714 2.28458   7
   7 -12  -1 -0.1252 3.65488   3
   8 -12   1 176.816 9.96459   4
   8 -12   1 164.385 9.02294   5
   8  12  -1 166.733 7.05952   7
   8 -12   1 162.580 7.09237   7
  -8  12   1 152.814 6.90880   1
   8 -12   1 161.415 12.2383   3
  -8 -12  -1 166.048 7.09464   1
  -8 -12   1 154.563 7.07544   1
   8 -12  -1 160.262 10.9280   3
   8  12   1 164.272 6.97372   7
   8 -12  -1 158.591 9.70103   5
   8 -12  -1 170.332 7.17297   7
  -8  12  -1 177.937 7.31143   1
   8 -12  -1 150.774 10.3341   4
   9 -12   1 -1.8021 3.29326   5
  -9 -12  -1 0.99421 2.33848   1
   9 -12   1 0.40500 4.10811   3
  -9  12   1 -0.7438 1.72907   1
   9 -12  -1 -2.1658 3.50371   3
  -9  12  -1 -1.6750 1.69197   1
   9 -12  -1 1.55889 4.12526   5
  -9 -12   1 -1.4532 2.07250   1
  10 -12   1 219.143 15.0102   3
  10 -12   1 220.892 11.4493   5
  10 -12  -1 207.205 11.6531   5
  10 -12  -1 221.273 14.5571   3
   0  13  -1 689.952 21.9475   1
   0 -13  -1 762.780 22.1954   1
   0  13   1 671.106 21.5583   7
   0  13  -1 676.837 21.9823   7
   0  13   1 667.139 21.8705   6
   0 -13   1 661.268 21.3719   1
   0  13   1 670.443 21.4830   1
   0 -13   1 719.737 21.8459   7
   0  13  -1 653.703 22.3623   6
   0 -13  -1 707.463 22.1926   7
  -1 -13  -1 5.00619 2.72621   1
   1  13  -1 1.81517 2.16562   1
   1  13  -1 6.93055 2.68372   6
  -1  13   1 2.48502 2.22138   1
   1 -13   1 0.46331 2.41185   1
  -1  13   1 1.58133 2.27130   6
   1 -13   1 5.79644 2.74896   7
   1  13  -1 3.45780 2.06542   7
  -1 -13  -1 2.70730 3.99156   7
  -1  13  -1 4.11411 2.19177   1
   1 -13  -1 6.27625 2.96856   1
   1  13   1 1.88226 2.11348   7
  -1  13  -1 2.35236 2.37760   6
   1  13   1 3.40862 2.35369   6
   1  13   1 5.37764 2.43462   1
  -1 -13   1 0.60940 2.49191   1
   1 -13  -1 0.84920 2.42530   7
   2  13  -1 231.770 9.38007   7
  -2  13   1 227.755 10.0204   6
  -2  13   1 228.206 9.43399   1
   2 -13   1 221.368 9.42093   7
  -2 -13  -1 222.734 9.34135   1
   2 -13  -1 222.327 12.0659   3
  -2  13  -1 229.214 10.0114   6
  -2 -13   1 240.675 9.59277   1
  -2  13  -1 227.319 9.21870   1
   2 -13  -1 213.900 9.16792   7
   2  13   1 235.278 9.45637   7
   3 -13   1 6.79804 2.78934   7
   3 -13   1 6.44407 5.07185   3
  -3  13   1 2.82132 2.15487   1
  -3 -13  -1 5.18740 2.75865   1
  -3  13   1 -0.2518 2.24468   6
   3  13  -1 7.13240 2.32992   7
  -3  13  -1 9.47508 3.05629   6
  -3  13  -1 2.58249 2.20384   1
   3 -13  -1 5.40272 3.85568   3
   3  13   1 4.73830 2.30082   7
  -3 -13   1 4.67257 2.70953   1
   3 -13  -1 8.14084 2.78328   7
   4 -13   1 544.790 20.1945   4
   4 -13   1 532.487 24.1122   3
  -4  13   1 528.224 17.5113   1
  -4  13   1 565.625 18.9162   6
  -4 -13  -1 497.287 17.5958   1
   4 -13   1 529.735 17.6063   7
   4  13  -1 579.948 18.0276   7
   4 -13  -1 562.708 22.3388   3
   4  13   1 549.842 17.6621   7
   4 -13  -1 548.525 17.8788   7
   4 -13  -1 555.344 22.0324   4
  -4 -13   1 484.526 17.3566   1
  -4  13  -1 517.940 17.5606   1
  -4  13  -1 533.017 18.7942   6
   5 -13   1 -3.7814 2.14382   7
   5 -13   1 -3.4713 4.69158   3
  -5  13   1 1.22695 2.42977   6
   5 -13   1 0.18388 3.34009   4
  -5  13   1 0.30383 2.06120   1
   5  13  -1 -0.0770 1.73361   7
  -5 -13  -1 -2.8813 2.13956   1
  -5 -13   1 0.16537 2.29348   1
   5 -13  -1 1.36845 3.77654   4
  -5  13  -1 2.44133 2.70131   6
  -5  13  -1 1.67987 1.99391   1
   5 -13  -1 0.99483 2.37734   7
   5  13   1 0.88780 1.85728   7
   5 -13  -1 9.05029 4.72870   3
   6 -13   1 169.789 9.46336   4
  -6 -13  -1 140.690 6.88258   1
   6 -13   1 150.988 12.8737   3
   6  13  -1 138.653 6.72074   7
  -6  13   1 134.485 6.64918   1
   6 -13   1 138.343 6.86303   7
   6  13   1 143.595 6.86495   7
   6 -13  -1 168.011 10.9286   4
   6 -13  -1 156.748 10.7740   3
   6 -13  -1 145.044 6.90067   7
  -6 -13   1 146.685 6.99732   1
  -6  13  -1 137.695 6.68942   1
   7 -13   1 6.10820 2.59393   7
  -7  13   1 4.99617 2.23585   1
  -7 -13  -1 6.62015 2.56467   1
   7 -13   1 3.85107 5.46665   3
   7 -13   1 4.03231 3.72435   4
   7  13  -1 2.65449 2.08784   7
  -7  13  -1 4.95006 2.07417   1
   7  13   1 4.34000 2.16759   7
   7 -13  -1 5.54340 2.52295   7
   7 -13  -1 3.91241 4.24289   4
   7 -13  -1 3.70508 4.24070   3
  -7 -13   1 3.23117 2.51466   1
   8 -13   1 308.652 13.3321   5
  -8  13   1 312.091 11.2271   1
   8 -13   1 301.375 18.0506   3
  -8 -13  -1 284.834 10.9358   1
   8 -13  -1 309.815 14.3653   5
   8 -13  -1 309.910 15.8242   3
  -8  13  -1 306.223 11.0185   1
  -8 -13   1 305.472 11.1544   1
   9 -13   1 5.40434 5.18166   3
  -9  13   1 0.75239 1.82776   1
  -9 -13  -1 0.36261 2.47824   1
   9 -13   1 0.86439 3.62613   5
  -9  13  -1 -0.1462 1.83100   1
   9 -13  -1 3.71613 4.69285   3
  -9 -13   1 -1.9323 2.25745   1
   9 -13  -1 4.11259 4.43069   5
   0  14   1 25.6360 3.35141   7
   0  14  -1 24.1204 3.30659   1
   0  14  -1 19.1785 3.27776   6
   0 -14  -1 19.6433 3.66945   1
   0  14   1 26.2112 3.50464   6
   0 -14   1 23.6390 3.74533   7
   0 -14   1 20.3996 3.98175   1
   0 -14  -1 31.4248 3.90698   7
   0  14  -1 20.3604 3.23180   7
   0  14   1 28.0322 3.53352   1
   1  14  -1 10.2771 2.94208   6
  -1 -14  -1 6.71587 2.82423   1
   1 -14   1 9.32532 3.14526   7
  -1  14   1 6.48391 2.73406   6
  -1  14   1 10.5053 2.85051   1
   1  14  -1 12.0925 2.85738   7
   1  14  -1 11.2613 3.93453   1
   1  14   1 10.4966 2.75543   7
   1  14   1 5.51592 2.77076   1
  -1  14  -1 9.56359 3.11721   6
   1 -14  -1 10.9425 3.12645   7
  -1 -14   1 9.08401 3.03612   1
  -1  14  -1 4.48822 2.44187   1
   1  14   1 8.65275 3.12714   6
   2  14  -1 25.4191 3.44453   7
  -2  14   1 23.5461 3.63298   6
  -2 -14  -1 25.6190 3.84067   1
  -2  14   1 28.9687 3.59335   1
   2 -14   1 34.2838 3.88795   7
  -2  14  -1 32.0944 3.48059   1
   2 -14  -1 42.5245 4.10242   7
  -2 -14   1 27.8062 3.72633   1
  -2  14  -1 29.2250 3.86701   6
   2  14   1 31.3541 3.59125   7
   2 -14  -1 34.8063 6.28483   3
   3 -14   1 1.85855 4.11752   3
   3  14  -1 11.6372 2.83746   7
   3 -14   1 8.64942 3.60391   4
  -3  14   1 10.9315 2.90310   1
  -3  14   1 13.8653 3.43735   6
  -3 -14  -1 11.8712 3.20289   1
   3 -14   1 14.0846 3.19883   7
   3  14   1 9.36053 2.65662   7
   3 -14  -1 14.4953 3.28434   7
  -3  14  -1 12.2239 3.40586   6
   3 -14  -1 7.73097 4.16073   3
  -3 -14   1 13.4034 3.45259   1
  -3  14  -1 11.8534 2.95904   1
   4 -14   1 18.0838 4.61100   4
   4 -14   1 20.3825 3.77157   7
   4  14  -1 18.1422 2.85002   7
  -4  14   1 17.9467 4.01988   6
  -4 -14  -1 15.4484 3.45815   1
  -4  14   1 18.4981 3.41903   1
   4 -14   1 18.2625 6.38938   3
   4  14   1 20.7540 3.08426   7
  -4  14  -1 24.0592 4.85488   6
  -4 -14   1 25.7361 4.15465   1
   4 -14  -1 20.7080 3.79722   7
   4 -14  -1 20.8459 5.46689   3
   4 -14  -1 25.1706 5.89846   4
  -4  14  -1 20.5224 3.63094   1
  -5  14   1 7.92707 2.49190   1
   5 -14   1 3.21080 3.38941   4
  -5 -14  -1 5.71006 2.86986   1
   5 -14   1 2.33249 2.63791   7
   5  14  -1 4.56542 2.06825   7
   5 -14   1 3.96754 5.27102   3
   5 -14  -1 7.69303 4.43294   3
   5 -14  -1 5.85886 2.82270   7
  -5  14  -1 5.79782 2.39875   1
   5 -14  -1 5.75409 4.10172   4
   5  14   1 5.11779 2.27920   7
  -5 -14   1 6.17556 2.87110   1
  -6  14   1 24.6736 3.17579   1
   6 -14   1 23.9548 3.55321   7
   6 -14   1 33.5792 9.03360   3
   6 -14   1 31.4091 5.67071   4
  -6 -14  -1 23.8108 3.36612   1
   6  14  -1 28.4073 3.22397   7
  -6 -14   1 24.7210 3.51775   1
   6 -14  -1 33.2454 6.70450   4
   6  14   1 18.2044 3.01080   7
  -6  14  -1 19.0381 2.97466   1
   6 -14  -1 22.2638 3.35439   7
   6 -14  -1 36.8229 7.57809   3
  -7 -14  -1 11.5164 3.04048   1
   7 -14   1 17.7017 5.26518   4
  -7  14   1 10.9210 2.64143   1
   7 -14   1 7.80983 6.89158   3
  -7 -14   1 10.8261 2.99247   1
  -7  14  -1 8.62891 2.52653   1
   7 -14  -1 10.4196 5.34630   3
  -8 -14  -1 15.7213 3.47763   1
  -8  14   1 8.80073 2.73416   1
   8 -14   1 23.8713 5.22295   5
   8 -14   1 11.7479 6.83033   3
  -8  14  -1 14.8631 3.05234   1
   8 -14  -1 14.9126 6.05291   3
   8 -14  -1 12.6563 5.50535   5
  -8 -14   1 6.90536 2.85350   1
   0 -15   1 15.7982 3.57434   1
   0  15  -1 14.7743 3.74654   6
   0  15  -1 16.6881 3.38727   1
   0 -15   1 10.2859 3.26030   7
   0 -15  -1 22.3935 4.11225   7
   0  15   1 22.0746 4.16952   6
   0  15   1 17.1378 3.45283   1
   0 -15  -1 12.3876 3.37891   1
  -1  15   1 12.6920 3.41224   6
  -1 -15  -1 11.6145 3.20227   1
   1 -15   1 10.9063 3.33213   7
   1  15  -1 14.3328 3.14289   7
  -1  15   1 8.36764 2.84748   1
   1 -15  -1 12.8187 3.33205   7
   1  15   1 7.72774 2.71566   7
  -1  15  -1 10.7708 3.16388   6
  -1 -15   1 9.99544 3.33163   1
  -1  15  -1 11.9913 3.02281   1
  -2  15   1 6.72556 2.74822   1
   2  15  -1 -2.1243 1.77895   7
   2 -15   1 4.73858 3.96290   3
  -2  15   1 5.76872 2.89688   6
   2 -15   1 4.83451 2.85300   7
  -2 -15  -1 2.73085 2.80313   1
   2 -15  -1 -1.7805 2.74167   7
   2 -15  -1 5.14246 3.79845   3
   2  15   1 3.12379 2.46249   7
  -2  15  -1 5.31237 2.55743   1
  -2 -15   1 2.72804 2.94884   1
  -2  15  -1 3.16164 2.81947   6
   3  15  -1 11.9685 2.82133   7
  -3  15   1 7.84641 2.61322   1
   3 -15   1 5.16209 3.42096   4
  -3 -15  -1 11.2429 3.16613   1
   3 -15   1 14.1022 3.51668   7
   3 -15   1 6.74185 4.64524   3
  -3  15  -1 15.4180 3.21568   1
  -3 -15   1 10.2983 3.34512   1
   3 -15  -1 8.39386 3.11645   7
   3 -15  -1 5.85714 3.96690   3
   3  15   1 10.4506 2.85014   7
  -4 -15  -1 9.10616 3.05227   1
   4 -15   1 14.9568 5.69120   3
   4  15  -1 14.1316 3.08936   7
   4 -15   1 18.7935 3.82911   7
   4 -15   1 14.6112 4.46817   4
  -4  15   1 12.8334 3.18795   1
   4  15   1 14.9759 3.10385   7
   4 -15  -1 11.6296 4.98536   3
   4 -15  -1 9.23722 3.27191   7
  -4  15  -1 11.2254 3.10338   1
   4 -15  -1 13.8371 4.73764   4
  -4 -15   1 7.08426 3.22459   1
   5 -15   1 8.56515 3.35903   7
   5 -15   1 4.90637 5.01906   3
   5  15  -1 8.05675 2.56963   7
   5 -15   1 6.30640 3.47507   4
  -5  15   1 7.84740 2.53192   1
  -5 -15  -1 5.54193 2.76337   1
   5 -15  -1 7.40495 3.22264   7
  -5 -15   1 10.2047 3.25852   1
   5 -15  -1 10.3044 4.54682   4
   5 -15  -1 9.89723 4.76127   3
   5  15   1 6.95382 2.62155   7
  -5  15  -1 8.36128 2.55187   1
   6 -15   1 11.8091 6.04789   3
  -6  15   1 1.30893 2.16742   1
   6 -15   1 1.44268 3.83612   4
  -6 -15  -1 1.55044 2.62698   1
   6 -15  -1 8.25728 4.83302   3
  -6  15  -1 2.08585 2.20815   1
  -6 -15   1 4.73681 2.98389   1
  -7  15   1 8.91589 2.64519   1
  -7 -15  -1 3.67360 2.81158   1
   7 -15   1 9.60546 6.58750   3
  -7 -15   1 8.58339 2.98076   1
   7 -15  -1 4.44957 5.05929   3
  -7  15  -1 5.93655 2.38761   1
   0  16  -1 6.79700 2.78142   1
   0  16   1 4.50716 2.73052   1
  -1  16   1 7.70762 2.78596   1
  -1 -16  -1 7.90441 3.08268   1
   1  16  -1 8.26206 2.90874   7
   1 -16   1 9.80661 3.27318   7
   1  16   1 7.53486 2.69434   7
   1 -16  -1 12.2083 3.61597   7
  -1 -16   1 6.06522 3.17711   1
  -1  16  -1 14.4248 3.24852   1
   2  16  -1 1.61174 2.35086   7
   2 -16   1 6.88144 4.03670   3
   2 -16   1 2.00049 3.02140   7
  -2 -16  -1 2.94937 3.11856   1
  -2  16   1 4.07640 2.42779   1
   2  16   1 2.31907 2.20822   7
   2 -16  -1 1.22521 2.69945   7
  -2  16  -1 0.53440 2.29174   1
   2 -16  -1 5.58424 3.65059   3
  -2 -16   1 0.32835 2.91965   1
  -3  16   1 5.30719 2.59383   1
   3 -16   1 7.03830 4.61394   3
  -3 -16  -1 5.96390 2.93114   1
   3 -16   1 4.22740 3.02610   7
   3  16  -1 9.98667 2.95749   7
  -3  16  -1 4.50920 2.54468   1
   3 -16  -1 8.63887 3.29148   7
  -3 -16   1 8.65184 3.28027   1
   3  16   1 9.12919 2.66732   7
   3 -16  -1 8.96348 3.98711   3
   4 -16   1 2.92600 4.13350   3
  -4  16   1 1.21517 2.28136   1
  -4 -16  -1 9.39348 3.29936   1
  -4  16  -1 7.10429 2.76013   1
   4 -16  -1 7.21030 4.70311   4
  -4 -16   1 6.81144 3.25588   1
   4 -16  -1 7.45491 4.20154   3
  -5  16   1 11.6313 2.94363   1
  -5 -16  -1 9.49245 3.32133   1
   5 -16   1 5.17793 4.95262   3
  -5  16  -1 9.88242 2.74820   1
   5 -16  -1 8.75460 4.55334   3
  -5 -16   1 11.8691 3.38670   1
  -6  16   1 1.62790 3.18617   1
   6 -16   1 -4.7113 3.94778   3
   6 -16  -1 0.55933 4.27255   3
  -1  17   1 8.85910 3.00553   1
  -1 -17  -1 10.7974 3.54411   1
   1 -17   1 7.23586 3.30376   7
   1  17  -1 6.07516 2.79384   7
  -1  17  -1 7.96193 2.99113   1
   1 -17  -1 6.56563 3.57999   3
   1  17   1 8.32617 2.93233   7
  -1 -17   1 7.10214 3.18623   1
   1 -17  -1 12.9911 3.72622   7
  -2 -17  -1 102.314 6.40309   1
  -2  17   1 86.7859 5.62663   1
   2 -17   1 94.6984 7.78824   3
  -2 -17   1 91.2680 6.05018   1
   2 -17  -1 83.8056 7.47280   3
  -2  17  -1 96.5207 5.99010   1
  -3 -17  -1 6.23252 3.32749   1
  -3  17   1 3.79981 2.52368   1
   3 -17   1 8.91069 4.41319   3
  -3  17  -1 4.80289 2.60664   1
   3 -17  -1 11.4013 4.15553   3
  -3 -17   1 10.8537 3.52012   1
   4 -17   1 144.133 10.6138   3
  -4 -17  -1 162.181 7.83205   1
  -4  17   1 151.122 7.50642   1
   4 -17  -1 140.062 9.69861   3
  -4 -17   1 160.303 7.72601   1
  -4  17  -1 146.304 7.42883   1
   5 -17   1 7.55981 4.71071   3
   5 -17  -1 3.06047 3.95114   3
  -1  18   1 1.05712 2.50539   1
   1 -18   1 4.04050 3.34548   3
  -1  18  -1 1.70403 2.45547   1
  -1 -18   1 8.91664 5.87016   1
   1 -18  -1 4.39332 3.58726   3
   2 -18   1 213.535 11.8477   3
  -2  18   1 198.123 10.2765   1
  -2 -18  -1 201.311 9.35558   1
   2 -18  -1 208.735 11.2510   3
  -2  18  -1 195.482 9.23800   1
  -2 -18   1 221.139 9.64959   1
   3 -18   1 -1.5076 3.75646   3
   3 -18  -1 4.47816 3.67498   3
   0   0  -2 58.8753 2.57624   6
   1   0   2 0.37603 0.80620   7
  -1   0  -2 -0.3488 0.66894   6
   1   0  -2 -0.3880 0.87332   6
   1   0  -2 -1.2168 0.73082   7
   2   0  -2 958.431 26.9528   4
   2   0  -2 947.496 26.3219   2
   2   0   2 1016.06 27.3003   7
   2   0  -2 995.846 26.3346   7
   2   0   2 983.972 27.3178   2
  -2   0  -2 966.684 26.3639   6
   3   0  -2 -0.4471 0.64951   7
   3   0   2 0.45433 0.67555   2
  -3   0  -2 -0.7193 0.69913   6
   3   0   2 0.16814 0.80555   7
   3   0   2 -0.4041 0.68745   2
  -4   0  -2 49.9302 2.26846   6
   4   0  -2 51.4216 1.99053   7
   4   0   2 49.5407 2.16580   7
   4   0  -2 50.6355 3.63393   3
   4   0   2 53.5218 3.56447   3
   4   0   2 53.5458 3.15028   5
  -4   0  -2 50.4530 2.18280   1
   5   0  -2 1.69214 1.85401   3
  -5   0  -2 -0.9002 0.80357   6
   5   0   2 -0.4047 1.54322   3
  -5   0   2 -0.1766 1.25028   6
   5   0   2 -0.6872 1.28686   5
  -5   0   2 1.10752 0.72818   1
   5   0   2 -0.9104 0.58524   7
  -5   0  -2 -0.4301 0.73926   1
   5   0  -2 1.53417 1.25892   5
   6   0  -2 410.133 12.6845   5
   6   0   2 374.721 12.8900   5
  -6   0   2 391.849 12.2171   6
   6   0  -2 369.223 14.0651   3
  -6   0  -2 384.898 11.1113   1
   6   0   2 386.721 13.8713   3
   7   0  -2 0.24806 1.57392   5
   7   0   2 2.50597 2.25860   3
   7   0  -2 0.47017 2.05645   3
   8   0  -2 36.7676 4.41056   3
   8   0   2 37.3867 4.42169   3
   9   0  -2 -1.5372 2.41321   3
   9   0   2 1.24923 2.56043   3
  10   0   2 143.197 8.45210   3
   0   1  -2 43.4468 2.26513   6
  -1  -1  -2 1.06940 0.82036   6
   1   1  -2 1.08038 0.80822   7
   1  -1   2 1.82798 0.95188   7
   1   1  -2 1.24322 1.04222   6
   1  -1  -2 1.31761 0.87667   7
  -1   1  -2 2.03004 0.98009   6
   1   1   2 2.00930 0.99134   7
  -2  -1  -2 3034.70 77.8925   6
   2  -1   2 3054.79 80.9988   2
   2  -1   2 2995.34 80.8850   7
   2   1  -2 2883.77 78.1548   2
   2   1  -2 3010.57 78.1305   7
   2   1  -2 2931.70 78.6739   6
   2  -1  -2 2793.50 78.9807   4
   2  -1  -2 2972.25 78.2440   2
   2   1   2 2995.25 81.0849   2
  -2   1  -2 2927.35 78.3936   6
   2  -1  -2 2883.62 78.1126   7
   2   1   2 3085.71 80.9810   7
   3  -1   2 4.34321 0.97359   2
   3  -1   2 2.16625 1.42506   5
   3   1  -2 4.28292 0.74543   2
  -3   1   2 3.82691 1.45713   6
   3  -1   2 3.92127 1.09508   7
   3   1  -2 6.05763 2.78111   3
   3   1  -2 3.20294 0.92618   2
  -3  -1  -2 2.55739 0.69120   6
   3   1  -2 2.00534 0.87274   7
   3  -1   2 2.31935 0.91212   2
  -3   1  -2 4.98900 1.18178   6
   3   1   2 2.34869 0.94888   2
   3  -1  -2 3.36729 0.93528   7
   3  -1  -2 1.83349 0.75770   2
   3  -1  -2 5.84273 0.85011   2
   3   1   2 1.90608 0.95331   7
   3   1   2 3.15746 0.90231   2
   3  -1  -2 2.75391 1.45194   4
   3   1   2 5.51157 0.96066   2
  -4  -1  -2 15.2726 1.29128   1
  -4   1   2 12.9417 1.80739   6
   4   1  -2 14.5523 2.32429   3
   4  -1   2 14.5112 1.08639   2
   4  -1   2 15.4212 2.21030   3
   4  -1   2 16.9391 1.33092   7
   4  -1   2 15.8566 2.08807   5
   4  -1   2 17.8820 1.23340   2
   4   1  -2 17.1586 1.20228   7
  -4   1   2 14.1225 1.20972   1
  -4   1  -2 14.8842 1.50474   6
   4  -1  -2 13.5245 1.07265   7
   4   1   2 14.4209 1.23791   7
  -4   1  -2 16.1796 1.27169   1
   4   1   2 16.2982 1.25257   2
  -4  -1   2 15.9854 1.20126   1
   4   1   2 15.9692 1.14453   2
   4  -1  -2 16.2227 2.32406   3
   4   1   2 13.4545 2.20721   3
   5  -1   2 1.37865 0.83326   7
  -5   1   2 3.64289 1.57552   6
  -5  -1  -2 2.64481 0.96638   1
   5  -1   2 3.34062 1.63663   5
   5   1  -2 1.64904 1.81941   3
   5  -1   2 1.48373 1.71405   3
  -5   1   2 2.75556 0.86029   1
  -5  -1   2 2.86437 1.32804   6
   5   1   2 5.02459 0.81818   7
   5  -1  -2 0.87394 1.25662   5
   5   1   2 1.03900 1.74522   3
  -5   1  -2 4.90049 1.28026   6
  -5  -1   2 1.39015 0.81496   1
   5  -1  -2 -0.6182 1.65229   3
  -5   1  -2 2.12469 0.83902   1
   6  -1   2 1413.13 41.1802   5
  -6   1   2 1466.00 40.5761   6
  -6   1   2 1423.30 39.0799   1
  -6  -1  -2 1438.42 38.4029   1
   6  -1   2 1445.74 42.3245   3
   6  -1  -2 1402.47 41.6913   3
  -6   1  -2 1421.58 38.3330   1
  -6  -1   2 1473.16 39.0439   1
   6  -1  -2 1416.43 39.9096   5
   6   1   2 1486.11 42.2825   3
   7   1  -2 3.26762 2.39483   3
   7  -1   2 0.65475 1.79356   5
   7  -1   2 3.91613 2.45796   3
   7   1   2 0.24126 2.23690   3
   7  -1  -2 1.31427 1.74954   5
   7  -1  -2 2.15649 2.47317   3
   8  -1   2 2.46869 2.23845   5
   8  -1   2 8.81713 3.29343   3
   8  -1  -2 6.97962 2.38162   5
   8  -1  -2 7.40708 3.09092   3
   8   1   2 8.57909 3.16862   3
   9  -1   2 5.00310 3.10999   3
   9  -1  -2 0.53857 2.04061   5
   9  -1  -2 2.84217 2.77520   3
  10  -1   2 519.522 19.2550   3
  10  -1  -2 492.103 18.6928   3
  11  -1   2 -1.3315 2.83670   3
  11  -1  -2 1.74389 3.19230   3
   0  -2  -2 778.246 21.2929   7
   0   2  -2 723.438 21.4366   6
   0   2  -2 778.599 21.6565   7
  -1   2   2 6.17580 1.43187   6
   1   2  -2 4.00911 1.09437   7
   1   2  -2 4.48275 1.31528   6
   1  -2   2 7.77704 1.36556   7
   1  -2  -2 6.45296 1.25732   7
  -1   2  -2 8.09936 1.35337   6
   1   2   2 6.99997 1.32412   7
   2   2  -2 1226.51 33.9425   6
   2   2  -2 1221.12 33.5080   7
  -2   2   2 1270.18 34.5298   6
   2  -2   2 1216.75 33.7917   7
   2  -2   2 1256.55 34.3358   4
   2  -2   2 1206.18 33.9376   2
   2   2  -2 1226.91 33.6871   2
  -2   2  -2 1246.77 33.9631   6
   2  -2  -2 1249.28 33.8211   2
   2   2   2 1240.21 34.1885   2
   2   2   2 1240.03 33.8362   7
   2  -2  -2 1155.37 34.6618   4
   2  -2  -2 1274.15 33.5234   7
   3   2  -2 9.44425 1.60576   6
  -3   2   2 18.3568 2.06928   6
   3  -2   2 8.60901 1.35371   2
   3   2  -2 10.0223 1.29056   7
   3   2  -2 8.64742 1.31998   2
  -3  -2  -2 9.97482 1.41764   1
   3   2  -2 15.4469 1.31528   2
  -3   2   2 11.7494 1.38876   1
   3  -2   2 17.5539 1.45917   2
   3  -2   2 9.76469 1.96150   5
   3  -2   2 8.49169 1.37037   7
   3  -2  -2 15.6330 1.30975   2
   3  -2  -2 6.70376 1.95748   3
   3   2   2 19.3877 1.51690   2
   3  -2  -2 8.96403 1.32344   2
  -3  -2   2 14.9339 1.39245   1
  -3  -2   2 14.4612 1.41233   1
   3   2   2 13.5768 1.42697   7
  -3   2  -2 17.7865 1.70435   6
   3  -2  -2 12.8254 2.17196   4
  -3   2  -2 13.1353 1.35637   1
   3  -2  -2 14.8888 1.39365   7
   4  -2   2 513.541 15.0701   2
   4   2  -2 526.087 14.8578   2
   4  -2   2 535.751 15.2871   2
   4   2  -2 515.962 14.6839   7
   4  -2   2 534.882 16.3186   5
  -4   2   2 534.249 15.0559   1
   4  -2   2 526.549 16.9687   3
   4  -2   2 546.201 15.1529   7
  -4   2   2 527.313 16.2595   6
  -4  -2  -2 524.630 14.8529   1
   4   2  -2 508.797 14.6679   2
  -4   2  -2 528.253 14.7700   1
  -4  -2   2 540.815 14.9935   1
   4   2   2 533.120 15.3847   2
   4   2   2 518.248 15.1807   2
   4  -2  -2 513.340 15.5293   5
   4   2   2 521.077 15.0444   7
   4  -2  -2 516.902 14.6143   2
  -4   2  -2 533.206 15.4659   6
  -4  -2   2 547.645 15.0736   1
   4  -2  -2 522.063 14.7506   2
   4  -2  -2 514.294 14.5496   7
   4  -2  -2 512.078 16.7592   4
   4  -2  -2 512.803 16.7980   3
  -5   2   2 6.94566 1.85741   6
   5   2  -2 4.93977 0.98587   7
   5  -2   2 3.83717 1.08409   7
   5  -2   2 6.02165 2.22686   3
   5  -2   2 6.95330 1.95258   5
  -5   2   2 6.67852 1.07654   1
   5   2  -2 3.71156 1.09276   2
   5  -2   2 8.68476 1.11677   2
  -5  -2  -2 6.39264 1.25919   1
   5   2  -2 6.66303 0.93913   2
   5  -2   2 3.10786 1.08888   2
   5  -2  -2 2.95752 1.52771   5
   5   2   2 3.88288 1.15825   2
  -5   2  -2 4.91506 1.08590   1
   5  -2  -2 8.48536 0.96082   7
   5   2   2 8.21581 1.05482   7
  -5  -2   2 5.52450 1.08042   1
  -5   2  -2 9.93806 1.56902   6
   5  -2  -2 6.18952 2.24642   3
   5  -2  -2 6.83391 0.87975   2
   5   2   2 6.69053 1.05518   2
   6  -2   2 451.217 13.1133   2
   6  -2   2 447.908 14.8607   5
  -6   2   2 463.905 12.8953   1
   6  -2   2 444.868 12.9483   2
   6  -2   2 440.361 15.7978   3
  -6  -2  -2 449.666 13.0148   1
  -6   2   2 459.194 14.4830   6
  -6  -2   2 458.150 12.9217   1
   6  -2  -2 451.467 16.0529   3
   6   2   2 463.679 13.2812   2
   6  -2  -2 443.345 14.3641   5
   6   2   2 448.275 13.0677   2
   6   2   2 455.331 12.6391   7
  -6   2  -2 461.930 13.0077   1
   7  -2   2 19.1580 1.50592   2
   7  -2   2 12.4107 2.59175   5
   7  -2   2 15.3139 3.47114   3
   7   2   2 9.31291 1.54292   2
   7   2   2 17.0959 1.53025   2
   7  -2  -2 18.3211 2.59062   5
   7  -2  -2 9.22217 3.05047   3
   8  -2   2 267.038 11.5924   3
   8  -2   2 258.388 10.3174   5
   8  -2  -2 266.529 9.90581   5
   8  -2  -2 251.651 11.4466   3
   8   2   2 261.214 8.32248   2
   9  -2   2 -1.2837 2.45865   3
   9  -2   2 -1.3835 2.20784   5
   9   2   2 3.48491 1.37166   2
   9  -2  -2 3.38813 2.22625   5
   9  -2  -2 3.78506 2.81358   3
  10  -2   2 155.744 7.82765   5
  10  -2   2 158.001 9.09405   3
  10  -2  -2 156.080 9.03059   3
  10  -2  -2 155.761 7.48069   5
  10   2   2 151.360 5.59745   2
  11  -2   2 5.90202 3.53356   3
  11  -2  -2 8.97986 3.68932   3
  12  -2   2 116.212 8.20117   3
  12  -2  -2 109.792 8.04338   3
   0  -3  -2 161.101 5.56292   7
   0   3  -2 155.678 5.77959   6
   0   3   2 158.440 5.57840   6
   0   3  -2 157.791 5.52982   7
   0   3   2 152.010 5.48182   7
   0  -3   2 157.479 5.50267   7
   1  -3   2 16.1718 1.74334   7
   1   3  -2 13.4700 1.52232   7
  -1  -3  -2 14.4508 1.90659   7
   1   3  -2 13.4128 1.72042   6
   1  -3   2 12.0460 1.74122   4
  -1   3   2 14.7270 1.90653   6
   1  -3  -2 11.1285 1.51645   7
   1   3   2 12.9946 1.49830   6
  -1   3  -2 16.5480 1.76896   6
   1   3   2 14.7415 1.62281   7
   2  -3   2 1149.70 31.5999   4
   2  -3   2 1117.88 31.2652   2
  -2   3   2 1168.34 31.0060   1
   2  -3   2 1150.86 31.0202   7
   2   3  -2 1127.61 31.1836   6
   2   3  -2 1143.22 30.8032   7
  -2  -3  -2 1115.02 30.8480   1
   2   3  -2 1113.75 31.1013   2
   2  -3  -2 1117.41 31.2078   2
  -2   3  -2 1118.73 30.7475   1
   2   3   2 1075.86 30.9782   7
  -2  -3   2 1029.89 30.7653   1
   2  -3  -2 1093.02 30.7482   7
  -2   3  -2 1101.13 31.2844   6
   2   3   2 1154.01 31.5706   2
   2   3   2 1136.70 30.4561   6
   3  -3   2 17.9025 1.71305   7
   3  -3   2 21.7114 2.74698   3
   3  -3   2 14.8508 2.24924   4
   3   3  -2 18.0923 1.59141   7
   3   3  -2 21.2221 1.73061   2
   3   3  -2 16.3176 1.94198   6
   3   3  -2 13.0707 1.66491   2
  -3   3   2 23.8643 2.28847   6
  -3   3   2 16.2089 1.58799   1
   3  -3   2 27.1064 1.95724   2
   3  -3   2 16.2946 2.14398   5
  -3  -3  -2 18.3480 1.73207   1
   3  -3  -2 12.8064 1.76203   2
   3  -3  -2 18.0567 2.45510   3
   3   3   2 24.3817 1.85911   2
  -3   3  -2 25.7510 1.75435   1
   3   3   2 23.7674 1.79842   7
   3  -3  -2 23.6293 1.73518   7
   3   3   2 13.7464 1.84997   2
   3  -3  -2 22.1009 1.75795   2
  -3   3  -2 30.3967 2.26378   6
   3  -3  -2 22.2255 2.71571   4
  -3  -3   2 24.0451 1.78690   1
   4  -3   2 76.1208 4.73812   3
   4   3  -2 74.2496 3.33051   2
  -4  -3  -2 80.0110 3.37508   1
   4  -3   2 77.6015 3.35493   7
   4  -3   2 78.7635 3.46825   2
   4   3  -2 77.4501 3.23758   7
   4  -3   2 80.1843 3.57868   2
   4   3  -2 81.6870 3.53765   2
  -4   3   2 79.4002 4.14526   6
  -4   3   2 79.6956 3.29165   1
   4   3  -2 79.6990 3.62905   6
   4  -3   2 79.7544 4.26349   5
   4  -3  -2 78.2877 3.16053   7
  -4   3  -2 77.8973 3.80841   6
  -4  -3   2 80.4535 3.24895   1
   4  -3  -2 75.0395 3.13316   7
   4  -3  -2 73.3414 4.68712   4
   4  -3  -2 71.4150 3.38234   2
  -4   3  -2 82.7190 3.29342   1
   4   3   2 75.4508 3.47938   2
   4  -3  -2 76.5760 4.65485   3
   4   3   2 82.5046 3.39254   7
   4  -3  -2 80.1875 3.33450   2
   4   3   2 82.8090 3.76728   2
   5  -3   2 7.20943 2.07445   5
   5   3  -2 6.96505 1.45620   2
   5  -3   2 6.86286 1.39187   7
  -5  -3  -2 9.12311 1.41769   1
  -5   3   2 9.75463 1.33026   1
   5   3  -2 8.87140 1.28793   7
   5   3  -2 10.4225 1.33336   2
  -5   3   2 12.7815 2.09594   6
   5  -3   2 8.68485 2.49849   3
   5  -3   2 8.35898 1.40104   2
   5  -3   2 13.9560 1.55659   2
   5   3   2 6.38078 1.56525   2
   5  -3  -2 9.02702 2.55210   4
  -5   3  -2 12.5645 1.82859   6
   5   3   2 13.5348 1.36225   7
   5  -3  -2 7.04305 1.44166   2
   5  -3  -2 13.5729 2.23440   5
  -5   3  -2 9.10486 1.28363   1
  -5  -3   2 10.5993 1.34232   1
   5  -3  -2 12.1378 1.24508   7
   5  -3  -2 6.62768 2.34073   3
   5  -3  -2 11.4125 1.28900   2
   5   3   2 10.9456 1.41016   2
   6   3  -2 486.530 14.0648   2
   6  -3   2 476.660 14.0582   2
   6  -3   2 475.909 16.8678   3
  -6  -3  -2 472.267 13.7858   1
   6  -3   2 484.468 14.2432   2
   6  -3   2 488.852 13.7109   7
  -6   3   2 492.062 15.4216   6
   6  -3   2 461.489 15.6288   5
   6   3  -2 463.277 13.8494   2
  -6   3   2 481.170 13.7800   1
   6   3  -2 479.353 13.4609   7
   6   3   2 481.773 14.1756   2
   6  -3  -2 469.157 16.6935   3
   6  -3  -2 477.599 13.2360   7
   6   3   2 491.258 14.4572   2
   6   3   2 465.457 13.6232   7
  -6  -3   2 474.080 13.7847   1
   6  -3  -2 463.126 15.1489   5
  -6   3  -2 471.490 13.7340   1
  -6   3  -2 476.643 14.7156   6
   6  -3  -2 472.972 13.8795   2
  -6  -3   2 477.235 13.8705   1
   6  -3  -2 471.618 13.7294   2
   7  -3   2 19.4692 2.95963   5
   7  -3   2 12.9870 1.71886   2
  -7  -3  -2 23.8805 1.84559   1
   7  -3   2 16.8062 3.68364   3
   7   3  -2 16.8796 1.77858   2
   7  -3   2 22.3656 1.88910   2
  -7   3   2 23.5052 2.58178   6
   7   3  -2 19.9555 1.69660   2
   7   3   2 16.4683 2.05017   2
   7  -3  -2 12.8127 3.30689   3
   7  -3  -2 17.0439 1.73924   2
   7  -3  -2 21.6337 1.65539   2
   7   3   2 21.7593 1.91718   2
   7  -3  -2 21.0758 2.74230   5
   8  -3   2 24.3289 4.04096   3
   8  -3   2 26.1061 2.12373   2
   8   3  -2 28.3226 2.01202   2
   8   3  -2 28.1789 2.09757   2
   8  -3   2 31.5669 3.66657   5
   8  -3   2 25.2582 2.01767   2
   8   3   2 25.0333 2.05045   2
   8  -3  -2 25.9765 4.12421   3
   8  -3  -2 25.6927 2.07355   2
   8   3   2 27.1682 2.27754   2
   8  -3  -2 31.3428 3.31025   5
   9  -3   2 5.80934 3.26470   3
   9  -3   2 2.31208 1.35335   2
   9  -3   2 4.14520 1.48546   2
   9   3  -2 4.57575 1.47498   2
   9  -3   2 6.46610 2.78575   5
   9   3  -2 5.40564 1.36904   2
   9   3   2 3.87279 1.67364   2
   9  -3  -2 6.33017 2.43176   5
   9   3   2 3.76949 1.33884   2
   9  -3  -2 3.56005 2.93594   3
  10   3  -2 142.359 5.21202   2
  10  -3   2 151.438 5.57704   2
  10  -3   2 150.530 9.00402   3
  10  -3   2 145.421 7.76067   5
  10  -3   2 148.434 5.62299   2
  10  -3  -2 142.283 7.27411   5
  10   3   2 158.858 5.86294   2
  10  -3  -2 143.393 8.75029   3
  10   3   2 152.574 6.00481   2
  11  -3   2 9.19108 3.91203   3
  11   3   2 7.85461 1.78715   2
  11  -3  -2 12.4124 4.22296   3
  12  -3   2 3.97260 3.56399   3
  12  -3  -2 4.99405 3.74656   3
  13  -3   2 4.96602 3.90721   3
   0   4   2 2424.44 66.3882   1
   0   4  -2 2324.79 62.8298   6
   0   4  -2 2285.79 62.4229   7
   0  -4   2 2428.99 65.7372   7
   0   4   2 2419.96 65.8731   6
   0  -4  -2 2306.72 62.4259   7
   0   4   2 2444.43 65.7533   7
   1   4  -2 25.8845 2.00652   7
   1   4  -2 25.5603 2.20546   6
  -1  -4  -2 27.5714 2.13328   1
  -1   4   2 32.4702 2.23737   7
  -1   4   2 23.2270 2.00899   1
  -1  -4  -2 26.5275 2.10358   7
   1  -4   2 31.9041 2.25534   7
  -1   4   2 31.4824 2.53956   6
  -1  -4   2 26.5565 2.15012   7
   1   4   2 25.7263 2.01250   6
  -1   4  -2 27.3397 2.00804   1
  -1   4  -2 28.2304 2.30023   6
  -1   4  -2 29.2832 2.09682   7
   1   4   2 27.2736 2.17282   7
  -1  -4   2 29.5139 2.14205   1
   1  -4  -2 26.7675 2.09118   7
   2  -4   2 675.087 19.9755   2
   2  -4   2 685.474 22.3047   3
   2   4  -2 663.245 19.6805   6
  -2   4   2 680.088 20.2595   6
   2   4  -2 664.559 19.3784   7
   2  -4   2 702.208 20.3437   4
   2   4  -2 677.746 19.8333   2
  -2  -4  -2 684.774 19.5373   7
   2  -4   2 659.981 19.5556   7
  -2   4   2 693.555 19.5845   1
  -2  -4  -2 678.716 19.4627   1
   2  -4  -2 691.164 19.3728   7
  -2   4  -2 683.637 19.3513   1
   2  -4  -2 673.222 20.8013   3
  -2   4  -2 652.229 19.9025   6
  -2  -4   2 668.451 19.4714   1
   2  -4  -2 671.033 19.3501   7
   2  -4  -2 677.064 19.9276   2
   2   4   2 667.084 19.5803   7
   2   4   2 684.183 19.1015   6
   2   4   2 682.270 20.2376   2
  -3  -4  -2 31.7222 2.24348   1
   3  -4   2 33.2956 2.27305   7
   3  -4   2 29.7640 3.00228   4
   3  -4   2 22.9264 2.64268   2
   3   4  -2 31.6987 2.29861   2
   3   4  -2 24.5925 2.58869   2
   3  -4   2 40.3786 2.57323   2
  -3   4   2 37.6790 2.92252   6
   3   4  -2 20.6992 2.16997   6
   3   4  -2 29.7985 2.10125   7
   3  -4   2 29.4837 3.45648   3
  -3   4   2 30.0949 2.15285   1
   3  -4  -2 34.3932 2.17174   7
   3  -4  -2 24.6528 3.07482   4
   3  -4  -2 26.1490 2.40370   2
   3   4   2 21.0266 2.36882   2
   3  -4  -2 32.3516 2.29022   2
  -3   4  -2 38.5957 2.67245   6
   3  -4  -2 23.4833 2.90808   3
   3  -4  -2 37.5405 2.23427   7
   3   4   2 31.4033 2.24657   7
   4  -4   2 1401.35 39.0678   2
   4   4  -2 1389.95 38.5936   7
   4  -4   2 1347.22 41.0277   3
  -4   4   2 1442.42 40.0159   6
   4  -4   2 1419.40 38.7504   7
   4  -4   2 1410.19 39.7967   5
   4  -4   2 1431.83 40.5088   4
   4   4  -2 1462.77 39.1113   6
   4  -4   2 1405.93 39.2603   2
   4   4  -2 1363.09 38.9282   2
   4   4  -2 1417.17 39.1257   2
  -4   4   2 1417.91 38.6776   1
  -4  -4  -2 1448.48 38.7380   1
  -4   4  -2 1386.25 39.3918   6
   4   4   2 1408.13 38.7430   7
   4  -4  -2 1411.20 38.9210   2
   4  -4  -2 1388.58 38.4497   7
  -4   4  -2 1400.96 38.5547   1
   4   4   2 1459.80 39.2536   2
  -4  -4   2 1343.56 38.5705   1
   4  -4  -2 1419.53 39.1346   2
   4  -4  -2 1383.66 40.8735   3
   4   4   2 1410.38 39.4244   2
   4  -4  -2 1386.73 41.1485   4
   5  -4   2 21.3152 1.99888   2
   5  -4   2 17.8336 1.83671   7
   5   4  -2 11.9301 1.75487   2
  -5  -4  -2 16.6990 1.74345   1
   5  -4   2 21.9646 3.31640   3
   5   4  -2 17.8046 1.71312   7
   5  -4   2 11.4057 1.74989   2
   5   4  -2 17.4242 1.81958   2
  -5   4   2 21.3952 2.51370   6
   5  -4   2 20.7459 2.75251   5
  -5   4   2 17.2095 1.68727   1
   5  -4  -2 15.4786 1.96816   2
  -5   4  -2 19.7051 2.21813   6
   5   4   2 19.6038 1.74321   7
   5   4   2 14.7350 2.03731   2
   5  -4  -2 18.6510 1.81676   2
  -5  -4   2 21.6661 1.80279   1
   5  -4  -2 14.3994 3.06881   3
   5  -4  -2 21.5425 1.70189   7
  -5   4  -2 16.0020 1.62293   1
   5   4   2 18.1012 1.88028   2
   5  -4  -2 9.65901 2.83822   4
   6  -4   2 299.244 11.0564   5
   6  -4   2 309.702 9.77056   2
   6   4  -2 303.871 9.90841   2
   6  -4   2 303.820 9.91081   2
   6  -4   2 293.605 12.2037   3
  -6  -4  -2 306.559 9.53055   1
  -6   4   2 301.612 10.7968   6
  -6   4   2 303.909 9.35643   1
   6   4  -2 306.364 9.32134   7
   6  -4   2 322.854 9.46635   7
   6   4  -2 301.460 9.73678   2
  -6   4  -2 288.306 9.35318   1
   6  -4  -2 302.221 9.64403   2
   6  -4  -2 310.592 9.89724   2
   6  -4  -2 298.478 12.2576   3
   6  -4  -2 300.875 9.09516   7
   6   4   2 297.482 9.24669   7
   6   4   2 309.399 9.88780   2
  -6   4  -2 306.252 10.4114   6
   6  -4  -2 290.040 10.7287   5
   6   4   2 306.611 10.1136   2
  -6  -4   2 270.776 9.21277   1
   7  -4   2 25.1961 3.42873   5
   7  -4   2 20.8638 2.14968   2
   7  -4   2 30.2725 4.32316   3
   7   4  -2 28.2347 2.20631   2
  -7   4   2 29.5333 2.98893   6
   7  -4   2 32.8868 2.41428   2
   7   4  -2 20.2040 2.14721   2
   7   4  -2 27.2682 1.71675   7
   7  -4   2 19.6366 1.69041   7
  -7   4   2 24.8845 2.07444   1
  -7  -4  -2 27.3308 2.08221   1
   7  -4  -2 20.5507 3.67422   3
   7  -4  -2 23.8095 2.28607   2
  -7  -4   2 28.1401 2.03644   1
  -7   4  -2 25.3871 1.97361   1
  -7  -4   2 27.1718 2.11664   1
   7  -4  -2 26.3137 2.16232   2
   7   4   2 28.6785 2.37115   2
   7   4   2 27.7285 1.73319   7
   7  -4  -2 27.5898 3.11271   5
   7   4   2 20.7964 2.38241   2
   8  -4   2 516.811 15.8147   2
   8   4  -2 530.739 15.8572   2
   8  -4   2 527.276 17.7966   5
   8  -4   2 531.548 19.3382   3
   8   4  -2 538.134 15.9836   2
   8  -4   2 536.926 16.0300   2
   8   4   2 531.098 16.1944   2
   8   4   2 542.264 16.4404   2
   8  -4  -2 530.411 15.8902   2
   8  -4  -2 531.745 15.7287   2
   8  -4  -2 527.899 17.5160   5
   8  -4  -2 526.939 19.3782   3
   9  -4   2 10.4721 3.72538   3
   9  -4   2 9.05398 1.88119   2
   9   4  -2 7.53332 1.64736   2
   9  -4   2 11.0186 3.08586   5
   9  -4  -2 7.32416 1.74897   2
   9  -4  -2 5.01396 3.22774   3
   9   4   2 7.62012 1.88268   2
   9  -4  -2 5.66608 1.62932   2
   9  -4  -2 9.42469 2.86017   5
  10  -4   2 102.276 6.56464   5
  10  -4   2 111.626 7.91076   3
  10   4  -2 109.039 4.50651   2
  10  -4   2 106.807 4.61714   2
  10   4   2 108.294 4.84110   2
  10  -4  -2 98.8510 7.40900   3
  10  -4  -2 108.854 6.33695   5
  10  -4  -2 99.4834 4.39711   2
  10  -4  -2 98.7525 4.34987   2
  11  -4   2 10.1900 2.09709   2
  11  -4   2 17.0368 3.94585   5
  11  -4   2 14.5735 4.69068   3
  11   4  -2 12.5223 1.84811   2
  11   4   2 12.3144 2.02347   2
  11  -4  -2 13.1767 4.16374   3
  12  -4   2 179.890 10.7697   3
  12  -4  -2 154.652 9.66554   3
  13  -4   2 5.92901 4.87143   3
   0   5  -2 489.790 14.1997   1
   0   5  -2 448.936 14.1301   7
   0   5   2 478.561 14.5862   6
   0  -5   2 458.742 14.3140   7
   0   5  -2 458.132 14.5158   6
   0   5   2 452.136 14.4018   7
   0  -5  -2 465.179 14.2382   7
   0  -5  -2 465.080 14.2520   7
   0   5   2 486.878 14.3801   1
   0  -5  -2 472.573 14.1531   1
   0  -5   2 482.723 14.2975   1
   1   5  -2 26.5110 2.14607   7
  -1  -5  -2 26.0798 2.29672   7
   1   5  -2 28.7861 2.16173   1
  -1  -5  -2 25.6491 2.19727   1
  -1   5   2 23.1254 2.45161   6
  -1   5   2 25.0866 2.16848   1
   1  -5   2 24.6664 2.10525   1
   1   5  -2 21.8531 2.19035   6
  -1  -5  -2 24.5359 2.24179   7
  -1   5   2 25.8572 2.23542   7
   1  -5   2 30.5825 2.46296   7
  -1  -5   2 29.6681 2.41207   7
  -1   5  -2 24.3424 2.33842   6
  -1  -5   2 31.5137 2.34463   1
  -1   5  -2 28.2593 2.21035   7
   1  -5  -2 24.9911 2.24217   7
   1   5   2 25.0387 2.14954   1
  -1   5  -2 29.7271 2.20035   1
   1   5   2 23.5149 2.04693   6
   1  -5  -2 23.8905 2.07743   1
   1  -5  -2 23.7326 2.16530   7
   1   5   2 25.4198 2.27890   7
  -2   5   2 12.3386 1.92610   7
   2   5  -2 10.6081 1.66335   6
   2   5  -2 10.8341 1.77208   2
   2   5  -2 10.2167 1.76302   7
   2  -5   2 10.0871 1.86817   2
  -2  -5  -2 12.2582 2.01261   1
  -2   5   2 10.5378 2.21067   6
   2  -5   2 14.2721 2.21721   4
  -2  -5  -2 13.1305 2.10882   7
  -2  -5  -2 13.0451 1.76340   7
  -2   5   2 10.5394 1.65995   1
   2  -5   2 10.0947 1.82868   7
   2  -5  -2 12.3691 2.70667   3
  -2   5  -2 8.76165 1.98853   6
   2  -5  -2 10.7634 1.87681   2
   2   5   2 10.1258 1.65979   7
  -2  -5   2 12.1172 1.95595   7
   2  -5  -2 10.9232 1.72072   7
   2   5   2 11.4469 2.21540   2
  -2   5  -2 8.98385 1.69514   1
  -2   5  -2 10.2863 1.79538   7
   2  -5  -2 11.8643 2.19483   2
  -2  -5   2 12.9163 2.02517   1
   2  -5  -2 10.6716 1.79540   7
   2   5   2 11.2023 1.41262   6
   3  -5   2 24.0824 2.36363   2
   3   5  -2 12.4015 1.88924   6
  -3  -5  -2 23.7878 2.09492   7
  -3   5   2 18.2151 2.37915   6
   3   5  -2 22.7882 2.21562   2
  -3   5   2 18.1479 1.83756   1
   3  -5   2 13.6168 2.33385   4
   3  -5   2 20.9013 2.07966   7
  -3  -5  -2 20.7568 2.08313   1
   3   5  -2 21.9258 1.96167   7
  -3  -5  -2 25.2043 2.21219   7
   3  -5   2 12.7838 3.14592   3
  -3   5  -2 21.4038 1.86561   1
   3  -5  -2 16.0546 2.13757   2
   3   5   2 22.2384 1.53128   6
   3  -5  -2 18.1281 2.17884   2
   3   5   2 14.8598 2.11315   2
   3  -5  -2 25.6758 2.11261   7
   3   5   2 18.9049 1.99732   7
  -3  -5   2 25.7015 2.13791   1
  -3   5  -2 23.0810 2.43720   6
   3  -5  -2 16.7698 2.73056   3
  -4  -5  -2 288.634 9.15263   1
   4   5  -2 279.920 9.29239   6
   4  -5   2 274.322 9.09662   7
  -4   5   2 280.818 10.2090   6
   4  -5   2 276.313 9.52466   2
  -4   5   2 278.580 9.07734   1
   4  -5   2 279.306 10.6542   4
   4   5  -2 271.781 9.38083   2
   4  -5   2 283.087 11.6948   3
   4   5  -2 276.382 9.52501   2
   4   5  -2 270.194 8.97969   7
   4  -5   2 272.756 9.64162   2
   4  -5  -2 279.563 11.0314   3
  -4  -5   2 285.186 9.10140   1
   4   5   2 277.373 9.80682   2
   4   5   2 272.633 9.71877   2
  -4   5  -2 266.966 8.89581   1
   4  -5  -2 255.218 8.80404   7
  -4   5  -2 279.763 9.79929   6
   4   5   2 274.743 9.11438   7
   4  -5  -2 277.113 9.36286   2
   4  -5  -2 264.163 11.1763   4
   4  -5  -2 271.812 9.46206   2
  -5   5   2 18.9545 1.89857   1
   5  -5   2 22.5440 3.55539   3
   5  -5   2 18.1151 3.06818   4
   5  -5   2 25.9335 2.42997   2
  -5  -5  -2 26.3210 2.13809   1
  -5   5   2 25.0088 2.74592   6
   5   5  -2 22.8744 2.26997   2
   5  -5   2 13.0674 2.02764   2
   5  -5   2 24.1223 2.89410   5
   5   5  -2 13.7978 1.96901   2
   5   5  -2 16.9525 1.81968   7
   5  -5   2 19.9942 2.11310   7
   5  -5  -2 22.6930 1.97854   7
   5  -5  -2 20.6138 3.38703   4
  -5   5  -2 24.5997 1.94818   1
   5  -5  -2 13.7321 3.05833   3
   5   5   2 25.7278 2.09765   7
   5  -5  -2 19.7890 2.29278   2
  -5   5  -2 24.4898 2.52814   6
   5   5   2 17.4373 2.29033   2
   5  -5  -2 19.4608 2.06926   2
  -5  -5   2 25.1053 2.12072   1
   6  -5   2 13.7173 2.01098   7
   6  -5   2 13.5072 3.61866   3
   6   5  -2 9.82520 1.82767   2
  -6   5   2 10.7534 1.54222   1
   6  -5   2 10.4859 1.98460   2
   6   5  -2 9.93788 1.58188   7
  -6   5   2 14.5737 2.88470   6
  -6  -5  -2 12.5250 2.01868   1
   6  -5   2 11.6970 2.91950   5
   6  -5  -2 14.6671 3.62840   4
   6   5   2 14.1532 2.48905   2
   6   5   2 12.8362 1.59466   7
   6  -5  -2 12.6260 2.20981   2
  -6   5  -2 14.7328 2.75033   6
   6  -5  -2 15.5422 2.91216   5
   6  -5  -2 13.3055 2.10558   2
  -6  -5   2 11.1022 1.88553   1
   6  -5  -2 9.83132 1.55296   7
  -6   5  -2 10.7689 1.75976   1
   6  -5  -2 12.2844 3.36627   3
   7  -5   2 12.9765 3.00293   5
   7   5  -2 10.4054 1.88386   2
  -7  -5  -2 14.6201 1.90521   1
   7  -5   2 10.7134 3.52690   3
  -7   5   2 13.1753 2.72101   6
   7   5  -2 11.4040 1.58981   7
   7  -5   2 12.3075 2.02002   2
   7  -5   2 13.6023 1.76309   7
  -7   5   2 12.0552 1.66514   1
  -7   5  -2 14.5357 3.42293   6
   7   5   2 8.90423 2.13890   2
   7  -5  -2 11.2207 1.39623   7
   7  -5  -2 14.6283 3.66391   4
   7   5   2 14.0714 1.57691   7
   7  -5  -2 11.0829 1.97683   2
   7  -5  -2 7.93814 2.53172   5
   7  -5  -2 9.76018 3.07967   3
  -7  -5   2 12.3418 1.78567   1
  -7   5  -2 9.68462 1.57003   1
   8  -5   2 108.435 7.31712   3
   8  -5   2 109.738 6.37363   5
   8   5  -2 106.305 4.76543   2
   8  -5   2 100.270 4.75797   2
   8  -5  -2 103.967 6.00973   5
   8  -5  -2 103.987 4.75263   2
   8  -5  -2 102.090 4.72616   2
   8   5   2 102.330 4.95094   2
   8  -5  -2 105.592 7.18351   3
   9  -5   2 10.8189 3.32327   5
   9   5  -2 13.8631 1.99318   2
   9  -5   2 14.5715 4.04821   3
   9  -5   2 8.79033 2.05662   2
   9  -5  -2 13.1321 2.11063   2
   9  -5  -2 14.0911 3.14282   5
   9   5   2 8.63012 2.12561   2
   9  -5  -2 10.5634 3.70263   3
  10   5  -2 11.9451 2.23667   2
  10  -5   2 12.6540 4.26433   3
  10  -5   2 9.36666 2.22979   2
  10  -5   2 11.4822 3.44906   5
  10   5   2 11.6917 2.37741   2
  10  -5  -2 18.6121 4.59376   3
  10  -5  -2 10.9988 2.22840   2
  10  -5  -2 10.4232 3.28758   5
  11   5  -2 3.85619 1.67160   2
  11  -5   2 2.92778 3.62996   3
  11  -5   2 2.99278 3.01421   5
  11  -5   2 2.13511 1.89849   2
  11   5   2 5.10794 1.93334   2
  11  -5  -2 7.54440 3.62974   3
  11  -5  -2 5.07872 3.09541   5
  11  -5  -2 7.33508 2.06286   2
  12  -5   2 32.6893 4.62041   5
  12  -5   2 33.5190 5.66493   3
  12  -5  -2 33.4957 6.12746   3
   0   6   2 430.048 13.6146   1
   0   6  -2 404.452 13.0320   1
   0  -6   2 444.582 13.6796   7
   0   6   2 448.014 13.7716   7
   0   6  -2 431.367 13.1842   7
   0   6  -2 417.787 13.5588   6
   0  -6  -2 431.904 13.2652   7
   0   6   2 435.786 13.8751   6
   0  -6  -2 402.311 13.0005   1
   0  -6   2 419.849 13.5336   1
  -1   6   2 11.0536 1.79776   1
   1  -6   2 14.1805 2.04105   7
  -1  -6  -2 7.60141 1.72821   7
  -1  -6  -2 13.6115 1.95917   7
  -1   6   2 12.0376 2.07769   6
  -1   6   2 17.3385 2.06593   7
   1   6  -2 9.84614 1.75288   6
  -1  -6  -2 7.38109 1.75187   1
   1  -6   2 15.8880 1.94737   1
   1   6  -2 11.4430 1.71598   7
   1   6  -2 14.2739 1.87205   1
   1   6   2 15.6371 2.08256   7
  -1   6  -2 11.6874 1.69543   1
   1  -6  -2 12.6588 1.83675   1
   1   6   2 16.0227 1.92400   1
   1  -6  -2 12.8964 1.97369   7
  -1   6  -2 14.4260 2.05156   6
   1   6   2 13.6382 1.82465   6
  -1   6  -2 12.5859 1.82914   7
  -1  -6   2 13.9446 1.97543   7
  -1  -6   2 12.7770 1.92272   1
  -2  -6  -2 165.383 6.43756   1
  -2   6   2 168.217 6.91144   6
   2   6  -2 182.898 6.53160   1
  -2   6   2 163.230 6.29797   1
  -2  -6  -2 173.684 6.57451   7
   2  -6   2 171.722 6.42717   7
   2   6  -2 162.048 6.62099   6
   2  -6   2 170.856 6.93845   2
   2   6  -2 163.969 6.40038   7
   2  -6   2 159.552 6.21855   1
  -2   6   2 152.568 6.23456   7
   2  -6   2 170.389 6.30517   1
   2   6   2 158.439 6.37949   7
   2  -6  -2 173.046 6.48754   7
   2  -6  -2 165.476 8.09925   3
   2  -6  -2 162.434 6.89687   2
   2   6   2 159.320 5.98829   6
  -2  -6   2 159.673 6.31544   7
  -2  -6   2 161.673 6.26047   1
  -2   6  -2 167.596 6.96852   6
   2   6   2 162.851 6.95579   2
  -2   6  -2 163.445 6.39843   7
   2   6   2 176.587 6.39722   1
   2  -6  -2 195.293 6.55152   1
  -2   6  -2 160.671 6.29088   1
   3   6  -2 13.0855 2.01458   2
   3  -6   2 9.50275 3.43292   3
  -3  -6  -2 14.5165 2.09056   7
   3  -6   2 7.75143 1.86438   7
  -3   6   2 15.1587 2.39866   6
   3  -6   2 10.5213 2.46866   4
   3   6  -2 5.79357 1.68852   6
  -3  -6  -2 12.9069 1.82509   1
  -3   6   2 6.49201 1.61367   1
   3   6  -2 8.14330 1.68299   7
   3  -6   2 11.9155 2.16257   2
   3   6   2 9.36193 1.36416   6
   3   6   2 12.0874 1.87927   7
   3  -6  -2 7.35558 2.01101   2
   3  -6  -2 7.31703 2.44688   3
   3   6   2 7.15988 2.14269   2
  -3  -6   2 11.8141 1.85171   1
  -3   6  -2 9.89090 2.21301   6
   3  -6  -2 12.8675 1.96189   7
  -3   6  -2 10.5824 1.70406   1
  -4   6   2 298.907 11.1364   6
   4  -6   2 311.492 10.7238   2
   4  -6   2 310.751 11.7557   4
   4   6  -2 292.126 10.2663   2
   4  -6   2 293.749 10.1095   7
   4   6  -2 305.461 10.1302   6
  -4  -6  -2 300.510 9.89276   1
   4   6  -2 292.266 9.78745   7
   4  -6   2 295.769 13.1085   3
  -4   6   2 307.138 10.1341   1
   4  -6  -2 285.892 12.3807   4
  -4  -6   2 325.449 10.2239   1
   4   6   2 324.893 10.3052   7
   4  -6  -2 279.730 11.7501   3
   4   6   2 302.929 10.9250   2
  -4   6  -2 296.973 10.5826   6
  -4   6  -2 289.448 9.69637   1
   4  -6  -2 311.658 9.81004   7
   4  -6  -2 291.294 10.3377   2
   5  -6   2 5.04667 2.87382   3
  -5  -6  -2 9.04865 1.90813   1
  -5   6   2 7.91866 2.41953   6
   5  -6   2 7.73959 1.80211   7
   5   6  -2 7.53118 1.61932   7
  -5   6   2 7.89654 1.69641   1
   5  -6   2 12.1966 2.20167   2
   5  -6   2 10.2870 2.93182   4
   5   6  -2 6.15071 1.83268   2
   5  -6   2 8.55960 2.45390   5
   5   6   2 4.67855 1.97791   2
  -5   6  -2 11.6979 1.70851   1
  -5  -6   2 7.56288 1.74911   1
   5  -6  -2 8.00666 1.67997   7
   5  -6  -2 6.35768 2.52489   3
   5  -6  -2 8.77653 2.90385   4
  -5   6  -2 12.6679 2.23850   6
   5   6   2 8.84759 1.77726   7
   5  -6  -2 7.93802 2.10135   2
  -6   6   2 95.9176 4.19539   1
   6   6  -2 89.7594 4.62963   2
   6  -6   2 91.0016 6.09879   4
   6  -6   2 94.6431 4.75203   2
  -6   6   2 94.2323 5.26050   6
   6  -6   2 94.8620 4.31080   7
   6   6  -2 87.5951 4.06660   7
  -6  -6  -2 89.2882 4.23320   1
   6  -6   2 94.8709 6.67632   3
   6  -6   2 93.8790 5.63295   5
  -6   6  -2 92.3227 4.16158   1
   6   6   2 93.3457 4.93739   2
  -6  -6   2 84.4827 4.15303   1
   6  -6  -2 92.1481 4.65404   2
   6   6   2 89.1418 4.11788   7
   6  -6  -2 92.8511 6.37898   3
   6  -6  -2 95.5218 6.66197   4
  -6   6  -2 84.3873 4.85094   6
   6  -6  -2 90.4763 4.05186   7
   7   6  -2 4.77964 1.76167   2
   7  -6   2 5.05215 2.67274   5
  -7   6   2 9.89717 2.67482   6
   7  -6   2 9.52477 3.50968   3
   7   6  -2 6.93952 1.56049   7
  -7  -6  -2 7.64038 1.78603   1
  -7   6   2 8.42612 1.69951   1
   7  -6   2 5.02173 1.96675   2
   7  -6   2 5.75621 1.69927   7
   7  -6  -2 5.59571 1.52168   7
   7  -6  -2 5.19590 2.05724   2
  -7  -6   2 2.83636 1.59611   1
   7  -6  -2 0.71590 2.06907   5
   7   6   2 6.03631 1.50477   7
   7   6   2 2.62367 1.81277   2
   7  -6  -2 5.06463 2.99414   4
   7  -6  -2 7.58469 3.20975   3
  -7   6  -2 5.57734 2.13653   6
  -7   6  -2 5.53142 1.56953   1
   8  -6   2 140.164 7.30111   5
  -8   6   2 131.533 7.98449   6
   8  -6   2 141.455 8.81118   3
   8   6  -2 133.090 5.89802   2
   8  -6   2 137.910 5.98966   2
  -8  -6  -2 135.972 5.47065   1
   8   6   2 132.013 6.10064   2
   8  -6  -2 149.781 8.74066   3
   8  -6  -2 142.153 7.26562   5
   8  -6  -2 139.758 6.01902   2
   9   6  -2 6.56367 1.90358   2
   9  -6   2 5.33207 3.04829   5
   9  -6   2 4.70667 2.04255   2
   9  -6   2 8.97520 3.87415   3
   9  -6  -2 2.11210 2.95394   3
   9  -6  -2 3.38923 2.55077   5
   9   6   2 6.65491 2.13067   2
   9  -6  -2 5.49523 2.13885   2
  10  -6   2 42.6728 4.87515   5
  10  -6   2 45.4708 3.42952   2
  10  -6   2 45.3807 5.91472   3
  10   6  -2 40.9541 3.16206   2
  10   6   2 40.8053 3.41790   2
  10  -6  -2 40.9025 3.24000   2
  10  -6  -2 41.2900 4.59200   5
  10  -6  -2 54.2936 6.04930   3
  11   6  -2 3.98146 1.90663   2
  11  -6   2 0.82058 1.93164   2
  11  -6   2 5.22488 3.26070   5
  11  -6   2 3.20988 3.86450   3
  11  -6  -2 -0.7727 3.30724   3
  11  -6  -2 1.03114 1.95449   2
  11   6   2 0.44642 1.84717   2
  11  -6  -2 3.11263 3.15579   5
  12  -6   2 57.7646 5.63174   5
  12  -6   2 52.7744 6.70349   3
  12  -6  -2 61.1491 6.46088   3
   0  -7  -2 38.0726 2.91538   1
   0   7  -2 40.7952 2.90751   1
   0   7  -2 43.3475 2.97830   7
   0  -7  -2 48.4875 3.25089   7
   0   7   2 44.7170 3.08389   1
   0   7  -2 48.6224 3.37373   6
   0  -7   2 48.3054 3.28440   7
   0   7   2 48.4983 3.31106   6
   0   7   2 48.6939 3.28158   7
   0  -7   2 42.2106 3.06774   1
   1   7  -2 0.91113 1.35975   1
   1   7  -2 2.50654 1.59622   6
  -1  -7  -2 1.36512 1.52568   1
  -1   7   2 3.55992 1.74218   6
   1  -7   2 1.14167 1.52222   1
  -1  -7  -2 4.04868 1.83729   7
   1  -7   2 2.09687 1.59261   7
  -1   7   2 1.94857 1.44613   1
   1   7  -2 2.83691 1.51069   7
  -1   7   2 0.96672 1.35216   7
  -1   7  -2 3.65426 1.43369   7
   1   7   2 2.44445 1.43319   6
   1   7   2 2.98909 1.50122   7
   1  -7  -2 3.23753 1.52264   1
  -1   7  -2 2.73420 1.61549   6
  -1   7  -2 1.86237 1.38973   1
  -1  -7   2 1.69306 1.65905   1
   1  -7  -2 2.94260 1.61675   7
  -1  -7   2 3.51627 1.78554   7
   1   7   2 3.83823 1.59954   1
  -2  -7  -2 1308.84 37.8708   1
   2   7  -2 1386.09 38.8582   2
   2   7  -2 1328.77 38.2563   6
   2  -7   2 1366.59 39.7451   2
   2  -7   2 1385.67 39.0455   7
  -2   7   2 1388.36 38.9757   1
  -2  -7  -2 1294.55 37.9595   7
  -2   7   2 1347.32 39.0059   7
   2  -7   2 1602.42 39.1806   1
   2   7  -2 1338.85 38.0208   7
   2   7   2 1381.14 39.9818   2
   2  -7  -2 1361.90 40.7458   3
  -2  -7   2 1243.15 38.7079   1
  -2   7  -2 1354.85 38.7632   6
   2  -7  -2 1349.27 37.9803   7
   2  -7  -2 1369.29 38.8188   2
  -2   7  -2 1390.96 38.0606   7
   2   7   2 1363.41 38.6985   6
  -2  -7   2 1445.02 39.1088   7
   2  -7  -2 1350.40 37.8929   1
   2   7   2 1379.72 39.1424   7
  -2   7  -2 1346.94 37.8811   1
   2   7   2 1357.65 38.9065   1
   3   7  -2 1.70243 1.36324   7
   3   7  -2 2.10911 1.49882   6
  -3   7   2 1.42938 1.76887   6
   3  -7   2 2.94835 2.15567   4
   3  -7   2 3.10718 1.69767   7
   3  -7   2 4.70037 3.89132   3
   3   7  -2 3.16790 1.70129   2
  -3  -7  -2 2.46904 1.47627   1
  -3   7   2 2.65548 1.44134   1
   3  -7   2 -0.0068 1.53787   2
  -3   7  -2 2.46130 1.50753   1
   3  -7  -2 2.97057 2.18216   3
  -3   7  -2 2.18653 1.72872   6
   3  -7  -2 2.51507 1.76013   2
   3   7   2 1.31708 1.75430   2
   3   7   2 -0.1157 1.36185   7
   3  -7  -2 1.68076 1.47275   7
   3   7   2 2.21271 1.25098   6
  -3  -7   2 -0.7759 1.34479   1
   4   7  -2 28.7146 2.56299   7
   4  -7   2 34.1689 2.88154   7
  -4   7   2 30.0215 2.57421   1
   4  -7   2 33.8256 3.13973   2
   4  -7   2 31.1454 4.73938   3
   4   7  -2 32.9937 2.97623   2
  -4   7   2 29.5583 3.25964   6
   4  -7   2 33.7138 3.72717   4
  -4  -7  -2 33.2076 2.77929   1
  -4   7  -2 30.2458 2.46480   1
  -4  -7   2 35.6844 2.85664   1
   4   7   2 35.3057 3.22525   2
   4  -7  -2 31.9736 4.33087   4
   4  -7  -2 30.0493 3.83214   3
   4   7   2 30.0364 2.64853   7
   4  -7  -2 33.1884 2.69717   7
   4  -7  -2 30.7177 3.03561   2
  -4   7  -2 34.4307 3.19017   6
  -5   7   2 3.45041 2.18702   6
   5  -7   2 5.23911 3.24489   3
   5  -7   2 1.96303 1.64183   7
   5   7  -2 2.41871 1.54047   7
  -5  -7  -2 1.02653 1.57190   1
  -5   7   2 1.11395 1.41511   1
   5  -7   2 3.12075 1.91100   2
   5  -7   2 2.75288 2.56580   4
   5   7  -2 4.18083 1.84767   2
   5  -7  -2 2.01406 2.30141   3
  -5   7  -2 3.36478 1.97790   6
   5  -7  -2 3.04770 1.87346   2
   5  -7  -2 3.07026 1.67004   7
   5   7   2 0.83500 1.74039   2
  -5   7  -2 1.41623 1.46934   1
   5   7   2 4.64030 1.54882   7
   5  -7  -2 0.40165 2.38910   4
  -5  -7   2 3.27927 1.79502   1
   6  -7   2 755.945 24.1263   5
  -6   7   2 770.594 24.1066   6
   6   7  -2 761.656 21.9254   7
   6   7  -2 738.077 22.6121   2
   6  -7   2 775.469 25.1914   4
   6  -7   2 768.304 26.5365   3
   6  -7   2 789.907 22.6089   7
   6  -7   2 761.300 23.2238   2
  -6   7   2 795.262 22.5457   1
  -6  -7  -2 711.394 21.8452   1
   6   7   2 760.801 22.5119   7
   6   7   2 774.092 23.5984   2
   6  -7  -2 758.513 21.7820   7
  -6  -7   2 752.375 22.5001   1
   6  -7  -2 746.504 25.6141   4
   6  -7  -2 716.568 25.0339   3
   6  -7  -2 765.637 22.7356   2
  -6   7  -2 767.325 21.9003   1
  -6   7  -2 747.727 23.0755   6
   7  -7   2 1.65353 2.50033   5
  -7  -7  -2 2.02257 1.61271   1
   7   7  -2 1.21068 1.41054   7
   7  -7   2 1.41990 3.04017   3
  -7   7   2 -0.6106 1.28515   1
   7  -7   2 3.30587 2.10829   2
   7  -7   2 1.00818 1.53608   7
  -7   7   2 0.78741 2.03753   6
   7   7  -2 3.98289 1.93849   2
   7  -7  -2 3.77308 2.95241   4
   7   7   2 1.12094 1.35867   7
  -7   7  -2 0.09947 1.74905   6
   7  -7  -2 2.85659 2.96222   3
   7  -7  -2 0.51054 1.82805   2
   7  -7  -2 -0.9816 1.35720   7
  -7   7  -2 1.79364 1.41894   1
   7   7   2 1.56901 1.84380   2
   7  -7  -2 -3.1525 2.02522   5
  -7  -7   2 1.78330 1.67634   1
   8  -7   2 20.0858 4.16454   5
  -8   7   2 19.8571 3.59324   6
   8   7  -2 14.9088 2.38696   2
   8  -7   2 20.6393 5.06353   3
  -8   7   2 11.7952 1.86862   1
   8  -7   2 14.1658 2.88388   2
  -8  -7  -2 16.4671 2.49941   1
   8   7  -2 12.6573 1.87331   7
  -8   7  -2 14.5192 2.06510   1
   8   7   2 13.0106 2.44953   2
   8   7   2 15.2409 1.89287   7
   8  -7  -2 21.4332 4.09519   5
  -8  -7   2 15.2185 2.32182   1
   8  -7  -2 15.9200 4.38437   3
   8  -7  -2 19.1419 3.08783   2
   8  -7  -2 16.0915 4.37305   4
  -8  -7   2 13.6078 2.22511   1
   9  -7   2 1.98930 1.97834   2
   9  -7   2 3.47872 3.04804   5
   9   7  -2 -0.9975 1.51100   2
   9  -7   2 3.48111 3.77501   3
   9  -7  -2 -1.4652 2.51666   5
   9  -7  -2 2.75515 3.29853   3
   9  -7  -2 1.93518 2.03349   2
   9   7   2 1.10825 1.79299   2
  10   7  -2 333.443 11.6289   2
  10  -7   2 327.464 13.4646   5
  10  -7   2 349.167 15.7334   3
  10  -7   2 339.463 11.7912   2
  10  -7  -2 341.521 13.5857   5
  10  -7  -2 308.871 14.8646   3
  10  -7  -2 345.012 11.6283   2
  10   7   2 332.658 11.8954   2
  11   7  -2 -0.3868 1.71390   2
  11  -7   2 -2.6522 1.96007   2
  11  -7   2 7.54429 3.47336   5
  11  -7   2 -4.7189 3.04006   3
  11  -7  -2 0.69379 3.09353   5
  11  -7  -2 0.44066 2.09469   2
  11  -7  -2 3.01408 3.61920   3
  11   7   2 0.03839 1.82957   2
  12  -7   2 -1.1018 3.28793   5
  12  -7   2 6.82563 4.75522   3
  12  -7  -2 2.43326 3.61936   3
   0  -8  -2 1254.49 35.7660   1
   0   8   2 1229.18 35.8148   6
   0  -8   2 1249.68 35.5081   1
   0   8  -2 1222.04 36.3339   6
   0   8  -2 1314.70 35.9095   1
   0   8   2 1304.68 35.6447   1
   0  -8  -2 1311.24 35.9929   7
   0   8   2 1206.46 35.5614   7
   0  -8   2 1231.96 35.6082   7
   0   8  -2 1183.88 35.7352   7
  -1   8   2 -0.0377 1.46436   1
  -1   8   2 -0.5939 1.37037   7
   1   8  -2 1.13247 1.54441   1
   1  -8   2 -0.2642 1.59415   7
  -1  -8  -2 0.56032 1.69468   7
  -1  -8  -2 -2.2359 1.31526   1
  -1   8   2 2.96506 1.82013   6
   1   8  -2 -0.7462 1.32284   7
   1  -8   2 0.02071 1.65410   1
   1   8  -2 1.66038 1.64571   6
   1  -8  -2 -2.0122 1.41021   1
   1   8   2 -0.5151 1.37220   6
   1   8   2 -0.0988 1.38816   1
  -1   8  -2 1.89946 1.77826   6
  -1   8  -2 -1.8831 1.04964   1
   1   8   2 1.50119 1.55450   7
  -1  -8   2 2.27809 1.74731   7
  -1   8  -2 -0.1860 1.29853   7
   1  -8  -2 -0.6229 1.61510   7
  -1  -8   2 -1.2494 1.52656   1
  -2   8   2 15.7042 2.63845   6
  -2  -8  -2 15.7705 2.60224   1
   2   8  -2 10.9876 2.34131   7
  -2   8   2 14.6063 2.52994   1
   2   8  -2 11.7164 2.43084   6
   2  -8   2 12.8218 2.54664   7
   2   8  -2 14.4648 2.55005   1
  -2   8   2 11.7919 2.29409   7
   2  -8   2 7.22351 2.11502   1
  -2  -8  -2 13.0868 2.55934   7
  -2  -8   2 13.9257 2.49317   1
   2  -8  -2 15.2726 3.93661   3
   2   8   2 13.1649 2.33832   7
  -2   8  -2 8.11526 2.39525   6
  -2   8  -2 13.3384 2.32166   1
  -2   8  -2 12.8610 2.35513   7
   2   8   2 15.8837 2.54886   1
   2   8   2 12.3036 1.92489   6
   2  -8  -2 11.3260 2.35149   1
  -2  -8   2 11.1881 2.47158   7
   2  -8  -2 16.2413 2.61816   7
   3  -8   2 0.23212 1.74087   7
  -3  -8  -2 0.10625 1.60913   1
   3  -8   2 4.46132 4.26284   3
   3   8  -2 -0.6329 1.30603   7
   3   8  -2 -0.1020 1.25901   6
  -3   8   2 -0.9558 1.33020   1
  -3   8   2 -1.4251 1.50717   6
   3  -8   2 -1.8012 1.78057   2
   3  -8   2 0.52884 2.00767   4
   3  -8  -2 -0.7319 2.11656   3
   3  -8  -2 -0.8543 1.74440   2
  -3  -8   2 -0.5331 1.48639   1
   3   8   2 -2.1950 1.36335   7
  -3   8  -2 -0.1632 1.53698   6
   3  -8  -2 -1.1212 1.48523   7
  -3   8  -2 0.01231 1.41544   1
   4   8  -2 915.355 26.6575   7
   4  -8   2 937.101 28.8841   4
  -4  -8  -2 880.317 26.5740   1
   4  -8   2 932.225 27.1870   7
  -4   8   2 907.947 28.2909   6
  -4   8   2 950.674 27.1373   1
   4  -8   2 880.307 32.4558   3
   4  -8   2 934.102 27.9803   2
   4   8  -2 912.986 27.3973   2
   4  -8  -2 927.749 27.5543   2
   4  -8  -2 919.717 29.6361   3
  -4   8  -2 911.030 26.5259   1
   4  -8  -2 880.946 30.6941   4
   4  -8  -2 936.126 26.5952   7
  -4  -8   2 956.986 27.1620   1
  -4   8  -2 913.509 27.6077   6
   4   8   2 940.852 28.2417   2
   4   8   2 920.518 27.1437   7
   5   8  -2 0.38340 1.41317   7
   5  -8   2 0.95274 1.90806   2
   5  -8   2 1.55620 2.21203   4
   5  -8   2 -1.1729 2.77121   3
  -5   8   2 1.79708 1.57291   1
  -5   8   2 -1.9856 1.73150   6
   5   8  -2 0.18035 1.59291   2
   5  -8   2 1.12867 1.74188   7
  -5  -8  -2 -0.8818 1.50828   1
   5   8   2 0.25731 1.37724   7
   5  -8  -2 -1.5200 1.79944   2
  -5  -8   2 -0.1676 1.67394   1
   5  -8  -2 -1.0887 1.58462   7
  -5   8  -2 2.29370 1.59499   1
  -5   8  -2 -0.1532 1.79463   6
   5   8   2 1.01066 1.81708   2
   5  -8  -2 -0.3114 2.39115   3
   5  -8  -2 -3.0492 1.94281   4
   6  -8   2 6.20215 3.16525   4
   6   8  -2 7.44454 2.32228   2
   6  -8   2 11.2831 2.87016   2
  -6   8   2 9.83718 3.03594   6
   6   8  -2 11.6588 2.20254   7
  -6   8   2 9.69966 2.12474   1
   6  -8   2 10.1881 4.08250   3
  -6  -8  -2 10.4584 2.35558   1
   6  -8   2 13.3970 2.44421   7
   6  -8   2 12.9027 3.19806   5
  -6   8  -2 8.62608 2.57264   6
   6  -8  -2 4.66491 3.19990   4
  -6   8  -2 11.5983 2.24268   1
  -6  -8   2 5.51093 2.16930   1
   6   8   2 11.4288 2.83878   2
   6  -8  -2 13.8427 4.00705   3
   6   8   2 8.24013 2.08850   7
   6  -8  -2 13.7171 3.00898   2
   6  -8  -2 6.32578 1.96269   7
   7   8  -2 0.05937 1.34253   7
  -7   8   2 -0.3392 1.40100   1
   7  -8   2 -1.7556 2.61218   3
   7   8  -2 0.02870 1.65102   2
   7  -8   2 -2.0091 2.25581   5
   7  -8   2 0.15684 2.04323   2
  -7  -8  -2 -0.5455 1.64693   1
   7  -8   2 -0.7533 2.51093   4
   7  -8   2 -1.5022 1.61161   7
  -7   8   2 0.16160 1.89247   6
   7   8   2 -1.9611 1.60949   2
   7  -8  -2 -1.6142 2.51576   3
   7  -8  -2 -1.3011 1.45412   7
  -7   8  -2 0.30658 1.46218   1
   7   8   2 -1.2488 1.23406   7
  -7   8  -2 -0.0315 1.82564   6
   7  -8  -2 1.31861 2.04028   2
   7  -8  -2 -0.9047 2.85230   4
  -7  -8   2 1.42113 1.82415   1
   8  -8   2 510.835 15.1792   7
   8   8  -2 482.564 15.9585   2
  -8  -8  -2 494.561 15.2515   1
   8  -8   2 503.586 20.0429   3
   8  -8   2 479.620 16.0867   2
   8  -8   2 492.870 17.4935   5
  -8   8   2 481.892 16.8942   6
  -8   8   2 494.448 15.1932   1
   8   8  -2 480.777 14.8224   7
   8   8   2 477.405 16.3043   2
   8  -8  -2 502.192 17.6427   5
  -8   8  -2 481.165 15.0663   1
  -8  -8   2 475.084 15.1532   1
   8  -8  -2 485.505 14.7190   7
   8   8   2 499.924 15.0529   7
   8  -8  -2 492.637 19.3041   3
   8  -8  -2 487.376 15.9794   2
   8  -8  -2 459.139 18.9360   4
   9  -8   2 -0.7253 2.77587   5
   9  -8   2 0.79496 2.10924   2
   9  -8   2 -2.4646 3.46597   3
   9   8  -2 -0.5506 1.64103   2
   9   8   2 -1.9269 1.66060   2
   9  -8  -2 1.55135 2.21122   2
   9  -8  -2 -0.9921 2.84923   3
   9  -8  -2 2.77054 2.93643   5
  10  -8   2 3.62878 3.28051   5
  10  -8   2 13.3810 3.12014   2
  10   8  -2 10.9102 2.73875   2
  10  -8   2 6.66043 4.29098   3
  10  -8  -2 7.87863 4.04718   3
  10   8   2 7.38306 2.42214   2
  10  -8  -2 9.18089 2.69476   2
  10  -8  -2 3.32610 3.31057   5
  11  -8   2 -0.2047 3.19690   5
  11  -8   2 -0.0908 3.75945   3
  11  -8  -2 2.12638 3.39829   5
  11  -8  -2 -2.0997 3.34891   3
   0   9   2 4.98781 2.04059   6
   0  -9  -2 0.02079 1.89374   7
   0   9  -2 4.13698 1.68474   7
   0   9   2 2.92663 1.83725   7
   0   9   2 3.22966 1.89575   1
   0  -9   2 6.74292 2.30902   1
   0   9  -2 2.88685 2.08449   6
   0  -9  -2 -0.6820 1.64445   1
   0  -9   2 5.58249 2.19137   7
   0   9  -2 1.48106 1.63453   1
   1   9  -2 2.08865 1.86721   6
  -1  -9  -2 4.01524 1.91020   1
   1  -9   2 0.74510 1.79491   7
  -1   9   2 2.97968 1.68270   7
  -1   9   2 2.42218 1.78154   1
   1   9  -2 2.61737 1.74351   7
  -1   9   2 4.87067 2.19277   6
  -1  -9  -2 3.24089 2.01990   7
   1   9  -2 1.80702 1.67085   1
   1  -9   2 4.22944 2.00695   1
  -1  -9   2 2.37004 1.93728   1
  -1  -9   2 1.77967 1.92959   7
  -1   9  -2 3.65025 2.17394   6
   1  -9  -2 3.72902 2.10609   7
   1   9   2 3.50208 1.87024   1
   1   9   2 0.73029 1.61883   7
   1   9   2 1.37093 1.56105   6
   1  -9  -2 1.22760 1.78798   1
  -1   9  -2 1.94181 1.59484   1
  -1   9  -2 2.59028 1.74566   7
   2  -9   2 938.028 27.6375   7
   2  -9   2 989.203 27.4525   1
  -2  -9  -2 904.074 27.0300   7
  -2   9   2 951.865 28.4376   6
  -2   9   2 947.332 27.5476   1
   2   9  -2 913.390 27.3071   6
   2   9  -2 956.962 27.0513   1
  -2  -9  -2 823.013 26.6950   1
  -2   9   2 952.124 29.0278   7
   2   9  -2 921.544 27.0966   7
   2   9   2 947.414 27.4591   6
  -2   9  -2 907.525 26.8604   1
   2   9   2 925.165 27.6098   7
  -2   9  -2 896.379 27.7694   6
  -2  -9   2 802.384 27.1340   1
  -2   9  -2 910.203 27.0049   7
   2  -9  -2 944.787 27.0156   7
  -2  -9   2 956.136 27.6528   7
   2   9   2 939.811 27.4389   1
   2  -9  -2 967.506 30.6550   3
  -3  -9  -2 2.06378 1.88955   1
  -3   9   2 -0.0564 1.61557   1
   3  -9   2 0.53367 1.87563   7
   3   9  -2 2.97869 1.75895   7
   3  -9   2 1.92309 2.39024   4
   3  -9   2 0.51429 4.86233   3
  -3   9   2 3.18658 2.27654   6
   3   9  -2 4.35033 1.83176   6
  -3   9  -2 4.04988 2.22899   6
   3   9   2 3.39204 1.82032   7
   3  -9  -2 3.23310 2.01725   7
   3  -9  -2 5.68896 2.83722   3
  -3  -9   2 4.50663 2.07453   1
  -3   9  -2 3.87504 1.82244   1
   4  -9   2 8.59985 5.21813   3
  -4   9   2 2.76523 2.28393   6
   4  -9   2 2.38953 2.56802   4
  -4   9   2 2.76758 1.87890   1
   4  -9   2 3.91007 2.12333   7
   4   9  -2 3.20526 1.80596   7
  -4  -9  -2 3.56969 2.00890   1
  -4   9  -2 5.45933 1.96784   1
  -4   9  -2 1.37161 1.87241   6
   4   9   2 4.11055 1.85129   7
  -4  -9   2 2.49252 2.09264   1
   4  -9  -2 1.04274 3.60940   4
   4  -9  -2 1.44132 1.93650   7
   4  -9  -2 6.67553 2.99037   3
   5  -9   2 7.99917 4.52069   3
   5   9  -2 2.56750 1.76186   7
   5  -9   2 3.63903 2.09004   7
  -5   9   2 2.23931 1.75371   1
  -5   9   2 3.11806 2.32795   6
   5  -9   2 6.81661 2.90540   4
  -5  -9  -2 3.77265 2.09732   1
   5  -9  -2 1.53707 2.94903   4
  -5  -9   2 2.04000 1.91074   1
   5   9   2 4.53987 1.90766   7
   5  -9  -2 4.66438 2.09129   7
  -5   9  -2 0.29799 1.93521   6
   5  -9  -2 4.85250 2.52096   2
   5  -9  -2 1.03310 2.50646   3
  -5   9  -2 3.54718 1.73109   1
  -6  -9  -2 522.704 16.4073   1
   6  -9   2 554.574 17.6891   2
  -6   9   2 520.323 17.9888   6
   6   9  -2 532.431 17.2909   2
   6  -9   2 510.747 16.5514   7
  -6   9   2 517.201 16.5164   1
   6   9  -2 528.676 16.3022   7
   6  -9   2 544.154 22.0238   3
   6  -9   2 533.335 19.0446   4
   6  -9  -2 534.816 17.3533   2
   6   9   2 550.128 20.7321   2
   6   9   2 527.924 16.5886   7
   6  -9  -2 509.583 20.1549   4
  -6  -9   2 524.917 16.6391   1
   6  -9  -2 525.120 19.7411   3
  -6   9  -2 490.356 17.3415   6
   6  -9  -2 508.494 16.1645   7
  -6   9  -2 504.735 16.2000   1
  -7   9   2 2.42751 2.37784   6
   7   9  -2 0.41926 1.43566   7
   7   9  -2 4.35126 2.20977   2
   7  -9   2 4.25584 2.44396   2
   7  -9   2 4.65230 3.88938   3
  -7  -9  -2 1.47508 1.97516   1
   7  -9   2 2.69026 3.08443   4
  -7   9   2 2.31613 1.68429   1
   7  -9   2 3.21853 1.99604   7
   7  -9   2 -0.8140 2.77517   5
   7  -9  -2 3.12801 3.21730   3
  -7   9  -2 2.88592 1.72859   1
  -7  -9   2 2.80151 1.96750   1
   7   9   2 2.14242 1.62320   7
   7  -9  -2 2.32201 2.36109   2
   7  -9  -2 2.99023 1.82743   7
  -7   9  -2 3.80560 2.34840   6
   7  -9  -2 7.05070 3.70778   4
   7   9   2 3.38424 2.33739   2
   8  -9   2 -0.6972 2.64548   5
   8   9  -2 2.07214 2.05771   2
   8  -9   2 -2.5606 1.94968   2
   8  -9   2 6.31743 4.09062   3
  -8  -9  -2 2.92343 1.99909   1
  -8   9   2 3.36328 2.34484   6
   8  -9   2 0.69135 1.87129   7
  -8   9   2 2.45223 1.64156   1
   8   9  -2 1.22978 1.59252   7
   8  -9  -2 0.96604 2.11599   2
   8   9   2 3.03759 2.22218   2
  -8  -9   2 2.57078 1.96432   1
   8  -9  -2 5.21992 2.10841   7
  -8   9  -2 4.60459 3.09626   6
   8   9   2 3.50665 1.72137   7
   8  -9  -2 5.14068 3.20915   5
   8  -9  -2 0.72099 3.40006   3
   8  -9  -2 3.94309 3.28017   4
  -8   9  -2 2.45335 1.78774   1
   9  -9   2 6.16797 3.40787   5
   9  -9   2 3.23992 2.33359   2
  -9  -9  -2 0.62090 1.95502   1
   9  -9   2 -2.6531 3.46593   3
   9   9  -2 3.28739 2.08100   2
   9   9   2 0.51154 2.04988   2
   9  -9  -2 3.25378 3.69083   3
   9  -9  -2 1.64495 3.34241   5
   9  -9  -2 4.21548 2.53058   2
  10  -9   2 218.574 10.7126   5
  10  -9   2 223.076 9.27226   2
  10   9  -2 235.136 9.49644   2
  10  -9   2 237.207 13.4887   3
  10  -9  -2 233.008 9.33882   2
  10   9   2 232.140 9.38642   2
  10  -9  -2 233.794 11.3417   5
  10  -9  -2 226.272 12.3646   3
  11  -9   2 -1.6836 3.19294   5
  11  -9   2 3.81239 4.50143   3
  11  -9  -2 1.49026 3.34716   3
  11  -9  -2 3.02286 3.54952   5
   0 -10  -2 193.559 8.02528   1
   0  10   2 216.816 8.31735   7
   0 -10   2 194.842 8.12180   7
   0  10  -2 198.288 8.05197   1
   0  10  -2 202.733 8.11266   7
   0 -10   2 184.934 7.93265   1
   0 -10  -2 204.612 8.20733   7
   0  10   2 204.569 8.33939   6
   0  10  -2 193.754 8.48630   6
   0  10   2 187.350 7.98239   1
   1  10  -2 20.1159 2.58574   7
  -1  10   2 11.9432 2.82672   6
   1  10  -2 19.0722 2.63227   1
  -1 -10  -2 18.9736 2.81341   1
  -1 -10  -2 19.1773 2.83987   7
   1 -10   2 19.4649 2.79421   1
  -1  10   2 12.2941 2.57753   1
  -1  10   2 19.4365 2.68967   7
   1  10  -2 19.2518 2.75932   6
   1 -10   2 21.5165 2.95816   7
  -1  10  -2 17.9906 2.45320   7
   1  10   2 16.5398 2.53192   6
   1  10   2 17.8721 2.49817   1
   1 -10  -2 11.0409 2.61710   1
  -1 -10   2 23.4928 2.99748   7
  -1  10  -2 15.9997 2.72100   6
  -1  10  -2 15.8953 2.44129   1
   1 -10  -2 16.7825 2.74513   7
   1  10   2 15.4129 2.53735   7
  -1 -10   2 12.7788 2.75063   1
  -2  10   2 88.2051 5.44417   6
   2  10  -2 91.3231 5.03394   7
   2  10  -2 90.2882 4.95978   1
  -2  10   2 95.3370 5.01990   1
   2  10  -2 88.3468 5.15711   6
   2 -10   2 101.904 5.80044   1
  -2 -10  -2 82.9306 5.01472   1
   2 -10   2 86.3286 4.98263   7
  -2  10  -2 93.3859 5.49734   6
  -2  10  -2 91.0621 4.95077   1
   2  10   2 94.8033 4.94277   1
  -2 -10   2 79.6588 4.86581   1
   2 -10  -2 91.6283 5.06653   7
   2  10   2 83.2420 4.84980   7
   2  10   2 88.8201 4.88902   6
   2 -10  -2 112.450 7.84769   3
   3 -10   2 17.2131 2.69198   7
  -3  10   2 8.48617 2.64123   6
   3 -10   2 8.24884 7.22517   3
   3  10  -2 10.6608 2.48048   6
   3 -10   2 10.1991 3.19317   4
   3  10  -2 18.0918 2.58546   7
  -3 -10  -2 15.1132 2.88363   1
  -3  10   2 9.85993 2.32020   1
  -3 -10   2 17.4381 2.73131   1
   3 -10  -2 13.5076 2.72840   7
  -3  10  -2 11.4257 2.77752   6
   3  10   2 11.7033 2.45833   7
   3 -10  -2 13.0040 3.88448   3
  -3  10  -2 10.4110 2.34061   1
   4 -10   2 140.522 12.2752   3
   4  10  -2 137.492 6.36678   7
  -4  10   2 141.134 7.20267   6
   4 -10   2 149.428 6.67368   7
   4 -10   2 135.888 7.72743   4
  -4  10   2 141.509 6.37499   1
  -4 -10  -2 127.070 6.29412   1
   4 -10  -2 139.382 8.69018   3
  -4 -10   2 142.007 6.53965   1
   4 -10  -2 155.408 11.1062   4
   4 -10  -2 145.845 6.50413   7
   4  10   2 148.214 6.55695   7
  -4  10  -2 144.576 7.15794   6
  -4  10  -2 142.900 6.35105   1
   5  10  -2 9.93980 2.27934   7
   5 -10   2 12.0627 3.40679   4
  -5  10   2 12.9003 2.48377   1
  -5 -10  -2 18.8877 2.85555   1
   5 -10   2 10.8434 2.60392   7
  -5  10   2 9.78616 2.87024   6
   5 -10   2 15.6173 5.61322   3
   5  10   2 14.9450 2.42796   7
  -5  10  -2 15.7989 2.48312   1
  -5 -10   2 18.9932 2.88405   1
   5 -10  -2 17.5726 4.22092   3
   5 -10  -2 14.2329 2.75517   7
   5 -10  -2 9.01062 4.33172   4
  -5  10  -2 11.8638 2.95629   6
   6 -10   2 57.9239 4.02364   7
   6 -10   2 52.2253 7.13645   3
  -6  10   2 54.8695 4.53342   6
   6  10  -2 59.9809 3.87674   7
  -6  10   2 57.5024 3.74963   1
   6 -10   2 54.7295 5.27870   4
  -6 -10  -2 61.1907 4.14402   1
  -6  10  -2 59.2424 4.55787   6
  -6 -10   2 51.0642 3.88010   1
   6 -10  -2 54.1286 5.74943   3
   6 -10  -2 55.1147 6.43334   4
   6  10   2 55.2451 3.77354   7
   6 -10  -2 49.4745 3.78515   7
  -6  10  -2 60.9678 3.89991   1
   7  10  -2 5.82067 1.85106   7
  -7  10   2 11.8519 3.12743   6
   7 -10   2 8.44054 2.48267   7
   7 -10   2 5.40106 4.53200   3
  -7 -10  -2 8.87920 2.44343   1
  -7  10   2 7.72427 2.17458   1
   7 -10   2 6.11915 3.30238   4
   7 -10   2 10.1678 3.21978   5
  -7  10  -2 5.26758 2.06511   1
   7  10   2 6.75095 2.05471   7
   7 -10  -2 4.80294 2.16444   7
   7 -10  -2 5.99423 3.91419   4
  -7 -10   2 7.25122 2.31956   1
   7 -10  -2 6.25193 3.80921   3
  -7  10  -2 5.11197 2.50949   6
  -8  10   2 60.0761 4.87178   6
   8  10  -2 56.6282 3.66329   7
   8 -10   2 67.5548 7.69578   3
  -8 -10  -2 66.5227 4.18617   1
   8 -10   2 55.4507 3.85579   7
  -8  10   2 58.5974 3.74906   1
   8 -10   2 56.8878 5.49956   5
   8 -10  -2 61.3320 6.60469   4
   8 -10  -2 68.2644 6.73278   3
  -8  10  -2 53.2601 3.74384   1
   8  10   2 50.4752 3.55145   7
  -8  10  -2 62.2886 4.76646   6
   8 -10  -2 56.0772 3.77074   7
  -8 -10   2 51.3751 3.80093   1
   8 -10  -2 48.5672 5.55254   5
   8 -10  -2 60.7232 6.10435   2
   9 -10   2 4.81768 2.79215   2
  -9 -10  -2 8.14348 2.42582   1
   9 -10   2 7.88974 3.49050   5
   9 -10   2 7.92340 4.85609   3
   9 -10  -2 6.04908 2.86063   2
   9 -10  -2 6.09816 3.95216   3
  -9 -10   2 6.54527 2.37650   1
   9 -10  -2 8.26696 4.62640   4
  -9 -10   2 8.46715 2.58254   1
  -9  10  -2 9.07059 2.66526   1
   9 -10  -2 14.0662 4.61121   5
  10 -10   2 28.0679 3.67888   2
  10 -10   2 34.3030 5.01663   5
  10 -10   2 40.0141 8.16567   3
  10 -10  -2 29.7251 5.25064   3
  10 -10  -2 36.6757 6.01367   5
  10 -10  -2 34.1563 3.88254   2
  11 -10   2 1.24902 3.43079   5
  11 -10   2 6.45813 4.99780   3
  11 -10  -2 -0.7134 4.25777   3
  11 -10  -2 2.83698 3.99940   5
   0  11   2 3.65122 2.02131   7
   0  11   2 4.75871 2.37053   6
   0 -11   2 4.19906 2.46301   1
   0  11  -2 3.32651 2.00740   1
   0 -11   2 2.34002 2.38745   7
   0 -11  -2 1.10705 2.18797   1
   0  11  -2 2.78229 1.98453   7
   0  11   2 2.76239 1.95016   1
   0 -11  -2 4.33401 2.48186   7
   0  11  -2 2.65556 2.31469   6
  -1  11   2 16.9333 2.97614   6
   1  11  -2 18.6611 2.69429   1
   1 -11   2 20.3670 3.01439   7
  -1 -11  -2 19.9447 2.99926   1
   1  11  -2 19.3884 2.80844   7
   1  11  -2 13.2792 2.91717   6
  -1 -11  -2 20.0610 3.01708   7
   1 -11   2 20.2228 3.05685   1
  -1  11   2 13.8797 2.73560   7
  -1  11   2 16.7907 2.62624   1
  -1  11  -2 20.4929 2.75247   1
   1  11   2 19.5313 2.82572   6
  -1 -11   2 23.8249 3.26988   1
   1  11   2 11.7248 2.56109   1
   1 -11  -2 17.5759 2.80845   7
  -1  11  -2 20.1672 2.73605   7
  -1  11  -2 17.3025 3.02054   6
   1 -11  -2 12.6907 2.86404   1
  -1 -11   2 16.5369 3.24313   7
   1  11   2 20.8588 2.85755   7
   2 -11   2 277.293 10.3574   7
   2  11  -2 270.589 10.6667   6
   2  11  -2 265.564 10.3717   7
  -2 -11  -2 308.361 10.7752   1
  -2  11   2 270.381 10.1737   1
  -2  11   2 265.912 10.8007   6
  -2 -11   2 282.283 10.3553   1
   2 -11  -2 291.872 13.4977   3
  -2  11  -2 274.670 11.1738   6
   2 -11  -2 277.498 10.4608   7
   2  11   2 261.297 10.2388   7
  -2  11  -2 275.971 10.3579   1
   3 -11   2 7.57914 3.47901   4
   3 -11   2 19.4728 3.07071   7
  -3  11   2 9.80915 2.56990   1
  -3  11   2 10.6315 2.92130   6
   3 -11   2 12.8415 6.66600   3
   3  11  -2 6.48156 2.16331   7
  -3 -11  -2 11.8907 2.83895   1
   3  11   2 8.72274 2.41430   7
   3 -11  -2 8.55702 2.59169   7
  -3  11  -2 5.98442 2.27565   1
  -3 -11   2 12.4609 2.96443   1
   3 -11  -2 9.70191 3.72900   3
  -3  11  -2 12.5042 3.06058   6
   4 -11   2 1.79026 2.75067   4
  -4 -11  -2 4.61524 2.44238   1
  -4  11   2 7.99365 2.80563   6
  -4  11   2 6.47938 2.26928   1
   4 -11   2 0.15323 5.63052   3
   4  11  -2 3.69406 1.90528   7
   4 -11   2 2.51577 2.28525   7
   4 -11  -2 5.92017 5.25821   4
  -4 -11   2 0.11547 2.02534   1
   4 -11  -2 6.76125 3.68978   3
   4 -11  -2 -1.3394 1.97555   7
   4  11   2 1.93439 1.84156   7
  -4  11  -2 2.54662 1.95992   1
  -4  11  -2 2.25884 2.29213   6
   5  11  -2 21.6186 2.76375   7
  -5  11   2 13.3743 3.12767   6
  -5 -11  -2 19.4499 2.97668   1
   5 -11   2 17.9020 3.90739   4
   5 -11   2 22.3375 3.10742   7
   5 -11   2 16.3690 6.76662   3
  -5  11   2 17.1188 2.62090   1
   5 -11  -2 20.7546 2.93287   7
  -5  11  -2 22.6744 3.40227   6
  -5 -11   2 24.9983 3.22868   1
   5 -11  -2 17.0528 5.46710   4
   5  11   2 17.2349 2.61851   7
  -5  11  -2 15.5558 2.42863   1
   5 -11  -2 16.3579 4.45556   3
   6 -11   2 156.916 8.68902   4
   6 -11   2 150.326 6.88046   7
   6  11  -2 160.357 6.93908   7
  -6  11   2 142.780 6.64153   1
  -6  11   2 166.969 8.08533   6
   6 -11   2 140.959 11.7410   3
  -6 -11  -2 166.878 7.12751   1
  -6  11  -2 159.124 7.94849   6
   6 -11  -2 147.004 9.50877   3
  -6  11  -2 150.129 6.75484   1
   6 -11  -2 154.451 6.90249   7
   6 -11  -2 162.026 10.7640   4
   6  11   2 153.968 6.81859   7
  -6 -11   2 157.051 6.93155   1
  -7  11   2 3.12778 1.92993   1
  -7 -11  -2 3.96928 2.39352   1
   7 -11   2 -1.6820 2.61472   5
   7  11  -2 3.15696 1.85606   7
   7 -11   2 9.18491 3.63725   4
  -7  11   2 2.86517 2.50405   6
   7 -11   2 4.49650 2.46663   7
   7 -11   2 0.24091 4.45929   3
   7 -11  -2 6.23134 3.75536   3
   7  11   2 5.43829 2.05791   7
   7 -11  -2 0.37092 3.57545   4
  -7 -11   2 1.49563 2.17889   1
  -7  11  -2 2.17266 1.72553   1
  -7  11  -2 2.06997 2.39996   6
   7 -11  -2 2.27562 2.05100   7
  -8 -11  -2 2.78646 2.34571   1
   8  11  -2 9.75690 2.36063   7
   8 -11   2 2.12282 2.21475   7
   8 -11   2 6.05391 3.64743   5
  -8  11   2 2.38757 1.86521   1
   8 -11   2 4.90329 5.05662   3
   8 -11  -2 4.85118 3.90460   5
   8 -11  -2 -1.4067 3.54608   4
   8 -11  -2 -2.0116 2.99933   3
  -8  11  -2 5.10348 2.13252   1
   8 -11  -2 3.93588 2.25451   7
  -8 -11   2 -0.2312 2.12758   1
  -8  11  -2 1.45398 2.33345   6
   8  11   2 0.45863 1.60037   7
  -9 -11  -2 12.8429 2.81271   1
   9 -11   2 15.0957 6.00919   3
  -9  11   2 9.89787 2.28250   1
   9 -11   2 10.6868 3.81718   5
   9 -11  -2 15.4507 4.67933   5
  -9 -11   2 11.7860 2.81519   1
  -9  11  -2 9.89796 2.31329   1
  -9 -11   2 12.8606 2.82518   1
   9 -11  -2 12.4986 4.78447   3
  10 -11   2 69.6721 6.16474   5
  10 -11   2 59.0141 8.45782   3
  10 -11  -2 67.7057 7.33374   3
  10 -11  -2 65.3858 6.95711   5
   0  12  -2 71.9465 5.07177   6
   0  12  -2 83.0958 4.96707   7
   0 -12   2 69.1868 4.66016   1
   0  12   2 72.8303 4.73215   7
   0  12   2 67.1027 4.49531   1
   0  12  -2 82.6681 4.90372   1
   0 -12   2 70.4668 4.81500   7
   0 -12  -2 72.6362 4.91460   7
   0 -12  -2 76.7979 5.02969   1
   0  12   2 70.9495 4.91830   6
  -1  12   2 14.0028 3.19266   6
   1  12  -2 13.7339 3.13717   6
  -1 -12  -2 26.7299 3.36565   7
   1 -12   2 15.4230 3.05205   1
   1  12  -2 20.3439 2.88682   1
  -1 -12  -2 17.7397 3.23668   1
   1  12  -2 23.6881 2.94178   7
  -1  12   2 13.8080 2.82925   1
   1 -12   2 20.0085 3.11506   7
  -1  12  -2 20.5798 2.92070   1
   1  12   2 15.6572 3.03434   1
   1 -12  -2 23.9462 3.20107   7
  -1  12  -2 17.3189 2.95463   6
   1  12   2 22.1086 3.07311   7
   1 -12  -2 14.4802 3.09480   1
  -1 -12   2 22.7100 3.27253   7
   1  12   2 18.0671 2.88070   6
  -1 -12   2 16.7214 3.20232   1
  -1  12  -2 17.7307 2.87187   7
  -2 -12  -2 149.577 6.92713   1
   2 -12   2 132.307 6.85572   7
  -2  12   2 135.117 7.29972   6
   2  12  -2 131.155 6.63834   7
   2  12  -2 145.455 6.98529   6
  -2  12   2 139.891 6.67375   1
   2 -12  -2 148.338 9.25012   3
  -2  12  -2 128.247 7.13124   6
  -2 -12   2 170.871 7.35393   1
   2 -12  -2 141.750 6.88905   7
   2  12   2 137.222 6.78455   7
  -2  12  -2 133.461 6.65611   1
  -3 -12  -2 12.7627 3.06233   1
  -3  12   2 10.7255 3.15198   6
  -3  12   2 11.2417 2.65309   1
   3 -12   2 20.1268 4.21042   4
   3 -12   2 19.2758 3.00737   7
   3 -12   2 9.72351 5.32746   3
   3  12  -2 10.0480 2.52297   7
   3 -12  -2 15.6425 4.54294   3
   3 -12  -2 15.6912 3.11547   7
   3  12   2 12.6795 2.76759   7
  -3  12  -2 10.7524 2.62746   1
  -3  12  -2 12.1240 2.96317   6
  -3 -12   2 13.6710 3.13227   1
   4  12  -2 50.2664 3.80057   7
   4 -12   2 59.2242 5.40948   4
   4 -12   2 48.0929 4.11298   7
   4 -12   2 65.7712 10.5204   3
  -4  12   2 45.2026 4.38752   6
  -4  12   2 49.4011 3.90122   1
  -4 -12  -2 50.0439 4.20291   1
  -4  12  -2 49.4425 4.52541   6
   4 -12  -2 43.3404 7.10832   4
   4 -12  -2 50.3222 4.06974   7
  -4 -12   2 50.1320 4.11919   1
   4 -12  -2 51.6400 6.27187   3
  -4  12  -2 43.9434 3.67144   1
   4  12   2 48.5558 3.85445   7
  -5  12   2 19.0207 2.79977   1
  -5 -12  -2 17.4600 3.27426   1
   5  12  -2 17.5300 2.74090   7
   5 -12   2 16.1604 3.27814   7
  -5  12   2 15.8508 3.64127   6
   5 -12   2 14.3773 7.84947   3
   5 -12   2 10.2516 3.61517   4
   5  12   2 18.2522 2.79475   7
   5 -12  -2 19.4469 2.92251   7
   5 -12  -2 15.5022 4.70687   3
  -5  12  -2 19.7433 3.35451   6
   5 -12  -2 18.3991 6.20259   4
  -5  12  -2 13.3479 2.74911   1
  -5 -12   2 12.6780 2.95513   1
  -6  12   2 91.7509 6.10418   6
  -6 -12  -2 95.8696 5.46607   1
   6 -12   2 86.4183 6.66532   4
   6 -12   2 97.3469 11.1045   3
   6 -12   2 93.9508 5.31090   7
  -6  12   2 79.8811 4.89370   1
   6  12  -2 86.5752 4.98310   7
  -6 -12   2 96.5577 5.31115   1
   6 -12  -2 81.5949 7.47322   3
   6 -12  -2 105.514 9.28186   4
   6  12   2 81.7689 5.01315   7
  -6  12  -2 83.5765 4.90840   1
  -6  12  -2 88.5766 5.89612   6
   6 -12  -2 87.1503 5.23562   7
  -7 -12  -2 3.96598 2.44602   1
  -7  12   2 4.83074 2.08007   1
   7 -12   2 7.89637 2.57305   7
   7 -12   2 8.02386 3.22405   5
   7 -12   2 8.48144 6.54397   3
   7 -12   2 4.15774 3.42685   4
   7  12  -2 7.14863 2.33145   7
   7 -12  -2 4.96011 3.86912   3
   7 -12  -2 8.38977 2.59129   7
  -7 -12   2 6.40395 2.45455   1
   7 -12  -2 4.68394 4.57907   4
   7  12   2 11.5346 2.42089   7
  -7  12  -2 10.4144 2.44442   1
  -8  12   2 24.7361 2.86677   1
   8  12  -2 28.5278 3.03677   7
   8 -12   2 23.8883 3.18187   7
  -8 -12  -2 27.1836 3.33002   1
   8 -12   2 32.8795 5.89253   4
   8 -12   2 24.0197 4.84572   5
   8 -12   2 42.5956 9.15069   3
   8 -12  -2 26.2632 3.15520   7
   8 -12  -2 29.4877 6.11820   3
   8  12   2 26.3736 2.98624   7
   8 -12  -2 23.8559 5.89859   5
  -8  12  -2 25.5012 3.04638   1
   8 -12  -2 39.6275 7.59001   4
  -8 -12   2 26.7671 3.32405   1
   9 -12   2 7.39909 5.38934   3
  -9 -12  -2 13.4023 2.84577   1
  -9  12   2 7.17169 2.16886   1
   9 -12   2 15.5370 4.12630   5
  -9  12  -2 6.91248 2.21943   1
   9 -12  -2 9.80807 4.87860   3
   9 -12  -2 13.8217 5.21736   5
  -9 -12   2 7.89562 2.55515   1
  -9 -12   2 13.8789 3.00389   1
  10 -12   2 50.6294 11.8634   3
  10 -12  -2 45.4331 6.74335   5
   0  13  -2 3.45742 2.54008   6
   0 -13  -2 1.59092 2.57611   1
   0  13  -2 2.52794 2.11832   1
   0 -13   2 0.31896 2.56904   7
   0  13   2 2.19384 2.27372   1
   0  13   2 3.37397 2.45431   6
   0 -13   2 1.27998 2.41816   1
   0 -13  -2 4.07732 2.57597   7
   0  13  -2 -1.8039 1.62383   7
   0  13   2 -0.3058 1.94041   7
  -1  13   2 11.9662 3.14664   6
   1 -13   2 10.4492 2.84819   1
   1  13  -2 10.3461 2.76312   1
  -1  13   2 10.7137 2.84394   1
  -1 -13  -2 10.6903 3.07529   1
   1 -13   2 10.3287 3.10287   7
   1  13  -2 10.4370 2.73763   7
   1  13  -2 9.13925 2.81927   6
  -1  13  -2 8.90757 2.88271   6
   1  13   2 8.37195 2.68545   6
  -1 -13   2 5.94625 2.64677   1
  -1  13  -2 10.8164 2.78599   1
   1  13   2 9.70627 2.67061   1
   1 -13  -2 9.16411 4.08978   1
   1 -13  -2 7.86368 2.86335   7
   1  13   2 7.71210 2.51579   7
   2  13  -2 197.313 10.0840   6
   2 -13   2 187.053 8.50450   7
   2  13  -2 204.798 8.63156   7
  -2 -13  -2 191.799 8.59964   1
  -2  13   2 200.657 9.18663   6
  -2  13   2 192.330 8.43567   1
  -2  13  -2 198.813 9.20344   6
  -2 -13   2 182.692 8.38794   1
  -2  13  -2 195.331 8.40948   1
   2 -13  -2 197.991 10.9813   3
   2  13   2 222.209 8.84142   7
   2 -13  -2 194.455 8.51545   7
   3 -13   2 11.4632 3.60274   4
   3  13  -2 8.98860 2.57136   7
   3 -13   2 10.8052 5.58142   3
  -3 -13  -2 12.3180 3.33118   1
  -3  13   2 4.46293 2.32900   1
   3 -13   2 7.06776 2.74193   7
  -3  13   2 5.78322 2.59332   6
   3  13   2 7.15745 2.40043   7
   3 -13  -2 10.1062 4.15638   3
  -3 -13   2 10.3098 3.05287   1
  -3  13  -2 8.21020 2.58670   1
  -3  13  -2 8.60881 2.97070   6
   3 -13  -2 5.63562 2.67760   7
  -4  13   2 0.52610 2.08814   1
   4  13  -2 10.8385 2.63930   7
   4 -13   2 4.56044 2.76756   7
  -4  13   2 0.78558 2.21605   6
   4 -13   2 -2.2626 4.93287   3
   4 -13   2 5.80714 3.25294   4
  -4 -13  -2 1.42250 2.55956   1
   4 -13  -2 0.93283 3.99096   4
   4  13   2 1.44535 1.97859   7
  -4  13  -2 1.97995 2.35947   6
   4 -13  -2 -0.3391 3.39449   3
   4 -13  -2 1.60498 2.34910   7
  -4  13  -2 -0.8848 1.87154   1
  -4 -13   2 3.62688 2.69898   1
   5 -13   2 7.23803 3.50753   4
   5 -13   2 6.02522 7.51253   3
  -5  13   2 8.22600 2.51686   1
  -5 -13  -2 8.40774 2.78266   1
  -5  13   2 8.50008 3.02007   6
   5  13  -2 8.39787 2.45878   7
   5 -13   2 8.20422 2.86099   7
   5  13   2 7.54824 2.42517   7
   5 -13  -2 7.20785 4.19646   3
  -5 -13   2 11.5684 3.00140   1
   5 -13  -2 7.38138 5.27097   4
  -5  13  -2 10.9524 3.26111   6
  -5  13  -2 8.51222 2.42701   1
   5 -13  -2 7.70726 2.77431   7
   6 -13   2 124.812 6.49925   7
   6  13  -2 127.012 6.34320   7
  -6  13   2 125.083 6.33689   1
   6 -13   2 143.441 8.48746   4
   6 -13   2 144.413 14.4506   3
  -6 -13  -2 123.267 6.40466   1
   6 -13  -2 130.090 6.47361   7
  -6 -13   2 128.915 6.42568   1
  -6  13  -2 130.777 6.37376   1
   6 -13  -2 161.309 11.5599   4
   6  13   2 125.146 6.36771   7
   6 -13  -2 117.906 9.01512   3
   7 -13   2 1.87131 2.39344   7
  -7  13   2 2.00245 2.09134   1
   7  13  -2 0.48960 1.84746   7
  -7 -13  -2 2.66933 2.43291   1
   7 -13   2 1.51926 3.26473   4
   7 -13   2 0.90280 2.97801   5
   7 -13   2 -1.6241 5.72414   3
   7 -13  -2 2.92899 3.54164   3
   7  13   2 2.28144 2.06594   7
   7 -13  -2 8.81182 5.19741   4
   7 -13  -2 5.57916 2.52848   7
  -7  13  -2 3.92155 2.08618   1
  -7 -13   2 5.64063 2.52571   1
   8 -13   2 -0.0652 5.46491   3
   8 -13   2 9.31506 3.63414   5
  -8  13   2 1.32878 1.96342   1
  -8 -13  -2 0.07057 2.23752   1
  -8  13  -2 2.15456 2.08874   1
   8 -13  -2 2.35985 3.84360   3
  -8 -13   2 0.83561 2.42897   1
  -8 -13   2 1.96374 2.47237   1
   9 -13   2 6.31670 3.94749   5
   9 -13   2 10.7065 6.52089   3
  -9 -13  -2 6.29222 2.61782   1
  -9  13   2 4.36899 2.10585   1
   9 -13  -2 -0.4492 4.60003   5
  -9  13  -2 7.92086 2.48582   1
   9 -13  -2 2.00865 4.11283   3
  -9 -13   2 4.86796 2.62866   1
  -9 -13   2 3.15526 2.48640   1
   0  14   2 861.948 27.2896   7
   0  14  -2 884.394 28.2846   6
   0 -14  -2 966.608 27.8435   1
   0  14   2 896.594 27.7340   6
   0 -14   2 891.749 27.4653   7
   0  14  -2 897.379 27.7843   7
   0 -14  -2 886.108 27.7182   7
   0  14   2 914.421 27.3744   1
   0 -14   2 880.268 26.9995   1
   0  14  -2 880.681 27.5370   1
   1 -14   2 6.24940 2.86346   7
   1  14  -2 4.15209 2.56530   6
   1  14  -2 4.83449 2.25588   7
  -1 -14  -2 7.12269 2.96909   1
  -1  14   2 6.58046 2.81488   6
  -1  14   2 6.73336 2.52210   1
   1  14   2 6.05560 2.76595   1
   1 -14  -2 12.5619 3.30862   7
  -1 -14   2 7.38096 2.87293   1
  -1  14  -2 7.16803 2.96142   6
   1  14   2 3.69754 2.28582   7
  -1  14  -2 9.22297 2.69489   1
  -2  14   2 25.0931 3.99541   1
   2  14  -2 24.1767 3.16501   7
  -2 -14  -2 26.5887 3.85107   1
  -2  14   2 25.0026 3.61709   6
   2 -14   2 29.6921 4.33934   7
  -2 -14   2 18.4761 3.74142   1
   2  14   2 22.0455 3.06748   7
  -2  14  -2 19.9195 3.23093   1
   2 -14  -2 18.7768 4.97186   3
   2 -14  -2 18.2015 3.61953   7
  -2  14  -2 22.3894 3.43995   6
  -3 -14  -2 7.62476 3.16187   1
   3  14  -2 5.94396 2.35946   7
  -3  14   2 4.87147 2.71249   6
  -3  14   2 8.23664 2.51745   1
   3 -14   2 3.23447 4.28056   3
   3 -14   2 2.68388 2.67968   7
   3 -14  -2 6.23255 2.85358   7
  -3  14  -2 8.23980 2.60715   1
   3  14   2 5.66716 2.39600   7
  -3  14  -2 8.75565 2.98929   6
   3 -14  -2 2.70350 3.40183   3
  -3 -14   2 3.33112 2.70126   1
   4 -14   2 689.376 29.4260   3
   4 -14   2 710.829 22.7025   7
   4  14  -2 702.666 22.7690   7
  -4  14   2 732.360 22.6304   1
  -4 -14  -2 696.317 22.7089   1
   4 -14  -2 734.875 26.5539   3
  -4  14  -2 738.439 22.7851   1
   4 -14  -2 745.064 22.8825   7
  -4 -14   2 698.413 22.4694   1
   4  14   2 733.328 22.7359   7
   4 -14  -2 721.170 27.5267   4
   5 -14   2 3.78858 6.29428   3
  -5 -14  -2 3.74654 2.77132   1
   5 -14   2 2.94194 2.59086   7
   5  14  -2 3.63188 2.15778   7
  -5  14   2 4.10217 2.35766   1
   5 -14  -2 9.00964 3.07825   7
   5  14   2 0.85936 2.04471   7
  -5  14  -2 3.64825 2.21310   1
   5 -14  -2 5.86597 4.98747   4
   5 -14  -2 4.74477 4.04430   3
  -5 -14   2 4.77145 2.83066   1
  -6  14   2 18.5340 3.35635   1
  -6 -14  -2 18.3911 3.68617   1
   6 -14   2 26.1898 4.05605   7
   6 -14   2 20.2959 9.06737   3
   6  14  -2 18.0912 3.24439   7
   6 -14  -2 13.4287 3.25147   7
  -6 -14   2 18.7064 3.60509   1
   6  14   2 14.9599 3.20534   7
  -6  14  -2 18.9908 3.38057   1
   6 -14  -2 23.9153 6.40759   4
   6 -14  -2 12.2387 4.94154   3
  -7  14   2 3.55130 2.18610   1
   7 -14   2 6.87665 3.59793   5
   7 -14   2 -0.1247 7.60454   3
  -7 -14  -2 0.74001 2.45683   1
  -7 -14   2 7.88370 2.99947   1
  -7  14  -2 4.41982 2.20744   1
   7 -14  -2 5.81107 4.26436   3
   8 -14   2 421.491 25.3660   3
   8 -14   2 430.031 16.5014   5
  -8  14   2 422.061 14.3905   1
  -8 -14  -2 431.017 14.6523   1
  -8 -14   2 423.987 14.5510   1
  -8 -14   2 409.867 14.3868   1
   8 -14  -2 454.330 19.5921   3
  -8  14  -2 428.294 14.7721   1
   0 -15  -2 1.80053 2.75777   1
   0  15  -2 3.83270 2.76393   6
   0 -15   2 0.76267 2.52558   1
   0 -15   2 4.89968 3.10568   7
   0  15   2 1.43461 2.32808   1
   0  15  -2 7.56749 2.79500   1
   0 -15  -2 5.46825 3.06520   7
   0  15   2 5.95645 2.77324   6
  -1  15   2 -0.6984 2.28994   6
   1  15  -2 0.88584 2.48328   6
  -1  15   2 0.99590 2.17596   1
   1  15  -2 0.45818 2.17051   7
   1 -15   2 0.68976 2.67559   7
  -1 -15  -2 2.14349 2.60942   1
   1 -15  -2 0.74793 2.73075   7
  -1  15  -2 -0.3475 1.97928   1
   1  15   2 1.26269 2.11220   7
  -1  15  -2 -0.5953 2.22509   6
  -1 -15   2 -3.1903 2.43190   1
  -2 -15  -2 85.8568 5.65714   1
   2 -15   2 88.7518 5.83167   7
  -2  15   2 93.4955 5.70608   1
   2 -15   2 94.1846 8.24661   3
   2  15  -2 98.9564 5.75322   7
  -2  15   2 92.0136 6.93512   6
  -2  15  -2 88.8423 5.59238   1
  -2 -15   2 83.5448 5.51388   1
   2 -15  -2 92.9662 7.47506   3
   2 -15  -2 80.0393 5.50015   7
   2  15   2 94.6894 5.74488   7
   3 -15   2 -0.8840 2.52051   7
  -3  15   2 2.94383 2.43923   1
   3  15  -2 2.33520 2.13330   7
   3 -15   2 3.68179 4.80135   3
  -3 -15  -2 3.77788 2.87104   1
   3  15   2 -0.4197 2.02334   7
   3 -15  -2 1.03337 3.22150   3
  -3 -15   2 -5.4163 2.38820   1
   3 -15  -2 -2.9127 2.27297   7
  -3  15  -2 -1.7105 1.87206   1
  -4 -15  -2 4.08954 2.97315   1
   4 -15   2 2.60646 2.80781   7
  -4  15   2 2.19853 2.20423   1
   4  15  -2 2.14066 2.24680   7
   4 -15   2 -3.5811 3.58541   3
   4 -15  -2 8.18367 3.97150   3
   4  15   2 9.13488 2.80099   7
   4 -15  -2 2.60916 2.78401   7
   4 -15  -2 3.50187 4.03706   4
  -4  15  -2 5.73513 2.54577   1
  -4 -15   2 5.03459 2.94714   1
  -5  15   2 0.02686 1.98795   1
   5 -15   2 -3.8597 4.15787   3
  -5 -15  -2 0.29255 2.63895   1
  -5 -15   2 -4.0620 2.35120   1
   5 -15  -2 0.86198 4.10096   7
   5 -15  -2 3.69955 3.82562   3
  -5  15  -2 -1.4031 2.01904   1
   5 -15  -2 -0.2468 3.88006   4
  -6 -15  -2 61.1350 4.77567   1
  -6  15   2 60.9846 4.53490   1
   6 -15   2 67.4076 10.0865   3
  -6  15  -2 57.8432 4.41853   1
   6 -15  -2 68.9736 7.43457   3
  -6 -15   2 58.1130 4.61365   1
   7 -15   2 -2.4526 6.53361   3
   7 -15   2 0.51548 3.24541   5
  -7 -15  -2 -1.8103 2.31926   1
  -7  15   2 0.71824 2.17524   1
  -7 -15   2 2.71640 2.76326   1
  -7 -15   2 0.88967 2.76890   1
   7 -15  -2 -0.2308 3.96802   3
  -7  15  -2 0.07023 1.99981   1
   0  16   2 227.137 9.71072   1
   0  16  -2 248.891 10.2742   1
   1 -16   2 1.32096 2.90545   7
   1  16  -2 1.02963 2.20273   7
  -1  16   2 1.53489 2.36955   1
  -1 -16  -2 -0.6661 2.80266   1
  -1 -16   2 -0.3255 2.58981   1
   1  16   2 -0.9504 2.19019   7
   1 -16  -2 3.36398 3.29579   3
  -1  16  -2 -1.4274 2.00394   1
   1 -16  -2 -1.4293 2.54753   7
  -2  16   2 104.563 6.26030   1
  -2 -16  -2 118.560 6.70973   1
   2 -16   2 106.293 8.74321   3
   2  16  -2 124.630 6.69768   7
   2 -16   2 114.779 6.65881   7
   2 -16  -2 118.968 6.74660   7
   2  16   2 114.799 6.46499   7
  -2  16  -2 112.004 6.36531   1
  -2 -16   2 102.732 6.15401   1
   2 -16  -2 104.098 8.04743   3
  -3  16   2 -3.0440 1.84470   1
   3 -16   2 3.91161 4.09239   3
   3  16  -2 2.25969 2.35634   7
  -3 -16  -2 1.16264 2.86280   1
   3 -16   2 -1.8877 2.72961   7
   3 -16  -2 0.23023 2.99316   3
  -3  16  -2 0.37581 2.27704   1
   3  16   2 -0.5320 1.92760   7
   3 -16  -2 0.15315 2.85221   7
  -3 -16   2 2.07929 2.70289   1
  -4  16   2 192.352 8.53349   1
  -4 -16  -2 201.578 8.96513   1
   4 -16   2 166.584 11.9294   3
  -4  16  -2 186.563 8.47497   1
   4 -16  -2 184.724 10.9380   3
  -4 -16   2 187.906 8.48904   1
  -5  16   2 2.34081 2.35934   1
  -5 -16  -2 -1.4042 2.50592   1
   5 -16   2 -1.5364 4.54570   3
   5 -16  -2 -3.8413 2.89019   3
  -5  16  -2 0.62928 2.06351   1
  -5 -16   2 0.42661 2.51879   1
   6 -16   2 72.2500 9.43457   3
   6 -16  -2 81.8353 7.77406   3
   1 -17   2 1.71664 3.45943   7
   1  17  -2 5.95069 2.58788   7
  -1 -17  -2 3.86530 2.99899   1
  -1  17   2 3.86031 2.45248   1
   1 -17  -2 3.47949 3.34533   3
   1  17   2 4.95737 3.35929   7
   1 -17  -2 7.09381 3.97105   7
  -1 -17   2 7.25910 3.40272   1
  -1  17  -2 3.50275 2.46471   1
  -1 -17   2 4.50956 3.27188   1
  -2 -17  -2 59.2721 4.85553   1
  -2  17   2 52.7224 4.44983   1
   2 -17   2 58.0394 6.65804   3
  -2 -17   2 48.4689 4.89327   1
  -2  17  -2 63.1578 4.88031   1
   2 -17  -2 53.9383 6.03688   3
  -3  17   2 0.01772 2.18642   1
  -3 -17  -2 1.75897 2.78490   1
   3 -17   2 -1.2531 3.78780   3
   3 -17  -2 4.17988 3.26833   3
  -3  17  -2 -0.8610 2.06311   1
  -3 -17   2 0.91903 2.93463   1
   4 -17   2 13.6913 4.98356   3
  -4  17   2 8.20592 2.98744   1
  -4 -17  -2 12.1878 3.34752   1
  -4 -17   2 7.52097 3.46242   1
   4 -17  -2 11.1927 4.28795   3
  -4  17  -2 4.18649 2.78181   1
   5 -17   2 5.36873 5.85736   3
   5 -17  -2 0.55686 3.32415   3
   0 -18  -2 131.970 8.44419   3
  -1  18   2 1.99643 2.57690   1
   1 -18   2 -0.3011 2.86093   3
   1 -18  -2 2.58150 3.02683   3
  -1  18  -2 7.10072 2.78290   1
  -2 -18  -2 93.8347 7.20389   1
   2 -18   2 72.5121 7.34100   3
  -2 -18   2 96.1557 7.18829   1
   2 -18  -2 81.2774 6.96986   3
  -2 -18   2 84.2551 7.05578   1
   3 -18  -2 1.41185 3.33582   3
   0   0  -3 0.76719 1.05601   6
   0   0  -3 2.96604 1.15126   7
   0   0   3 0.84017 1.09468   7
   1   0   3 8.01678 1.69853   7
   1   0  -3 10.9523 1.77940   6
   1   0  -3 5.16061 1.48981   7
  -1   0  -3 10.1621 1.56905   6
  -2   0  -3 0.52975 0.92135   6
   2   0  -3 1.42501 0.97909   2
   2   0  -3 1.52575 0.95480   7
   2   0   3 1.65582 1.16613   7
   2   0   3 5.61913 1.40217   2
   2   0  -3 1.28682 1.02955   4
   3   0  -3 10.1875 2.28462   3
   3   0   3 8.03861 1.75414   7
  -3   0  -3 10.1753 1.53276   1
  -3   0  -3 13.0685 1.47004   6
   3   0  -3 8.13721 1.38567   2
   3   0   3 9.83302 1.58808   2
   3   0   3 10.8155 1.97928   5
   3   0  -3 9.15882 1.54552   2
   3   0  -3 5.00282 1.42291   7
   3   0   3 10.4529 1.64094   2
  -3   0   3 7.30415 1.59261   1
  -4   0  -3 0.72099 0.85193   1
  -4   0   3 3.70000 1.09044   1
   4   0   3 0.23313 0.90786   7
   4   0  -3 0.23634 0.84714   7
   4   0   3 1.65555 1.47059   5
   4   0   3 3.00462 1.12564   2
   4   0  -3 0.23477 1.41621   3
   4   0   3 0.34614 0.96135   2
   4   0   3 2.87184 1.59990   3
   4   0  -3 -0.3298 0.74113   2
   4   0  -3 1.90341 0.94967   2
  -4   0  -3 1.11103 0.90386   6
   5   0   3 9.02355 1.52886   2
   5   0  -3 9.33587 2.52564   3
   5   0  -3 8.78477 1.30925   7
  -5   0  -3 10.7293 1.49051   1
   5   0   3 10.7870 2.27570   5
   5   0  -3 8.51758 1.34026   2
   5   0  -3 9.43798 1.25998   2
   5   0   3 14.9205 2.56456   3
   5   0  -3 7.13993 1.73244   5
   5   0   3 10.1050 1.50458   2
  -5   0   3 8.01196 1.52144   1
   5   0   3 10.0220 1.51971   7
   6   0   3 1.48522 1.90672   3
  -6   0  -3 -1.0147 0.96240   1
  -6   0   3 0.27226 1.47607   6
   6   0   3 -0.7874 1.61180   5
   6   0  -3 2.99083 2.12656   3
   6   0   3 4.30044 1.00968   7
  -6   0   3 2.89856 1.09535   1
   6   0   3 1.54238 1.07518   2
   6   0   3 1.13103 1.10738   2
   6   0  -3 8.56909 1.08893   2
   6   0  -3 0.07700 1.44763   5
   7   0   3 10.5148 3.02101   3
   7   0  -3 19.0204 2.54236   5
   7   0  -3 8.43614 3.11775   3
   7   0   3 12.2733 1.68423   2
   7   0   3 9.37027 1.57719   2
   8   0   3 -0.1968 1.21540   2
   8   0   3 -2.5527 1.90023   3
   8   0   3 0.50280 1.16896   2
   8   0  -3 0.31674 2.30893   3
   9   0  -3 8.95283 3.58097   3
   9   0   3 6.02524 1.67229   2
   9   0   3 9.75255 3.43625   3
  10   0   3 0.70863 2.76552   3
  10   0   3 0.48001 1.35602   2
   0  -1   3 1899.75 51.4331   7
   0  -1  -3 1933.65 53.8054   6
   0   1  -3 2129.51 53.7026   7
   0   1  -3 1962.95 53.9558   6
   0  -1  -3 1905.79 53.5672   7
   1   1  -3 6.09441 1.64471   6
   1   1  -3 5.08308 1.41702   7
  -1  -1  -3 4.35101 1.41489   6
   1  -1   3 7.26126 1.59375   7
   1   1   3 9.03730 1.68098   7
  -1   1  -3 8.98017 1.57357   6
   1  -1  -3 6.50498 1.42736   7
   2   1  -3 372.829 11.2892   2
   2   1  -3 364.017 11.6914   6
   2  -1   3 390.846 11.4560   7
  -2  -1  -3 388.178 12.0744   1
   2   1  -3 360.284 10.9930   7
   2  -1   3 379.956 11.6662   2
  -2  -1  -3 374.147 10.9099   6
   2   1   3 372.710 11.4772   7
   2  -1  -3 377.664 11.0155   7
   2   1   3 380.245 11.7400   2
   2  -1  -3 349.328 11.5485   4
  -2   1  -3 379.688 11.3225   6
   2  -1  -3 362.870 11.3154   2
   3  -1   3 8.48051 1.48831   2
   3   1  -3 7.12409 1.86465   6
   3   1  -3 7.75911 1.46836   2
   3   1  -3 8.67861 1.35268   2
  -3   1   3 6.88409 1.49232   1
   3  -1   3 7.01801 1.57773   2
   3  -1   3 7.19230 1.66573   7
  -3  -1  -3 5.82504 1.40527   1
   3   1  -3 6.75727 1.43089   7
   3  -1   3 8.99731 1.85940   5
  -3  -1  -3 5.87587 1.20636   6
  -3   1  -3 7.27396 1.45241   1
   3  -1  -3 6.64255 1.43229   7
   3   1   3 7.89284 1.60552   7
  -3  -1   3 7.16773 1.47040   1
  -3   1  -3 12.6000 1.54447   6
   3  -1  -3 7.37988 1.91322   3
   3   1   3 6.07694 1.53121   2
   3  -1  -3 8.33824 1.90704   4
   3  -1  -3 5.18270 1.35662   2
   3  -1  -3 10.9094 1.45638   2
   3   1   3 6.10780 1.46481   2
   4   1  -3 1291.68 35.5993   2
  -4  -1  -3 1339.03 35.7093   1
   4  -1   3 1300.96 37.0435   5
   4   1  -3 1291.71 37.6104   3
  -4  -1  -3 1326.49 35.2099   6
  -4   1   3 1299.37 37.1952   6
  -4   1   3 1350.61 35.9972   1
   4   1  -3 1343.96 35.5524   7
   4   1  -3 1296.47 35.7272   2
   4  -1   3 1309.05 36.3221   2
   4  -1   3 1328.00 36.0954   7
   4  -1   3 1283.45 36.1826   2
   4  -1   3 1303.53 37.5261   3
   4   1   3 1314.91 36.0790   7
   4   1   3 1309.05 36.2873   2
   4  -1  -3 1240.21 37.1536   4
   4  -1  -3 1282.69 35.6376   2
   4  -1  -3 1311.78 35.4662   7
   4   1   3 1323.54 36.2867   2
  -4  -1   3 1359.80 35.9779   1
  -4   1  -3 1293.31 35.9151   6
  -4   1  -3 1333.76 35.6508   1
   4  -1  -3 1299.28 37.5779   3
   4   1   3 1333.42 37.3362   3
   4  -1  -3 1277.06 35.5776   2
  -5   1   3 9.56191 1.43890   1
   5   1  -3 13.0034 1.37698   2
  -5   1   3 17.6104 2.27407   6
   5  -1   3 10.3406 2.14848   5
   5  -1   3 13.6902 1.63653   2
  -5  -1  -3 10.0193 1.46823   1
   5   1  -3 11.2465 1.38483   7
   5   1  -3 9.11857 1.41110   2
   5   1  -3 12.7198 2.85770   3
   5  -1   3 9.07680 1.51567   2
   5  -1   3 11.4519 2.56435   3
   5  -1   3 9.88560 1.57793   7
   5   1   3 14.3584 1.59464   2
  -5  -1   3 8.91831 1.54036   1
  -5   1  -3 16.1930 1.74339   6
   5   1   3 14.2237 2.53700   3
   5   1   3 13.3106 1.51100   7
  -5   1  -3 9.67569 1.42375   1
   5  -1  -3 13.7454 1.38236   7
   5   1   3 10.3885 1.61304   2
   5  -1  -3 14.6153 1.42233   2
   5  -1  -3 12.9828 1.91815   5
   5  -1  -3 9.61772 1.30892   2
   5  -1  -3 15.6397 2.75741   3
   6  -1   3 136.838 4.94942   2
   6  -1   3 132.510 4.98531   2
  -6   1   3 135.772 4.68248   1
  -6  -1  -3 134.966 4.81167   1
   6  -1   3 134.978 6.87860   3
  -6   1   3 143.222 6.03243   6
   6   1  -3 138.375 7.18464   3
   6   1  -3 134.258 4.76178   2
   6   1  -3 133.576 4.61952   2
   6  -1   3 135.887 6.31414   5
   6  -1   3 139.760 4.59493   7
   6   1  -3 138.391 4.22417   7
   6  -1  -3 132.071 4.65368   2
   6  -1  -3 136.001 5.69939   5
  -6  -1   3 135.683 4.69464   1
   6  -1  -3 133.286 7.03707   3
   6  -1  -3 131.647 4.60913   2
   6   1   3 136.066 6.72451   3
   6   1   3 133.320 4.94162   2
   6   1   3 136.837 4.53398   7
  -6  -1   3 137.471 7.31785   6
   6   1   3 135.934 5.06229   2
  -6   1  -3 134.722 4.76604   1
   7  -1   3 6.02146 1.56888   2
   7   1  -3 9.01745 1.27779   2
   7  -1   3 9.93583 2.89312   3
   7  -1   3 11.0809 2.77803   5
   7  -1   3 5.88177 1.50805   2
   7   1   3 9.45186 2.86398   3
   7   1   3 8.50405 1.47006   2
   7  -1  -3 8.48971 2.87406   3
   7   1   3 6.54528 1.58921   2
   7  -1  -3 7.09958 2.03437   5
   8  -1   3 552.449 18.8705   3
   8  -1   3 535.117 15.7006   2
   8  -1   3 524.139 15.5547   2
   8  -1   3 530.157 17.6994   5
   8  -1  -3 551.950 18.3192   5
   8  -1  -3 553.683 19.7102   3
   8   1   3 537.796 15.7107   2
   8   1   3 555.264 18.7307   3
   8   1   3 517.207 15.5944   2
   9  -1   3 7.43297 1.86447   2
   9  -1   3 14.5071 3.75272   3
   9  -1   3 10.0627 1.68631   2
   9  -1  -3 13.3373 3.71538   3
   9   1   3 9.33781 1.74367   2
   9   1   3 9.14930 1.68671   2
  10  -1   3 41.1780 5.02610   3
  10  -1   3 44.5317 2.88758   2
  10   1   3 50.1370 2.89780   2
  10  -1  -3 49.7010 5.42689   3
  10   1   3 47.2422 2.89332   2
  11  -1   3 7.36678 3.53090   3
  11  -1   3 5.00630 1.74240   2
  11  -1   3 0.91074 1.80426   2
   0  -2   3 69.0514 3.17515   7
   0   2  -3 64.1629 2.99393   7
   0   2   3 62.8341 3.17896   7
   0   2  -3 60.4399 3.24208   6
   0  -2  -3 64.5351 3.07066   7
  -1  -2  -3 3.49747 1.30632   7
   1  -2   3 5.28431 1.40280   7
   1   2  -3 5.36009 1.57371   6
   1   2  -3 3.54498 1.21815   7
  -1   2  -3 9.82461 1.64841   6
  -1   2  -3 4.14861 1.49562   7
   1  -2  -3 6.84957 1.47635   7
   1   2   3 4.25348 1.45838   7
   2   2  -3 2290.96 63.2495   6
  -2  -2  -3 2372.93 62.7565   1
  -2   2   3 2435.54 63.6263   1
   2  -2   3 2354.18 63.6377   7
   2   2  -3 2317.06 62.9937   2
   2  -2   3 2363.00 63.9662   2
   2   2  -3 2333.30 62.6531   7
   2   2   3 2302.23 63.6500   7
   2  -2  -3 2257.09 62.6113   7
   2   2   3 2365.61 64.1121   2
  -2  -2   3 2318.30 63.4592   1
  -2   2  -3 2364.95 62.6326   1
  -2   2  -3 2313.60 63.0308   6
   2  -2  -3 2327.20 63.0854   2
   3  -2   3 4.14951 1.40947   2
   3  -2   3 2.21625 1.46765   5
   3   2  -3 4.14827 1.58108   6
   3  -2   3 4.23471 1.38080   2
   3   2  -3 2.98999 1.23061   2
  -3  -2  -3 2.52068 1.21790   1
  -3   2   3 3.29628 1.16722   1
   3   2  -3 4.07653 1.19231   2
   3   2  -3 3.63188 1.12657   7
   3  -2   3 2.99523 1.28420   7
  -3   2   3 4.53576 1.78839   6
   3   2   3 2.89229 1.34386   2
   3  -2  -3 5.42571 1.35107   2
   3   2   3 5.06621 1.37347   7
   3  -2  -3 4.76258 1.30695   7
   3  -2  -3 4.06766 1.38430   2
   3  -2  -3 3.02911 1.63645   3
  -3   2  -3 4.52512 1.32961   6
   3   2   3 4.13744 1.32434   2
   3  -2  -3 2.55868 1.39718   4
  -3  -2   3 3.44885 1.21130   1
  -3   2  -3 4.49200 1.21992   1
   4  -2   3 12.7461 1.58311   2
   4  -2   3 12.5717 2.26214   3
  -4   2   3 12.9869 1.46918   1
   4   2  -3 14.6158 1.62171   2
   4  -2   3 15.1248 1.60852   7
   4   2  -3 11.8213 1.39244   2
   4  -2   3 16.0198 1.69587   2
  -4  -2  -3 13.8136 1.55223   1
   4   2  -3 13.1106 1.82019   6
   4  -2   3 14.4762 2.09247   5
   4   2  -3 10.2337 1.40787   7
  -4   2   3 12.8482 2.05112   6
   4   2   3 13.1283 1.49275   7
  -4  -2   3 13.0538 1.46089   1
  -4   2  -3 11.4767 1.39408   1
   4   2   3 10.7548 1.61825   2
   4  -2  -3 10.0669 1.40706   2
   4  -2  -3 12.7468 2.23971   3
   4  -2  -3 14.9607 2.77895   4
   4  -2  -3 10.9343 1.63775   5
   4   2   3 12.9886 1.60558   2
   4  -2  -3 12.4679 1.41882   2
  -4   2  -3 11.3907 1.68687   6
   4  -2  -3 13.7461 1.43208   7
   5  -2   3 8.59514 2.47524   3
   5   2  -3 8.59007 1.49865   2
   5   2  -3 11.5689 1.38929   2
   5  -2   3 14.3328 1.67710   2
  -5   2   3 13.3655 2.12014   6
   5  -2   3 9.03907 1.78788   2
  -5   2   3 13.0631 1.49584   1
   5   2  -3 7.47527 1.37041   7
   5  -2   3 12.3288 2.39578   5
  -5  -2  -3 10.8228 1.59657   1
   5  -2   3 6.27805 1.47059   7
   5  -2  -3 14.6715 2.49699   4
  -5   2  -3 16.5029 1.86029   6
   5   2   3 11.8053 1.57443   2
   5   2   3 12.1333 1.49507   7
   5   2   3 6.29177 1.61762   2
   5  -2  -3 13.9244 1.49205   2
   5  -2  -3 7.25092 2.36822   3
  -5  -2   3 8.81774 1.40304   1
   5  -2  -3 11.1258 1.32439   7
  -5   2  -3 6.28417 1.43129   1
   5  -2  -3 8.04627 1.43005   2
   5  -2  -3 9.30621 1.87857   5
   6  -2   3 1077.46 29.0478   7
   6   2  -3 1056.99 29.0089   2
   6  -2   3 1027.93 30.9215   5
  -6   2   3 1073.99 30.7795   6
   6  -2   3 1057.92 31.9691   3
   6   2  -3 1054.53 28.3937   7
  -6   2   3 1063.24 29.0951   1
   6   2  -3 1026.66 28.7663   2
   6  -2   3 1069.91 29.6123   2
  -6  -2  -3 1042.30 28.8150   1
   6  -2   3 1067.40 29.4696   2
   6  -2  -3 1045.48 28.8794   2
   6  -2  -3 1021.96 31.7772   3
   6   2   3 1038.29 28.9295   7
   6   2   3 1042.60 29.6159   2
   6  -2  -3 1040.03 28.7574   2
  -6   2  -3 1021.72 28.7645   1
  -6  -2   3 1034.87 29.0745   1
   6  -2  -3 1051.35 29.9071   5
   6   2   3 1065.75 29.5156   2
   6  -2  -3 1041.39 28.1607   7
  -7   2   3 2.24975 2.13154   6
   7  -2   3 4.58761 2.30086   5
  -7  -2  -3 2.58659 1.24697   1
   7   2  -3 1.13686 1.24969   2
   7  -2   3 2.26860 1.42145   2
   7  -2   3 1.49434 2.39437   3
   7   2  -3 1.39010 1.02147   2
   7  -2   3 2.35102 1.30003   2
   7   2   3 1.00369 1.21890   2
   7  -2  -3 2.73901 2.39672   3
   7  -2  -3 0.48974 1.08485   2
   7  -2  -3 3.47641 1.20249   2
   7   2   3 2.38672 1.49215   2
  -7   2  -3 2.75572 1.56277   1
   7  -2  -3 1.23642 1.69359   5
   8  -2   3 6.89078 1.62681   2
   8  -2   3 8.79607 1.78594   2
   8  -2   3 5.46819 2.95183   3
   8   2  -3 8.29298 1.51581   2
   8   2  -3 8.71782 1.74018   2
   8  -2   3 8.55253 2.75849   5
   8   2   3 7.37316 1.74049   2
   8  -2  -3 6.74337 1.46518   2
   8  -2  -3 9.02186 1.63494   2
   8  -2  -3 5.18905 3.03967   3
   8   2   3 8.52256 1.93593   2
   8  -2  -3 8.06120 2.36115   5
   9  -2   3 9.80674 1.85591   2
   9  -2   3 10.8565 3.51724   3
   9  -2   3 9.22748 3.07705   5
   9   2  -3 9.24727 1.49568   2
   9  -2   3 10.3936 1.73275   2
   9   2  -3 9.75729 1.69463   2
   9   2   3 9.06766 1.94012   2
   9  -2  -3 12.0133 1.64037   2
   9   2   3 7.79501 1.78848   2
   9  -2  -3 9.99713 3.58395   3
  10   2  -3 402.161 12.0784   2
  10  -2   3 376.873 12.0221   2
  10  -2   3 392.001 15.6203   3
  10  -2   3 400.575 12.2011   2
  10   2   3 393.372 12.2856   2
  10  -2  -3 385.695 16.0443   3
  11  -2   3 2.15926 3.00911   3
  11  -2   3 1.77078 1.48643   2
  11  -2  -3 0.63599 3.07386   3
  11   2   3 1.75381 1.63600   2
  12  -2   3 5.85077 3.54879   3
   0  -3  -3 515.972 15.1190   7
   0   3   3 525.158 15.7077   6
   0   3  -3 508.096 15.4830   6
   0   3   3 529.102 15.5892   7
   0  -3   3 519.932 15.4994   7
   0   3  -3 500.571 15.0305   7
  -1  -3  -3 0.83814 1.21058   7
   1   3  -3 1.65847 1.29369   6
   1  -3   3 1.60387 1.29532   7
  -1  -3  -3 2.73766 1.32266   1
  -1   3   3 1.75679 1.13590   1
   1   3  -3 2.47545 1.15816   7
  -1   3   3 2.50934 1.44821   6
  -1   3   3 1.52954 1.27438   7
  -1  -3   3 2.48184 1.23167   1
   1   3   3 2.11198 1.20844   6
  -1  -3   3 2.91586 1.34787   7
   1   3   3 2.63517 1.40584   7
  -1   3  -3 1.55426 1.28040   6
  -1   3  -3 1.85917 1.06441   1
  -1   3  -3 0.90715 1.08060   7
   1  -3  -3 2.57005 1.27940   7
   2  -3   3 399.817 12.3079   7
  -2   3   3 408.720 13.0038   6
  -2  -3  -3 391.136 11.9933   1
  -2   3   3 401.128 12.2610   1
   2   3  -3 374.917 11.8732   7
   2   3  -3 404.929 12.3374   2
   2   3  -3 388.083 12.4283   6
   2  -3   3 401.454 12.3659   4
   2  -3   3 402.638 12.7296   2
   2   3   3 403.052 12.3549   7
  -2   3  -3 397.647 12.3798   6
   2   3   3 405.233 11.8721   6
   2   3   3 406.764 12.9047   2
   2  -3  -3 387.002 11.9391   7
  -2  -3   3 405.315 12.1774   1
  -2   3  -3 391.112 11.8878   1
   2  -3  -3 399.180 12.4767   2
   3   3  -3 2.22264 1.23370   2
   3   3  -3 1.17813 1.29732   6
   3  -3   3 -0.2094 1.12744   7
  -3   3   3 3.61701 1.67493   6
   3   3  -3 0.57180 1.03987   7
  -3  -3  -3 -0.0610 1.04660   1
   3  -3   3 1.09801 1.28927   2
   3  -3   3 -0.5996 1.28717   5
  -3   3   3 1.00807 1.12538   1
   3   3  -3 1.09870 1.06388   2
   3  -3   3 0.98949 1.57757   3
   3  -3   3 1.74022 1.44648   2
  -3   3  -3 3.17003 1.43237   6
   3   3   3 2.09798 1.43252   2
   3  -3  -3 2.66336 1.20361   2
   3  -3  -3 1.43591 1.49185   3
   3   3   3 1.79754 1.12615   7
   3  -3  -3 1.70373 1.15982   7
  -3  -3   3 1.52213 1.08956   1
   3   3   3 0.90041 0.78307   6
   3  -3  -3 0.95055 1.24902   2
   3  -3  -3 1.05368 1.54455   4
  -3   3  -3 0.79734 0.96446   1
  -4   3   3 355.281 11.9716   6
   4  -3   3 353.350 10.9538   7
   4   3  -3 363.882 11.5628   6
   4  -3   3 362.847 11.3646   2
   4  -3   3 358.631 12.6189   3
   4   3  -3 344.460 10.7218   7
  -4   3   3 351.670 10.8292   1
  -4  -3  -3 353.736 10.8911   1
   4  -3   3 351.490 11.1547   2
   4   3  -3 356.015 11.1901   2
   4   3  -3 333.486 10.9180   2
   4  -3   3 352.439 11.7303   5
  -4   3  -3 357.353 10.7930   1
  -4   3  -3 353.729 11.4006   6
   4  -3  -3 350.900 10.6566   7
   4   3   3 352.782 11.2303   2
   4  -3  -3 345.127 11.1159   2
   4   3   3 347.380 10.8612   7
   4   3   3 346.278 11.4057   2
  -4  -3   3 357.927 10.7803   1
   4  -3  -3 346.313 12.4936   3
   4   3   3 345.410 11.1854   2
   4  -3  -3 352.097 10.9962   2
   5   3  -3 2.29157 1.28902   2
   5  -3   3 3.28398 1.77973   5
   5  -3   3 1.48755 1.94372   3
   5   3  -3 2.75316 1.18766   7
  -5   3   3 2.73635 1.19102   1
  -5  -3  -3 2.89193 1.30565   1
   5  -3   3 4.81316 1.49516   2
  -5   3   3 4.24163 1.88345   6
   5  -3   3 0.31526 1.24849   2
   5  -3   3 3.49903 1.24451   7
   5   3  -3 2.69859 1.19754   2
   5   3   3 2.55428 1.22524   2
   5  -3  -3 3.78254 2.18982   4
   5   3   3 3.62882 1.35411   2
   5  -3  -3 3.80104 1.15031   7
   5  -3  -3 1.97920 1.91157   3
   5   3   3 2.00332 1.43419   2
   5  -3  -3 1.13955 1.24581   2
   5  -3  -3 3.38739 1.59164   5
   5  -3  -3 4.70651 1.21077   7
  -5  -3   3 1.36249 1.08864   1
  -5   3  -3 4.42217 1.64319   6
  -5   3  -3 2.49420 1.15200   1
   5  -3  -3 3.05137 1.18851   2
   5   3   3 2.15596 1.12603   7
   6  -3   3 162.847 5.98926   2
  -6  -3  -3 155.617 5.67679   1
   6  -3   3 166.694 5.69956   7
   6  -3   3 158.808 7.95206   3
  -6   3   3 162.577 5.60481   1
  -6   3   3 163.143 6.96150   6
   6  -3   3 158.840 7.08117   5
   6  -3   3 159.390 6.11464   2
   6   3  -3 163.307 5.42293   7
   6   3  -3 158.755 5.75270   2
   6   3  -3 164.888 6.01062   2
  -6   3  -3 165.443 5.66834   1
   6  -3  -3 153.024 5.81721   2
  -6  -3   3 162.523 5.66476   1
   6   3   3 155.506 5.47911   7
   6  -3  -3 145.566 7.72207   3
   6   3   3 155.249 6.19578   2
   6  -3  -3 159.429 5.20328   7
   6  -3  -3 161.059 6.63743   5
   6   3   3 159.956 5.98271   2
   6  -3  -3 152.196 5.70770   2
   6   3   3 158.594 5.99172   2
  -6   3  -3 164.192 6.36495   6
   6  -3  -3 152.762 7.89940   4
   7   3  -3 0.57515 1.11634   2
   7  -3   3 2.12155 1.10131   7
   7  -3   3 2.00317 2.53374   3
   7  -3   3 0.72258 1.36637   2
  -7   3   3 2.64838 2.00257   6
  -7  -3  -3 0.73668 1.20586   1
   7  -3   3 -1.6809 1.80866   5
   7  -3   3 2.08422 1.46930   2
   7   3  -3 1.24111 1.33449   2
   7  -3  -3 1.10325 1.36014   2
  -7  -3   3 0.85276 1.26775   1
   7   3   3 0.99873 1.47463   2
   7   3   3 0.22908 1.20425   2
   7   3   3 1.01206 1.29183   2
   7   3   3 0.87859 0.88925   7
  -7   3  -3 1.85398 1.17647   1
   7  -3  -3 2.10914 1.25542   2
   7  -3  -3 2.24019 1.87891   5
   7  -3  -3 2.33046 2.37358   3
   8  -3   3 165.595 6.26350   2
   8   3  -3 171.093 6.24125   2
   8  -3   3 168.455 7.88359   5
   8   3  -3 167.923 6.03984   2
   8  -3   3 168.216 6.38284   2
   8  -3   3 179.899 9.03219   3
   8  -3  -3 164.201 6.00899   2
   8  -3  -3 158.382 6.06338   2
   8  -3  -3 163.162 8.83487   3
   8  -3  -3 180.033 7.53033   5
   8   3   3 169.904 6.38014   2
   8   3   3 168.668 6.60569   2
   9  -3   3 2.23945 1.79223   2
   9  -3   3 3.39845 1.61676   2
   9  -3   3 6.35526 3.12725   3
   9   3  -3 1.31215 1.43093   2
   9   3  -3 2.13285 1.30680   2
   9  -3   3 1.78889 2.57385   5
   9   3   3 2.75580 1.64507   2
   9  -3  -3 5.42201 3.15473   5
   9  -3  -3 4.13057 1.64566   2
   9  -3  -3 2.19215 1.45931   2
   9  -3  -3 2.37202 2.89500   3
  10  -3   3 50.7758 3.08206   2
  10  -3   3 56.5631 5.73704   3
  10  -3   3 53.9611 4.96216   5
  10   3  -3 50.0428 2.86984   2
  10  -3  -3 51.5732 2.96594   2
  10  -3  -3 40.8518 5.15939   3
  10   3   3 49.0252 3.29622   2
  10  -3  -3 49.5218 2.94356   2
  11  -3   3 1.46104 3.21463   3
  11  -3   3 0.65483 1.60553   2
  11   3  -3 0.68609 1.31721   2
  11  -3  -3 4.16164 3.62213   3
  11   3   3 -0.7109 1.48501   2
  11  -3  -3 -1.2642 1.34030   2
  12  -3   3 64.2336 6.36972   3
  12  -3  -3 66.6324 6.52771   3
  13  -3   3 -2.6901 3.07321   3
   0   4  -3 632.813 19.2686   6
   0  -4  -3 633.508 18.8548   7
   0   4  -3 641.456 18.7297   1
   0   4   3 645.571 19.1293   7
   0   4   3 651.203 19.0582   1
   0   4  -3 630.524 18.7903   7
   0   4   3 655.154 19.2819   6
   0  -4  -3 675.935 18.8787   1
   0  -4   3 653.026 18.9896   1
   0  -4   3 652.296 19.0723   7
   1   4  -3 -0.5951 1.17940   6
   1  -4   3 4.09033 1.35821   4
   1   4  -3 0.68540 1.08073   7
  -1   4   3 -2.3389 1.03732   7
  -1  -4  -3 -1.1464 1.06987   1
  -1  -4  -3 -0.1747 1.17440   7
   1  -4   3 -0.6116 1.18635   7
  -1   4   3 0.65415 1.39590   6
  -1   4   3 0.17011 1.10485   1
  -1   4  -3 -0.0492 1.08845   7
  -1  -4   3 -0.5111 1.11829   1
   1   4   3 -0.8007 1.02295   6
  -1  -4   3 1.18982 1.29256   7
  -1   4  -3 0.05230 1.03093   1
   1   4   3 -1.1432 1.09641   7
  -1  -4   3 -0.7171 1.17314   1
   1  -4  -3 1.50483 1.29566   7
  -1   4  -3 1.64743 1.36175   6
   2   4  -3 2386.06 65.3855   6
   2  -4   3 2482.40 70.6438   3
  -2   4   3 2394.81 67.2147   7
   2  -4   3 2434.81 67.7838   2
  -2   4   3 2444.06 67.2277   1
  -2   4   3 2437.41 67.9896   6
   2   4  -3 2352.02 65.3086   2
   2   4  -3 2404.12 64.8247   7
   2  -4   3 2462.18 67.4481   4
  -2  -4  -3 2504.83 64.9525   7
   2  -4   3 2470.06 67.2505   7
  -2  -4  -3 2429.52 64.9099   1
   2   4   3 2472.95 66.8004   6
   2   4   3 2483.17 67.3392   7
  -2   4  -3 2295.75 64.6913   1
  -2   4  -3 2352.82 65.3792   6
   2  -4  -3 2345.51 64.7634   7
  -2   4  -3 2429.86 64.8932   7
  -2  -4   3 2463.91 67.2111   7
   2   4   3 2490.07 68.0731   2
  -2  -4   3 2774.93 67.3073   1
  -2  -4   3 2430.26 67.1600   1
   2  -4  -3 2387.56 65.4704   2
   2  -4  -3 2387.99 65.8986   3
   3  -4   3 1.31781 1.90019   3
   3   4  -3 0.50259 1.06401   7
   3  -4   3 -1.8224 1.08710   2
   3  -4   3 -0.5889 1.32431   5
   3   4  -3 0.51244 1.24670   6
   3   4  -3 1.39472 1.13618   2
   3  -4   3 -1.1145 1.19416   4
  -3   4   3 0.04202 1.38506   6
   3  -4   3 1.04063 1.29543   7
  -3  -4  -3 -2.0738 1.08585   1
  -3   4   3 0.61293 1.15453   1
   3  -4  -3 0.36479 1.26228   2
  -3   4  -3 -1.5073 1.19531   6
   3   4   3 -0.6929 1.06987   7
  -3   4  -3 -0.5936 0.95869   1
  -3  -4   3 0.56058 1.10671   1
   3   4   3 -0.2039 0.71691   6
  -3  -4   3 -0.5048 1.08277   1
   3  -4  -3 -0.5590 1.09754   7
   3   4   3 0.37077 1.37647   2
   3  -4  -3 0.35014 1.83466   4
   3  -4  -3 0.21957 1.32864   3
   3  -4  -3 -1.1539 1.05327   2
  -4  -4  -3 381.379 12.1065   1
   4   4  -3 396.668 12.6123   2
   4  -4   3 392.192 12.6673   2
  -4   4   3 400.637 12.0653   1
   4  -4   3 391.853 12.1284   7
   4  -4   3 388.243 12.4520   2
  -4   4   3 402.654 13.2632   6
   4   4  -3 382.779 12.0385   7
   4   4  -3 388.572 12.4111   2
   4  -4   3 385.536 14.0946   3
   4   4  -3 400.115 12.7125   6
   4  -4  -3 380.995 13.7447   3
   4  -4  -3 401.719 11.9739   7
   4   4   3 394.201 12.5415   2
   4   4   3 391.801 12.8177   2
  -4  -4   3 361.561 11.8590   1
   4   4   3 389.581 12.0636   7
  -4   4  -3 402.709 12.8337   6
   4  -4  -3 389.902 12.5481   2
   4   4   3 392.996 12.5316   2
  -4   4  -3 399.930 12.0703   1
   4  -4  -3 400.282 12.4778   2
   4  -4  -3 363.246 14.0279   4
   4  -4  -3 393.505 11.9228   7
  -4  -4   3 397.065 12.0518   1
  -5   4   3 0.06717 1.55043   6
  -5  -4  -3 -0.4842 1.10583   1
   5   4  -3 0.87240 1.51492   6
   5   4  -3 1.36914 1.21537   2
  -5   4   3 0.90878 1.11878   1
   5  -4   3 2.17304 2.17282   3
   5  -4   3 1.56831 1.40903   7
   5   4  -3 0.34965 1.23464   2
   5   4  -3 2.55368 1.20937   7
   5  -4   3 0.18839 1.67390   5
   5  -4   3 0.58376 1.36675   2
   5  -4   3 -1.6186 1.20537   2
   5  -4  -3 1.46163 1.24432   2
  -5  -4   3 0.95129 1.17606   1
   5   4   3 -0.5019 1.04568   7
   5   4   3 -0.4524 1.32264   2
  -5   4  -3 1.83764 1.13523   1
  -5  -4   3 0.86843 1.26757   1
   5  -4  -3 0.71072 1.36633   2
   5   4   3 -0.4864 1.29778   2
   5  -4  -3 0.51410 1.79899   3
   5  -4  -3 0.27093 1.84583   4
  -5   4  -3 1.05692 1.48687   6
   5   4   3 -0.8393 1.11850   2
   5  -4  -3 1.79496 1.13393   7
   6   4  -3 1232.56 34.8311   2
   6  -4   3 1264.19 35.2784   2
   6   4  -3 1270.42 35.0714   2
   6  -4   3 1252.71 36.4860   5
   6  -4   3 1276.91 34.8362   7
   6  -4   3 1268.06 37.9920   3
   6   4  -3 1259.11 34.3215   7
  -6  -4  -3 1254.97 34.5385   1
   6  -4   3 1252.46 35.4998   2
  -6   4   3 1278.71 34.8030   1
  -6   4   3 1265.11 36.5065   6
   6  -4  -3 1210.94 37.4069   3
   6  -4  -3 1232.19 37.6440   4
   6   4   3 1289.96 35.7573   2
   6  -4  -3 1241.28 34.7838   2
  -6   4  -3 1245.58 35.4757   6
  -6  -4   3 1233.67 34.7467   1
   6   4   3 1218.83 34.6651   7
  -6   4  -3 1230.71 34.4592   1
   6  -4  -3 1254.19 34.9869   2
   6   4   3 1250.37 35.6662   2
   6   4   3 1235.55 35.6208   2
   6  -4  -3 1230.05 34.0658   7
   6  -4  -3 1255.91 35.7897   5
   7   4  -3 0.81746 1.22279   2
  -7   4   3 -2.2425 1.56817   6
   7   4  -3 0.37326 1.28878   2
   7  -4   3 2.01815 1.55072   2
  -7  -4  -3 1.52893 1.30304   1
   7   4  -3 0.37333 0.99124   7
  -7   4   3 0.24128 1.14301   1
   7  -4   3 -0.4683 2.39786   3
   7  -4   3 -1.1349 2.01978   5
   7  -4   3 1.50888 1.27400   7
   7  -4  -3 0.31943 2.31261   3
   7  -4  -3 3.01407 1.95599   5
   7  -4  -3 0.33340 1.46068   2
  -7  -4   3 2.01279 1.35545   1
  -7   4  -3 0.08748 1.10355   1
   7   4   3 -0.4833 1.54429   2
   7  -4  -3 0.65346 0.91765   7
   7   4   3 1.59273 1.03563   7
   7  -4  -3 -0.6225 1.17224   2
   8  -4   3 127.904 5.51413   2
   8  -4   3 150.061 8.31345   3
   8  -4   3 128.163 6.96576   5
   8   4  -3 134.888 5.41638   2
   8  -4  -3 127.140 5.42339   2
   8  -4  -3 130.683 5.37553   2
   8  -4  -3 144.874 6.73099   5
   8  -4  -3 126.421 7.86193   3
   8   4   3 134.543 5.83555   2
   9  -4   3 -0.7439 2.40697   5
   9   4  -3 0.59227 1.33113   2
   9  -4   3 0.00199 2.75241   3
   9  -4   3 -0.5618 1.57965   2
   9  -4  -3 3.18484 1.64170   2
   9   4   3 1.59260 1.72007   2
   9  -4  -3 1.64245 2.26246   5
   9  -4  -3 1.74151 2.80111   3
  10   4  -3 526.774 15.8898   2
  10  -4   3 519.349 18.1601   5
  10  -4   3 515.122 16.0283   2
  10  -4   3 540.428 19.9561   3
  10   4   3 522.786 16.3288   2
  10  -4  -3 537.924 20.0418   3
  10  -4  -3 509.448 15.7932   2
  11  -4   3 5.05819 3.19202   5
  11  -4   3 -0.8551 1.62953   2
  11   4  -3 1.99942 1.52725   2
  11  -4   3 -0.8933 3.11052   3
  11  -4  -3 0.37540 3.01417   3
  11  -4  -3 -1.9397 1.47480   2
  11  -4  -3 -1.0329 1.34160   2
  11   4   3 -0.3580 1.67492   2
  12  -4   3 41.6574 5.70313   3
  12  -4  -3 35.9765 5.39342   3
   0   5   3 5193.88 147.876   1
   0   5  -3 5053.82 138.100   6
   0  -5   3 5478.00 147.966   1
   0  -5  -3 5077.80 137.578   1
   0  -5   3 6401.89 148.129   1
   0   5   3 5292.26 147.961   7
   0   5  -3 5186.18 137.588   1
   0  -5  -3 5140.53 137.677   7
   0   5   3 5388.55 148.171   6
   0  -5   3 5460.25 148.020   7
   0   5  -3 5254.59 137.689   7
   1  -5   3 4.97257 1.68722   7
  -1   5   3 6.32504 1.62378   1
   1  -5   3 4.85121 1.50089   1
   1   5  -3 2.23969 1.32896   7
  -1   5   3 5.09267 1.78444   6
   1   5  -3 1.95367 1.26087   1
  -1   5   3 3.95678 1.49262   7
  -1  -5  -3 4.58017 1.56988   7
   1   5  -3 3.99486 1.57422   6
  -1  -5  -3 3.13257 1.48273   1
   1   5   3 3.31205 1.44427   7
  -1   5  -3 3.78433 1.36336   1
  -1   5  -3 5.10394 1.47514   7
   1  -5  -3 4.73243 1.50697   7
  -1  -5   3 5.28190 1.54064   1
   1   5   3 5.79868 1.52177   6
  -1  -5   3 3.23746 1.51397   7
   1   5   3 5.00797 1.50841   1
   1  -5  -3 3.69030 1.66320   3
  -1   5  -3 4.26002 1.69882   6
  -1  -5   3 4.59381 1.52704   1
   1  -5  -3 4.64540 1.47951   1
  -2   5   3 303.507 9.97773   7
   2  -5   3 310.120 10.7927   1
  -2   5   3 308.551 10.0060   1
   2  -5   3 290.989 9.97578   7
  -2  -5  -3 297.950 9.90670   1
   2  -5   3 308.068 10.3572   4
  -2   5   3 297.579 10.6381   6
  -2  -5  -3 301.587 9.92648   7
   2   5  -3 299.617 9.84463   7
   2   5  -3 296.022 10.2849   6
   2   5   3 298.170 9.99186   7
   2  -5  -3 303.267 10.4935   2
   2   5   3 307.581 9.63225   6
   2  -5  -3 307.600 11.0026   3
  -2   5  -3 298.695 10.3820   6
  -2   5  -3 288.280 9.72854   1
  -2  -5   3 264.388 9.64712   1
  -2  -5   3 309.393 10.0436   7
   2  -5  -3 287.349 9.75637   7
   2   5   3 316.671 10.0089   1
  -2   5  -3 303.396 9.93347   7
   2   5   3 316.190 10.8224   2
   3  -5   3 2.58800 1.64822   4
  -3   5   3 3.41460 1.53475   7
   3   5  -3 2.26568 1.25396   7
   3   5  -3 2.92812 1.51182   6
   3  -5   3 3.32402 1.60058   2
  -3  -5  -3 1.94641 1.44158   1
  -3   5   3 2.61266 1.40936   1
  -3  -5  -3 1.73003 1.39130   7
   3   5  -3 2.32351 1.34818   2
   3  -5   3 3.25234 1.54667   7
   3  -5   3 3.29844 2.60452   3
  -3   5   3 3.30576 1.71151   6
  -3   5  -3 0.26026 1.41828   6
  -3  -5   3 2.06502 1.33779   1
   3  -5  -3 1.27303 1.28943   7
   3  -5  -3 0.35994 1.23982   7
   3   5   3 3.50175 1.41982   7
   3  -5  -3 2.65384 1.68815   2
  -3   5  -3 1.28016 1.17058   7
  -3  -5   3 1.34453 1.37558   7
   3   5   3 0.78524 1.51798   2
  -3   5  -3 2.51658 1.25186   1
   3   5   3 1.84899 1.01504   6
   3  -5  -3 2.08973 1.64571   3
  -4  -5  -3 3453.08 95.5245   1
   4  -5   3 3765.23 102.053   3
  -4   5   3 3668.86 100.007   6
   4  -5   3 3542.86 99.1413   2
   4   5  -3 3706.80 96.2558   6
   4  -5   3 3666.16 98.7594   7
   4  -5   3 3703.43 99.6451   5
   4  -5   3 3694.23 100.096   4
   4   5  -3 3531.74 96.0683   2
   4   5  -3 3619.13 95.5402   7
  -4   5   3 3677.01 98.6875   1
   4  -5  -3 3596.89 96.3110   2
   4   5   3 3549.42 98.7118   7
   4   5   3 3747.86 99.7226   2
   4  -5  -3 3569.77 95.4024   7
   4  -5  -3 3482.09 95.3722   7
   4  -5  -3 3560.59 97.7372   3
   4  -5  -3 3360.45 98.4648   4
  -4  -5   3 3666.35 98.5368   1
  -4   5  -3 3539.74 95.4667   1
  -4   5  -3 3595.49 96.4138   6
   5  -5   3 6.46950 2.27600   5
  -5  -5  -3 7.17084 1.64803   1
  -5   5   3 5.96681 1.54322   1
   5  -5   3 5.03203 2.68692   3
   5   5  -3 5.89432 1.55088   7
   5   5  -3 5.92886 1.76144   2
  -5   5   3 7.12386 2.36933   6
   5  -5   3 7.20544 1.83629   7
   5  -5   3 8.01000 2.00495   2
  -5   5  -3 7.65253 2.07203   6
   5   5   3 7.19200 1.62497   7
  -5  -5   3 7.73923 1.67813   1
   5  -5  -3 5.45153 1.88595   2
   5  -5  -3 5.08759 2.32731   3
  -5  -5   3 11.5387 1.83508   1
   5   5   3 3.61976 1.87817   2
   5  -5  -3 7.48287 2.78388   4
  -5   5  -3 7.70814 1.66896   1
   5  -5  -3 6.77822 1.62405   7
   6  -5   3 122.196 7.41224   3
   6   5  -3 127.025 4.97476   7
   6  -5   3 137.678 5.28116   7
  -6  -5  -3 129.163 5.08221   1
   6   5  -3 119.658 5.33438   2
  -6   5   3 123.300 4.99584   1
   6  -5   3 120.874 5.51009   2
   6  -5   3 121.440 6.33561   5
  -6   5   3 119.065 6.16787   6
  -6  -5   3 138.401 5.20684   1
   6  -5  -3 118.089 4.69414   7
  -6   5  -3 125.015 5.00599   1
   6  -5  -3 126.116 6.17168   5
   6  -5  -3 113.194 7.22227   4
  -6  -5   3 121.471 5.07100   1
   6  -5  -3 125.454 5.57583   2
  -6   5  -3 119.535 5.71297   6
   6   5   3 122.222 4.97275   7
   6  -5  -3 111.848 7.01515   3
   6   5   3 123.779 5.84626   2
   7   5  -3 2.16550 1.32288   7
  -7  -5  -3 0.98055 1.43055   1
   7  -5   3 1.21296 1.70101   2
   7  -5   3 -0.3093 2.09300   5
   7   5  -3 0.38122 1.40952   2
   7  -5   3 2.59202 1.44761   7
   7  -5   3 -1.1745 2.47701   3
  -7   5   3 0.20088 1.16652   1
  -7   5   3 3.06470 2.01121   6
  -7   5  -3 2.21563 1.25931   1
   7  -5  -3 2.90946 2.21395   5
   7   5   3 0.87804 1.04381   7
   7  -5  -3 0.47704 1.19360   7
   7  -5  -3 2.21473 2.65330   3
   7  -5  -3 1.53903 1.68881   2
   7   5   3 1.93984 1.82838   2
   7  -5  -3 -1.4618 2.33593   4
  -7  -5   3 2.89353 1.52198   1
  -8  -5  -3 1674.43 46.6412   1
   8  -5   3 1662.55 46.4536   2
   8   5  -3 1651.06 46.2253   2
   8  -5   3 1719.38 50.3250   3
   8  -5   3 1635.33 48.1191   5
   8  -5  -3 1656.05 49.8206   3
   8  -5  -3 1649.50 46.2995   2
   8  -5  -3 1671.12 47.6553   5
   8   5   3 1654.34 46.8597   2
   9  -5   3 4.27481 1.99708   2
   9  -5   3 6.06538 3.61317   3
   9   5  -3 6.12120 1.81351   2
   9  -5   3 6.04836 3.06372   5
   9  -5  -3 4.17762 2.63281   5
   9  -5  -3 2.96965 1.76872   2
   9   5   3 6.87289 2.12214   2
   9  -5  -3 5.02859 3.39654   3
  10   5  -3 34.5962 2.87039   2
  10  -5   3 33.2998 3.09487   2
  10  -5   3 35.0601 5.23902   3
  10  -5   3 33.7654 4.48622   5
  10  -5  -3 32.9187 2.92362   2
  10  -5  -3 36.6434 6.14823   3
  10   5   3 39.1664 3.20611   2
  10  -5  -3 33.8432 2.83231   2
  11   5  -3 1.01375 1.57676   2
  11  -5   3 1.47089 3.77297   3
  11  -5   3 1.77489 2.91941   5
  11  -5   3 -1.3409 1.66638   2
  11   5   3 -0.4959 1.67442   2
  11  -5  -3 0.06429 1.75123   2
  11  -5  -3 4.76887 3.60387   3
  12  -5   3 642.555 23.5828   3
  12  -5   3 620.522 21.6728   5
  12  -5  -3 606.005 23.0870   3
   0   6   3 263.972 9.27512   1
   0   6  -3 277.761 9.25094   7
   0   6   3 266.753 9.50727   6
   0  -6  -3 252.153 9.05855   1
   0   6  -3 256.977 9.04574   1
   0  -6  -3 273.185 9.24803   7
   0  -6   3 267.113 9.36338   7
   0   6   3 274.360 9.36952   7
   0   6  -3 259.757 9.57064   6
  -1   6   3 15.8140 2.06663   1
   1  -6   3 16.5600 2.11220   1
   1  -6   3 17.2431 2.13456   1
   1   6  -3 12.8746 1.87704   7
   1   6  -3 14.7692 2.21511   6
   1  -6   3 17.3048 2.22846   7
   1   6  -3 15.9813 1.98838   1
  -1  -6  -3 13.4757 2.01086   1
  -1   6   3 12.9715 1.93054   7
  -1   6   3 18.0781 2.39019   6
  -1  -6  -3 15.7425 2.08629   7
  -1  -6   3 15.1850 1.99863   1
   1   6   3 12.2533 1.86431   6
   1  -6  -3 15.5491 2.15699   7
   1   6   3 10.7292 2.04923   7
  -1  -6   3 16.8749 2.23282   7
   1  -6  -3 11.7966 2.13364   7
  -1   6  -3 15.7441 1.93906   1
   1   6   3 11.7173 1.88700   1
  -1   6  -3 17.5718 2.11017   7
  -1   6  -3 13.9297 2.14236   6
   1  -6  -3 13.7134 1.99978   1
  -2  -6  -3 449.182 14.3123   7
   2  -6   3 455.964 14.4931   7
  -2  -6  -3 454.997 14.3325   7
   2  -6   3 483.435 14.4851   1
   2  -6   3 453.410 15.1244   2
   2   6  -3 460.792 14.7763   6
   2   6  -3 460.569 14.2451   1
  -2   6   3 456.295 15.1886   6
   2  -6   3 458.316 14.9567   4
   2   6  -3 437.842 14.2497   7
  -2   6   3 446.957 14.5092   7
  -2   6   3 455.402 14.4181   1
  -2  -6  -3 430.594 14.2049   1
   2  -6  -3 461.621 14.3467   7
  -2   6  -3 459.891 14.9548   6
   2   6   3 478.141 14.1780   6
   2   6   3 453.714 14.4020   1
  -2  -6   3 490.966 14.3828   1
   2   6   3 465.923 14.6144   7
  -2   6  -3 457.283 14.1983   1
   2  -6  -3 459.558 15.8306   3
   2  -6  -3 468.325 14.9992   2
   2  -6  -3 447.041 14.2994   7
  -2  -6   3 448.409 14.4782   7
   2   6   3 470.609 15.3803   2
  -2   6  -3 452.736 14.3018   7
   2  -6  -3 499.796 14.3406   1
   3  -6   3 11.1201 2.36136   4
   3   6  -3 7.79737 1.96633   2
   3   6  -3 12.1218 2.08106   6
  -3   6   3 12.5250 1.95245   1
   3  -6   3 12.5149 2.30405   2
  -3   6   3 10.0120 2.52857   6
   3  -6   3 9.20709 3.89220   3
  -3  -6  -3 7.48682 1.81863   1
   3  -6   3 10.7552 2.12815   7
   3   6  -3 5.47240 1.53999   7
   3  -6  -3 13.2361 2.02567   7
  -3  -6   3 9.77365 1.89418   1
   3  -6  -3 9.61531 2.58750   3
   3   6   3 10.1254 2.36592   2
   3  -6  -3 11.3058 2.44016   2
  -3   6  -3 16.3117 2.39962   6
   3   6   3 14.2290 2.02138   7
   3  -6  -3 15.2764 2.06726   7
   3   6   3 10.7199 1.51715   6
  -3   6  -3 11.1300 1.73050   1
   3  -6  -3 7.69285 1.99662   2
   4   6  -3 173.937 6.91356   6
   4   6  -3 147.785 6.17768   7
   4   6  -3 163.601 6.84722   2
  -4   6   3 165.072 7.39319   6
   4  -6   3 172.236 6.59962   7
   4  -6   3 181.240 7.74114   4
   4  -6   3 173.004 7.12256   2
  -4  -6  -3 170.680 6.46949   1
   4  -6   3 173.163 9.41183   3
  -4   6   3 177.086 6.57519   1
   4  -6  -3 152.692 8.75496   4
   4   6   3 160.384 7.19176   2
   4  -6  -3 158.006 6.89065   2
  -4   6  -3 164.267 7.06515   6
  -4  -6   3 156.916 6.25207   1
   4  -6  -3 162.962 7.98902   3
   4   6   3 160.559 6.48524   7
  -4   6  -3 163.920 6.28576   1
   4  -6  -3 162.851 6.90531   2
   4  -6  -3 165.623 6.31612   7
   5  -6   3 16.4269 2.48107   2
  -5   6   3 12.3882 1.88513   1
  -5   6   3 11.6678 2.70650   6
   5  -6   3 12.8494 2.07803   7
   5  -6   3 12.2310 3.52894   3
   5  -6   3 11.4151 2.84208   4
  -5  -6  -3 12.3596 2.01455   1
   5  -6   3 13.6128 2.75156   5
   5   6  -3 12.6332 1.92986   7
   5   6  -3 12.8373 2.07751   2
   5   6   3 15.9771 2.08346   7
   5  -6  -3 9.65621 2.34632   2
  -5   6  -3 13.2258 1.89101   1
   5  -6  -3 8.95452 3.26884   4
   5  -6  -3 13.1237 3.16479   3
  -5   6  -3 12.3213 2.18126   6
   5   6   3 8.92329 2.27729   2
  -5  -6   3 15.1463 2.00005   1
   5  -6  -3 12.4681 2.26295   2
   5  -6  -3 14.6985 2.00373   7
   6   6  -3 251.800 9.39006   2
   6  -6   3 262.987 9.70447   2
  -6   6   3 262.872 10.3657   6
  -6   6   3 263.171 8.99287   1
   6  -6   3 263.936 9.12997   7
   6  -6   3 267.765 10.5563   5
  -6  -6  -3 266.912 8.94384   1
   6   6  -3 254.695 8.82876   7
   6  -6   3 276.674 12.3141   3
  -6   6  -3 251.635 8.77686   1
   6  -6  -3 248.643 11.7861   4
  -6  -6   3 257.910 9.01528   1
  -6   6  -3 256.243 9.76859   6
  -6  -6   3 258.678 8.99995   1
   6  -6  -3 247.544 8.56011   7
   6  -6  -3 255.715 9.48063   2
   6   6   3 252.750 8.93955   7
   6  -6  -3 260.109 11.4941   3
   6   6   3 273.288 10.0840   2
   6  -6  -3 262.278 9.56585   2
  -7  -6  -3 7.92124 1.93383   1
   7  -6   3 6.66696 2.66008   5
   7  -6   3 3.46505 3.01425   3
   7  -6   3 5.27300 2.12649   2
  -7   6   3 11.5324 1.84652   1
   7   6  -3 7.04052 1.69916   7
  -7   6   3 7.62346 2.56720   6
   7  -6   3 4.68694 1.74846   7
   7   6  -3 4.82067 1.84892   2
  -7   6  -3 4.66371 1.57431   1
   7   6   3 7.00202 1.63795   7
   7  -6  -3 6.56549 2.13532   2
   7  -6  -3 7.53095 1.64516   7
   7  -6  -3 5.50092 3.05071   3
  -7  -6   3 7.64386 1.92288   1
  -7   6  -3 6.60599 2.16429   6
   7  -6  -3 6.37510 2.10248   2
   7  -6  -3 5.50578 2.46048   5
   7  -6  -3 7.00712 3.22176   4
   7   6   3 5.85865 2.20988   2
  -7  -6   3 6.54643 1.96179   1
   8  -6   3 61.8499 5.11751   5
   8  -6   3 57.1005 3.87436   2
   8  -6   3 55.4352 5.95546   3
  -8  -6  -3 53.3007 3.30483   1
   8   6  -3 56.8500 3.70741   2
  -8   6   3 55.1563 4.32903   6
   8  -6  -3 53.1710 4.63136   5
   8  -6  -3 58.8403 3.76625   2
   8   6   3 53.0062 3.85471   2
  -8  -6   3 60.1130 3.41708   1
  -8   6  -3 60.8772 3.36179   1
   8   6   3 57.3879 3.00790   7
   8  -6  -3 55.3359 3.79399   2
   8  -6  -3 54.3022 5.50270   3
   9   6  -3 6.20564 1.93138   2
   9  -6   3 8.05305 2.37877   2
   9  -6   3 6.27360 2.96654   5
   9  -6   3 9.34091 3.85293   3
   9  -6  -3 6.55618 2.14646   2
   9  -6  -3 10.8160 3.20166   5
   9   6   3 9.10358 2.41098   2
   9  -6  -3 8.78611 3.86134   3
  10   6  -3 113.591 5.41590   2
  10  -6   3 138.227 9.02050   3
  10  -6   3 115.550 5.66904   2
  10  -6   3 118.134 7.21052   5
  10  -6  -3 115.722 5.53361   2
  10  -6  -3 112.570 8.21694   3
  10   6   3 110.484 5.71441   2
  10  -6  -3 133.753 8.05580   5
  11   6  -3 2.27718 1.74624   2
  11  -6   3 4.69582 2.31152   2
  11  -6   3 7.19579 4.20219   3
  11  -6   3 3.50369 3.43692   5
  11   6   3 4.21447 2.03599   2
  11  -6  -3 0.92182 3.43869   3
  11  -6  -3 5.55075 2.21549   2
  12  -6   3 22.1314 4.84374   5
  12  -6   3 31.1356 6.29176   3
  12  -6  -3 30.7150 6.07600   3
   0   7   3 38.5207 2.90934   1
   0  -7  -3 40.2535 3.12466   7
   0  -7   3 40.3712 3.10362   7
   0   7  -3 41.2227 3.28069   6
   0   7  -3 38.2358 2.87935   7
   0  -7  -3 36.7919 2.96098   1
   0   7   3 33.6602 2.85375   7
   0   7   3 36.3757 2.98112   6
   0  -7  -3 37.8457 2.96123   7
   0  -7   3 30.4526 2.75327   1
   0   7  -3 37.4414 2.83828   1
  -1   7   3 21.4381 2.40695   1
  -1  -7  -3 25.1259 2.61877   7
   1   7  -3 23.6645 2.35368   7
   1  -7   3 22.6300 2.48596   1
  -1   7   3 23.3148 2.50935   7
  -1  -7  -3 24.2051 2.47962   7
   1  -7   3 23.6732 2.68765   7
  -1   7   3 21.7815 2.63179   6
   1  -7   3 23.1728 2.47498   1
   1   7  -3 17.7355 2.19512   1
  -1  -7  -3 20.3431 2.37602   1
   1   7  -3 20.7097 2.54658   6
   1   7   3 20.4157 2.30897   6
   1   7   3 26.0332 2.56534   7
   1   7   3 20.2818 2.35417   1
  -1  -7   3 23.5162 2.39644   1
  -1   7  -3 19.0348 2.25687   1
   1  -7  -3 24.2632 2.43385   1
  -1   7  -3 21.2682 2.57713   6
   1  -7  -3 19.6117 2.40001   7
  -1   7  -3 22.8973 2.35849   7
  -1  -7   3 23.5820 2.57110   7
   1  -7  -3 19.1690 2.31874   7
   2   7  -3 721.505 22.6098   2
  -2   7   3 708.275 21.0335   7
  -2   7   3 691.082 20.9023   1
   2  -7   3 719.849 22.3300   2
   2  -7   3 720.218 20.9557   1
   2  -7   3 692.051 20.9874   7
   2   7  -3 701.268 21.2372   6
   2   7  -3 732.241 20.8376   1
   2  -7   3 699.141 21.5934   4
  -2  -7  -3 704.042 20.8514   7
  -2   7   3 700.473 21.7161   6
   2   7  -3 649.396 20.6362   7
   2  -7   3 605.644 20.7553   1
  -2  -7  -3 647.067 20.6310   1
  -2  -7  -3 711.385 20.8848   7
  -2  -7   3 731.343 20.8716   1
  -2  -7   3 684.657 20.9332   7
  -2   7  -3 699.008 20.6686   1
   2   7   3 708.716 20.9254   1
   2   7   3 714.640 20.6934   6
   2  -7  -3 693.450 21.5818   2
   2  -7  -3 675.138 20.7664   7
   2   7   3 703.770 21.0877   7
   2  -7  -3 709.125 20.7410   1
  -2   7  -3 715.263 21.6141   6
  -2   7  -3 661.052 20.6955   7
   2  -7  -3 688.636 20.8111   7
   2  -7  -3 692.342 22.6975   3
   3  -7   3 23.1612 3.10232   4
   3  -7   3 20.6472 2.54887   7
  -3  -7  -3 21.8727 2.47086   1
  -3   7   3 21.4693 2.32451   1
   3  -7   3 12.1619 5.07808   3
  -3   7   3 20.2637 2.89521   6
   3   7  -3 21.1866 2.55942   6
   3   7  -3 24.2046 2.44395   7
   3  -7   3 20.6214 2.83792   2
   3   7  -3 16.9989 2.38695   2
  -3  -7   3 24.9486 2.41771   1
  -3   7  -3 22.7392 2.70066   6
   3  -7  -3 21.8308 3.29210   3
   3   7   3 25.7266 2.59350   7
   3  -7  -3 18.8971 2.74515   2
  -3   7  -3 22.0125 2.25815   1
   3  -7  -3 26.9886 2.61871   7
   3   7   3 16.5349 2.67781   2
   4   7  -3 27.7467 2.49368   7
  -4   7   3 23.4332 3.03854   6
   4  -7   3 23.6033 3.18068   4
   4  -7   3 27.6722 3.07502   2
   4  -7   3 30.6010 5.16847   3
  -4   7   3 25.8641 2.43966   1
   4   7  -3 29.4506 2.84171   6
   4  -7   3 26.1584 2.66985   7
  -4  -7  -3 27.2895 2.61852   1
   4   7  -3 23.7570 2.73185   2
  -4   7  -3 26.3971 2.45606   1
  -4  -7   3 23.7577 2.46258   1
  -4   7  -3 23.9351 2.84146   6
   4  -7  -3 28.7205 3.09746   2
   4  -7  -3 26.8275 4.66544   4
   4   7   3 27.3017 3.01965   2
   4   7   3 27.7414 2.55510   7
   4  -7  -3 23.7561 2.53512   7
   4  -7  -3 28.7142 3.60195   3
   5  -7   3 15.9904 2.68801   2
   5  -7   3 15.7713 2.31677   7
  -5   7   3 11.8795 2.72796   6
   5  -7   3 14.0580 4.06739   3
  -5   7   3 10.7841 2.10019   1
   5  -7   3 13.0988 3.16550   4
  -5  -7  -3 15.2676 2.37467   1
   5  -7   3 7.52570 2.62021   5
   5   7  -3 9.68194 2.28977   2
   5   7  -3 15.0368 2.04152   7
   5  -7  -3 15.1677 3.82845   4
  -5  -7   3 15.8598 2.13607   1
  -5   7  -3 10.7689 2.57929   6
   5  -7  -3 6.72428 2.75747   3
   5   7   3 10.2416 2.55995   2
   5  -7  -3 8.61018 2.37033   2
   5  -7  -3 15.6356 2.19885   7
   5   7   3 14.4576 2.10935   7
  -5   7  -3 13.5942 1.99624   1
  -6  -7  -3 348.738 11.4965   1
   6   7  -3 357.080 11.5234   7
  -6   7   3 362.395 11.7788   1
  -6   7   3 357.650 13.1885   6
   6  -7   3 380.877 15.7782   3
   6  -7   3 368.482 11.9852   7
   6   7  -3 346.155 12.1698   2
   6  -7   3 361.457 12.6095   2
   6  -7   3 367.002 13.3358   5
   6  -7  -3 345.908 11.2494   7
  -6  -7   3 357.788 11.8072   1
   6   7   3 359.116 11.8040   7
   6  -7  -3 353.634 14.2644   3
   6  -7  -3 331.405 14.6676   4
  -6   7  -3 352.655 11.4514   1
  -6   7  -3 349.875 12.5206   6
  -6  -7   3 356.530 11.7807   1
   6   7   3 366.552 12.9937   2
   6  -7  -3 351.470 12.2407   2
  -7  -7  -3 18.8649 2.41374   1
   7  -7   3 14.5433 2.33662   7
   7   7  -3 17.9591 2.53035   2
   7  -7   3 18.3815 2.80151   2
   7   7  -3 15.2404 2.06279   7
  -7   7   3 16.7558 2.15149   1
   7  -7   3 15.4278 3.42913   5
   7  -7   3 15.4288 4.28791   3
  -7   7   3 9.57293 2.66547   6
  -7   7  -3 12.7945 2.02852   1
   7  -7  -3 16.1389 2.71303   2
  -7  -7   3 14.5896 2.34490   1
   7  -7  -3 18.0627 4.27985   4
   7  -7  -3 10.6333 3.66445   3
   7  -7  -3 12.1611 3.22028   5
  -7   7  -3 9.20597 2.45871   6
   7   7   3 19.0891 2.17024   7
  -7  -7   3 17.0484 2.42435   1
   7   7   3 15.9839 2.66395   2
   7  -7  -3 16.3793 2.05138   7
   8  -7   3 14.9669 3.68700   5
  -8  -7  -3 14.8150 2.47801   1
  -8   7   3 14.2931 3.37611   6
   8  -7   3 16.0194 2.52241   7
   8  -7   3 17.1223 3.16824   2
   8  -7   3 19.6062 5.03833   3
   8   7  -3 12.8446 2.40798   2
  -8   7   3 14.4732 2.28538   1
   8   7  -3 12.2854 1.89584   7
   8  -7  -3 16.1976 4.41887   4
  -8   7  -3 14.7172 2.42123   1
   8   7   3 14.4471 3.08254   2
   8  -7  -3 19.4619 3.93507   5
   8   7   3 14.3611 1.93590   7
  -8  -7   3 16.0320 2.59284   1
   8  -7  -3 16.1379 3.05004   2
   8  -7  -3 14.2979 4.26838   3
   9   7  -3 3.62852 1.87887   2
   9  -7   3 7.61358 4.37232   3
   9  -7   3 11.3260 3.35461   5
   9  -7   3 4.31415 2.32004   2
   9  -7  -3 5.11961 2.25770   2
   9   7   3 8.51194 2.37093   2
   9  -7  -3 9.80869 3.79815   3
   9  -7  -3 6.11911 3.10858   5
  10  -7   3 152.854 9.83849   3
  10   7  -3 127.993 6.03452   2
  10  -7   3 129.767 6.30590   2
  10  -7   3 137.239 7.87063   5
  10   7   3 123.418 6.38208   2
  10  -7  -3 121.812 6.04108   2
  10  -7  -3 141.867 7.95447   5
  10  -7  -3 127.716 8.79926   3
  11  -7   3 12.8748 3.91633   5
  11  -7   3 3.84955 2.33124   2
  11  -7   3 13.5055 4.87102   3
  11   7  -3 6.05229 2.20656   2
  11  -7  -3 7.96493 3.90376   3
  11   7   3 7.44286 2.40051   2
  11  -7  -3 7.90209 2.63005   2
  12  -7   3 9.55571 3.95245   5
  12  -7   3 0.40278 3.95864   3
  12  -7  -3 1.53425 4.00430   3
   0  -8  -3 388.556 12.5660   7
   0  -8   3 415.910 13.0306   1
   0   8   3 394.961 13.0235   1
   0   8  -3 373.926 12.9706   6
   0   8  -3 365.721 12.2767   1
   0   8  -3 387.976 12.4327   7
   0   8   3 382.678 13.2454   6
   0  -8   3 410.602 13.2276   7
   0  -8  -3 328.248 12.1152   1
   0   8   3 365.597 13.0459   7
   1   8  -3 16.9496 2.50834   6
  -1   8   3 25.0803 2.63716   7
   1   8  -3 21.9671 2.44464   1
  -1   8   3 21.0783 2.73204   6
   1  -8   3 22.7965 2.71707   7
  -1  -8  -3 16.9113 2.36597   1
  -1  -8  -3 19.6478 2.59379   7
   1  -8   3 19.8248 2.60509   1
   1   8  -3 22.4797 2.50135   7
  -1   8   3 17.9683 2.41274   1
   1  -8   3 31.1554 2.90782   1
   1   8   3 17.7285 2.33828   6
  -1  -8   3 19.7581 2.70156   7
  -1   8  -3 17.6163 2.60427   6
  -1   8  -3 21.9139 2.40710   7
   1   8   3 20.5763 2.45891   1
  -1   8  -3 21.7052 2.41386   1
   1   8   3 21.2387 2.68085   7
  -1  -8   3 24.3165 2.59972   1
   1  -8  -3 21.9133 2.59960   1
   1  -8  -3 26.7890 2.82475   7
   2  -8   3 18.9578 2.76605   7
  -2   8   3 25.3614 2.59150   7
  -2  -8  -3 21.4760 2.46567   1
  -2  -8  -3 27.1059 2.74722   7
  -2   8   3 18.9148 2.83346   6
   2  -8   3 24.5751 2.67485   1
  -2   8   3 20.2522 2.44878   1
   2  -8   3 19.3231 2.59885   1
   2   8  -3 24.9597 2.52259   1
   2   8  -3 22.5383 2.65722   6
   2   8  -3 22.6927 2.47011   7
   2  -8  -3 23.5834 2.57216   1
  -2   8  -3 21.5104 2.79678   6
   2   8   3 26.1645 2.64763   7
   2   8   3 20.8644 2.28660   6
  -2   8  -3 20.0785 2.38065   1
  -2  -8   3 19.2724 2.46846   1
   2   8   3 31.1192 2.73870   1
  -2   8  -3 26.5720 2.65728   7
  -2  -8   3 20.7210 2.62406   7
   2  -8  -3 22.3657 3.50352   3
   2  -8  -3 18.4851 2.46355   7
   3  -8   3 22.1325 2.78802   7
   3  -8   3 26.6097 3.32090   4
   3   8  -3 22.5001 2.60936   6
   3   8  -3 23.8719 2.49045   7
   3  -8   3 12.6419 6.48552   3
  -3   8   3 19.7108 2.86599   6
  -3  -8  -3 21.7484 2.67653   1
  -3   8   3 23.0522 2.62779   1
  -3   8  -3 20.6751 2.33374   1
  -3   8  -3 22.9315 2.84438   6
   3  -8  -3 19.7117 3.37606   3
   3  -8  -3 24.5327 2.62001   7
   3   8   3 21.0498 2.50691   7
  -3  -8   3 26.4869 2.77355   1
   4  -8   3 280.119 15.0446   3
   4  -8   3 274.653 10.3797   2
   4  -8   3 244.574 9.42610   7
  -4   8   3 264.565 10.5055   6
  -4  -8  -3 247.412 9.23072   1
   4   8  -3 262.064 9.32141   7
  -4   8   3 267.661 9.49151   1
   4   8  -3 262.257 10.0673   2
   4  -8   3 261.611 10.6573   4
   4   8   3 257.926 9.53276   7
   4  -8  -3 247.458 13.4713   4
  -4   8  -3 268.648 9.26411   1
   4  -8  -3 253.886 10.0469   2
   4  -8  -3 243.619 9.11748   7
  -4   8  -3 260.295 10.1420   6
  -4  -8   3 274.031 9.48071   1
   4  -8  -3 257.561 11.3100   3
   5   8  -3 16.1790 2.30053   7
   5  -8   3 11.0649 3.10994   4
   5  -8   3 15.3304 2.86951   2
  -5   8   3 14.7067 2.22125   1
   5  -8   3 12.2262 2.47804   7
  -5   8   3 11.7493 2.95034   6
   5   8  -3 12.1367 2.67246   2
   5  -8   3 17.1682 5.03450   3
  -5  -8  -3 15.9788 2.41569   1
   5  -8  -3 16.2812 2.82409   2
   5   8   3 9.23443 2.73700   2
   5   8   3 14.0593 2.29878   7
   5  -8  -3 10.1311 3.77026   4
   5  -8  -3 11.6238 3.30873   3
  -5   8  -3 14.1996 2.17991   1
  -5   8  -3 15.0708 2.54623   6
   5  -8  -3 14.5375 2.32498   7
  -5  -8   3 12.9725 2.38416   1
  -6   8   3 9.35237 2.26693   1
   6   8  -3 14.6899 2.45500   7
   6  -8   3 19.1682 3.97607   4
   6   8  -3 18.4894 2.72089   2
   6  -8   3 16.4550 5.00183   3
   6  -8   3 16.8818 3.17877   2
  -6   8   3 16.7758 3.33358   6
   6  -8   3 14.5589 2.74100   7
   6  -8   3 12.3010 3.13706   5
  -6  -8  -3 16.8010 2.72264   1
   6  -8  -3 11.3298 4.11129   4
   6  -8  -3 19.2904 2.95502   2
  -6   8  -3 19.8278 3.53557   6
   6  -8  -3 13.5339 3.82664   3
   6   8   3 16.2327 3.25338   2
  -6   8  -3 17.0692 2.58150   1
  -6  -8   3 15.0047 2.58541   1
   6   8   3 15.1498 2.19084   7
   6  -8  -3 17.3764 2.65173   7
   7  -8   3 11.4625 2.40869   7
  -7   8   3 14.7179 2.22756   1
   7  -8   3 12.0060 3.33502   5
  -7   8   3 21.8650 3.21126   6
   7  -8   3 18.1734 3.01236   2
   7  -8   3 16.2841 4.81842   3
   7   8  -3 13.3611 2.52965   2
  -7  -8  -3 17.7481 2.52957   1
   7   8  -3 15.2844 2.25166   7
  -7  -8   3 16.2038 2.51502   1
   7  -8  -3 17.4155 2.30373   7
   7  -8  -3 14.8687 4.32691   4
  -7   8  -3 15.1459 2.69401   6
   7  -8  -3 20.9416 4.53930   3
   7   8   3 18.7090 2.24473   7
  -7   8  -3 14.0746 2.19112   1
  -7  -8   3 17.3864 2.47955   1
   7   8   3 12.3032 2.92638   2
   7  -8  -3 16.9100 2.89754   2
   8  -8   3 97.3771 6.37298   5
  -8   8   3 110.171 6.33534   6
  -8   8   3 101.981 4.84614   1
   8  -8   3 113.309 8.67250   3
   8   8  -3 100.830 4.65519   7
   8   8  -3 106.623 5.62906   2
  -8  -8  -3 90.0345 4.78534   1
   8  -8   3 109.626 5.86278   2
   8  -8   3 105.808 5.03599   7
   8  -8  -3 98.3509 7.76854   4
  -8  -8   3 112.926 5.32896   1
   8  -8  -3 108.061 5.72189   2
   8   8   3 102.574 5.88793   2
   8  -8  -3 114.722 8.00306   3
   8  -8  -3 101.557 4.55722   7
  -8  -8   3 106.501 5.15811   1
  -8   8  -3 103.289 4.89636   1
   8   8   3 99.0389 4.68671   7
   8  -8  -3 97.6158 6.74980   5
   9  -8   3 5.85300 4.19705   3
   9  -8   3 7.44852 2.69993   2
   9   8  -3 7.09332 2.24199   2
   9  -8   3 4.10202 3.28670   5
   9  -8  -3 7.67548 2.61879   2
   9  -8  -3 15.1451 3.92483   5
   9   8   3 5.53014 2.33044   2
   9  -8  -3 9.72206 3.94006   3
  10  -8   3 0.20942 3.66567   3
  10  -8   3 3.03477 2.52583   2
  10   8  -3 4.48399 2.21752   2
  10  -8   3 9.20448 3.72250   5
  10  -8  -3 -0.3299 3.27077   3
  10  -8  -3 8.79299 2.66312   2
  10   8   3 6.36188 2.56242   2
  10  -8  -3 7.80529 3.79802   5
  11  -8   3 5.29108 4.70960   3
  11  -8   3 12.4943 4.02962   5
  11  -8  -3 5.84149 4.09761   3
   0   9   3 19.1322 2.61366   1
   0   9   3 20.2971 2.83220   7
   0  -9  -3 14.7930 2.53705   1
   0   9  -3 17.8509 2.80148   6
   0   9  -3 17.0223 2.51630   1
   0   9  -3 20.3946 2.55392   7
   0  -9  -3 16.6870 2.73765   7
   0   9   3 17.5389 2.72199   6
   0  -9   3 15.8810 2.76473   7
   0  -9   3 15.4779 2.59501   1
  -1   9   3 10.8404 2.63633   6
   1  -9   3 14.0504 2.69991   1
   1   9  -3 14.7270 2.28288   1
  -1   9   3 14.8832 2.42511   7
   1  -9   3 20.0101 2.76503   1
  -1  -9  -3 9.67242 2.38727   1
   1  -9   3 17.0721 2.70744   7
   1   9  -3 17.9631 2.64912   6
  -1   9   3 11.4775 2.41874   1
  -1  -9  -3 14.4405 2.77809   7
   1   9  -3 14.3859 2.29286   7
   1   9   3 13.1587 2.28743   6
   1  -9  -3 18.4074 2.62664   7
   1   9   3 13.1559 2.52952   1
  -1   9  -3 14.7420 2.30004   1
   1   9   3 15.1298 2.46978   7
   1  -9  -3 17.5866 2.48194   1
  -1  -9   3 11.8561 2.62383   7
  -1  -9   3 10.1409 2.32148   1
  -1   9  -3 12.7802 2.43495   7
  -1   9  -3 9.13376 2.57648   6
   2   9  -3 258.750 9.57569   7
   2  -9   3 249.915 9.46593   1
   2   9  -3 254.506 9.48676   1
   2   9  -3 254.205 9.90966   6
   2  -9   3 230.361 9.24457   1
  -2  -9  -3 297.209 9.92624   1
  -2  -9  -3 262.781 9.75508   7
   2  -9   3 270.044 9.73636   7
  -2   9   3 247.413 9.44253   1
  -2   9   3 245.954 10.0146   6
   2   9   3 254.391 9.29872   6
   2  -9  -3 254.108 9.55858   1
  -2   9  -3 246.892 10.4964   7
   2   9   3 273.877 9.73971   7
  -2   9  -3 249.697 10.1653   6
   2  -9  -3 273.943 9.77411   7
  -2   9  -3 235.969 9.30315   1
  -2  -9   3 263.569 10.0231   7
   2   9   3 262.706 9.48775   1
   2  -9  -3 266.697 11.6804   3
  -2  -9   3 246.766 9.37432   1
   3  -9   3 11.3241 3.03796   4
  -3   9   3 13.9358 3.06477   6
  -3  -9  -3 13.1005 2.56719   1
   3   9  -3 12.2600 2.62714   6
  -3   9   3 19.4937 2.58730   1
   3  -9   3 8.33282 7.15239   3
   3  -9   3 17.2189 2.74976   7
   3   9  -3 16.7031 2.46182   7
  -3  -9   3 11.0330 2.46630   1
  -3   9  -3 16.0901 2.65210   6
   3  -9  -3 10.7567 3.20989   3
   3   9   3 11.5671 2.37699   7
   3  -9  -3 18.8220 2.67693   7
  -3   9  -3 15.0439 2.26916   1
   4  -9   3 18.1468 3.19341   4
   4   9  -3 14.9946 2.24117   7
  -4   9   3 18.0875 2.92321   1
   4  -9   3 19.4756 3.09154   7
  -4  -9  -3 16.5826 2.87840   1
  -4   9   3 16.8402 3.00055   6
   4  -9   3 14.4409 6.66374   3
   4  -9  -3 18.0971 4.16185   3
   4   9   3 15.9215 2.74571   7
   4  -9  -3 19.6087 6.44883   4
  -4   9  -3 16.1208 2.72595   1
  -4   9  -3 16.3945 2.78472   6
   4  -9  -3 16.0380 2.53200   7
  -4  -9   3 17.5811 2.88858   1
   5   9  -3 5.83947 1.95992   7
  -5   9   3 5.93696 1.94774   1
  -5   9   3 8.48592 2.85358   6
   5  -9   3 4.33411 2.20162   7
   5  -9   3 4.40277 2.62112   4
  -5  -9  -3 8.99500 2.45781   1
   5  -9   3 7.90622 5.29309   3
   5   9   3 7.32056 2.10350   7
   5  -9  -3 5.94647 2.90093   3
   5  -9  -3 5.98555 2.08085   7
   5  -9  -3 5.40173 4.03438   4
  -5   9  -3 4.06108 2.14848   6
  -5   9  -3 5.72960 1.88248   1
  -5  -9   3 9.00452 2.24894   1
   6  -9   3 141.887 10.5709   3
  -6   9   3 134.982 7.11652   6
   6  -9   3 139.006 7.22165   5
   6   9  -3 129.515 5.83465   7
   6  -9   3 137.576 7.65410   4
   6  -9   3 131.042 6.14232   7
  -6  -9  -3 122.898 5.81435   1
  -6   9   3 133.990 6.03971   1
   6  -9  -3 120.713 6.64055   2
   6  -9  -3 115.849 5.69523   7
  -6   9  -3 125.870 5.76839   1
  -6   9  -3 126.605 6.68061   6
   6  -9  -3 129.752 8.12196   3
   6   9   3 120.910 5.91643   7
  -6  -9   3 131.289 6.02162   1
   6  -9  -3 121.969 8.97749   4
   7  -9   3 15.1460 5.26879   3
   7   9  -3 9.43795 2.15598   7
   7  -9   3 9.20232 2.95777   2
   7   9  -3 9.70391 2.65761   2
  -7  -9  -3 8.41866 2.32837   1
  -7   9   3 12.8186 3.23257   6
   7  -9   3 14.7453 3.55184   5
  -7   9   3 9.92213 2.31876   1
   7  -9   3 7.92603 2.32418   7
   7  -9  -3 10.9938 2.93535   2
   7  -9  -3 4.89598 3.71758   4
   7   9   3 9.85755 2.16731   7
   7  -9  -3 10.7827 2.28247   7
  -7  -9   3 10.1919 2.45144   1
  -7   9  -3 9.39411 2.11891   1
  -7  -9   3 11.3795 2.52642   1
   7  -9  -3 10.4330 3.82074   3
  -7   9  -3 7.18500 2.45517   6
   8  -9   3 0.60890 4.07441   3
   8  -9   3 9.81090 3.34239   5
   8  -9   3 5.30554 2.66048   2
  -8   9   3 5.93540 2.10331   1
   8   9  -3 6.97774 2.02762   7
   8   9  -3 7.07462 2.46741   2
  -8  -9  -3 6.19149 2.27832   1
  -8   9   3 5.70064 2.77275   6
   8  -9   3 7.74804 2.43735   7
   8  -9  -3 10.0154 3.05389   2
   8  -9  -3 4.95099 3.54569   3
  -8  -9   3 3.22111 2.20633   1
   8  -9  -3 9.82229 3.76937   5
   8   9   3 8.05405 2.79655   2
   8   9   3 4.15569 1.78303   7
  -8   9  -3 4.64666 2.07374   1
  -8  -9   3 7.30906 2.40106   1
   8  -9  -3 3.05430 3.48469   4
   8  -9  -3 6.51395 2.00240   7
   9  -9   3 2.74252 4.38476   3
   9  -9   3 3.59846 3.17602   5
   9  -9   3 4.64585 2.70008   2
   9   9  -3 3.91082 2.13953   2
  -9  -9  -3 6.40116 2.31269   1
   9   9   3 0.83908 2.04649   2
   9  -9  -3 7.33492 3.89839   5
   9  -9  -3 2.40720 4.05127   4
   9  -9  -3 7.87586 3.94609   3
   9  -9  -3 -0.6461 2.21272   2
  10  -9   3 49.1367 4.30304   2
  10  -9   3 38.2480 5.08277   5
  10   9  -3 47.4101 4.02509   2
  10  -9   3 56.4959 7.27143   3
  10  -9  -3 46.0915 5.81219   5
  10  -9  -3 41.9859 4.06387   2
  10  -9  -3 42.9930 5.81564   3
  10   9   3 48.0379 4.16991   2
  11  -9   3 9.57322 5.20143   3
  11  -9   3 8.83789 3.99851   5
  11  -9  -3 0.44926 3.46188   3
   0  10   3 26.0902 3.08056   6
   0 -10   3 26.5047 3.19818   7
   0 -10   3 28.8524 3.81612   1
   0  10   3 24.0731 2.89368   7
   0  10  -3 23.7215 3.04660   6
   0  10  -3 24.0061 2.76920   1
   0  10  -3 23.0277 2.75527   7
   0  10   3 25.7004 2.87229   1
   0 -10  -3 22.7924 3.18637   7
   0 -10  -3 21.1983 2.81094   1
   1  10  -3 6.31355 2.31065   6
   1 -10   3 3.01088 2.23799   1
   1  10  -3 8.90517 2.35452   1
  -1  10   3 2.35582 1.97172   7
  -1 -10  -3 5.80242 2.22694   1
  -1 -10  -3 7.24122 2.41493   7
   1 -10   3 4.37873 2.19439   1
  -1  10   3 7.50099 2.47953   6
   1  10  -3 5.19104 1.87227   7
   1 -10   3 6.19534 2.41070   7
  -1  10   3 7.90063 2.22065   1
   1 -10  -3 8.28964 2.44736   1
  -1  10  -3 5.73822 2.39606   6
   1  10   3 11.2204 2.52132   1
  -1  10  -3 6.47003 2.10182   1
  -1 -10   3 10.7979 2.81660   7
  -1  10  -3 9.03836 2.31240   7
   1  10   3 6.63314 2.26588   7
  -1 -10   3 5.67911 2.23912   1
   1 -10  -3 11.4290 2.70468   7
   1  10   3 7.49900 2.29476   6
  -2  10   3 1022.17 30.8080   1
  -2 -10  -3 946.769 29.7294   1
   2  10  -3 1031.57 30.5199   6
  -2  10   3 1018.72 31.5813   6
   2  10  -3 1064.32 30.3165   1
   2  10  -3 1030.33 30.0795   7
   2 -10   3 1039.17 31.0090   7
  -2  10  -3 1021.52 29.8959   1
  -2  10  -3 1006.09 30.8215   6
   2  10   3 1091.66 31.1048   7
   2 -10  -3 978.860 29.8601   7
  -2 -10   3 1090.70 30.8378   1
   2  10   3 1054.32 30.7964   6
   2  10   3 1031.93 30.7867   1
   2 -10  -3 1066.64 33.0663   3
  -3  10   3 5.29351 2.11393   1
  -3 -10  -3 6.05175 2.27297   1
   3 -10   3 -1.7611 8.61469   3
   3  10  -3 6.17493 2.30211   6
   3 -10   3 9.25202 2.96352   4
  -3  10   3 7.08753 2.60397   6
   3 -10   3 6.66648 2.44534   7
   3  10  -3 4.57611 2.05959   7
   3 -10  -3 3.67774 2.69692   3
   3 -10  -3 5.49462 2.19607   7
  -3  10  -3 9.59534 2.70949   6
  -3 -10   3 4.97228 2.16371   1
  -3  10  -3 5.24251 1.86924   1
   3  10   3 6.71259 2.19642   7
  -4  10   3 19.3234 3.77902   6
  -4 -10  -3 19.4068 2.72573   1
   4  10  -3 16.6383 2.57040   7
   4 -10   3 23.2143 4.07046   4
   4 -10   3 25.3881 8.94170   3
  -4  10   3 14.9730 2.40477   1
   4 -10   3 22.7523 3.02341   7
   4 -10  -3 19.4843 2.68469   7
   4 -10  -3 19.5113 4.28799   3
  -4 -10   3 17.7941 3.12475   1
  -4  10  -3 18.3500 2.90307   6
  -4  10  -3 18.0505 2.46122   1
   4  10   3 16.9229 3.02106   7
  -5  10   3 6.34298 2.80331   6
   5 -10   3 4.48755 5.18275   3
  -5 -10  -3 3.88121 2.25112   1
   5 -10   3 4.55069 2.74224   4
  -5  10   3 3.75230 2.00324   1
   5  10  -3 5.37999 1.94224   7
   5 -10   3 1.75950 2.21913   7
   5  10   3 6.85687 2.14852   7
   5 -10  -3 6.17476 3.07580   3
  -5  10  -3 4.16278 2.41253   6
   5 -10  -3 4.92810 2.22271   7
  -5  10  -3 5.18751 2.04021   1
  -5 -10   3 2.48813 2.16657   1
   5 -10  -3 3.95782 4.32794   4
   6 -10   3 663.683 22.1039   4
   6 -10   3 699.280 28.2217   3
   6  10  -3 637.913 19.4293   7
  -6  10   3 621.805 21.3520   6
   6 -10   3 652.809 21.3289   5
  -6 -10  -3 605.586 19.3775   1
   6 -10   3 626.844 20.0268   7
  -6  10   3 640.394 19.9752   1
   6 -10  -3 630.412 19.3441   7
   6 -10  -3 623.596 22.5727   3
   6  10   3 647.803 20.0945   7
  -6 -10   3 655.712 19.9608   1
   6 -10  -3 604.532 24.7625   4
  -6  10  -3 633.272 20.6532   6
  -6  10  -3 630.081 19.3806   1
   7 -10   3 7.28679 3.57723   4
   7  10  -3 4.52105 1.96817   7
  -7 -10  -3 5.89083 2.37551   1
   7 -10   3 3.82489 2.16362   7
   7 -10   3 6.13225 5.25777   3
  -7  10   3 5.32361 2.00940   1
   7 -10   3 1.92490 2.59878   5
  -7  10   3 8.41765 2.91615   6
  -7  10  -3 5.00462 2.45125   6
   7  10   3 1.87504 1.77633   7
   7 -10  -3 7.38439 4.15585   4
  -7  10  -3 2.98393 1.89125   1
   7 -10  -3 3.40009 2.05374   7
   7 -10  -3 4.68312 3.30736   3
  -7 -10   3 4.36323 2.32919   1
  -7 -10   3 -0.7793 2.02123   1
  -8  10   3 12.3234 3.40627   6
  -8  10   3 8.31900 2.26823   1
   8  10  -3 6.09312 2.04061   7
   8 -10   3 10.3870 3.68753   5
   8 -10   3 18.1860 3.07357   7
   8 -10   3 3.77697 4.84047   3
  -8 -10  -3 9.61390 2.69260   1
   8 -10  -3 10.1236 2.44284   7
   8 -10  -3 15.4397 4.60345   5
  -8  10  -3 8.13790 3.90988   6
   8 -10  -3 8.26156 4.10845   3
  -8  10  -3 7.86838 2.29577   1
   8  10   3 14.1296 2.61473   7
   8 -10  -3 -2.4948 3.19296   4
  -8 -10   3 9.80403 2.69112   1
  -8 -10   3 7.09512 2.53263   1
  -9 -10  -3 1.15538 2.16392   1
   9 -10   3 1.93488 3.06228   5
   9 -10   3 3.14998 4.95225   3
   9 -10  -3 1.71160 3.57682   3
  -9 -10   3 4.86088 2.32578   1
   9 -10  -3 -0.5214 3.32201   2
   9 -10  -3 3.53887 3.90322   5
   9 -10  -3 3.06617 3.77504   4
  -9  10  -3 1.45848 1.68201   1
  10 -10   3 301.742 13.1282   5
  10 -10   3 335.463 18.0237   3
  10 -10  -3 335.809 14.7411   5
  10 -10  -3 297.891 14.6908   3
  10 -10  -3 311.124 11.9896   2
  11 -10   3 1.48854 5.01046   3
   0  11   3 2311.03 65.0935   7
   0  11  -3 2279.17 63.0340   6
   0  11   3 2311.82 65.3186   6
   0 -11  -3 2104.82 62.0147   1
   0  11  -3 2195.41 62.1542   1
   0 -11  -3 2283.56 62.4301   7
   0  11   3 2337.58 64.9516   1
   0  11  -3 2294.85 62.3350   7
   0 -11   3 2323.38 65.0691   7
   0 -11   3 2385.62 64.8094   1
   1 -11   3 -0.4703 2.08584   1
   1  11  -3 1.09594 1.78423   7
   1  11  -3 1.72294 2.01570   6
  -1  11   3 -0.1587 1.77865   1
  -1  11   3 1.26888 1.95476   7
   1  11  -3 4.84061 2.08105   1
  -1 -11  -3 -1.9303 1.81137   1
   1 -11   3 2.57108 2.29960   1
  -1 -11  -3 2.93015 2.29494   7
   1 -11   3 1.65915 2.42354   7
  -1  11   3 1.65174 2.08514   6
  -1  11  -3 1.50473 1.87316   1
   1 -11  -3 0.98666 2.28692   1
   1  11   3 1.87701 1.98651   7
  -1 -11   3 0.73705 2.21658   1
  -1  11  -3 0.12198 1.97460   6
   1 -11  -3 3.88858 2.33730   7
   1  11   3 2.19462 2.00348   6
   1  11   3 2.65375 1.94672   1
  -1  11  -3 -1.1375 1.50482   7
  -1 -11   3 -1.7154 2.07283   7
   2  11  -3 18.7277 2.62009   7
   2 -11   3 26.3260 3.27161   7
  -2  11   3 20.2748 2.82741   1
   2  11  -3 17.3522 2.90157   6
  -2  11   3 19.9682 3.08113   6
  -2 -11  -3 22.4889 3.04196   1
  -2 -11   3 20.2106 3.38119   1
  -2  11  -3 19.6059 3.16862   1
   2 -11  -3 22.2176 3.01846   7
   2 -11  -3 26.5511 4.87767   3
   2  11   3 23.9744 2.97461   7
  -2  11  -3 16.3430 2.91462   6
  -3 -11  -3 0.16806 2.16972   1
   3 -11   3 -1.6529 2.27278   4
   3  11  -3 -0.1882 1.70547   7
  -3  11   3 0.50177 2.23896   6
   3 -11   3 1.69841 6.36764   3
  -3  11   3 1.87776 2.01622   1
   3 -11   3 1.28803 2.19786   7
   3  11   3 -0.5370 1.67791   7
  -3 -11   3 1.20648 2.05650   1
   3 -11  -3 0.59215 2.76804   3
   3 -11  -3 -1.5766 1.86175   7
  -3  11  -3 -0.2672 1.61870   1
  -3  11  -3 0.25234 2.04292   6
   4 -11   3 1765.11 67.4738   3
  -4 -11  -3 1819.08 50.6203   1
   4 -11   3 1747.46 49.9797   7
  -4  11   3 1789.62 51.1720   6
  -4  11   3 1781.08 49.8882   1
   4 -11   3 1786.25 51.3668   4
   4  11  -3 1745.87 50.6294   7
  -4  11  -3 1760.92 50.3918   1
  -4  11  -3 1808.78 51.7617   6
   4 -11  -3 1787.07 50.5270   7
   4 -11  -3 1827.95 53.8749   3
  -4 -11   3 1721.51 49.6216   1
   4  11   3 1772.44 49.9232   7
   5 -11   3 1.21332 2.70652   4
  -5  11   3 0.65441 1.75256   1
   5 -11   3 -0.1076 2.18986   7
  -5 -11  -3 3.15462 2.26384   1
   5 -11   3 -0.4164 6.25168   3
  -5  11   3 1.22068 2.22960   6
   5  11  -3 1.50105 1.77682   7
   5 -11  -3 2.88362 2.35504   7
   5 -11  -3 3.37801 4.79876   4
  -5  11  -3 0.50106 2.05371   6
  -5 -11   3 -2.1413 1.87939   1
   5 -11  -3 2.30226 2.65253   3
  -5  11  -3 -0.5559 1.70141   1
   5  11   3 1.67483 1.83198   7
   6 -11   3 19.8830 3.39335   7
  -6  11   3 16.4636 2.86104   1
  -6  11   3 21.9892 4.13136   6
   6 -11   3 14.2743 3.82369   4
  -6 -11  -3 13.1063 3.05613   1
   6  11  -3 16.6404 2.54074   7
   6 -11   3 30.8860 8.70652   3
   6 -11  -3 10.1505 4.00027   3
  -6  11  -3 16.0292 2.50024   1
   6 -11  -3 21.8589 6.10506   4
   6  11   3 17.2082 2.95471   7
  -6  11  -3 16.0687 3.54362   6
   6 -11  -3 14.9281 2.93234   7
  -6 -11   3 17.6149 3.13476   1
  -7  11   3 4.08955 1.99549   1
   7 -11   3 -1.9028 2.04553   7
   7  11  -3 -0.1690 1.70999   7
   7 -11   3 11.0911 6.30655   3
  -7 -11  -3 -0.8667 2.06127   1
  -7  11   3 -2.9659 2.00283   6
   7 -11   3 1.17072 2.64061   5
   7 -11   3 1.01819 2.89046   4
  -7  11  -3 2.50720 1.93220   1
  -7 -11   3 -0.2101 2.12930   1
   7 -11  -3 0.41099 2.97807   3
   7 -11  -3 3.88974 2.30976   7
  -7  11  -3 2.49607 2.40911   6
  -7 -11   3 1.89757 2.20599   1
   7  11   3 -0.9435 1.68149   7
   7 -11  -3 1.14568 3.91011   4
   8 -11   3 1048.59 38.8535   3
  -8  11   3 974.559 28.8825   1
   8 -11   3 941.061 30.6429   5
   8 -11   3 987.305 28.8316   7
   8  11  -3 950.209 27.4132   7
  -8 -11  -3 913.843 27.4951   1
  -8  11  -3 972.198 27.6841   1
   8 -11  -3 931.043 31.7017   3
   8 -11  -3 926.834 27.2098   7
  -8 -11   3 1010.90 29.1312   1
  -8 -11   3 944.668 28.8652   1
   8 -11  -3 896.265 33.6137   4
   8 -11  -3 903.470 31.5919   5
   8  11   3 984.967 28.7615   7
   9 -11   3 4.65364 5.47356   3
   9 -11   3 5.97401 3.25724   5
  -9 -11  -3 1.06125 2.28806   1
  -9  11   3 -0.5534 1.67529   1
  -9  11  -3 1.25879 1.84785   1
   9 -11  -3 4.26444 4.22707   5
   9  11   3 3.65105 2.49964   7
   9 -11  -3 1.66780 3.43158   3
  -9 -11   3 -1.2253 2.11823   1
  10 -11   3 22.5769 7.60587   3
  10 -11   3 14.4733 4.48323   5
  10 -11  -3 7.99850 4.26636   3
  10 -11  -3 16.3202 5.47007   5
   0  12  -3 19.3712 3.37735   1
   0  12  -3 16.5933 3.10573   7
   0  12   3 22.8301 3.91475   6
   0  12  -3 18.1005 3.55964   6
   0 -12  -3 21.0763 3.69874   1
   0  12   3 18.4595 3.30175   7
   0 -12   3 19.6734 3.54463   7
   0  12   3 20.3329 3.38716   1
   0 -12   3 21.3122 3.62320   1
   0 -12  -3 19.4790 3.16474   7
   1 -12   3 2.20610 2.44984   1
   1  12  -3 1.53154 1.76274   7
   1 -12   3 0.89818 2.21617   1
  -1  12   3 2.37973 2.39278   6
   1 -12   3 0.95328 2.36896   7
   1  12  -3 -2.4493 1.60643   1
   1  12  -3 1.03234 2.11568   6
  -1 -12  -3 3.73169 2.51239   1
  -1 -12  -3 -0.3565 2.39286   7
  -1  12   3 -0.0730 1.92191   1
   1  12   3 2.02244 2.03483   1
   1 -12  -3 -3.4414 1.94348   1
  -1  12  -3 1.09256 1.83853   1
   1  12   3 -0.5507 1.77848   7
  -1  12  -3 1.22088 2.17387   6
  -1 -12   3 0.70337 2.42483   7
   1 -12  -3 -0.3926 2.22208   7
   1  12   3 0.05626 2.01218   6
  -1 -12   3 1.05585 2.21730   1
  -1  12  -3 -0.1721 2.07532   7
  -2  12   3 234.903 9.69042   1
   2  12  -3 248.000 10.0741   6
   2  12  -3 244.727 9.68900   7
  -2  12   3 251.257 10.4180   6
   2 -12   3 238.987 9.88999   7
  -2 -12  -3 231.629 9.55892   1
   2 -12  -3 241.569 9.61376   7
  -2 -12   3 247.092 9.62968   1
   2  12   3 261.402 9.96222   7
  -2  12  -3 231.486 9.40785   1
   2 -12  -3 250.071 11.8496   3
  -2  12  -3 245.538 10.3872   6
   3 -12   3 0.00982 2.24459   7
   3  12  -3 -0.0607 1.70841   7
  -3  12   3 0.78071 1.82605   1
  -3  12   3 -0.8849 2.13350   6
  -3 -12  -3 0.83897 2.31137   1
   3 -12   3 2.73227 5.11859   3
   3 -12  -3 2.55953 2.50683   7
  -3  12  -3 1.72792 2.21368   6
  -3  12  -3 0.89214 1.98559   1
   3  12   3 0.43898 1.85858   7
  -3 -12   3 0.67907 2.22256   1
   3 -12  -3 -0.4699 2.76777   3
  -4  12   3 17.7062 3.83273   6
   4  12  -3 17.4535 3.17430   7
  -4  12   3 13.5348 2.88790   1
  -4 -12  -3 11.9058 3.01141   1
   4 -12   3 10.8993 8.95103   3
   4 -12   3 14.9765 3.29695   7
   4 -12  -3 15.2187 4.30840   3
  -4  12  -3 12.3633 2.86741   1
   4 -12  -3 18.7260 3.25540   7
  -4  12  -3 13.1132 3.47138   6
  -4 -12   3 15.4046 3.05529   1
   4  12   3 14.7900 3.03032   7
   5 -12   3 -0.5078 7.88293   3
  -5  12   3 1.36899 2.34437   6
   5  12  -3 -0.3315 1.73735   7
   5 -12   3 1.80547 3.47929   4
   5 -12   3 0.56308 2.41503   7
  -5  12   3 -1.2776 1.52925   1
  -5 -12  -3 -2.4257 2.24753   1
  -5  12  -3 0.84596 1.90148   1
   5 -12  -3 -0.7728 5.35370   4
   5 -12  -3 0.53860 2.77539   3
  -5  12  -3 1.35596 2.24891   6
   5 -12  -3 1.03772 2.15316   7
  -5 -12   3 1.40183 2.14230   1
   5  12   3 1.30313 1.97835   7
  -6  12   3 169.884 7.51171   1
   6 -12   3 173.575 7.82339   7
  -6  12   3 178.198 8.69109   6
   6 -12   3 131.037 15.0252   3
   6  12  -3 181.431 7.83023   7
   6 -12   3 159.586 10.5596   4
  -6 -12  -3 163.325 7.72732   1
  -6  12  -3 184.954 8.87591   6
   6  12   3 181.703 7.71735   7
   6 -12  -3 174.962 10.1095   3
   6 -12  -3 179.077 7.82009   7
  -6 -12   3 175.922 7.65772   1
  -6  12  -3 168.077 7.56730   1
   6 -12  -3 209.633 13.9169   4
  -7  12   3 1.52185 1.87828   1
  -7 -12  -3 2.77566 2.32898   1
   7 -12   3 1.17664 6.29654   3
   7 -12   3 0.40368 3.87985   4
   7 -12   3 0.87886 2.66127   5
   7 -12   3 -0.7779 2.34149   7
   7  12  -3 -1.3431 1.61892   7
   7  12   3 -1.3459 1.67693   7
   7 -12  -3 0.42713 3.27703   3
  -7 -12   3 -2.4861 2.03749   1
   7 -12  -3 0.01875 2.14510   7
  -7  12  -3 1.64535 1.83864   1
  -7 -12   3 5.44484 2.57183   1
   7 -12  -3 -0.5593 4.23141   4
   8 -12   3 6.35532 7.06385   3
   8 -12   3 5.09727 2.53543   7
   8  12  -3 2.05150 2.07966   7
   8 -12   3 8.55593 3.54996   5
  -8 -12  -3 4.97886 2.54818   1
  -8  12   3 5.28746 2.25076   1
  -8 -12   3 5.09374 2.57744   1
   8 -12  -3 5.86550 3.71626   3
  -8  12  -3 3.15012 2.13333   1
  -8 -12   3 12.3954 2.88372   1
   8 -12  -3 8.53882 2.65176   7
   8  12   3 11.2818 2.60960   7
  -9 -12  -3 2.28970 2.34104   1
   9 -12   3 15.1790 7.32486   3
  -9  12   3 1.13586 1.88245   1
   9 -12   3 0.18542 2.88628   5
  -9  12  -3 1.59123 1.88570   1
  -9 -12   3 3.62345 2.48757   1
   9 -12  -3 -1.4304 3.40247   3
   9 -12  -3 -1.3052 4.32291   5
  10 -12   3 132.833 20.8156   3
  10 -12  -3 108.417 9.93590   5
   0 -13   3 141.783 6.93083   1
   0  13  -3 136.224 6.64583   1
   0 -13  -3 127.303 6.73938   1
   0  13  -3 125.691 6.97573   6
   0 -13   3 137.258 6.82369   1
   0  13  -3 137.067 6.70165   7
   0 -13  -3 134.258 6.85612   7
   0 -13   3 128.078 6.82381   7
   0  13   3 130.687 6.96934   6
   0  13   3 134.020 6.66450   1
   0  13   3 137.043 6.92007   7
  -1  13   3 1.16824 2.09098   1
   1  13  -3 1.95327 2.29450   6
   1  13  -3 3.62006 2.24652   1
   1  13  -3 2.68720 2.24243   7
  -1 -13  -3 6.13454 2.75617   1
  -1  13   3 -0.0716 2.23118   6
   1 -13   3 6.54296 2.98196   1
   1 -13   3 7.06493 3.02212   1
   1 -13   3 2.22177 2.51524   7
  -1  13  -3 3.64310 2.29928   1
   1  13   3 5.42349 2.29780   7
  -1 -13   3 3.34441 2.55107   1
   1  13   3 3.66122 2.57309   6
   1  13   3 4.81735 2.37560   1
  -1  13  -3 7.32141 2.86584   6
   1 -13  -3 8.98188 3.03327   7
  -2  13   3 35.6798 3.56644   1
   2  13  -3 35.4413 3.78568   6
   2  13  -3 37.8856 3.56270   7
  -2 -13  -3 34.8749 3.92166   1
   2 -13   3 30.7477 3.76052   7
  -2  13   3 31.9704 3.97842   6
   2 -13  -3 34.6165 3.86900   7
  -2  13  -3 37.5752 3.59132   1
   2 -13  -3 32.0027 4.76968   3
   2  13   3 42.6534 3.87940   7
  -2 -13   3 32.2295 3.60446   1
  -2  13  -3 37.2676 4.10749   6
   3 -13   3 7.69322 5.70736   3
  -3  13   3 7.62041 3.03289   6
  -3 -13  -3 0.31303 2.63920   1
   3 -13   3 7.71192 2.99358   7
  -3  13   3 5.14832 2.49681   1
   3  13  -3 4.86025 2.20853   7
   3 -13  -3 1.64216 3.01658   3
  -3  13  -3 3.24290 2.14037   1
   3 -13  -3 4.08021 2.63409   7
  -3 -13   3 2.76167 2.39911   1
   3  13   3 5.26946 2.35692   7
  -3  13  -3 2.78614 2.32595   6
  -4  13   3 111.718 6.72767   6
   4 -13   3 89.9261 5.78800   7
  -4  13   3 101.867 5.65318   1
  -4 -13  -3 115.703 6.41471   1
   4  13  -3 108.099 5.95349   7
   4 -13   3 94.1861 12.3063   3
   4 -13  -3 123.860 8.44042   3
   4 -13  -3 115.740 10.4099   4
  -4 -13   3 106.140 5.85629   1
  -4  13  -3 101.350 5.79258   1
  -4  13  -3 122.322 6.94841   6
   4 -13  -3 114.500 6.16508   7
   4  13   3 129.516 6.26854   7
  -5 -13  -3 2.53300 2.56474   1
   5  13  -3 2.82892 1.99143   7
  -5  13   3 2.81496 2.08213   1
  -5  13   3 0.07396 2.53942   6
   5 -13   3 -0.4204 8.27256   3
   5 -13   3 2.53663 2.66339   7
   5  13   3 -0.1360 1.77668   7
   5 -13  -3 3.81594 3.15838   3
   5 -13  -3 5.84930 2.70717   7
  -5  13  -3 1.63050 1.87240   1
  -5  13  -3 1.20870 2.42716   6
   5 -13  -3 5.53898 5.27967   4
  -5 -13   3 -1.5429 2.22133   1
   6 -13   3 20.9128 10.6736   3
   6  13  -3 20.1075 2.84896   7
  -6 -13  -3 22.9925 3.38118   1
  -6  13   3 23.8491 3.14075   1
   6 -13   3 24.4706 3.41246   7
   6 -13  -3 21.5466 3.32888   7
   6 -13  -3 28.2353 5.76369   3
  -6 -13   3 27.5569 4.01980   1
   6 -13  -3 35.5270 9.13646   4
   6  13   3 20.9236 2.96061   7
  -6  13  -3 19.7543 2.87485   1
  -6 -13   3 25.8262 3.94206   1
   7 -13   3 2.75969 2.63025   7
  -7  13   3 1.49319 1.91746   1
  -7 -13  -3 2.26727 2.49013   1
   7 -13   3 4.14231 2.89863   5
   7  13  -3 2.94847 2.06887   7
   7 -13   3 -0.1243 7.54402   3
   7 -13  -3 0.21661 3.40045   3
  -7 -13   3 1.05098 2.52714   1
   7 -13  -3 0.55200 5.27459   4
  -7 -13   3 3.19217 2.65678   1
  -7  13  -3 1.99237 2.04211   1
   7 -13  -3 0.07903 2.39854   7
   7  13   3 0.12258 1.90299   7
  -8  13   3 67.5034 4.56168   1
   8 -13   3 84.8231 12.8574   3
  -8 -13  -3 67.2751 4.65040   1
   8 -13   3 77.5014 6.13367   5
  -8  13  -3 65.5779 4.37213   1
  -8 -13   3 67.5427 4.77729   1
   8 -13  -3 59.8270 6.74046   3
  -8 -13   3 75.4673 4.95724   1
   9 -13   3 1.91393 3.26320   5
  -9  13   3 4.11250 2.11637   1
  -9 -13  -3 -0.0644 2.89120   1
   9 -13   3 5.60034 7.96845   3
  -9 -13   3 4.15681 3.00088   1
   9 -13  -3 1.33096 5.68542   5
  -9  13  -3 1.67701 2.08048   1
   9 -13  -3 -2.8751 3.35795   3
   0  14  -3 18.7557 3.98256   6
   0 -14   3 14.7410 3.72783   7
   0 -14  -3 15.6497 3.61905   1
   0  14   3 12.4947 3.17622   7
   0  14  -3 8.51100 2.76858   1
   0 -14   3 17.8317 3.72865   1
   0 -14  -3 10.4728 3.25724   7
   0  14  -3 13.3376 3.17875   7
   0 -14   3 17.5431 3.75932   1
   0  14   3 15.7563 3.72689   6
   0  14   3 10.0540 2.95994   1
  -1  14   3 8.29210 2.75858   1
  -1  14   3 11.3772 3.31368   6
   1 -14   3 13.0403 3.39851   7
   1  14  -3 7.07444 2.60834   7
  -1 -14  -3 6.01266 3.06621   1
   1  14  -3 4.41315 2.60125   6
   1 -14  -3 6.91514 3.29197   3
  -1 -14   3 8.03668 3.16150   1
  -1  14  -3 1.73951 2.01342   1
   1  14   3 5.24706 2.63861   7
   1 -14  -3 7.94806 3.07946   7
  -1  14  -3 4.58150 2.56258   6
  -2  14   3 410.004 14.9013   6
   2 -14   3 408.701 14.3518   7
   2  14  -3 406.865 14.2460   7
  -2  14   3 406.171 14.1359   1
  -2 -14  -3 377.672 14.0654   1
  -2 -14   3 349.280 13.6905   1
   2 -14  -3 400.809 14.2263   7
  -2  14  -3 403.652 14.9683   6
   2  14   3 405.501 14.3325   7
   2 -14  -3 397.058 16.3939   3
  -2  14  -3 378.854 13.9251   1
  -3  14   3 4.50550 2.32115   1
   3  14  -3 5.05896 2.36171   7
   3 -14   3 7.88402 5.39323   3
  -3 -14  -3 8.58727 3.24081   1
   3 -14   3 8.74864 3.16999   7
  -3  14   3 9.09239 3.20050   6
   3 -14  -3 1.19265 3.07438   3
   3  14   3 7.18946 2.43078   7
   3 -14  -3 7.64328 2.88358   7
  -3 -14   3 4.66601 2.76605   1
  -3  14  -3 9.14479 2.67125   1
  -3  14  -3 7.71671 3.11121   6
   4  14  -3 10.1472 2.87147   7
   4 -14   3 10.2134 3.14481   7
  -4 -14  -3 10.1580 3.41514   1
   4 -14   3 3.04029 5.89744   3
  -4  14   3 10.6993 2.85652   1
   4  14   3 12.6553 2.98142   7
   4 -14  -3 9.62850 3.87109   3
   4 -14  -3 10.3361 3.01010   7
   4 -14  -3 13.4169 5.63829   4
  -4  14  -3 10.7119 2.83400   1
  -4 -14   3 10.2670 3.21905   1
   5  14  -3 3.56768 2.27227   7
  -5 -14  -3 5.64582 2.99888   1
   5 -14   3 1.42732 6.91141   3
   5 -14   3 4.81956 2.87533   7
  -5  14   3 3.02923 2.30406   1
   5 -14  -3 5.69314 3.56782   3
   5  14   3 5.52618 2.20238   7
  -5 -14   3 4.61010 2.79391   1
   5 -14  -3 8.54092 5.44589   4
  -5 -14   3 8.45382 3.02407   1
  -5  14  -3 5.32857 2.17962   1
   5 -14  -3 5.63619 2.66720   7
  -6  14   3 275.972 10.5974   1
   6 -14   3 273.568 11.4357   7
   6 -14   3 244.223 22.2856   3
   6  14  -3 271.907 11.5191   7
  -6 -14  -3 268.578 10.6558   1
  -6 -14   3 296.948 10.8706   1
   6 -14  -3 275.799 13.5745   3
   6  14   3 261.910 11.4844   7
   6 -14  -3 272.830 11.6154   7
  -6  14  -3 259.141 10.3795   1
   6 -14  -3 292.915 16.9524   4
  -6 -14   3 258.179 10.5336   1
  -7  14   3 3.11615 2.27411   1
   7 -14   3 2.86321 3.10360   5
   7 -14   3 -7.9842 9.72775   3
  -7 -14  -3 5.98798 2.78564   1
  -7  14  -3 2.32301 2.20555   1
   7 -14  -3 3.77723 3.69853   3
  -7 -14   3 4.02560 2.67686   1
  -7 -14   3 2.96011 2.78757   1
   8 -14   3 5.40672 3.69120   5
   8 -14   3 -0.4953 8.87703   3
  -8  14   3 9.89635 2.77150   1
  -8 -14  -3 5.17799 3.40818   1
  -8 -14   3 1.92338 3.23041   1
  -8  14  -3 3.05590 2.52834   1
  -8 -14   3 3.56614 2.98952   1
   8 -14  -3 2.45678 3.86208   3
   0 -15   3 87.2313 5.93492   1
   0  15  -3 78.8528 5.39143   1
   0 -15  -3 93.4624 5.87037   7
   0  15   3 80.9025 5.35308   1
   0 -15   3 91.6144 5.76234   1
   0  15   3 87.8266 5.84786   6
   0  15  -3 88.7164 5.96272   6
   0 -15   3 83.7647 6.09349   7
   0 -15  -3 87.2945 5.88602   1
  -1  15   3 12.1284 3.10747   1
  -1  15   3 11.0526 3.47081   6
   1 -15   3 8.96760 3.27188   7
   1  15  -3 11.3378 3.03218   7
  -1 -15  -3 13.5069 3.52676   1
   1  15  -3 6.71630 2.96071   6
  -1  15  -3 6.19066 2.46802   1
   1  15   3 7.68037 2.83261   7
   1 -15  -3 11.8573 3.36658   7
   1 -15  -3 11.0698 3.58829   3
  -1 -15   3 8.59447 3.24910   1
  -1 -15   3 10.4502 3.20568   1
  -1  15  -3 11.9614 3.67441   6
   2 -15   3 7.36184 3.41035   7
  -2 -15  -3 4.83433 3.08646   1
   2  15  -3 6.84394 2.80013   7
  -2  15   3 7.02065 2.81205   1
   2 -15  -3 2.22031 2.92745   7
  -2 -15   3 1.94027 2.68707   1
   2  15   3 11.7179 3.13546   7
  -2 -15   3 2.28546 2.84247   1
  -2  15  -3 1.86266 2.31478   1
   2 -15  -3 5.33318 3.36887   3
   3 -15   3 10.6553 3.42677   7
   3 -15   3 9.69634 5.00558   3
  -3 -15  -3 13.3418 3.45004   1
   3  15  -3 13.8039 3.05390   7
  -3  15   3 8.97703 2.82472   1
   3 -15  -3 8.33405 3.51250   3
  -3 -15   3 8.44094 3.19003   1
  -3 -15   3 11.7154 3.39658   1
  -3  15  -3 10.8103 2.83453   1
   3  15   3 4.17338 2.30956   7
   3 -15  -3 13.9441 3.30057   7
  -4  15   3 71.9115 5.01325   1
  -4 -15  -3 58.1736 5.04377   1
   4  15  -3 69.3921 4.91655   7
   4 -15   3 73.6813 9.23612   3
   4 -15   3 72.2178 5.17435   7
  -4  15  -3 77.2409 4.99366   1
   4 -15  -3 67.2655 6.38725   3
  -4 -15   3 69.0405 5.27908   1
   4 -15  -3 67.4101 7.74249   4
   4  15   3 72.3224 4.99090   7
   4 -15  -3 67.7256 5.07643   7
  -4 -15   3 63.8982 5.18036   1
  -5  15   3 5.61350 2.60568   1
   5 -15   3 6.67402 6.94821   3
  -5 -15  -3 3.27724 2.77720   1
  -5 -15   3 7.44759 3.18499   1
  -5 -15   3 6.30454 3.12584   1
   5 -15  -3 4.57868 3.43788   3
  -5  15  -3 4.43976 2.35682   1
   6 -15   3 -1.7505 6.64172   3
  -6  15   3 2.44973 2.42566   1
  -6 -15  -3 4.83637 2.88927   1
   6 -15  -3 3.20182 3.58976   3
  -6  15  -3 5.85707 2.47231   1
  -6 -15   3 2.05685 2.63844   1
  -6 -15   3 3.48307 2.86886   1
   7 -15   3 3.43508 9.15028   3
   7 -15   3 13.3629 3.73225   5
   7 -15  -3 9.93132 4.46669   3
   0  16  -3 10.7165 3.19840   1
   0  16   3 12.4681 3.34460   1
   1 -16   3 11.6429 3.49639   7
   1  16  -3 6.30245 2.62873   7
  -1 -16  -3 7.32696 3.30906   1
  -1  16   3 7.93916 2.89672   1
   1 -16  -3 11.3386 3.30136   7
   1  16   3 9.27912 2.95485   7
  -1 -16   3 8.87747 3.40636   1
  -1 -16   3 7.55512 3.24532   1
  -1  16  -3 6.58889 2.75488   1
   1 -16  -3 7.47419 3.66081   3
  -2  16   3 63.2682 5.06618   1
   2 -16   3 83.4362 7.63754   3
  -2 -16  -3 77.8995 5.63420   1
   2 -16   3 66.5377 5.36229   7
   2  16  -3 76.4097 5.27777   7
  -2 -16   3 65.3432 5.21876   1
   2  16   3 78.2870 5.28114   7
  -2  16  -3 78.9301 5.30939   1
   2 -16  -3 77.3403 5.57948   7
  -2 -16   3 76.4551 5.66677   1
   2 -16  -3 69.5981 6.40410   3
   3  16  -3 6.19972 3.20468   7
   3 -16   3 2.16123 4.24261   3
  -3  16   3 9.83724 2.99956   1
   3 -16   3 10.4228 4.62254   7
  -3 -16  -3 16.2931 3.70328   1
  -3 -16   3 6.59487 3.42107   1
   3 -16  -3 13.3903 5.09009   7
   3 -16  -3 12.6432 3.97092   3
  -3  16  -3 9.99328 2.79924   1
   3  16   3 8.09930 3.05736   7
  -3 -16   3 11.5281 3.68078   1
  -4  16   3 4.62936 2.69847   1
   4 -16   3 4.89448 5.17707   3
  -4 -16  -3 4.36491 3.04754   1
  -4 -16   3 6.42791 3.34290   1
   4 -16  -3 3.84406 3.46797   3
  -4 -16   3 4.01335 3.16052   1
  -4  16  -3 8.23167 2.75784   1
  -5 -16  -3 4.02224 2.83438   1
  -5  16   3 2.19179 2.41802   1
   5 -16   3 9.72353 6.07705   3
   5 -16  -3 9.06047 3.78396   3
  -5 -16   3 2.91735 2.95390   1
  -5 -16   3 4.12871 2.94533   1
  -5  16  -3 4.05553 2.44614   1
   6 -16   3 57.0886 9.44047   3
   6 -16  -3 44.2302 5.68153   3
  -1  17   3 6.53845 2.91082   1
  -1 -17  -3 7.39436 3.33787   1
   1 -17  -3 3.34382 3.36045   3
  -1  17  -3 4.15651 2.74371   1
  -1 -17   3 5.68605 3.34569   1
  -1 -17   3 8.80773 3.56380   1
  -2  17   3 94.0975 5.94681   1
   2 -17   3 96.7216 8.45544   3
  -2 -17  -3 93.3711 6.23105   1
  -2 -17   3 112.903 6.45822   1
  -2 -17   3 90.0735 6.19455   1
   2 -17  -3 98.9751 7.41408   3
  -2  17  -3 96.3749 5.99393   1
  -3  17   3 3.99403 2.83513   1
   3 -17   3 0.72627 4.06750   3
  -3 -17  -3 2.52311 3.03945   1
  -3 -17   3 6.80640 3.32770   1
  -3  17  -3 3.82678 2.53634   1
   3 -17  -3 -3.0990 2.74667   3
  -3 -17   3 5.00457 3.18872   1
   4 -17   3 252.631 14.4677   3
   4 -17  -3 230.091 11.7417   3
   5 -17  -3 2.45283 3.23208   3
   0 -18  -3 18.9377 4.65172   3
  -1  18   3 2.44610 2.39197   1
   1 -18   3 5.06996 3.36812   3
   1 -18  -3 -1.2150 2.90348   3
  -1  18  -3 2.23122 2.55153   1
   2 -18   3 109.522 9.28140   3
   2 -18  -3 104.171 7.44163   3
   3 -18  -3 -2.3576 3.05850   3
   0   0   4 4941.15 131.935   7
   0   0  -4 4841.99 130.490   6
   0   0  -4 4907.27 130.148   7
  -1   0  -4 0.89301 1.12086   7
   1   0  -4 0.51710 1.32859   6
  -1   0   4 2.57701 1.26280   1
  -1   0   4 0.67485 1.24093   7
  -1   0  -4 0.94208 1.17499   6
   1   0  -4 0.75722 1.07775   7
   1   0   4 -0.4507 1.15173   7
  -1   0  -4 -1.3599 0.90698   1
  -2   0  -4 238.433 7.71027   1
   2   0   4 232.633 8.25320   2
  -2   0  -4 231.884 7.74176   6
   2   0  -4 219.458 7.57997   7
  -2   0   4 237.214 7.79057   1
   2   0  -4 227.570 8.33926   6
   2   0  -4 228.549 7.58767   4
   2   0   4 236.055 7.89780   7
   2   0  -4 237.290 8.10237   2
   3   0   4 -0.8825 1.13347   7
   3   0  -4 -0.4928 1.00525   2
   3   0  -4 -0.0407 1.25074   3
   3   0  -4 -0.8350 1.04950   4
  -3   0  -4 0.88916 1.01451   1
   3   0   4 0.04270 1.22892   2
   3   0  -4 2.18760 1.22887   2
   3   0  -4 -0.0357 1.00790   7
  -3   0  -4 0.71136 1.02624   6
  -3   0   4 -0.0642 1.01643   1
   4   0   4 3332.46 89.8365   2
   4   0   4 3324.39 90.2265   5
   4   0   4 3300.66 89.4647   7
   4   0   4 3393.09 90.2773   3
  -4   0  -4 3339.78 88.5767   6
  -4   0  -4 3334.74 88.6441   1
   4   0  -4 3280.46 90.3056   3
   4   0   4 3258.59 89.8146   2
   4   0  -4 3289.91 88.4933   7
  -4   0   4 3366.13 89.2765   1
   4   0  -4 3293.17 88.8483   2
   4   0  -4 3270.36 88.8883   2
   5   0  -4 0.93052 1.07259   7
   5   0  -4 -2.3406 1.42165   3
   5   0   4 -0.6758 1.40106   3
  -5   0   4 1.50090 1.05396   1
  -5   0  -4 0.00832 1.08076   1
   5   0  -4 1.07673 1.14087   2
   5   0   4 0.05075 1.12009   2
   5   0   4 -0.1079 1.09742   7
   5   0  -4 1.47774 1.31384   5
   5   0   4 0.90934 1.31638   2
   5   0  -4 1.14778 1.11784   2
   6   0  -4 94.4246 4.13269   2
   6   0  -4 100.162 4.12653   2
   6   0   4 97.6157 3.96339   7
   6   0   4 96.0709 4.35127   2
  -6   0   4 103.038 5.12400   6
   6   0  -4 93.0996 5.85645   3
   6   0   4 94.3996 5.43003   3
   6   0   4 100.111 4.45011   2
   6   0  -4 95.5664 3.63119   7
  -6   0  -4 103.228 4.18683   1
  -6   0   4 98.8272 3.97605   1
   7   0   4 -0.3211 1.31826   2
   7   0  -4 -0.3197 1.15527   2
   7   0   4 3.34433 2.23488   3
   7   0  -4 -2.9538 1.96210   3
  -7   0  -4 1.79746 1.30391   1
   7   0  -4 -0.5174 1.04031   2
   7   0   4 0.86459 1.38293   2
   7   0   4 -0.9332 0.86866   7
   8   0   4 1416.89 39.0072   2
   8   0  -4 1388.07 41.7677   3
   8   0   4 1380.93 38.9725   2
   8   0  -4 1372.98 37.9710   2
   8   0  -4 1370.65 38.0379   2
   8   0   4 1397.81 41.4317   3
   9   0   4 2.22584 2.60953   3
   9   0  -4 0.82887 1.44335   2
   9   0  -4 -0.8185 1.20083   2
   9   0   4 0.43616 1.51456   2
  10   0   4 29.5661 2.60038   2
  10   0  -4 33.1870 2.53934   2
  10   0  -4 33.9003 2.42028   2
  11   0   4 -0.5687 1.51084   2
   0   1  -4 584.719 17.1709   7
   0  -1  -4 588.416 17.4943   6
   0   1   4 582.587 17.1369   7
  -1   1   4 1.65967 1.31158   7
   1   1  -4 1.51218 1.21823   7
   1  -1   4 0.23542 1.32760   7
  -1  -1  -4 0.01934 1.04761   7
  -1  -1  -4 1.54883 1.26025   6
   1   1  -4 0.59255 1.35911   6
  -1  -1  -4 1.65984 1.20145   1
  -1   1   4 -0.2226 1.11613   1
   1  -1  -4 0.25858 1.09084   7
  -1   1  -4 0.61035 1.14926   7
  -1   1  -4 1.54113 1.20832   6
   1   1   4 3.02750 1.39800   7
  -1   1  -4 1.03129 1.13579   1
  -1  -1   4 2.65327 1.34653   1
  -1  -1   4 1.06857 1.32395   7
  -2  -1  -4 966.967 27.0364   1
   2  -1   4 962.794 27.9954   2
  -2   1   4 1004.04 27.5070   1
   2   1  -4 963.972 26.9723   7
   2  -1   4 970.429 27.5038   7
  -2  -1  -4 969.232 26.9156   6
   2   1  -4 958.291 27.3824   2
   2   1  -4 977.310 27.7969   6
   2   1   4 960.560 27.9730   2
  -2   1  -4 969.025 27.2965   6
   2  -1  -4 943.533 27.3994   4
   2  -1  -4 938.980 27.4253   2
  -2   1  -4 1006.44 27.0303   1
   2   1   4 954.617 27.5205   7
  -2  -1   4 1006.19 27.4367   1
   2  -1  -4 903.204 26.8870   7
  -3  -1  -4 6.44324 1.51017   1
   3   1  -4 3.45547 1.66297   6
   3   1  -4 0.88617 1.15219   7
   3  -1   4 3.38648 1.48944   2
   3   1  -4 2.57516 1.22472   2
   3   1  -4 2.58618 1.35417   2
  -3   1   4 1.19913 1.20256   1
   3  -1   4 1.30146 1.33239   5
  -3  -1  -4 1.13862 1.04673   6
   3  -1   4 2.57337 1.35144   7
   3  -1  -4 3.98681 1.57332   3
   3  -1  -4 2.49017 1.35277   4
   3  -1  -4 2.35396 1.18850   7
   3  -1  -4 1.32493 1.34898   2
   3  -1  -4 3.06050 1.41473   2
   3   1   4 3.97255 1.47586   7
  -3   1  -4 3.00752 1.21684   1
  -3   1  -4 3.80516 1.37012   6
  -3  -1   4 4.62197 1.37854   1
   3   1   4 0.00656 1.27214   2
   4  -1   4 334.333 10.9539   2
  -4   1   4 345.131 10.5078   1
  -4  -1  -4 331.463 9.94810   6
   4  -1   4 329.719 10.5436   7
   4  -1   4 331.539 10.8407   2
   4   1  -4 321.077 10.4830   2
   4  -1   4 337.177 11.2639   5
   4   1  -4 326.856 10.2147   7
   4  -1   4 342.632 11.4068   3
  -4  -1  -4 328.773 10.3857   1
   4   1  -4 331.262 10.6501   2
   4   1   4 348.334 12.3088   3
   4  -1  -4 325.060 10.5635   2
  -4  -1   4 331.078 10.4015   1
   4  -1  -4 336.001 10.2238   7
  -4   1  -4 334.286 10.3126   1
   4   1   4 334.954 10.9252   2
   4   1   4 344.785 10.6256   7
   4   1   4 334.043 10.9442   2
   4  -1  -4 329.142 11.4770   4
  -4   1  -4 334.986 10.5047   6
   4  -1  -4 332.332 11.7306   3
   4  -1  -4 333.115 10.5735   2
   5   1  -4 1.20846 1.07878   2
   5  -1   4 1.98903 1.43497   2
  -5   1   4 0.55377 1.05841   1
   5   1  -4 1.87263 1.17478   7
   5  -1   4 1.56919 1.32390   2
   5   1  -4 -0.4703 1.09958   2
  -5  -1  -4 0.96204 1.23147   1
  -5   1   4 0.62168 1.51202   6
   5  -1   4 1.10834 1.62258   5
   5  -1   4 0.82393 1.71901   3
   5  -1   4 -1.1886 1.11111   7
   5   1   4 1.06859 1.15237   7
   5  -1  -4 -0.2678 1.59436   3
  -5  -1   4 -1.2976 0.96421   1
   5   1   4 0.20401 1.44368   3
  -5   1  -4 -1.1781 0.98425   1
   5  -1  -4 1.73915 1.12073   7
   5   1   4 -0.3597 1.10757   2
   5  -1  -4 -0.9295 1.03966   5
  -5   1  -4 1.94537 1.25205   6
   5  -1  -4 -0.5765 1.05739   2
   5   1   4 0.65118 1.30448   2
   5  -1  -4 1.40833 1.22124   2
   6  -1   4 529.960 15.9855   2
   6  -1   4 531.223 17.5608   3
  -6   1   4 530.315 15.4650   1
   6   1  -4 503.294 14.6990   7
  -6  -1  -4 526.981 15.2547   1
  -6   1   4 531.479 17.0256   6
   6  -1   4 542.164 15.5174   7
   6  -1   4 521.308 17.0547   5
   6   1  -4 520.297 15.4532   2
   6   1  -4 508.817 15.2599   2
   6  -1   4 529.837 16.0545   2
   6   1   4 529.989 15.4383   7
  -6   1  -4 513.407 15.1752   1
  -6  -1   4 542.923 15.4986   1
   6  -1  -4 530.206 15.4037   2
   6  -1  -4 504.358 15.2883   2
   6   1   4 532.034 16.1129   2
   6   1   4 518.928 16.0241   2
   6  -1  -4 522.282 14.6874   7
   6   1   4 527.667 17.3770   3
   6  -1  -4 509.376 17.6880   3
   7   1  -4 3.66992 1.38101   2
  -7  -1  -4 3.31470 1.48964   1
   7  -1   4 4.77979 1.23465   7
   7  -1   4 2.39750 2.33558   3
   7  -1   4 6.93628 2.54726   5
   7  -1   4 1.77041 1.54385   2
   7   1  -4 3.79006 1.58824   2
   7  -1   4 2.93194 1.58636   2
   7  -1  -4 2.52775 2.44192   3
   7  -1  -4 4.64345 1.49219   2
   7  -1  -4 4.29978 1.53328   2
   7   1   4 5.09381 1.20187   7
   7   1   4 5.93352 2.48275   3
  -7   1  -4 2.34958 1.37496   1
   7   1   4 4.00931 1.76013   2
   7   1   4 3.56281 1.62427   2
   8  -1   4 141.731 7.56325   3
   8  -1   4 141.133 5.68021   2
   8   1  -4 142.716 5.46525   2
   8  -1   4 135.649 5.59910   2
   8   1  -4 137.030 5.27031   2
   8  -1  -4 143.375 5.35268   2
   8  -1  -4 140.551 7.97534   3
   8  -1  -4 136.147 5.32237   2
   8   1   4 140.817 5.61875   2
   8   1   4 140.785 5.68524   2
   9  -1   4 3.51237 2.75166   3
   9  -1   4 -0.3361 1.52963   2
   9   1  -4 0.75854 1.45957   2
   9   1  -4 1.71317 1.27216   2
   9  -1  -4 2.10743 2.80446   3
   9  -1  -4 1.29884 1.41831   2
   9   1   4 -0.2889 1.41091   2
   9  -1  -4 0.57201 1.36422   2
  10   1  -4 243.724 8.26690   2
  10   1  -4 260.743 8.46725   2
  10  -1   4 247.660 11.3134   3
  10  -1   4 249.913 8.67618   2
  10   1   4 245.750 8.69848   2
  10  -1  -4 234.606 11.7167   3
  10  -1  -4 239.398 8.21291   2
  10  -1  -4 253.824 8.35859   2
  11  -1   4 2.01095 2.92559   3
  11   1  -4 5.07926 1.65646   2
  11  -1   4 2.41361 1.79154   2
  11   1   4 4.63714 1.92352   2
   0   2  -4 5125.49 138.232   7
   0  -2   4 5316.07 143.688   7
   0  -2   4 5603.77 143.726   1
   0   2  -4 5270.83 138.965   1
   0   2  -4 5151.30 138.719   6
   0   2   4 5311.89 143.747   7
   0  -2  -4 5164.53 138.312   7
   0   2   4 5299.91 143.697   1
   1   2  -4 5.91757 1.75683   6
  -1   2   4 7.84758 1.81608   7
   1  -2   4 5.18647 1.63991   7
   1   2  -4 5.01721 1.41411   7
  -1  -2  -4 8.90686 1.74167   1
  -1   2   4 5.70455 1.51192   1
  -1  -2  -4 7.25154 1.64426   7
  -1  -2   4 7.44414 1.80191   7
  -1   2  -4 7.73951 1.67379   7
   1   2   4 8.63839 1.83737   7
  -1   2  -4 7.59473 1.56174   1
  -1   2  -4 12.2847 1.92085   6
   1  -2  -4 5.40290 1.57334   7
  -1  -2   4 8.73695 1.73292   1
   2   2  -4 1525.19 41.3313   7
  -2   2   4 1531.74 42.7864   1
  -2  -2  -4 1500.92 41.3476   1
  -2  -2  -4 1462.95 41.3411   7
   2   2  -4 1467.62 41.7100   2
   2   2  -4 1485.97 41.9589   6
   2  -2   4 1581.87 42.9167   7
   2  -2   4 1522.89 43.3101   2
  -2   2  -4 1477.09 41.3276   7
   2  -2  -4 1511.77 41.9063   2
  -2   2  -4 1526.58 41.2995   1
   2   2   4 1544.70 42.9838   7
   2   2   4 1586.92 43.5609   2
  -2  -2   4 1564.96 42.7357   1
   2  -2  -4 1525.26 41.3678   7
  -2   2  -4 1511.60 41.7098   6
   3   2  -4 6.65260 1.79377   2
   3  -2   4 13.3960 1.95111   2
   3   2  -4 13.1308 1.77785   2
  -3  -2  -4 12.0173 1.73755   1
  -3   2   4 7.49206 1.64556   1
   3   2  -4 8.64210 1.74369   7
   3  -2   4 11.2158 2.08477   5
   3  -2   4 9.57865 1.83031   7
   3   2  -4 13.0111 2.15776   6
  -3   2  -4 13.3789 1.79483   6
   3  -2  -4 9.09185 2.11404   3
   3  -2  -4 13.9935 2.16737   4
   3  -2  -4 14.5513 1.83905   7
  -3  -2   4 12.2790 1.72132   1
  -3   2  -4 7.00863 1.56235   1
   3  -2  -4 16.6138 1.96538   2
   3   2   4 10.3049 1.92060   7
   3   2   4 10.6064 1.91827   2
   3  -2  -4 8.11429 1.91935   2
   4  -2   4 3298.05 90.2863   5
   4  -2   4 3421.13 90.8550   3
  -4  -2  -4 3193.41 88.7346   1
   4  -2   4 3251.52 89.9117   2
   4   2  -4 3326.80 89.0532   2
  -4   2   4 3326.43 90.8580   6
   4   2  -4 3365.39 89.8117   6
  -4   2   4 3244.91 89.4316   1
   4   2  -4 3373.60 89.2022   2
   4  -2   4 3361.91 89.6436   7
   4  -2   4 3375.82 90.1425   2
   4   2  -4 3277.36 88.6303   7
  -4   2  -4 3360.52 89.1913   6
   4  -2  -4 3233.37 88.5680   7
   4   2   4 3386.70 90.1044   2
   4  -2  -4 3280.41 89.0972   2
   4   2   4 3276.42 89.6330   7
   4  -2  -4 3268.26 90.2967   3
   4  -2  -4 3177.58 90.3443   4
   4   2   4 3342.21 90.1873   2
   4  -2  -4 3324.35 89.0123   2
  -4  -2   4 3365.69 89.4731   1
  -4   2  -4 3419.08 88.7396   1
   5  -2   4 3.50948 1.53430   7
  -5   2   4 4.70225 1.39913   1
   5  -2   4 3.11410 1.61196   2
   5   2  -4 5.75986 1.63341   2
  -5  -2  -4 6.26238 1.60205   1
   5  -2   4 6.07000 2.16071   3
   5  -2   4 2.32246 1.94472   5
   5  -2   4 6.79135 1.73259   2
   5   2  -4 4.24066 1.38386   7
   5   2  -4 6.91144 1.60113   2
  -5   2   4 8.97222 2.23364   6
  -5   2  -4 10.2253 1.71653   6
   5   2   4 5.28228 1.76293   2
   5  -2  -4 5.10380 1.36472   7
   5   2   4 5.03455 1.57917   2
   5  -2  -4 3.85508 2.08159   3
  -5   2  -4 4.13142 1.36727   1
  -5  -2   4 4.36748 1.37512   1
   5   2   4 6.68486 1.59294   7
   5  -2  -4 9.20098 1.60749   2
   5  -2  -4 8.08770 1.77237   5
   5  -2  -4 4.04787 2.02057   4
   5  -2  -4 6.72955 1.69766   2
   6  -2   4 731.660 23.0408   3
  -6   2   4 739.028 22.4878   6
  -6   2   4 732.946 20.8210   1
  -6  -2  -4 706.201 20.9698   1
   6   2  -4 739.249 21.1927   2
   6  -2   4 725.790 22.3556   5
   6  -2   4 727.147 21.2904   2
   6  -2   4 730.418 20.8394   7
   6   2  -4 733.988 21.2958   2
   6  -2   4 730.840 21.4218   2
   6   2  -4 744.801 20.6513   7
   6  -2  -4 730.269 21.2053   2
  -6   2  -4 727.500 20.9464   1
   6   2   4 736.855 21.5302   2
  -6  -2   4 718.888 20.7593   1
   6  -2  -4 733.187 20.4467   7
   6  -2  -4 709.480 23.4379   3
   6   2   4 728.930 21.3713   2
   6  -2  -4 730.454 21.1475   2
   6   2   4 721.282 20.7372   7
   6  -2  -4 747.901 21.6673   5
   7  -2   4 11.8243 3.15097   3
  -7   2   4 12.7346 1.91742   1
   7  -2   4 11.7579 2.02102   2
  -7   2   4 12.6149 2.77176   6
   7  -2   4 6.00895 1.95260   2
   7   2  -4 11.4743 1.74117   2
   7   2  -4 10.9401 1.89564   2
  -7  -2  -4 12.4826 1.80174   1
   7  -2   4 13.9441 3.04520   5
   7  -2   4 13.6775 1.65729   7
   7   2   4 13.7253 2.00999   2
   7  -2  -4 11.3545 1.83465   2
   7   2   4 12.4435 2.12703   2
  -7   2  -4 13.1369 1.75816   1
   7  -2  -4 8.32869 1.81801   2
  -7  -2   4 9.12548 1.74711   1
   7   2   4 13.0142 1.49529   7
   7  -2  -4 11.8203 3.21967   3
   8  -2   4 1336.85 37.8505   2
   8   2  -4 1381.48 37.5513   2
   8  -2   4 1374.57 40.6069   3
   8  -2   4 1345.45 39.6011   2
   8  -2   4 1353.68 39.6325   5
   8   2  -4 1335.28 37.3186   2
   8   2   4 1362.99 38.0972   2
   8  -2  -4 1340.63 37.3887   2
   8  -2  -4 1347.57 40.8666   3
   8  -2  -4 1319.12 37.2824   2
   9   2  -4 4.16438 1.76774   2
   9   2  -4 2.29943 1.39771   2
   9  -2   4 2.13306 1.70417   2
   9  -2   4 8.00519 3.06434   5
   9  -2   4 3.49772 2.89147   3
   9   2   4 5.72860 2.01801   2
   9  -2  -4 3.70378 1.62316   2
   9  -2  -4 3.29066 1.62841   2
   9  -2  -4 7.45932 3.30467   3
  10   2  -4 269.880 8.95168   2
  10  -2   4 287.459 12.4575   3
  10  -2   4 278.746 9.55888   2
  10   2   4 271.339 9.65244   2
  10  -2  -4 272.120 9.05253   2
  10  -2  -4 267.180 12.5540   3
  11  -2   4 8.00710 3.52281   3
  11  -2   4 5.18228 1.99847   2
  11   2  -4 6.24648 1.77307   2
  11  -2  -4 9.72579 3.97063   3
  11   2   4 9.68513 2.16892   2
  12  -2   4 433.449 17.1897   3
   0  -3  -4 2.14074 1.40000   1
   0  -3  -4 -0.0335 1.24303   7
   0   3  -4 3.20885 1.50179   6
   0   3   4 -0.0010 1.29020   1
   0   3  -4 -0.1510 0.94524   7
   0   3  -4 1.65417 1.19211   1
   0   3   4 1.98245 1.50855   7
   0  -3   4 1.85164 1.46105   7
   0  -3   4 0.91374 1.40486   1
  -1  -3  -4 22.1463 2.21624   1
  -1   3   4 20.5860 2.20092   1
  -1   3   4 25.6724 2.40163   7
   1  -3   4 23.2114 2.31503   7
   1   3  -4 24.4535 2.18255   7
  -1  -3  -4 26.9784 2.39341   7
   1   3  -4 22.2653 2.44185   6
   1   3   4 29.4676 2.61881   7
  -1  -3   4 24.4466 2.28181   1
   1   3   4 26.7194 2.44965   1
  -1   3  -4 21.3732 2.07313   1
  -1  -3   4 21.1133 2.25446   7
   1  -3  -4 20.8464 2.22678   7
  -1   3  -4 21.2270 2.14027   7
  -1   3  -4 25.0658 2.43430   6
   2   3  -4 34.2797 2.61167   2
  -2  -3  -4 31.2881 2.35730   1
   2   3  -4 30.8204 2.30793   7
  -2  -3  -4 34.1108 2.52325   7
  -2   3   4 35.5064 2.44820   1
   2   3  -4 33.9053 2.73578   6
   2  -3   4 27.3112 2.55383   2
  -2   3   4 38.0514 2.97749   6
   2  -3   4 36.2441 2.49418   5
   2  -3   4 33.0754 2.47273   7
  -2   3   4 35.0688 2.52283   7
  -2   3  -4 34.6764 2.35301   1
  -2  -3   4 30.4689 2.36268   7
   2   3   4 35.2725 2.61642   7
   2  -3  -4 30.9706 2.41859   7
   2  -3  -4 34.1140 2.78142   2
  -2   3  -4 34.1409 2.41176   7
  -2   3  -4 35.9387 2.69275   6
   2   3   4 33.8161 2.77405   2
  -2  -3   4 33.7372 2.38895   1
  -3   3   4 16.6327 2.03365   1
   3   3  -4 23.8480 2.30889   2
   3  -3   4 30.4624 3.13659   3
   3  -3   4 18.1590 2.20158   7
   3   3  -4 17.3755 1.92234   7
  -3   3   4 20.8553 2.58209   6
  -3  -3  -4 18.7573 2.16565   1
   3  -3   4 22.3300 2.37479   2
   3   3  -4 16.7023 2.31471   6
   3  -3   4 21.5903 2.44771   5
   3  -3  -4 16.7865 2.21260   2
   3   3   4 20.4611 2.17494   7
   3  -3  -4 21.0974 2.67376   2
   3  -3  -4 20.4008 2.54943   3
  -3  -3   4 20.3740 2.09702   1
   3   3   4 13.1949 2.19858   2
  -3   3  -4 28.6155 2.47715   6
   3  -3  -4 21.8704 2.18311   7
  -3   3  -4 21.4419 2.08911   1
   3  -3  -4 20.1621 2.70415   4
   4  -3   4 -0.2365 1.33001   7
   4   3  -4 0.32749 1.22854   2
   4   3  -4 0.62766 1.28643   2
   4  -3   4 0.42132 1.59190   3
   4  -3   4 14.7246 2.42978   5
  -4  -3  -4 1.49451 1.24190   1
   4  -3   4 1.23026 1.41307   2
   4   3  -4 2.81056 1.72852   6
   4  -3   4 -0.0082 1.35612   2
  -4   3   4 1.92505 1.24082   1
  -4   3   4 0.78188 1.71944   6
   4  -3  -4 1.28519 1.34902   2
   4   3   4 1.32110 1.27043   7
  -4   3  -4 0.40051 1.29719   6
   4  -3  -4 -0.7003 1.41572   3
  -4   3  -4 1.65960 1.16234   1
   4   3   4 2.39008 1.51047   2
   4  -3  -4 1.35984 1.19260   7
   4  -3  -4 0.75406 1.28720   2
   4   3   4 1.84923 1.42658   2
  -4  -3   4 2.39643 1.33552   1
   4  -3  -4 1.34171 1.68665   4
   5   3  -4 29.3262 2.36626   2
   5  -3   4 19.2836 2.19931   7
   5   3  -4 18.5674 2.31157   2
  -5  -3  -4 22.6754 2.23643   1
   5  -3   4 18.7261 2.31278   2
   5  -3   4 21.6402 2.79312   5
   5  -3   4 26.3344 2.53241   2
   5   3  -4 19.4395 2.02648   7
  -5   3   4 21.6158 2.06046   1
  -5   3   4 32.0428 3.13522   6
   5  -3   4 21.0518 2.98199   3
   5   3   4 31.4244 2.38474   7
   5   3   4 15.0940 2.32574   2
   5  -3  -4 26.4805 2.35992   2
   5  -3  -4 18.4798 2.37985   5
   5  -3  -4 29.7605 3.51928   4
  -5   3  -4 31.2468 2.64512   6
  -5   3  -4 23.1062 2.13521   1
   5  -3  -4 18.8448 2.27489   2
   5   3   4 27.5321 2.44650   2
   5  -3  -4 23.5502 3.15180   3
  -5  -3   4 20.4251 2.10267   1
   5  -3  -4 29.6742 2.19956   7
  -6   3   4 9.51387 2.73793   6
   6  -3   4 12.4660 3.06133   3
   6  -3   4 8.47376 2.02501   2
   6  -3   4 8.74456 2.09700   2
   6   3  -4 8.28812 1.82935   2
   6  -3   4 9.76643 1.79262   7
   6   3  -4 12.1702 1.77217   7
  -6   3   4 10.8831 1.87058   1
   6   3  -4 12.2632 2.23592   2
  -6  -3  -4 9.73962 1.86773   1
   6  -3   4 9.28341 2.60469   5
   6   3   4 10.4293 1.56564   7
   6   3   4 13.5121 2.48654   2
   6  -3  -4 9.46676 1.54901   7
   6  -3  -4 9.86476 2.01836   2
  -6   3  -4 8.00485 1.68252   1
   6  -3  -4 10.8363 2.91696   4
  -6  -3   4 8.02435 1.68240   1
   6  -3  -4 11.6207 3.07309   3
   6  -3  -4 8.09987 2.04807   5
   6  -3  -4 9.71301 2.11571   2
   6  -3  -4 9.88182 1.59480   7
   7   3  -4 15.5807 1.95163   2
   7  -3   4 22.1553 3.45879   3
  -7   3   4 14.6612 1.80679   1
   7  -3   4 16.2503 2.26041   2
   7   3  -4 12.4758 2.03713   2
   7  -3   4 13.2861 2.87057   5
   7   3  -4 17.2982 1.64112   7
  -7  -3  -4 17.4100 1.99397   1
  -7   3   4 17.8514 2.68680   6
   7  -3   4 12.8911 1.80372   7
  -7   3  -4 9.13603 1.82304   1
   7  -3  -4 18.7521 1.49849   7
   7  -3  -4 14.6786 3.54800   3
   7  -3  -4 17.6266 2.11178   2
   7   3   4 12.7762 2.25572   2
   7  -3  -4 13.2159 2.06317   2
   7   3   4 17.1323 1.66604   7
   7  -3  -4 14.6797 2.69243   5
  -7  -3   4 12.8037 1.88141   1
   8  -3   4 -1.0806 2.30901   3
   8  -3   4 -2.1186 2.09062   5
   8  -3   4 0.51022 1.56925   2
   8   3  -4 0.01452 1.24368   2
   8  -3  -4 -0.1547 1.51472   2
   8  -3  -4 0.77530 2.60385   3
   8  -3  -4 1.63909 1.56534   2
   8   3   4 0.67032 1.64050   2
   9  -3   4 15.7440 3.89778   3
   9  -3   4 14.5753 3.51504   5
   9   3  -4 15.7646 2.03358   2
   9  -3   4 13.6179 2.20916   2
   9   3   4 12.6536 2.36064   2
   9  -3  -4 22.1088 4.52340   3
   9  -3  -4 15.3469 2.21844   2
  10  -3   4 -0.3302 2.83147   5
  10   3  -4 0.25834 1.36694   2
  10  -3   4 4.26844 1.92449   2
  10  -3   4 1.72420 3.00250   3
  10  -3  -4 1.19619 1.59648   2
  10  -3  -4 1.07726 3.15181   3
  10   3   4 0.90261 1.83513   2
  11  -3   4 2.96845 3.36216   3
  11   3  -4 4.61416 1.73263   2
  11  -3   4 8.56774 2.26801   2
  11  -3  -4 5.87268 3.53957   3
  11  -3  -4 12.7285 2.05575   2
  11   3   4 6.29259 2.07521   2
  12  -3   4 2.75818 3.27941   3
  12  -3  -4 0.13128 3.29588   3
   0  -4  -4 14.0780 2.29975   7
   0   4  -4 11.8146 1.77629   7
   0   4   4 14.9361 2.31905   7
   0   4   4 11.1187 1.95006   6
   0  -4   4 13.1174 1.97413   7
   0   4   4 12.5669 1.84576   1
   0   4  -4 11.6487 1.70795   1
   0  -4  -4 15.2680 2.31564   1
   0   4  -4 11.7799 1.94836   6
   0  -4   4 12.4599 2.11075   1
   1  -4   4 29.2038 2.49736   7
   1  -4   4 16.9294 1.80350   4
  -1  -4  -4 26.0992 2.39897   1
   1   4  -4 23.6758 2.27245   1
  -1  -4  -4 27.8153 2.60466   7
  -1   4   4 23.0776 2.57479   6
   1  -4   4 29.0186 2.47256   1
  -1   4   4 22.5842 2.29250   1
   1   4  -4 25.0524 2.30073   7
  -1   4   4 28.7600 2.50004   7
   1   4  -4 28.5288 2.72696   6
  -1   4  -4 27.7583 2.29301   1
   1  -4  -4 28.6956 2.46786   1
   1   4   4 24.9586 2.37539   1
   1   4   4 23.5703 2.43209   7
  -1  -4   4 29.6366 2.54509   7
  -1   4  -4 26.9723 2.38783   7
  -1  -4   4 27.8500 2.34418   1
   1   4   4 21.6609 2.26564   6
  -1   4  -4 31.0570 2.78026   6
   1  -4  -4 18.5695 2.25002   7
   2   4  -4 223.675 8.14797   7
  -2  -4  -4 230.296 8.27252   1
   2  -4   4 231.694 8.88016   2
   2  -4   4 233.761 8.39704   7
   2   4  -4 240.165 8.78823   2
   2   4  -4 234.352 8.77122   6
   2  -4   4 246.358 8.12795   4
  -2   4   4 237.596 9.01041   6
  -2   4   4 241.246 8.41656   7
  -2   4   4 237.755 8.35334   1
  -2  -4  -4 240.596 8.35703   7
   2   4   4 243.561 8.08486   6
   2   4   4 237.828 8.45201   7
  -2   4  -4 243.706 8.80504   6
  -2  -4   4 247.065 8.42005   7
   2  -4  -4 236.748 8.29086   7
   2  -4  -4 242.390 8.72966   3
   2   4   4 246.921 9.10655   2
  -2  -4   4 232.354 8.23666   1
  -2   4  -4 241.698 8.31215   7
   2  -4  -4 254.532 8.99431   2
   2   4   4 259.191 9.21368   1
  -2   4  -4 229.841 8.15214   1
  -3   4   4 16.1454 2.07768   7
   3  -4   4 16.2839 2.38945   5
   3  -4   4 18.4886 2.09682   7
  -3  -4  -4 19.4564 2.21003   7
   3   4  -4 18.7571 2.18518   2
  -3   4   4 16.6195 2.46823   6
  -3  -4  -4 20.9629 2.24084   1
   3   4  -4 20.7814 2.06696   7
  -3   4   4 18.8778 2.14340   1
   3  -4   4 22.1075 3.29974   3
   3  -4   4 19.1913 2.33138   2
   3   4  -4 17.9264 2.38912   6
  -3  -4   4 23.7967 2.24244   1
   3   4   4 15.5842 1.66790   6
  -3   4  -4 19.2994 2.03154   7
   3   4   4 14.6460 1.99675   7
  -3   4  -4 23.5497 2.52063   6
   3  -4  -4 20.1365 2.16402   7
   3   4   4 16.8710 2.36998   2
  -3   4  -4 20.5654 2.05570   1
   3  -4  -4 11.3209 2.43161   3
   3  -4  -4 21.3827 3.31784   4
  -3  -4   4 21.7205 2.31977   7
   3  -4  -4 14.6631 2.25627   2
   4  -4   4 10.7070 2.31250   5
  -4  -4  -4 8.39569 1.85423   1
   4  -4   4 6.08019 1.75538   7
   4   4  -4 9.50274 1.76153   7
   4  -4   4 7.33561 2.08198   2
  -4   4   4 7.59114 2.36074   6
   4  -4   4 10.8346 2.78975   3
  -4   4   4 12.4828 2.04913   1
   4   4  -4 7.43032 1.87422   2
   4   4  -4 4.82832 1.85856   6
   4   4   4 10.2222 2.28984   2
   4  -4  -4 6.62727 2.37784   4
  -4   4  -4 8.02758 2.13363   6
   4  -4  -4 9.08916 2.15118   2
  -4   4  -4 8.74230 1.74333   1
   4   4   4 7.50507 1.76205   7
   4  -4  -4 7.38647 1.75296   7
   4  -4  -4 4.48418 2.06473   3
  -4  -4   4 7.28141 1.83358   1
   4  -4  -4 9.20378 2.31744   2
   5  -4   4 33.4637 3.35128   5
   5   4  -4 32.0079 2.57803   2
  -5   4   4 24.0570 2.32430   1
   5   4  -4 26.5255 3.02475   6
  -5   4   4 39.1883 3.45433   6
   5   4  -4 23.9895 2.25869   7
  -5  -4  -4 29.6568 2.54646   1
   5  -4   4 22.3626 3.37283   3
   5  -4   4 34.3430 2.93541   2
   5  -4   4 25.3951 2.50229   7
   5  -4  -4 32.8580 2.34414   7
   5   4   4 20.5780 2.71372   2
   5  -4  -4 24.0890 3.37095   3
  -5   4  -4 31.1682 2.76063   6
   5  -4  -4 19.9342 2.55449   2
  -5   4  -4 25.9757 2.33020   1
   5   4   4 29.9041 2.43732   7
  -5  -4   4 29.4330 2.43416   1
   5  -4  -4 28.2346 3.53255   4
   6   4  -4 121.154 5.35602   2
   6   4  -4 125.989 4.99240   7
   6  -4   4 130.023 5.22210   7
  -6   4   4 127.826 6.29012   6
  -6  -4  -4 125.197 5.16135   1
  -6   4   4 122.759 5.02650   1
   6  -4   4 127.993 7.04031   3
   6  -4   4 125.599 5.67452   2
   6  -4   4 127.534 6.34841   5
   6   4   4 124.557 5.83530   2
   6  -4  -4 134.413 7.13298   3
  -6   4  -4 134.110 5.81281   6
   6   4   4 125.437 5.10252   7
   6  -4  -4 119.258 7.04837   4
  -6   4  -4 121.865 5.07141   1
  -6  -4   4 123.955 5.08614   1
   6  -4  -4 121.748 4.79044   7
   6  -4  -4 125.113 5.59530   2
   6  -4  -4 125.467 5.83882   5
   7  -4   4 9.81818 2.81030   5
   7  -4   4 9.54952 2.34590   2
  -7   4   4 8.93630 2.52528   6
  -7  -4  -4 9.86004 1.98769   1
   7  -4   4 2.53832 2.72053   3
  -7   4   4 11.3514 1.78411   1
   7   4  -4 9.67651 1.81249   2
   7   4  -4 6.86308 1.52509   7
   7  -4   4 6.39813 1.71441   7
   7   4   4 7.30382 2.17492   2
   7  -4  -4 8.59167 3.29622   4
   7   4   4 13.1990 1.69030   7
  -7   4  -4 9.24268 1.74859   1
  -7  -4   4 9.42204 1.91559   1
   7  -4  -4 10.8728 3.24461   3
   7  -4  -4 6.64750 2.01639   2
   7  -4  -4 11.0897 1.47874   7
   7  -4  -4 9.46811 2.47369   5
   8  -4   4 3.01553 2.73518   5
   8   4  -4 2.08010 1.47940   2
   8  -4   4 0.46739 1.76885   2
   8  -4   4 2.01663 2.71009   3
   8  -4  -4 4.04432 1.89616   2
   8  -4  -4 3.69285 2.96205   3
   8   4   4 1.12053 1.78855   2
   9  -4   4 19.2100 2.49303   2
   9  -4   4 15.2669 3.95672   3
   9  -4   4 19.3414 3.76968   5
   9   4  -4 15.9913 2.19748   2
   9  -4  -4 18.5438 4.38307   3
   9  -4  -4 21.2335 2.52466   2
   9   4   4 13.5254 2.47224   2
  10  -4   4 51.2394 5.54602   3
  10  -4   4 67.8264 5.43171   5
  10  -4   4 57.5874 3.69885   2
  10   4  -4 57.2798 3.54989   2
  10   4   4 54.4123 3.84320   2
  10  -4  -4 59.9580 3.64873   2
  10  -4  -4 62.9810 6.11097   3
  11  -4   4 3.59213 3.28144   5
  11  -4   4 1.41839 1.91516   2
  11   4  -4 4.98119 1.87790   2
  11  -4   4 0.67126 3.02206   3
  11  -4  -4 1.11584 3.14065   3
  11   4   4 4.44048 2.07678   2
  11  -4  -4 3.53964 1.83659   2
  12  -4   4 1.39048 3.36691   3
  12  -4  -4 -2.6668 2.83432   3
   0   5  -4 187.613 6.94003   1
   0   5   4 188.012 7.35712   6
   0  -5  -4 178.597 7.00058   7
   0  -5  -4 177.900 6.94984   1
   0  -5   4 199.483 7.30080   7
   0   5   4 187.508 7.16389   1
   0   5  -4 189.015 7.46921   6
   0   5  -4 184.918 6.96410   7
   0  -5   4 184.452 7.07983   1
   1  -5   4 14.9634 1.87299   4
   1   5  -4 20.3009 2.46434   6
  -1  -5  -4 20.3520 2.28769   7
   1  -5   4 18.7238 2.22416   1
  -1   5   4 14.0821 2.05978   1
   1  -5   4 20.1747 2.36737   7
   1   5  -4 18.1951 2.06305   7
  -1  -5  -4 14.2199 2.09507   1
  -1   5   4 24.9741 2.51058   7
  -1   5   4 16.5540 2.31634   6
   1   5  -4 17.5676 2.00285   1
   1   5   4 18.8924 2.21039   1
   1  -5  -4 23.6033 2.57620   3
   1   5   4 15.9463 2.19796   7
   1  -5  -4 20.8201 2.27217   7
  -1  -5   4 21.9399 2.28051   1
  -1   5  -4 19.7143 2.40423   6
   1  -5  -4 18.8398 2.19114   1
  -1  -5   4 22.6259 2.41874   7
  -1   5  -4 20.0933 2.13308   1
   1   5   4 16.1169 2.06627   6
  -1   5  -4 16.7290 2.08780   7
   2  -5   4 290.544 9.88042   7
   2   5  -4 303.496 9.84726   1
   2  -5   4 289.445 10.4130   2
   2   5  -4 279.181 9.77311   7
  -2  -5  -4 285.211 9.86201   7
  -2   5   4 289.635 9.83797   7
   2   5  -4 291.520 10.4611   2
  -2   5   4 296.000 10.5365   6
   2  -5   4 286.040 9.61055   4
   2   5  -4 277.920 10.3181   6
   2  -5   4 290.523 9.78954   1
  -2   5   4 275.280 9.68064   1
  -2  -5  -4 289.152 9.86125   1
   2   5   4 283.309 9.69611   1
   2   5   4 273.851 9.78220   7
   2   5   4 297.132 9.51296   6
  -2   5  -4 285.531 10.3630   6
  -2   5  -4 289.545 9.75494   1
   2  -5  -4 316.768 9.88105   1
  -2   5  -4 286.153 9.84056   7
  -2  -5   4 282.661 9.66193   1
   2  -5  -4 298.758 10.6360   3
   2  -5  -4 278.116 9.75509   7
   2  -5  -4 289.608 10.6033   2
  -2  -5   4 285.362 9.83611   7
   3   5  -4 10.4851 2.24858   6
  -3  -5  -4 17.1209 2.20396   7
  -3   5   4 9.41961 2.45123   6
   3   5  -4 11.3900 1.88192   7
   3  -5   4 13.3666 2.26864   2
   3   5  -4 11.9437 1.97151   2
  -3   5   4 10.2531 2.01036   1
   3  -5   4 14.8929 3.75776   3
   3  -5   4 14.3711 2.15622   4
   3  -5   4 14.8485 2.17365   7
  -3  -5  -4 13.8847 1.95606   1
   3  -5   4 13.0784 2.31324   5
  -3  -5   4 14.7956 2.04296   1
   3  -5  -4 7.70666 2.18365   3
   3   5   4 15.4942 2.39755   1
   3   5   4 13.1828 2.09016   7
   3  -5  -4 14.4117 2.06906   7
   3   5   4 10.6074 1.54706   6
   3   5   4 12.5023 2.36306   2
  -3   5  -4 14.1504 1.84333   1
  -3   5  -4 16.3669 2.31837   6
   3  -5  -4 12.7465 2.26917   2
  -4  -5  -4 134.892 5.40678   1
   4  -5   4 147.662 7.87781   3
   4  -5   4 123.172 5.35424   7
  -4   5   4 123.697 5.29265   1
   4  -5   4 124.466 5.87082   5
   4   5  -4 125.839 5.86620   6
   4   5  -4 125.839 5.23256   7
  -4   5   4 117.156 6.06535   6
   4   5  -4 121.134 5.56133   2
   4  -5   4 125.625 5.85209   2
   4  -5  -4 116.198 5.74905   2
   4  -5  -4 116.924 7.25774   4
  -4   5  -4 120.243 5.15513   1
   4   5   4 122.250 5.31031   7
  -4  -5   4 128.664 5.30235   1
  -4   5  -4 122.675 5.78784   6
   4  -5  -4 117.981 6.29785   3
   4   5   4 128.594 6.10636   2
   4  -5  -4 117.369 5.07247   7
   5   5  -4 18.7152 2.28301   2
  -5   5   4 18.9587 2.23677   1
   5  -5   4 19.9706 2.63680   2
  -5  -5  -4 12.6364 2.05152   1
  -5   5   4 15.9617 2.61205   6
   5  -5   4 23.1113 2.48671   7
   5   5  -4 15.8201 2.77877   6
   5  -5   4 16.0472 2.99604   5
   5  -5   4 18.7211 3.95493   3
   5   5  -4 14.7568 2.05200   7
   5   5   4 18.7193 2.65564   2
   5  -5  -4 17.4523 2.54058   2
   5  -5  -4 13.2743 3.26288   4
   5   5   4 24.1090 2.33187   7
  -5   5  -4 18.1285 2.47454   6
   5  -5  -4 23.1165 2.20032   7
   5  -5  -4 19.2747 3.19885   3
   5  -5  -4 22.5627 2.15116   7
  -5   5  -4 18.9554 2.08004   1
  -5  -5   4 17.1567 2.18460   1
  -6   5   4 162.028 6.21663   1
   6  -5   4 162.887 6.87834   2
  -6   5   4 157.920 7.45464   6
   6  -5   4 159.612 8.50053   3
   6  -5   4 168.631 6.43477   7
   6   5  -4 164.933 6.17524   7
  -6  -5  -4 169.501 6.36063   1
   6  -5   4 155.506 7.34301   5
   6   5  -4 150.583 6.53318   2
   6   5   4 160.131 6.19259   7
  -6   5  -4 164.760 6.29421   1
   6  -5  -4 155.341 6.79157   2
   6   5   4 163.258 7.11197   2
   6  -5  -4 169.096 6.00666   7
   6  -5  -4 169.027 8.41713   3
  -6  -5   4 158.857 6.19053   1
   6  -5  -4 151.538 8.48142   4
  -6   5  -4 155.514 6.91559   6
   7  -5   4 4.57556 2.11710   2
  -7   5   4 5.43412 2.36314   6
   7  -5   4 5.31011 1.78798   7
   7   5  -4 3.54897 1.66362   2
   7  -5   4 5.79070 3.06619   3
   7  -5   4 10.2597 2.91867   5
  -7   5   4 9.38508 1.82931   1
   7   5  -4 8.10126 1.68521   7
  -7  -5  -4 7.87638 1.90151   1
   7  -5  -4 10.0873 3.32667   4
   7   5   4 5.18087 2.26919   2
   7  -5  -4 5.33628 2.14916   2
  -7   5  -4 8.13668 1.80674   1
   7  -5  -4 6.21494 2.36978   5
   7  -5  -4 9.35566 1.66143   7
   7   5   4 6.18212 1.59089   7
   7  -5  -4 9.27547 3.10375   3
  -7  -5   4 6.21759 1.78855   1
  -8  -5  -4 46.3525 3.18283   1
   8  -5   4 46.2827 4.39007   5
   8  -5   4 51.2926 3.75299   2
   8   5  -4 51.0919 3.39854   2
  -8   5   4 49.6660 4.17408   6
   8  -5   4 49.2976 5.18501   3
   8  -5  -4 54.0791 4.35292   5
  -8   5  -4 51.0654 3.15399   1
   8  -5  -4 50.8570 3.58177   2
   8   5   4 48.3766 2.85578   7
   8   5   4 46.3971 3.71457   2
   8  -5  -4 53.3299 5.29596   3
   9   5  -4 7.00948 1.89631   2
   9  -5   4 8.44161 2.39170   2
   9  -5   4 11.0764 3.97537   3
   9  -5   4 13.6110 3.45594   5
   9  -5  -4 11.1044 2.48855   2
   9  -5  -4 12.4648 3.93252   3
   9   5   4 9.12400 2.45936   2
  10   5  -4 69.6499 4.15028   2
  10  -5   4 71.3855 4.37674   2
  10  -5   4 79.6512 6.02271   5
  10  -5   4 82.0336 6.79853   3
  10  -5  -4 76.4109 6.66190   3
  10   5   4 78.1024 4.61936   2
  10  -5  -4 72.7780 4.18744   2
  11  -5   4 7.06354 3.60201   5
  11  -5   4 1.97466 3.45019   3
  11  -5   4 1.89670 1.99673   2
  11   5  -4 5.21888 1.93349   2
  11  -5  -4 4.71739 2.05089   2
  11  -5  -4 3.23385 3.45005   3
  11   5   4 5.28152 2.12367   2
  11  -5  -4 3.35743 1.94975   2
  12  -5   4 19.4803 5.09078   3
  12  -5  -4 13.0000 4.56441   3
   0   6   4 1322.46 37.0357   1
   0   6   4 1279.82 37.2108   6
   0  -6  -4 1308.44 36.1627   7
   0   6   4 1358.86 37.1517   7
   0   6  -4 1278.88 36.6670   6
   0  -6   4 1261.93 36.8048   1
   0   6  -4 1272.86 36.0278   7
   0   6  -4 1223.47 35.8592   1
   1   6  -4 13.5492 2.30266   6
  -1   6   4 10.0870 2.06547   7
  -1  -6  -4 14.9435 2.12259   7
  -1   6   4 9.74284 2.03114   1
  -1   6   4 13.5362 2.30281   6
   1   6  -4 12.8048 1.94766   1
   1  -6   4 15.3633 2.18917   1
   1   6  -4 9.91158 1.96409   7
  -1  -6  -4 9.31307 2.10002   1
   1  -6   4 16.5873 2.34644   7
   1  -6  -4 10.8516 2.42822   3
   1   6   4 12.5450 1.96931   6
   1  -6  -4 16.2684 2.17808   1
  -1  -6   4 13.5986 2.12495   1
   1   6   4 10.7739 2.13600   1
  -1  -6   4 16.8421 2.51536   1
  -1  -6   4 16.9839 2.28104   7
   1   6   4 9.41957 2.03912   7
   1  -6  -4 13.8507 2.10713   7
  -1   6  -4 16.5867 2.33696   6
  -1   6  -4 14.5022 2.02572   1
  -1   6  -4 13.6389 1.99644   7
  -2   6   4 332.345 11.1240   7
  -2   6   4 337.188 11.8695   6
  -2  -6  -4 307.712 10.9459   1
   2   6  -4 329.476 11.5755   6
   2  -6   4 353.295 11.1973   1
   2  -6   4 317.473 10.9474   4
   2   6  -4 329.902 10.9868   7
   2  -6   4 315.150 11.0844   7
   2   6  -4 327.060 11.6763   2
  -2  -6  -4 323.887 11.0273   7
  -2   6   4 332.344 11.1234   1
   2   6  -4 333.153 10.9320   1
  -2  -6   4 328.479 11.1365   7
  -2   6  -4 313.073 10.8105   1
   2   6   4 309.147 11.0405   7
  -2   6  -4 318.132 11.4917   6
   2   6   4 317.497 10.9869   1
   2   6   4 319.849 10.7271   6
  -2  -6   4 329.632 11.0711   1
   2  -6  -4 321.966 10.9104   7
   2  -6  -4 338.310 11.8086   2
   2  -6  -4 339.087 10.9312   1
   2  -6  -4 333.947 11.7411   2
  -2   6  -4 317.174 10.9451   7
   2  -6  -4 333.780 11.9719   3
  -2  -6   4 368.281 11.3335   1
   3  -6   4 9.52368 2.23082   4
   3   6  -4 12.5663 1.99789   7
   3  -6   4 16.8353 2.39894   7
   3  -6   4 13.6755 4.88262   3
   3   6  -4 13.6887 2.23317   2
  -3  -6  -4 13.4642 2.06163   1
   3  -6   4 14.0582 2.45028   2
  -3   6   4 13.5089 2.03363   1
  -3   6   4 11.1054 2.64894   6
   3   6  -4 9.96951 2.31464   6
  -3   6  -4 15.0003 1.98218   1
   3   6   4 10.3887 2.42335   2
  -3  -6   4 13.5162 2.18413   1
   3  -6  -4 8.26516 2.46383   2
   3  -6  -4 7.96189 2.22108   3
   3   6   4 14.7636 2.19134   7
  -3  -6   4 13.7514 2.19717   1
   3  -6  -4 14.9889 2.14157   7
   3   6   4 8.10880 1.93123   6
  -3   6  -4 13.9135 2.30741   6
   4  -6   4 1047.96 32.0173   3
  -4  -6  -4 875.389 26.2421   1
  -4   6   4 934.777 27.2492   1
   4  -6   4 911.962 27.2526   7
   4   6  -4 897.998 26.9710   6
   4   6  -4 889.778 26.2294   7
  -4   6   4 936.295 28.5262   6
   4  -6   4 954.854 28.1762   4
   4   6  -4 923.035 26.9546   2
   4  -6   4 942.428 28.0774   2
   4  -6   4 904.406 27.7482   5
  -4   6  -4 898.121 27.0175   6
   4  -6  -4 912.406 28.0910   3
   4  -6  -4 910.983 26.1549   7
  -4   6  -4 883.046 26.1103   1
   4   6   4 959.283 28.3612   2
   4  -6  -4 929.043 27.0928   2
   4  -6  -4 904.425 26.1646   7
   4   6   4 898.546 27.2368   7
  -4  -6   4 955.420 27.3069   1
   4  -6  -4 907.232 30.1745   4
  -4  -6   4 932.247 27.1959   1
   5   6  -4 6.64027 1.96788   2
   5   6  -4 8.73645 1.95637   7
   5  -6   4 7.85787 2.42312   2
   5  -6   4 9.26348 2.63006   5
  -5  -6  -4 12.7799 2.01237   1
  -5   6   4 10.9471 2.12344   1
   5  -6   4 8.08104 2.16462   7
   5  -6   4 11.3877 3.64150   3
  -5   6   4 7.86274 2.48446   6
   5   6   4 6.80935 1.85428   7
  -5   6  -4 5.11622 1.71742   1
  -5  -6   4 7.67755 1.97903   1
   5  -6  -4 4.33735 2.83297   4
   5  -6  -4 4.47153 2.15799   2
   5  -6  -4 7.42503 2.79747   3
  -5   6  -4 9.97602 2.36891   6
   5   6   4 8.32505 2.46677   2
   5  -6  -4 7.78794 1.90755   7
  -5  -6   4 8.81398 2.14231   1
   6  -6   4 171.321 6.76064   7
  -6   6   4 171.103 6.60843   1
   6  -6   4 189.046 9.63264   3
   6   6  -4 174.817 6.52261   7
   6  -6   4 174.100 7.90627   5
   6  -6   4 165.914 7.31590   2
  -6  -6  -4 161.734 6.50199   1
  -6   6   4 162.215 7.77008   6
   6   6  -4 164.492 6.94540   2
  -6   6  -4 168.695 6.46278   1
   6   6   4 164.604 7.54127   2
   6  -6  -4 164.712 7.21126   2
   6  -6  -4 156.028 6.20713   7
   6  -6  -4 162.771 8.58851   3
   6  -6  -4 158.889 9.07183   4
  -6   6  -4 163.317 7.18861   6
  -6  -6   4 173.711 6.67446   1
   6   6   4 163.621 6.52626   7
   7  -6   4 8.82841 2.13732   7
  -7   6   4 8.70498 1.93171   1
   7   6  -4 6.23835 2.13391   2
  -7  -6  -4 11.2860 2.31932   1
   7  -6   4 0.41236 2.77633   3
  -7   6   4 10.4599 2.90141   6
   7   6  -4 8.65777 1.82248   7
   7  -6   4 6.01431 2.29702   2
   7  -6   4 12.2255 2.98403   5
   7  -6  -4 8.53229 3.52049   4
   7  -6  -4 7.66461 2.41444   2
  -7  -6   4 8.54802 2.08844   1
   7  -6  -4 5.80767 2.54253   5
   7   6   4 7.90757 2.56714   2
  -7   6  -4 6.98921 1.85020   1
   7  -6  -4 9.78764 1.77081   7
   7   6   4 8.74352 1.81393   7
   7  -6  -4 6.23835 3.07601   3
   8  -6   4 452.890 15.0957   2
  -8   6   4 462.517 16.0258   6
  -8   6   4 451.447 15.3434   1
   8  -6   4 470.006 18.1030   3
   8   6  -4 446.546 14.5275   2
   8  -6   4 433.884 15.9415   5
  -8  -6  -4 442.195 13.8096   1
   8  -6   4 469.148 14.1349   7
   8  -6  -4 434.643 14.5860   2
   8  -6  -4 430.640 17.5297   4
   8   6   4 456.254 13.7874   7
   8  -6  -4 442.189 17.1974   3
  -8   6  -4 433.948 13.7936   1
  -8  -6   4 449.302 14.1652   1
   8   6   4 448.247 15.2796   2
   8  -6  -4 454.473 15.7546   5
   9  -6   4 0.67017 2.61143   5
   9  -6   4 6.28455 3.48062   3
   9   6  -4 4.59157 1.92051   2
   9  -6   4 2.41698 2.20103   2
   9  -6  -4 4.44722 3.32435   3
   9  -6  -4 4.06898 2.07859   2
   9  -6  -4 5.08311 2.26111   2
   9   6   4 3.19124 2.03940   2
  10  -6   4 64.0500 5.52244   5
  10   6  -4 59.0160 3.96860   2
  10  -6   4 62.9990 4.28064   2
  10  -6   4 57.7245 6.00825   3
  10  -6  -4 67.9733 6.36919   3
  10   6   4 59.0863 4.19785   2
  10  -6  -4 57.1441 3.94814   2
  11   6  -4 2.02348 1.87357   2
  11  -6   4 3.26772 2.28085   2
  11  -6   4 4.27316 3.67480   3
  11  -6   4 -0.2269 3.21439   5
  11   6   4 1.69603 2.05665   2
  11  -6  -4 3.90521 2.21016   2
  11  -6  -4 7.69288 4.10980   3
  12  -6   4 184.770 9.51661   5
  12  -6   4 181.885 10.6917   3
  12  -6  -4 168.309 10.4357   3
   0   7  -4 238.229 9.00557   7
   0   7  -4 247.893 9.58795   6
   0   7  -4 262.938 9.11659   1
   0   7   4 266.798 9.35744   1
   0  -7   4 266.822 9.34102   1
   0  -7  -4 254.542 9.17304   7
   0   7   4 252.132 9.48634   6
   0  -7   4 231.118 9.22994   1
   0  -7  -4 244.011 9.08628   1
   0  -7   4 254.732 9.29380   7
  -1   7   4 2.93998 1.96136   6
  -1   7   4 3.91950 1.80992   1
   1  -7   4 5.38852 1.96898   7
   1   7  -4 3.20574 1.77909   6
   1  -7   4 3.67224 1.89567   1
   1   7  -4 5.14204 1.75784   1
  -1  -7  -4 3.79258 1.77469   1
   1   7  -4 4.68919 1.75942   7
  -1  -7  -4 2.95211 1.78998   7
  -1   7   4 1.98359 1.63365   7
  -1  -7   4 3.81284 1.82985   1
   1   7   4 3.48631 1.72233   1
  -1  -7   4 3.66275 1.80609   1
  -1   7  -4 4.61328 1.67651   7
   1   7   4 4.98148 1.72091   6
   1  -7  -4 2.86099 1.65421   1
  -1  -7   4 4.35210 1.92775   7
   1  -7  -4 6.67069 1.99869   7
   1  -7  -4 5.12422 2.19087   3
  -1   7  -4 3.29719 1.57550   1
  -1   7  -4 3.21409 1.84522   6
   1   7   4 2.33989 1.61955   7
   2   7  -4 1789.74 50.1293   1
   2   7  -4 1792.68 50.7719   6
  -2   7   4 1832.99 50.6869   7
   2  -7   4 1794.30 50.4462   1
   2  -7   4 1854.21 50.6518   7
  -2  -7  -4 1802.43 50.2331   7
   2   7  -4 1753.44 50.1529   7
  -2  -7  -4 1763.74 50.1612   1
   2  -7   4 1855.56 50.7037   4
  -2   7   4 1898.17 50.6414   1
   2   7   4 1861.04 50.2541   6
  -2   7  -4 1806.63 50.9489   6
   2  -7  -4 1796.38 50.2190   7
  -2   7  -4 1821.01 50.1178   1
   2   7   4 1878.65 50.6023   1
  -2   7  -4 1775.11 50.1770   7
   2  -7  -4 1893.56 50.1472   1
  -2  -7   4 1774.40 50.4792   1
   2  -7  -4 1850.82 50.2621   7
  -2  -7   4 1799.82 50.5827   7
   2  -7  -4 1767.09 51.4013   3
   2   7   4 1875.17 50.7542   7
  -2  -7   4 1530.21 50.0222   1
   3  -7   4 7.13290 5.69807   3
   3  -7   4 7.46354 2.44463   2
   3   7  -4 4.54135 1.65498   7
   3  -7   4 2.10927 1.94841   7
  -3  -7  -4 6.49142 1.93786   1
   3   7  -4 2.10731 1.73997   6
  -3   7   4 3.40172 1.75113   1
   3   7  -4 6.38357 2.12970   2
   3  -7   4 4.80037 2.02890   4
  -3   7   4 1.77703 1.98984   6
   3  -7  -4 7.68396 2.40248   3
  -3  -7   4 4.88312 1.94001   1
   3  -7  -4 5.00547 2.32573   2
   3  -7  -4 5.52546 2.24119   2
  -3  -7   4 5.39741 1.87941   1
   3   7   4 4.17361 1.87186   7
  -3   7  -4 4.98138 2.15475   6
  -3   7  -4 5.00673 1.72861   1
   3  -7  -4 3.69671 1.73976   7
   3  -7  -4 3.98368 1.91044   7
   4   7  -4 184.075 7.93468   6
  -4   7   4 197.926 8.60071   6
   4  -7   4 202.534 8.44239   2
   4  -7   4 231.354 12.5391   3
   4   7  -4 179.870 7.32335   7
  -4  -7  -4 204.022 7.63030   1
   4  -7   4 192.536 8.30298   4
   4  -7   4 185.018 7.60209   7
  -4   7   4 186.094 7.50518   1
   4   7  -4 191.486 8.05095   2
   4  -7  -4 194.541 8.94179   3
   4  -7  -4 194.204 8.14835   2
   4   7   4 196.958 8.48355   2
   4   7   4 194.819 7.67823   7
  -4   7  -4 188.457 8.09323   6
  -4  -7   4 196.295 7.61505   1
   4  -7  -4 176.531 10.9668   4
  -4   7  -4 194.760 7.37808   1
   4  -7  -4 194.523 8.18645   2
   4  -7  -4 184.903 7.34992   7
  -4  -7   4 196.433 7.44529   1
   5  -7   4 2.28733 2.09929   2
   5  -7   4 2.26677 3.44455   3
   5  -7   4 3.75793 2.02040   7
  -5  -7  -4 2.52401 1.81448   1
   5  -7   4 2.09453 2.15045   5
  -5   7   4 1.04650 1.63588   1
   5   7  -4 2.30254 1.81141   2
  -5   7   4 4.71349 2.43822   6
   5  -7   4 3.93963 2.52924   4
   5   7  -4 4.81888 1.74263   7
  -5  -7   4 1.38556 1.81390   1
  -5  -7   4 5.14867 1.97000   1
   5   7   4 2.13855 2.03146   2
   5   7   4 1.05451 1.61774   7
   5  -7  -4 5.14669 2.28924   2
   5  -7  -4 4.59136 2.09362   2
  -5   7  -4 2.80037 2.03673   6
   5  -7  -4 5.60299 1.94355   7
   5  -7  -4 2.95576 2.39899   3
   5  -7  -4 5.94036 3.35053   4
  -5   7  -4 3.22959 1.68647   1
  -6   7   4 1065.36 31.2662   1
  -6   7   4 1055.59 32.8676   6
   6   7  -4 1080.85 30.6108   7
  -6  -7  -4 1078.96 30.6212   1
   6   7  -4 1070.85 31.3727   2
   6  -7   4 1089.32 32.3688   2
   6  -7   4 1073.05 31.4230   7
   6  -7   4 1129.88 32.8751   5
   6  -7   4 1157.07 36.0280   3
   6  -7  -4 1034.07 34.7503   4
   6  -7  -4 1060.84 33.4029   3
   6  -7  -4 1089.55 31.5597   2
   6  -7  -4 1068.50 30.3262   7
  -6  -7   4 1089.51 31.3698   1
   6   7   4 1122.51 32.7043   2
   6   7   4 1084.17 31.3618   7
   6  -7  -4 1064.97 31.4950   2
  -6   7  -4 1048.13 30.4890   1
  -6   7  -4 1034.59 31.5610   6
   7   7  -4 5.34835 1.81780   7
   7  -7   4 6.64922 2.85871   5
  -7   7   4 6.90209 1.83036   1
   7  -7   4 3.99286 2.34213   2
  -7   7   4 2.35811 2.16696   6
   7  -7   4 8.73876 2.31462   7
  -7  -7  -4 3.33181 1.82650   1
   7   7  -4 5.07210 2.10285   2
   7  -7   4 6.14800 3.53440   3
   7   7   4 1.72342 2.12865   2
   7   7   4 0.72791 1.49476   7
  -7   7  -4 5.50264 1.85160   1
   7  -7  -4 2.71543 1.93656   2
   7  -7  -4 3.14525 2.17456   2
   7  -7  -4 3.76202 2.75976   5
   7  -7  -4 3.84697 1.77242   7
  -7  -7   4 4.19872 1.94568   1
   7  -7  -4 4.60387 3.61100   4
   7  -7  -4 3.51594 3.05417   3
  -7   7  -4 3.91058 2.09715   6
  -8   7   4 103.250 4.71787   1
   8  -7   4 96.4821 6.31806   5
   8  -7   4 101.316 4.81335   7
   8  -7   4 99.2980 7.71307   3
   8  -7   4 96.7749 5.55455   2
  -8   7   4 99.1555 5.99174   6
   8   7  -4 95.7831 4.41604   7
  -8  -7  -4 88.9548 4.57503   1
   8   7  -4 96.6573 5.25791   2
   8  -7  -4 97.9807 7.64212   4
   8  -7  -4 95.0859 5.29257   2
  -8  -7   4 95.7160 4.83701   1
   8   7   4 101.343 5.71162   2
   8   7   4 101.789 4.55605   7
  -8   7  -4 94.4168 4.61118   1
   8  -7  -4 96.7105 7.02964   3
   8  -7  -4 105.999 6.56721   5
   8  -7  -4 92.7106 5.30602   2
   9   7  -4 -0.0464 1.70562   2
   9  -7   4 -3.5449 2.02135   2
   9  -7   4 0.19830 3.54778   3
   9  -7   4 6.49131 3.12278   5
   9  -7  -4 4.09941 3.44244   3
   9   7   4 0.63855 2.03442   2
   9  -7  -4 3.75129 2.26983   2
  10  -7   4 480.359 17.4421   5
  10  -7   4 481.214 19.3203   3
  10  -7   4 472.150 15.8990   2
  10   7  -4 473.967 15.6798   2
  10   7   4 474.799 16.1041   2
  10  -7  -4 467.242 15.5490   2
  10  -7  -4 472.944 18.9256   3
  11  -7   4 4.14817 3.88030   3
  11  -7   4 0.10062 3.01571   5
  11   7   4 0.25872 2.64467   2
  11  -7  -4 -0.8772 3.23634   3
  12  -7   4 37.7011 5.95850   3
   0   8  -4 1499.40 41.6467   7
   0  -8   4 1516.60 41.7412   1
   0  -8   4 1591.57 41.9194   7
   0   8   4 1525.07 41.8313   7
   0   8  -4 1456.12 41.5012   1
   0  -8  -4 1415.59 41.5518   1
   0   8   4 1468.76 41.6683   1
   0   8  -4 1477.44 42.3852   6
   0  -8   4 1254.88 41.2576   1
   0  -8  -4 1483.74 41.6895   7
   0  -8  -4 1474.17 41.7464   7
   0   8   4 1456.08 41.9214   6
  -1   8   4 0.18281 1.58661   1
  -1  -8  -4 0.77668 1.64014   1
  -1  -8  -4 -1.5963 1.62484   7
  -1   8   4 1.59315 1.67238   7
   1   8  -4 -1.5223 1.32018   1
   1  -8   4 -1.9260 1.75108   7
  -1  -8  -4 1.56362 1.80068   7
   1   8  -4 1.11144 1.72556   6
   1  -8   4 1.98207 1.81845   1
  -1   8   4 -1.2196 1.80890   6
   1   8  -4 0.97982 1.46722   7
   1   8   4 0.50135 1.49986   6
   1  -8  -4 -0.4632 1.54708   1
   1   8   4 0.32601 1.50947   7
  -1  -8   4 3.34720 1.90316   1
  -1  -8   4 2.35717 1.91361   7
  -1   8  -4 -1.7268 1.35541   1
   1   8   4 -0.6904 1.41700   1
   1  -8  -4 1.65085 1.92144   7
  -1   8  -4 0.56382 1.61867   6
  -1   8  -4 -1.2393 1.24176   7
  -1  -8   4 -0.1499 1.67740   1
   1  -8  -4 0.08939 1.66761   7
   2   8  -4 1406.31 39.8739   1
  -2  -8  -4 1392.27 39.9676   7
  -2   8   4 1342.21 40.0780   7
   2  -8   4 1392.34 40.0066   4
  -2   8   4 1361.52 39.7266   1
   2   8  -4 1402.95 39.9675   7
  -2   8   4 1372.82 40.5995   6
  -2  -8  -4 1425.64 39.9713   1
   2   8  -4 1369.65 40.5002   6
  -2  -8  -4 1395.34 40.0598   7
   2  -8   4 1379.40 39.8540   7
   2  -8   4 1355.17 39.6868   1
   2   8   4 1388.03 39.4955   6
  -2   8  -4 1406.81 40.0049   7
  -2   8  -4 1368.66 40.7352   6
  -2   8  -4 1405.59 39.8419   1
   2  -8  -4 1391.61 39.9389   7
   2  -8  -4 1342.89 39.8482   7
   2  -8  -4 1576.10 40.1689   1
   2   8   4 1434.34 39.7794   1
  -2  -8   4 1364.98 39.7022   1
  -2  -8   4 1498.57 39.8623   1
   2  -8  -4 1389.97 41.5799   3
  -2  -8   4 1420.98 39.8831   7
   2   8   4 1475.03 40.0951   7
  -3  -8  -4 1.50375 1.80767   1
   3  -8   4 -3.3055 6.56853   3
   3  -8   4 1.56954 1.97455   4
   3   8  -4 0.67580 1.69829   6
  -3   8   4 0.43898 1.63903   1
  -3   8   4 0.94533 2.02630   6
   3   8  -4 0.45235 1.48594   7
   3  -8   4 0.03980 1.94314   7
  -3   8  -4 0.09985 1.81229   6
  -3  -8   4 -2.2096 1.49260   1
   3  -8  -4 3.75426 2.20879   3
  -3  -8   4 0.17224 1.80255   1
   3  -8  -4 0.61606 1.75530   7
   3   8   4 1.40861 1.74453   7
  -3   8  -4 -0.1575 1.50498   1
  -4   8   4 1126.51 31.8855   1
   4  -8   4 1095.94 31.9333   7
  -4   8   4 1081.58 33.0017   6
  -4  -8  -4 1081.90 31.4413   1
   4   8  -4 1099.70 32.1316   6
   4   8  -4 1036.65 31.3354   7
   4  -8   4 1147.20 32.9223   4
   4  -8  -4 1157.74 31.5110   7
  -4  -8   4 1057.23 31.6153   1
  -4   8  -4 1120.75 31.4092   1
   4   8   4 1061.98 31.8588   7
  -4   8  -4 1071.29 32.3828   6
   4  -8  -4 1031.55 38.2798   4
  -4  -8   4 1130.52 31.8689   1
   4  -8  -4 1065.82 33.3518   3
   5  -8   4 1.20381 2.28040   2
  -5   8   4 -0.3540 1.54053   1
  -5  -8  -4 -0.0769 1.79208   1
  -5   8   4 -1.5165 1.92624   6
   5  -8   4 0.21311 1.96770   7
   5  -8   4 2.93243 4.14931   3
   5  -8   4 2.45621 2.35532   4
   5   8  -4 -0.1247 1.72616   2
   5   8  -4 0.86809 1.63164   7
   5  -8   4 0.57582 2.22566   5
   5  -8  -4 -0.6748 1.61802   7
  -5  -8   4 1.14832 1.87639   1
   5   8   4 0.63572 1.63960   7
  -5  -8   4 -0.4248 1.59998   1
  -5   8  -4 1.43636 1.85603   6
  -5   8  -4 2.75622 1.64154   1
   5  -8  -4 -0.2528 2.17317   3
   5  -8  -4 -0.6942 2.94975   4
   5  -8  -4 -0.2469 2.07699   2
   6  -8   4 824.397 25.6683   5
   6   8  -4 807.363 24.4474   2
  -6   8   4 785.390 25.8139   6
   6   8  -4 803.937 23.5570   7
   6  -8   4 942.344 30.7277   3
  -6  -8  -4 774.871 23.5487   1
  -6   8   4 813.207 24.2949   1
   6  -8   4 817.290 25.4730   2
   6  -8   4 815.110 24.4185   7
  -6  -8   4 794.272 24.3831   1
   6   8   4 792.568 24.3043   7
   6  -8  -4 764.435 28.1827   4
   6  -8  -4 814.178 26.4463   3
  -6   8  -4 792.150 24.6271   6
  -6  -8   4 820.269 24.3872   1
   6   8   4 849.710 25.8443   2
   6  -8  -4 761.216 23.2216   7
   6  -8  -4 804.071 24.5431   2
  -6   8  -4 776.136 23.4161   1
   7  -8   4 3.78852 2.58664   2
   7  -8   4 3.77507 2.10860   7
   7  -8   4 2.59055 2.40659   5
  -7   8   4 0.52549 2.22727   6
   7  -8   4 -1.4185 3.26936   3
   7   8  -4 0.23380 1.75484   2
  -7   8   4 -0.2771 1.45369   1
  -7  -8  -4 3.06002 1.92828   1
   7   8  -4 1.10520 1.58260   7
  -7   8  -4 3.11916 2.22332   6
  -7   8  -4 -1.2250 1.42959   1
   7   8   4 1.41351 2.10866   2
   7  -8  -4 1.04325 3.25098   4
   7  -8  -4 2.93994 3.00130   3
   7  -8  -4 0.12473 1.63944   7
   7   8   4 1.21736 1.58045   7
   7  -8  -4 0.47301 2.11508   2
  -7  -8   4 2.75077 1.97892   1
  -8   8   4 592.028 18.2397   1
  -8  -8  -4 570.777 18.0872   1
  -8   8   4 599.724 20.1994   6
   8   8  -4 581.631 17.7836   7
   8   8  -4 594.218 19.0987   2
   8  -8   4 618.638 19.5996   2
   8  -8   4 628.047 23.3694   3
   8  -8   4 582.934 20.1927   5
   8  -8   4 600.998 18.3561   7
  -8   8  -4 597.663 18.1598   1
   8  -8  -4 585.236 19.1010   2
   8   8   4 608.063 19.8081   2
   8  -8  -4 611.020 20.7183   5
   8  -8  -4 585.145 22.7934   4
   8  -8  -4 570.229 17.4995   7
   8  -8  -4 616.055 21.8655   3
   8   8   4 576.297 18.0432   7
  -8  -8   4 598.863 18.4154   1
   9  -8   4 2.38257 2.58028   2
  -9  -8  -4 0.12106 1.79144   1
   9  -8   4 2.56849 3.88790   3
   9  -8   4 0.95289 2.80392   5
   9   8  -4 -0.2190 1.88787   2
   9  -8  -4 -1.4818 3.09098   5
   9  -8  -4 -1.4943 2.94285   3
   9   8   4 -0.2370 1.89902   2
   9  -8  -4 -1.3397 2.03827   2
  10  -8   4 362.597 16.1963   3
  10  -8   4 338.427 12.5481   2
  10  -8   4 349.715 13.8558   5
  10   8  -4 343.394 12.5184   2
  10  -8  -4 343.144 12.4950   2
  10  -8  -4 350.100 15.5526   3
  10   8   4 328.677 12.6934   2
  11  -8   4 -0.2474 3.82644   3
  11  -8   4 -1.8703 3.15165   5
  11  -8  -4 -1.7462 3.05588   3
   0  -9  -4 11.6845 2.75190   7
   0   9  -4 10.9968 2.88742   6
   0  -9   4 12.2934 2.68518   1
   0   9  -4 16.6075 2.74570   1
   0   9   4 12.8875 2.74228   7
   0  -9   4 8.61407 2.55391   1
   0  -9   4 10.5609 2.71112   7
   0   9  -4 6.33096 2.19419   7
   0   9   4 11.8358 2.83275   6
   0  -9  -4 8.38918 2.32965   1
   0   9   4 13.6576 2.79755   1
   1  -9   4 8.81335 2.55024   7
   1  -9   4 4.21849 2.12664   1
   1   9  -4 3.83517 2.03317   6
  -1   9   4 5.83907 2.36102   6
  -1   9   4 5.44393 2.11346   7
   1  -9   4 3.33549 2.33187   1
  -1  -9  -4 10.5063 2.68242   7
  -1   9   4 6.23039 2.11035   1
  -1  -9  -4 5.38247 2.09077   1
   1   9  -4 5.80685 1.96356   1
   1   9  -4 5.02763 1.97110   7
   1   9   4 4.13298 2.05595   1
  -1  -9   4 5.28704 2.16294   1
   1   9   4 6.60784 2.11794   6
  -1   9  -4 3.89890 1.78955   7
  -1   9  -4 6.86265 2.07149   1
  -1   9  -4 8.75356 2.60213   6
  -1  -9   4 4.41079 2.18499   7
   1  -9  -4 5.22068 2.23026   7
   1  -9  -4 5.10581 2.07735   1
  -1  -9   4 8.62294 2.31842   1
   1   9   4 4.95571 2.03244   7
  -2  -9  -4 675.951 21.4677   1
  -2   9   4 708.800 22.6799   6
   2  -9   4 709.395 21.9249   1
   2  -9   4 715.177 22.0183   7
   2   9  -4 746.159 21.6160   1
  -2  -9  -4 691.115 21.6862   7
   2   9  -4 658.373 21.3402   7
   2   9  -4 703.161 22.1522   6
  -2   9   4 728.967 22.0385   1
  -2   9  -4 708.708 22.4535   6
   2   9   4 719.532 21.9086   1
   2   9   4 772.422 22.3248   7
   2  -9  -4 661.724 21.3788   7
  -2  -9   4 699.756 21.8673   1
   2  -9  -4 748.134 25.1446   1
   2   9   4 714.614 21.7375   6
  -2   9  -4 704.491 21.4005   1
  -2  -9   4 682.326 21.7780   1
   2  -9  -4 730.843 23.4533   3
  -3  -9  -4 11.2455 2.55237   1
   3  -9   4 7.48765 2.39605   7
   3   9  -4 9.93881 2.63449   6
  -3   9   4 7.15371 2.15433   1
   3  -9   4 -5.0180 9.50954   3
   3  -9   4 12.2659 2.87912   4
   3   9  -4 7.41020 2.09020   7
  -3   9   4 6.90897 2.61726   6
  -3  -9   4 8.12518 2.40099   1
   3  -9  -4 6.94939 2.84127   3
   3   9   4 8.90914 2.35636   7
   3  -9  -4 8.81953 2.38206   7
  -3  -9   4 8.91227 2.41595   1
  -3   9  -4 9.60225 2.71293   6
  -3   9  -4 7.11412 2.12196   1
  -4  -9  -4 9.87716 2.55043   1
   4  -9   4 7.89670 2.40210   7
  -4   9   4 11.0446 3.11408   6
  -4   9   4 8.96357 2.31942   1
   4   9  -4 9.22651 2.29373   7
   4  -9   4 8.88825 2.91495   4
   4  -9   4 12.4472 7.77565   3
   4  -9  -4 6.09136 2.35017   7
  -4  -9   4 5.57903 2.25399   1
  -4   9  -4 11.0049 2.99214   6
  -4  -9   4 11.0833 2.63074   1
   4   9   4 5.59352 2.17309   7
  -4   9  -4 9.70496 2.29499   1
   4  -9  -4 5.09795 2.66425   3
  -5  -9  -4 2.11439 1.99081   1
  -5   9   4 3.08620 1.84325   1
   5  -9   4 1.82041 2.35271   4
  -5   9   4 -2.0163 1.81795   6
   5   9  -4 1.41018 1.66025   7
   5  -9   4 3.05939 2.22420   7
   5  -9   4 12.0361 6.43290   3
  -5  -9   4 -0.7137 1.85153   1
  -5   9  -4 0.54717 1.50077   1
   5  -9  -4 2.76908 1.98410   7
  -5  -9   4 5.26652 2.14267   1
   5  -9  -4 -0.2443 2.30314   3
   5   9   4 1.84999 1.82679   7
   5  -9  -4 -0.9055 4.01623   4
  -5   9  -4 3.02995 2.14889   6
  -6   9   4 448.759 16.4674   6
   6  -9   4 447.452 15.1687   7
  -6   9   4 479.520 15.2230   1
   6  -9   4 477.546 16.3391   5
   6  -9   4 545.959 22.6814   3
   6  -9   4 473.734 16.8396   4
   6   9  -4 441.362 14.3779   7
  -6  -9  -4 421.323 14.3176   1
   6   9   4 439.936 15.0568   7
   6  -9  -4 425.449 14.1031   7
  -6   9  -4 443.606 14.2937   1
  -6  -9   4 435.837 15.0784   1
   6  -9  -4 414.627 19.3348   4
  -6  -9   4 511.612 15.4308   1
   6  -9  -4 464.285 17.0974   3
  -6   9  -4 448.930 15.5011   6
   7   9  -4 6.33120 2.06804   7
  -7   9   4 5.70297 2.81903   6
  -7  -9  -4 12.4236 2.67337   1
   7  -9   4 8.29680 5.07394   3
   7  -9   4 4.81354 2.94979   5
   7  -9   4 9.24905 2.40436   7
  -7   9   4 5.54055 2.03586   1
  -7  -9   4 8.52928 2.43653   1
  -7   9  -4 11.5872 2.88820   6
   7  -9  -4 8.14500 3.48693   3
   7  -9  -4 8.28466 2.78002   2
   7  -9  -4 6.42826 3.92503   4
  -7   9  -4 7.30894 2.14976   1
   7  -9  -4 9.43327 2.34036   7
   7   9   4 7.28368 2.02955   7
   8  -9   4 3.06894 2.26412   7
   8   9  -4 3.82484 2.40435   2
   8  -9   4 5.25918 4.61182   3
   8  -9   4 -2.4448 2.58652   5
  -8   9   4 4.99100 1.94816   1
   8  -9   4 2.44220 2.74120   2
  -8  -9  -4 3.42959 2.08504   1
   8   9  -4 1.84494 1.78926   7
  -8   9   4 8.78153 3.18751   6
   8  -9  -4 4.01718 3.96052   4
   8  -9  -4 6.27379 2.16896   7
   8  -9  -4 3.56033 3.36108   3
  -8   9  -4 3.29196 1.90168   1
  -8  -9   4 2.46744 2.13411   1
   8  -9  -4 3.69274 3.46343   5
   8  -9  -4 1.20453 2.46853   2
   8   9   4 2.99970 1.75872   7
  -9  -9  -4 -0.0055 2.04853   1
   9   9  -4 0.11434 1.88966   2
   9  -9   4 4.38506 4.60664   3
   9  -9   4 4.37927 3.08045   5
   9  -9   4 2.69199 2.80419   2
   9  -9  -4 0.73134 3.11797   3
   9  -9  -4 2.09122 3.74433   5
   9  -9  -4 3.40039 2.52678   2
  -9  -9   4 0.39601 2.22937   1
  -9   9  -4 0.81278 2.26591   1
   9  -9  -4 -1.2448 3.52414   4
  10  -9   4 223.678 13.0335   3
  10   9  -4 214.531 9.19850   2
  10  -9   4 233.540 9.75024   2
  10  -9   4 218.795 10.4622   5
  10  -9  -4 226.897 11.9380   3
  10  -9  -4 212.102 9.13846   2
  10   9   4 227.150 11.7239   2
  11  -9   4 8.26534 3.82408   5
  11  -9   4 3.70017 4.12351   3
  11  -9  -4 6.55032 4.07933   3
   0  10  -4 940.905 29.2897   6
   0 -10   4 1123.74 29.9077   1
   0  10  -4 989.616 28.6584   7
   0  10   4 943.475 29.8240   6
   0  10   4 951.914 29.5391   1
   0 -10  -4 919.722 28.4083   1
   0 -10  -4 1020.54 28.7862   7
   0  10   4 1012.94 29.8618   7
   0  10  -4 922.762 28.3812   1
   0 -10   4 955.457 29.6181   1
   0 -10   4 1016.99 29.8563   7
  -1  10   4 6.60438 2.29419   7
   1 -10   4 8.95050 2.54033   1
   1  10  -4 8.55718 2.21918   1
   1  10  -4 6.15153 2.42509   6
  -1 -10  -4 9.11403 2.52275   1
   1  10  -4 6.41120 2.12062   7
  -1  10   4 7.02466 2.52980   6
  -1 -10  -4 11.3868 2.79603   7
   1 -10   4 11.4300 2.78896   7
  -1  10   4 10.9150 2.51365   1
   1 -10   4 11.9251 3.02028   1
   1  10   4 6.35676 2.25355   1
   1 -10  -4 8.10769 2.26497   1
  -1 -10   4 10.5396 2.72832   1
  -1  10  -4 2.33763 1.75676   7
  -1 -10   4 8.22729 2.52659   1
   1 -10  -4 9.16311 2.60313   7
   1  10   4 6.37093 2.23884   7
   1  10   4 6.84892 2.22274   6
  -1 -10   4 9.08671 2.63897   7
  -1  10  -4 6.39165 2.15339   1
  -1  10  -4 4.30535 2.37784   6
  -2  10   4 16.1360 3.02248   1
  -2  10   4 18.1191 3.16909   6
   2 -10   4 20.4824 3.51732   7
   2  10  -4 13.3894 2.70362   7
  -2 -10  -4 17.0003 2.71229   1
   2  10  -4 16.1144 2.81713   6
   2  10   4 17.6683 3.04216   1
  -2 -10   4 23.8288 3.62585   1
   2  10   4 17.0342 3.10141   7
   2 -10  -4 17.0606 3.90771   3
  -2  10  -4 16.3062 2.52144   1
  -2 -10   4 16.6498 3.17063   1
  -2  10  -4 22.1047 3.91856   6
   2 -10  -4 20.1995 3.32809   7
   3  10  -4 7.58167 2.11628   7
  -3 -10  -4 9.33868 2.57742   1
   3 -10   4 11.6415 2.78220   7
   3  10  -4 7.57944 2.63729   6
  -3  10   4 7.92624 2.35921   1
  -3  10   4 11.1729 3.07860   6
   3 -10   4 -2.9616 15.7880   3
  -3  10  -4 10.1778 2.79750   6
  -3  10  -4 8.20591 2.28041   1
   3  10   4 9.02729 2.39182   7
   3 -10  -4 8.29486 3.07349   3
  -3 -10   4 9.20202 2.71208   1
   3 -10  -4 11.8691 2.70803   7
  -3 -10   4 11.7762 2.73908   1
   4 -10   4 696.156 21.9066   7
   4  10  -4 714.082 21.7357   7
  -4  10   4 697.049 23.0039   6
  -4  10   4 695.437 21.8440   1
  -4 -10  -4 611.672 21.3513   1
   4 -10   4 851.800 40.9752   3
   4  10   4 712.210 21.9925   7
   4 -10  -4 716.978 23.8919   3
  -4  10  -4 754.864 21.7719   1
  -4  10  -4 712.091 22.7307   6
  -4 -10   4 682.049 21.7884   1
  -4 -10   4 732.582 21.9875   1
   4 -10  -4 705.971 21.6195   7
   5  10  -4 4.27342 1.86173   7
  -5 -10  -4 4.80083 2.35265   1
   5 -10   4 5.23730 2.51160   7
  -5  10   4 4.65388 2.06624   1
   5 -10   4 4.79669 6.62706   3
  -5  10   4 3.51846 2.47723   6
  -5  10  -4 0.33620 1.71909   1
  -5  10  -4 5.42896 2.47110   6
  -5 -10   4 5.82580 2.36282   1
   5 -10  -4 6.71381 5.13084   4
   5 -10  -4 5.54313 2.35101   7
   5 -10  -4 5.51687 2.96355   3
   5  10   4 5.30416 2.09397   7
  -5 -10   4 4.54597 2.26529   1
   6 -10   4 15.7965 6.87440   3
   6 -10   4 10.0108 3.78686   4
  -6 -10  -4 10.8717 2.70889   1
   6  10  -4 13.5948 2.67903   7
  -6  10   4 12.7264 2.71680   1
  -6  10   4 15.2538 3.57321   6
   6 -10   4 14.8708 3.49979   5
   6 -10   4 14.0248 2.94182   7
   6 -10  -4 13.7588 5.75229   4
  -6 -10   4 14.7684 3.03318   1
   6  10   4 11.6897 2.56158   7
   6 -10  -4 13.8166 2.85824   7
  -6  10  -4 8.87758 2.29833   1
  -6 -10   4 9.45637 2.80478   1
   6 -10  -4 12.3467 3.90057   3
  -6  10  -4 12.8608 3.26572   6
  -7  10   4 7.12783 2.89968   6
  -7  10   4 5.89420 2.07283   1
   7 -10   4 7.53433 2.53739   7
   7 -10   4 4.78777 5.35628   3
   7 -10   4 11.2072 3.39361   5
  -7 -10  -4 6.23214 2.36473   1
   7  10  -4 5.29593 2.05068   7
  -7 -10   4 5.56783 2.46664   1
  -7  10  -4 8.28087 2.79632   6
   7 -10  -4 11.3541 2.54609   7
   7 -10  -4 13.0057 5.29860   4
   7 -10  -4 7.58504 3.43897   3
  -7  10  -4 7.47981 2.17278   1
  -7 -10   4 13.5359 3.04685   1
   7  10   4 7.29340 2.18013   7
   8  10  -4 359.918 12.1862   7
   8 -10   4 365.614 12.5292   7
  -8  10   4 370.451 12.4440   1
   8 -10   4 372.339 14.1502   5
   8 -10   4 391.269 19.0245   3
  -8 -10  -4 379.725 12.5592   1
  -8  10   4 361.930 14.2635   6
  -8  10  -4 371.383 12.4334   1
   8 -10  -4 361.768 15.9579   5
  -8 -10   4 353.153 12.5350   1
   8 -10  -4 364.015 12.1250   7
   8 -10  -4 348.443 15.5646   3
   8 -10  -4 347.587 17.7466   4
   8  10   4 369.260 12.3524   7
   9 -10   4 3.67580 2.89617   5
   9 -10   4 3.83414 4.63280   3
  -9 -10  -4 2.37453 2.17087   1
   9 -10  -4 6.29815 4.53580   5
   9 -10  -4 -1.7067 4.87224   4
  -9  10  -4 3.71289 1.94939   1
  -9 -10   4 4.87582 2.41944   1
   9 -10  -4 2.54809 3.34361   3
  10 -10   4 6.74351 3.71569   5
  10 -10   4 11.3617 5.39834   3
  10 -10  -4 7.47582 4.25285   3
   0 -11  -4 56.0424 4.34143   7
   0 -11   4 71.5854 4.74415   1
   0 -11   4 66.8474 4.83613   7
   0 -11   4 64.0299 4.64068   1
   0 -11  -4 55.9821 4.20232   1
   0  11   4 60.3279 4.47225   1
   0  11  -4 62.8009 4.72022   6
   0  11  -4 57.1450 4.09291   1
   0  11   4 69.1275 4.61070   7
   0  11   4 64.6632 4.65529   6
   0  11  -4 52.6219 4.09099   7
   1  11  -4 19.2018 3.11973   6
  -1  11   4 22.3272 3.31696   6
   1  11  -4 24.5976 2.94239   7
   1  11  -4 20.9362 3.00197   1
  -1  11   4 22.2705 2.99535   1
   1 -11   4 22.1382 3.35629   1
  -1 -11  -4 18.4300 2.96235   1
   1 -11   4 23.9343 3.32600   7
  -1 -11  -4 24.3615 3.27603   7
  -1  11   4 23.4214 3.22098   7
   1 -11   4 26.6256 3.53018   1
  -1  11  -4 23.3954 2.87213   1
  -1 -11   4 30.6557 3.47317   1
   1 -11  -4 24.0065 3.25212   1
   1 -11  -4 27.4542 3.44519   7
   1  11   4 26.6933 3.05092   1
  -1  11  -4 25.1977 2.96566   7
  -1 -11   4 21.7284 3.18019   1
  -1 -11   4 21.0718 3.19382   7
   1  11   4 22.4724 2.97779   6
   1  11   4 22.5420 3.06084   7
  -1  11  -4 20.9708 3.26466   6
  -2  11   4 18.9444 3.26100   6
   2 -11   4 21.4417 3.62255   7
   2  11  -4 18.5872 2.71076   7
  -2 -11  -4 21.7043 3.55290   1
   2  11  -4 20.7459 3.70912   6
  -2  11   4 21.0366 3.37475   1
   2 -11  -4 18.3917 4.25818   3
  -2 -11   4 21.2176 3.58916   1
   2  11   4 21.4999 3.03508   7
   2 -11  -4 23.7955 3.61731   7
  -2  11  -4 19.0059 2.73467   1
  -2 -11   4 20.2985 3.20774   1
  -2  11  -4 17.2326 2.95123   6
   3 -11   4 5.80521 8.09624   3
   3  11  -4 18.0769 2.87310   6
   3 -11   4 15.6435 3.18817   7
   3  11  -4 11.4119 2.48118   7
  -3  11   4 12.9425 2.78065   1
  -3 -11  -4 12.5566 2.81134   1
  -3  11   4 12.0654 3.24668   6
   3 -11  -4 9.31694 3.21158   3
   3 -11  -4 16.0362 3.16746   7
  -3 -11   4 14.6917 3.06992   1
   3  11   4 18.7595 2.86558   7
  -3  11  -4 15.3663 3.26163   6
  -3 -11   4 19.4881 3.08969   1
  -3  11  -4 12.7536 2.65840   1
  -4  11   4 41.0364 3.54888   1
   4 -11   4 50.7894 4.12845   7
  -4 -11  -4 44.5260 3.95615   1
   4 -11   4 95.7056 23.4019   3
  -4  11   4 56.5762 4.64055   6
   4  11  -4 51.9765 3.84970   7
   4 -11  -4 46.3759 4.93103   3
  -4 -11   4 41.3738 3.79247   1
  -4  11  -4 52.6489 3.95467   1
   4  11   4 42.5712 3.73602   7
  -4  11  -4 51.1788 4.42693   6
  -4 -11   4 43.0870 4.00931   1
   4 -11  -4 53.0808 4.11305   7
   5 -11   4 11.9225 10.6023   3
  -5  11   4 12.2440 2.73826   1
   5  11  -4 16.9008 2.62744   7
  -5  11   4 26.7938 3.72436   6
   5 -11   4 26.1342 3.34294   7
  -5 -11  -4 21.4113 3.11260   1
   5  11   4 23.8545 2.94804   7
  -5 -11   4 22.6273 3.01168   1
   5 -11  -4 19.3703 3.06152   7
  -5  11  -4 22.0894 3.34267   6
  -5  11  -4 19.4256 2.81942   1
  -5 -11   4 13.1383 2.94274   1
   5 -11  -4 19.4351 7.52810   4
   5 -11  -4 16.2798 4.01535   3
   6 -11   4 15.2210 3.72210   5
  -6  11   4 11.1911 3.44226   6
   6  11  -4 14.4504 2.92362   7
   6 -11   4 3.34383 7.18749   3
  -6 -11  -4 7.36752 2.63837   1
  -6  11   4 7.76509 2.44614   1
   6 -11   4 9.11291 2.82360   7
   6 -11  -4 8.24364 2.68017   7
  -6 -11   4 10.4483 2.99992   1
   6  11   4 11.2390 2.65649   7
  -6 -11   4 8.39956 2.78706   1
  -6  11  -4 11.1418 3.23224   6
  -6  11  -4 9.79644 2.50307   1
   6 -11  -4 10.5869 6.16910   4
   6 -11  -4 5.61458 3.22865   3
   7 -11   4 8.20079 3.05165   5
   7  11  -4 2.65338 1.94580   7
   7 -11   4 5.87080 2.62479   7
  -7  11   4 4.97997 2.04313   1
  -7  11   4 3.96678 2.71098   6
  -7 -11  -4 7.53135 2.48936   1
   7 -11   4 4.55859 6.35375   3
  -7 -11   4 8.29277 2.93722   1
  -7 -11   4 8.95690 2.75224   1
   7  11   4 7.67201 2.26598   7
   7 -11  -4 7.76723 2.38700   7
  -7  11  -4 4.05524 2.06164   1
  -7  11  -4 11.1521 3.09114   6
   7 -11  -4 8.56981 5.53764   4
   7 -11  -4 6.41473 3.47545   3
  -8  11   4 25.9106 2.94062   1
  -8 -11  -4 26.1616 3.30374   1
   8 -11   4 27.7559 3.29784   7
   8  11  -4 27.0288 2.85745   7
   8 -11   4 42.2504 9.36339   3
   8 -11   4 34.4436 5.10880   5
   8 -11  -4 26.7433 7.66728   4
   8  11   4 27.4859 2.96437   7
  -8  11  -4 21.9779 2.86715   1
   8 -11  -4 30.6427 4.98253   3
   8 -11  -4 27.3766 3.05170   7
  -8 -11   4 29.3150 3.34117   1
   9 -11   4 16.0142 6.23341   3
  -9 -11  -4 10.5927 2.74415   1
   9 -11   4 13.8347 3.95919   5
  -9  11   4 11.6561 2.43734   1
   9  11   4 12.0779 3.48323   7
   9 -11  -4 12.8274 5.57519   5
   9 -11  -4 8.98607 4.13310   3
  -9 -11   4 8.91138 2.72375   1
  -9  11  -4 16.7254 2.67606   1
  10 -11   4 3.65608 3.35173   5
  10 -11   4 9.64230 5.62874   3
  10 -11  -4 5.04088 3.71728   3
   0 -12  -4 40.4763 4.03773   7
   0  12  -4 33.9787 3.42103   7
   0 -12   4 39.0293 3.87042   1
   0 -12  -4 42.6335 4.06054   1
   0  12   4 43.6823 4.00155   6
   0  12  -4 48.5709 3.85788   1
   0  12   4 36.8456 3.76505   7
   0 -12   4 47.0963 4.22573   1
   0 -12   4 39.6496 3.97743   7
   0  12   4 48.5071 3.95481   1
   0  12  -4 34.2237 3.91826   6
   1 -12   4 16.5878 3.51354   1
   1  12  -4 20.5464 2.88029   1
  -1  12   4 14.5973 3.05899   1
  -1 -12  -4 18.7395 3.51981   7
  -1  12   4 18.2054 3.16921   6
  -1 -12  -4 21.1763 3.32557   1
   1 -12   4 24.9478 3.39907   7
   1  12  -4 11.9286 2.75660   7
   1 -12   4 14.4476 3.19999   1
   1  12  -4 22.7245 3.33460   6
  -1  12  -4 14.4956 2.94313   1
   1 -12  -4 15.4311 3.70803   3
   1 -12  -4 27.0583 3.61279   7
   1  12   4 19.8592 2.93511   6
  -1 -12   4 12.1089 3.06638   1
   1  12   4 14.2593 2.98725   7
  -1  12  -4 12.8352 3.19732   6
   1 -12  -4 27.7480 3.57903   1
  -1 -12   4 25.6810 5.83670   7
  -1 -12   4 20.3122 3.62604   1
   1  12   4 21.3916 3.13726   1
  -2  12   4 138.553 7.28711   6
   2 -12   4 127.000 6.78949   7
   2  12  -4 126.175 6.55989   7
  -2  12   4 135.099 6.71324   1
   2  12  -4 133.958 7.09967   6
  -2 -12  -4 155.702 7.06707   1
   2 -12  -4 142.023 8.35347   3
  -2  12  -4 141.882 6.68440   1
   2  12   4 149.647 6.95929   7
   2 -12  -4 143.320 6.82248   7
  -2 -12   4 129.563 6.67351   1
  -2 -12   4 126.727 6.78404   1
  -2  12  -4 132.111 7.22252   6
   3 -12   4 18.0756 3.48907   7
  -3  12   4 9.72893 3.20976   6
  -3  12   4 9.96639 2.71718   1
   3  12  -4 9.71793 2.43911   7
   3 -12   4 15.1277 7.54444   3
  -3 -12  -4 11.7291 2.91482   1
   3 -12  -4 9.88119 3.28364   3
  -3  12  -4 11.0918 2.56894   1
  -3 -12   4 12.1275 3.07225   1
   3 -12  -4 11.5583 2.89464   7
  -3 -12   4 12.1574 3.17495   1
  -3  12  -4 9.61608 2.87087   6
   3  12   4 10.9091 2.70067   7
   4 -12   4 42.2282 16.0126   3
  -4 -12  -4 27.5843 3.65208   1
  -4  12   4 33.2729 3.34124   1
  -4  12   4 27.8405 3.87428   6
   4  12  -4 30.8629 3.30200   7
   4 -12   4 23.6837 3.46681   7
  -4  12  -4 20.8137 3.06746   1
   4  12   4 29.5381 3.18239   7
  -4  12  -4 29.3123 3.67686   6
   4 -12  -4 23.0424 3.21096   7
  -4 -12   4 30.6894 3.59119   1
   4 -12  -4 28.6067 4.30878   3
  -4 -12   4 27.0108 3.53648   1
   5  12  -4 10.1774 2.45812   7
  -5 -12  -4 17.7914 3.31802   1
  -5  12   4 14.1828 3.37930   6
  -5  12   4 13.4792 2.79567   1
   5 -12   4 13.2185 3.22845   7
   5 -12   4 2.44023 13.7568   3
   5 -12  -4 14.7343 3.17000   7
  -5  12  -4 13.8623 2.75743   1
  -5 -12   4 13.5649 3.12169   1
   5 -12  -4 8.91238 8.28714   4
   5  12   4 11.8102 2.60633   7
  -5  12  -4 22.9763 3.44943   6
   5 -12  -4 14.0450 3.95589   3
  -5 -12   4 21.0709 3.21237   1
   6 -12   4 90.2133 6.09120   5
   6 -12   4 108.181 17.1066   3
  -6 -12  -4 91.7292 5.42708   1
   6  12  -4 92.9335 5.21889   7
  -6  12   4 95.8941 5.31123   1
   6 -12   4 81.2441 5.26303   7
  -6  12   4 91.5362 7.02562   6
   6 -12  -4 86.9174 11.2976   4
  -6  12  -4 91.9126 5.13100   1
  -6  12  -4 89.3406 5.93691   6
   6 -12  -4 80.3810 6.66335   3
  -6 -12   4 94.3087 5.44102   1
  -6 -12   4 94.8757 5.50952   1
   6 -12  -4 87.9078 5.27015   7
   6  12   4 95.3957 5.36946   7
  -7  12   4 5.15290 2.28522   1
  -7 -12  -4 5.79559 2.69509   1
   7 -12   4 4.88047 2.86848   5
   7  12  -4 4.28604 2.23699   7
   7 -12   4 11.7965 3.10073   7
   7 -12   4 6.21067 7.65111   3
  -7  12  -4 7.02338 2.28295   1
   7 -12  -4 4.86973 5.78004   4
   7 -12  -4 5.17321 3.31359   3
  -7 -12   4 7.92040 2.82649   1
   7 -12  -4 4.72916 2.43061   7
   7  12   4 6.44320 2.32211   7
  -7 -12   4 7.67217 3.01939   1
  -8  12   4 20.2802 3.37798   1
   8 -12   4 16.2102 4.08628   5
  -8 -12  -4 9.79474 2.89639   1
   8 -12   4 13.5170 3.62612   7
   8  12  -4 15.2800 3.32030   7
   8 -12   4 23.7244 9.03439   3
   8 -12  -4 14.5842 4.63978   3
  -8 -12   4 18.7141 3.57389   1
  -8  12  -4 14.7067 2.98754   1
   8 -12  -4 18.5961 3.28968   7
   9 -12   4 11.6444 3.85461   5
  -9 -12  -4 8.86218 2.83780   1
   9 -12   4 25.2278 8.56990   3
  -9  12   4 9.23347 2.37710   1
   9 -12  -4 15.5056 6.80183   5
  -9  12  -4 10.0626 2.60341   1
   9 -12  -4 6.70667 4.20496   3
  -9 -12   4 10.6226 2.97801   1
   0  13  -4 45.3028 3.94667   7
   0 -13   4 48.3030 4.40744   7
   0 -13  -4 57.0723 4.57680   1
   0  13   4 54.2204 4.54960   6
   0 -13   4 62.4735 4.67326   1
   0  13   4 51.8131 4.25076   7
   0  13  -4 50.9557 4.62008   6
   0  13   4 50.2150 4.13733   1
   0  13  -4 50.8530 4.10069   1
   0 -13  -4 55.6472 4.48685   7
   0 -13   4 55.5728 4.57591   1
   1  13  -4 13.4586 3.07981   1
  -1  13   4 8.44771 2.99505   6
   1 -13   4 12.5802 3.25289   7
  -1 -13  -4 15.0624 3.28283   1
   1  13  -4 13.5668 2.82331   7
   1  13  -4 8.56262 3.00039   6
  -1  13   4 13.7236 3.01151   1
   1  13   4 15.6991 3.12417   1
   1 -13  -4 13.6067 3.86182   3
   1  13   4 11.3387 2.73697   7
  -1  13  -4 14.6527 3.41166   6
   1 -13  -4 14.4536 3.29749   7
  -1 -13   4 10.0000 3.19852   1
  -1  13  -4 10.2251 2.64942   1
   2  13  -4 378.320 13.4076   7
  -2 -13  -4 410.744 13.7337   1
  -2  13   4 386.544 14.3439   6
  -2  13   4 373.513 13.5550   1
   2 -13   4 381.752 13.7132   7
   2  13  -4 365.105 13.8352   6
   2 -13  -4 371.269 13.3862   7
  -2  13  -4 358.095 14.0397   6
   2 -13  -4 355.376 15.0166   3
  -2  13  -4 359.641 13.1710   1
   2  13   4 373.289 13.5406   7
  -2 -13   4 388.454 13.7113   1
  -2 -13   4 354.374 13.3116   1
  -3 -13  -4 8.85867 3.17764   1
   3  13  -4 10.5468 2.62724   7
  -3  13   4 14.3777 3.06703   1
   3 -13   4 12.9507 3.32587   7
   3 -13   4 5.77223 6.02055   3
  -3  13   4 10.8397 3.44535   6
   3 -13  -4 13.9188 3.61068   3
   3 -13  -4 13.1648 3.02936   7
  -3 -13   4 17.9811 3.51647   1
  -3 -13   4 9.61945 2.91183   1
  -3  13  -4 10.2501 2.67708   1
  -3  13  -4 11.7484 3.26541   6
   3  13   4 10.5305 2.70923   7
  -4  13   4 39.9753 4.48770   6
   4 -13   4 45.3838 4.25260   7
   4  13  -4 44.6930 3.91210   7
  -4 -13  -4 34.7737 4.05735   1
   4 -13   4 87.4293 16.0082   3
  -4  13   4 42.6114 3.91435   1
   4  13   4 41.2370 3.83830   7
  -4  13  -4 47.9484 3.96481   1
  -4 -13   4 43.2281 4.21994   1
   4 -13  -4 47.1392 5.27611   3
  -4 -13   4 49.0760 4.28815   1
  -4  13  -4 39.5501 4.29438   6
   4 -13  -4 41.7401 3.87825   7
   5  13  -4 10.6992 2.66250   7
   5 -13   4 -15.994 10.8580   3
  -5  13   4 10.4311 2.60943   1
  -5 -13  -4 7.56044 2.91972   1
   5 -13   4 14.8884 3.42494   7
   5 -13  -4 8.50157 2.86933   7
   5 -13  -4 13.8982 4.01934   3
  -5  13  -4 13.3584 2.83767   1
   5 -13  -4 5.00686 5.94972   4
   5  13   4 10.1909 2.68847   7
  -5 -13   4 8.28870 3.00253   1
  -5 -13   4 7.14208 2.79230   1
   6 -13   4 240.838 29.2670   3
   6  13  -4 272.793 10.1709   7
   6 -13   4 262.567 10.2031   7
  -6  13   4 256.995 9.87071   1
   6 -13   4 243.221 10.6792   5
  -6 -13  -4 239.780 9.96758   1
   6 -13  -4 276.892 19.2893   4
  -6  13  -4 234.638 9.66121   1
   6 -13  -4 246.060 12.0954   3
   6  13   4 255.589 10.0404   7
  -6 -13   4 241.082 9.96894   1
  -6 -13   4 239.548 9.91695   1
   6 -13  -4 251.642 9.92394   7
   7 -13   4 1.16979 9.84552   3
   7 -13   4 7.24297 3.29934   5
  -7 -13  -4 4.90742 2.64595   1
  -7  13   4 4.02918 2.08321   1
  -7  13  -4 4.16486 2.19958   1
  -7 -13   4 6.26226 2.93567   1
  -7 -13   4 9.32757 3.20771   1
   7 -13  -4 4.38772 3.53910   3
   7 -13  -4 7.07839 3.44017   7
  -8 -13  -4 24.6866 3.59481   1
  -8  13   4 29.2849 3.26232   1
   8 -13   4 28.2752 11.3241   3
   8 -13   4 29.5961 4.26106   5
  -8  13  -4 25.6394 3.19763   1
   8 -13  -4 29.7912 5.02674   3
  -8 -13   4 25.0803 3.57746   1
   9 -13   4 -4.0529 6.81706   3
   9 -13   4 8.09988 4.56942   5
   9 -13  -4 11.3003 4.61141   3
   9 -13  -4 2.14534 6.65363   5
   0  14  -4 168.912 8.52950   6
   0  14  -4 185.698 8.15254   1
   0 -14  -4 178.796 8.26012   7
   0  14   4 185.536 8.69119   6
   0 -14   4 191.484 8.59118   1
   0  14   4 194.637 9.85042   7
   0 -14   4 181.992 8.63417   1
   0  14   4 180.957 8.25344   1
   0  14  -4 173.954 8.04891   7
   0 -14   4 186.042 8.55496   7
   0 -14  -4 166.601 8.09188   1
  -1  14   4 7.82263 2.84942   1
   1  14  -4 2.59783 2.35601   7
  -1  14   4 5.24248 2.86027   6
   1 -14   4 -1.7769 2.51232   7
  -1 -14  -4 1.92439 2.80656   1
   1  14  -4 4.15276 2.51627   6
   1 -14  -4 0.54557 2.79155   3
  -1  14  -4 2.92482 2.19505   1
   1 -14  -4 0.87416 2.58827   7
  -1 -14   4 6.42706 3.06539   1
   1  14   4 1.94736 2.18525   7
  -1 -14   4 5.15803 2.87843   1
  -1  14  -4 3.71365 2.68027   6
   2  14  -4 301.952 11.3502   7
  -2  14   4 302.957 12.1483   6
  -2  14   4 295.012 11.3081   1
   2 -14   4 302.959 11.6006   7
  -2 -14  -4 283.361 11.3887   1
   2  14   4 294.568 11.4327   7
   2 -14  -4 286.541 11.2929   7
  -2  14  -4 274.632 11.0844   1
  -2  14  -4 303.669 12.1864   6
  -2 -14   4 293.268 11.5392   1
   2 -14  -4 290.336 12.9666   3
  -2 -14   4 259.262 11.0329   1
   3 -14   4 9.51840 5.62505   3
  -3  14   4 4.55246 2.36397   1
  -3 -14  -4 7.11454 2.99785   1
   3 -14   4 1.70167 2.72464   7
  -3  14   4 3.65855 2.71168   6
   3  14  -4 1.59122 2.09562   7
   3 -14  -4 2.93674 2.85897   7
  -3 -14   4 5.76665 2.92486   1
  -3  14  -4 6.50249 2.56954   1
   3 -14  -4 2.96505 3.15088   3
  -3  14  -4 3.08156 4.27967   6
  -3 -14   4 5.59472 2.90267   1
   3  14   4 7.46605 2.55430   7
   4 -14   4 178.604 15.2104   3
  -4  14   4 150.480 7.23359   1
   4  14  -4 166.587 7.49805   7
  -4 -14  -4 133.277 7.30622   1
   4 -14   4 149.793 7.44637   7
  -4 -14   4 151.223 7.46389   1
   4 -14  -4 136.663 11.4606   4
  -4  14  -4 148.649 7.14093   1
   4 -14  -4 145.484 7.32571   7
   4 -14  -4 144.280 8.90293   3
   4  14   4 145.800 7.27736   7
  -4 -14   4 132.728 7.16541   1
  -5  14   4 1.18842 2.02965   1
   5 -14   4 -1.1301 2.48680   7
   5  14  -4 -0.8103 1.90254   7
  -5 -14  -4 0.67557 2.69983   1
   5 -14   4 -9.6001 6.69912   3
   5  14   4 1.98113 2.27817   7
  -5  14  -4 1.63471 2.03000   1
   5 -14  -4 -0.3204 2.40440   7
  -5 -14   4 1.64712 2.64380   1
   5 -14  -4 -0.3978 2.75660   3
  -5 -14   4 4.18476 2.77910   1
   5 -14  -4 -4.2704 4.48112   4
  -6  14   4 197.125 8.42913   1
   6 -14   4 134.615 23.8467   3
  -6 -14  -4 189.978 8.47747   1
   6 -14   4 199.349 9.32204   5
   6 -14  -4 207.333 10.8163   3
  -6  14  -4 185.936 8.23634   1
  -6 -14   4 189.661 8.63729   1
  -6 -14   4 194.143 8.59537   1
  -7 -14  -4 6.39113 2.94874   1
   7 -14   4 3.18300 3.25049   5
  -7  14   4 5.70586 2.35420   1
   7 -14   4 -22.660 12.0542   3
  -7  14  -4 3.82287 2.35676   1
  -7 -14   4 1.46550 2.69172   1
   7 -14  -4 13.4590 4.42446   3
   8 -14   4 70.9109 17.9749   3
   8 -14   4 91.1047 6.55485   5
   8 -14  -4 104.866 8.04513   3
   0 -15   4 8.58728 3.46800   1
   0  15   4 6.17817 2.79932   1
   0 -15  -4 7.96184 3.28216   7
   0 -15   4 3.70066 3.18132   1
   0  15  -4 3.42284 2.45504   1
   0  15  -4 5.57474 3.48174   6
   0 -15  -4 1.28042 2.89804   1
   1  15  -4 3.18748 2.61839   6
  -1 -15  -4 2.28567 2.91621   1
  -1  15   4 3.14259 2.47289   1
   1 -15   4 -2.3406 2.48580   7
   1  15  -4 0.76049 2.16633   7
  -1  15   4 -0.7101 2.46129   6
   1 -15  -4 0.74845 2.74944   7
  -1 -15   4 -2.1343 2.60488   1
   1  15   4 0.86141 2.26948   7
  -1  15  -4 0.47623 2.24836   1
  -1 -15   4 2.31846 3.11839   1
   1 -15  -4 2.29019 2.88041   3
   2 -15   4 853.445 25.5974   7
  -2 -15  -4 928.378 27.1794   1
  -2  15   4 800.051 25.2011   1
   2  15  -4 865.205 27.0045   7
   2  15   4 851.071 25.6252   7
   2 -15  -4 839.695 26.8707   7
  -2  15  -4 854.453 26.7671   1
   2 -15  -4 842.001 28.6838   3
  -2 -15   4 695.720 24.7390   1
  -2 -15   4 823.234 25.3957   1
   3  15  -4 -0.2245 2.11850   7
   3 -15   4 -3.9796 2.52151   7
  -3 -15  -4 1.44526 2.84668   1
  -3  15   4 1.05882 2.30089   1
   3 -15   4 5.88899 4.77552   3
  -3  15  -4 1.76503 2.34589   1
   3  15   4 3.24089 2.33080   7
  -3 -15   4 -0.5360 2.85540   1
   3 -15  -4 2.61859 2.68546   7
  -3 -15   4 0.10316 2.77571   1
   3 -15  -4 -1.9544 2.83542   3
  -4 -15  -4 2.90382 3.05479   1
   4 -15   4 -0.3643 2.71972   7
   4  15  -4 -0.4021 2.05363   7
   4 -15   4 2.35417 5.55248   3
  -4  15   4 4.00812 2.53467   1
   4 -15  -4 6.31912 4.93005   4
   4  15   4 0.99872 2.28802   7
  -4 -15   4 4.91515 3.12103   1
  -4  15  -4 -0.5695 1.90128   1
   4 -15  -4 4.91679 3.38996   3
   4 -15  -4 0.43919 2.70425   7
  -4 -15   4 6.08368 3.28845   1
  -5  15   4 1.47195 2.34452   1
   5 -15   4 1.89169 6.85342   3
  -5 -15  -4 -0.6611 2.64551   1
  -5 -15   4 3.18018 2.92138   1
  -5  15  -4 1.02103 1.92117   1
  -5 -15   4 3.40321 3.10945   1
   5 -15  -4 1.57052 3.20519   3
  -6  15   4 585.927 19.2497   1
   6 -15   4 565.142 19.9349   5
  -6 -15  -4 545.397 18.4067   1
   6 -15   4 652.998 34.3886   3
  -6 -15   4 567.625 19.2230   1
  -6  15  -4 574.598 18.4549   1
  -6 -15   4 603.871 19.7009   1
   6 -15  -4 550.074 21.0726   3
   7 -15   4 -13.111 10.1499   3
   7 -15   4 0.02394 3.13892   5
   7 -15  -4 5.70869 3.85641   3
   0 -16  -4 88.9674 6.72545   3
   0  16   4 93.9454 5.85465   1
  -1  16   4 3.15416 2.75498   1
   1  16  -4 -1.5482 1.98889   7
   1 -16   4 1.51322 2.68744   7
  -1 -16  -4 0.78626 3.01325   1
   1 -16  -4 7.38279 3.18763   7
   1 -16  -4 -1.7437 2.73170   3
  -1 -16   4 -0.7022 3.07883   1
  -1  16  -4 -0.7790 2.08996   1
   1  16   4 1.25548 2.34545   7
  -1 -16   4 -2.2760 2.77281   1
   2 -16   4 3.65467 3.28091   7
  -2 -16  -4 3.76414 3.23643   1
  -2  16   4 1.88003 2.63296   1
   2  16  -4 5.31261 2.59285   7
   2 -16   4 6.52232 4.46376   3
   2  16   4 9.70311 3.04775   7
  -2 -16   4 3.43498 3.26992   1
  -2  16  -4 -0.6384 2.20162   1
   2 -16  -4 5.23891 3.35468   3
  -2 -16   4 4.54171 3.17072   1
   2 -16  -4 4.59905 2.97787   7
  -3  16   4 0.55851 2.33181   1
  -3 -16  -4 2.33701 2.93442   1
   3 -16   4 3.84145 4.50900   3
  -3 -16   4 0.38375 2.99139   1
   3 -16  -4 -0.8703 2.78896   3
  -3  16  -4 0.18239 2.29831   1
  -3 -16   4 1.96289 3.08986   1
   4 -16   4 97.9656 9.97611   3
  -4 -16  -4 78.2479 5.70178   1
  -4  16   4 80.4043 5.47304   1
  -4 -16   4 84.3796 5.99612   1
   4 -16  -4 71.4602 6.47343   3
  -4 -16   4 83.7435 5.89487   1
  -4  16  -4 81.1571 5.29629   1
   5 -16   4 5.06444 5.98160   3
  -5 -16  -4 1.33941 2.92127   1
  -5  16   4 2.35470 2.37129   1
  -5  16  -4 0.31965 2.25552   1
   5 -16  -4 0.01595 3.00683   3
  -5 -16   4 3.56547 3.24037   1
  -5 -16   4 -0.7209 2.89900   1
   6 -16   4 4.72523 7.97927   3
   6 -16   4 1.79792 2.99048   5
   6 -16  -4 3.05878 3.38110   3
  -1  17   4 4.65613 2.90571   1
  -1 -17  -4 -2.4111 2.87844   1
  -1 -17   4 0.00082 3.19157   1
  -1 -17   4 0.61425 3.24252   1
   1 -17  -4 2.62533 2.90621   3
  -1  17  -4 -1.0131 2.15812   1
  -2  17   4 318.666 12.3015   1
   2 -17   4 328.717 15.7119   3
  -2 -17  -4 347.300 12.6787   1
  -2  17  -4 313.457 12.2012   1
  -2 -17   4 301.235 12.2750   1
   2 -17  -4 282.888 13.1446   3
  -2 -17   4 290.339 12.3935   1
  -3 -17  -4 1.43621 2.98380   1
   3 -17   4 6.34586 4.86635   3
  -3  17   4 2.71655 2.48706   1
   3 -17  -4 -1.0778 2.87576   3
  -3 -17   4 0.66131 3.23942   1
  -3  17  -4 2.79799 2.52109   1
  -3 -17   4 6.00330 3.40108   1
   4 -17   4 118.282 10.4516   3
   4 -17  -4 105.832 7.58099   3
   5 -17  -4 -1.1903 4.41813   3
   2 -18  -4 32.3574 6.34158   3
   0   0  -5 1.61457 1.39911   6
   0   0  -5 0.41981 1.16619   1
   0   0  -5 1.08323 1.16681   7
   0   0   5 2.53341 1.56847   7
   0   0   5 0.90573 1.22866   1
   1   0   5 19.4946 2.35149   1
  -1   0  -5 17.6794 2.37507   7
  -1   0  -5 21.6266 2.44005   1
  -1   0   5 15.5224 2.37184   7
   1   0   5 21.1455 2.48194   7
  -1   0   5 18.5014 2.28405   1
  -1   0  -5 20.4094 2.41844   6
   1   0  -5 21.0056 2.62516   6
   1   0  -5 17.9886 2.22270   7
  -2   0  -5 1.28659 1.24551   1
   2   0   5 1.93966 1.32129   7
   2   0  -5 3.49954 1.86350   6
   2   0   5 3.02781 1.63499   2
  -2   0   5 1.79851 1.37383   1
   2   0  -5 2.31246 1.31510   7
   2   0  -5 2.16505 1.02027   4
  -2   0  -5 2.51985 1.32023   6
   2   0  -5 12.0125 2.27243   2
  -2   0   5 1.89266 1.32183   7
  -2   0  -5 0.76854 1.12411   7
   3   0  -5 26.5120 2.78615   3
  -3   0  -5 22.1005 2.20783   6
   3   0  -5 14.3015 2.27495   2
  -3   0   5 16.4150 2.21062   1
   3   0   5 18.3102 2.50117   7
  -3   0  -5 16.1550 2.13404   1
   3   0  -5 17.7325 2.32501   7
   3   0   5 19.3387 2.64286   2
   3   0  -5 22.7231 2.23161   4
  -4   0   5 -0.0368 1.16167   1
   4   0  -5 -0.7974 1.21987   2
  -4   0  -5 0.32432 1.18778   6
   4   0  -5 2.27135 1.29039   7
   4   0   5 -0.3084 1.26185   2
  -4   0  -5 0.50141 1.20990   1
   4   0  -5 1.64185 1.66319   3
   4   0   5 2.03460 1.52163   2
   4   0   5 3.73659 1.60057   7
   4   0  -5 2.40605 1.38580   2
   5   0   5 17.0113 2.43460   2
  -5   0  -5 12.5332 2.00979   1
   5   0  -5 15.4108 2.21150   2
  -5   0   5 16.2224 2.08661   1
   5   0   5 23.0083 2.83934   3
   5   0   5 20.0356 2.38569   7
   5   0   5 21.0904 2.65159   2
   5   0  -5 20.1139 2.11888   7
   5   0  -5 14.8979 2.34213   2
   5   0  -5 29.1532 3.55637   3
  -6   0  -5 1.50513 1.39009   1
   6   0   5 10.7166 1.98225   7
   6   0  -5 2.02321 2.24118   3
   6   0  -5 0.73042 1.11923   7
  -6   0   5 1.15643 1.36853   1
   6   0  -5 3.28336 1.46966   2
   6   0  -5 1.17090 1.39200   2
   6   0   5 3.08611 2.15499   3
   6   0   5 1.09872 1.65388   2
  -7   0  -5 16.0660 2.28516   1
  -7   0   5 15.7067 2.17881   1
   7   0   5 17.4823 2.07023   7
   7   0   5 13.5289 2.43313   2
   7   0  -5 14.1045 2.21488   2
   7   0  -5 26.1882 3.86681   3
   7   0  -5 20.5381 1.82533   7
   7   0  -5 16.6912 2.37204   2
   7   0   5 23.9661 3.50855   3
   8   0   5 1.36955 2.44849   3
   8   0  -5 1.10680 1.43210   2
   8   0   5 -0.2514 1.61810   2
   9   0  -5 12.0620 2.13593   2
   9   0   5 13.0194 2.67001   2
  10   0   5 2.32632 1.85774   2
  10   0  -5 0.60950 1.63679   2
  11   0   5 5.73339 2.26180   2
  11   0  -5 5.32990 1.99048   2
   0  -1  -5 327.061 11.0230   7
   0   1  -5 348.901 11.5238   6
   0   1   5 345.910 11.4853   7
   0   1  -5 340.011 10.9355   1
   0   1  -5 349.786 11.0391   7
   0  -1   5 352.898 11.4226   7
   0  -1   5 364.268 11.4026   1
   0  -1  -5 334.287 11.3801   6
   1  -1   5 12.7745 2.05970   1
  -1   1   5 12.3718 2.34075   7
   1   1  -5 17.7733 2.44768   6
  -1  -1  -5 14.3097 2.13341   6
  -1   1   5 12.7903 2.03768   1
  -1  -1  -5 14.2326 2.09394   7
  -1  -1  -5 17.1991 2.22452   1
   1  -1   5 11.5491 2.35391   7
   1   1  -5 14.9427 2.09091   7
  -1   1  -5 12.9823 2.03387   1
  -1   1  -5 10.8559 2.21019   7
  -1  -1   5 14.2837 2.09730   1
   1   1   5 11.8856 2.31663   7
  -1   1  -5 17.3281 2.24913   6
   1   1   5 13.6562 2.22344   1
   1  -1  -5 12.5058 2.04923   7
  -1  -1   5 14.1828 2.25121   7
   2   1  -5 854.199 24.9561   7
   2   1  -5 848.230 25.7309   6
  -2   1   5 866.917 25.4205   7
   2  -1   5 862.447 26.0277   2
   2  -1   5 885.476 25.2427   5
  -2  -1  -5 861.364 24.9922   1
  -2  -1  -5 881.339 25.0379   6
  -2  -1  -5 905.645 25.1315   7
   2   1  -5 899.238 25.6496   2
  -2   1   5 883.432 25.4054   1
   2  -1   5 888.893 25.4616   7
   2  -1  -5 865.938 25.2296   4
   2  -1  -5 863.788 24.9924   7
  -2  -1   5 877.137 25.3286   1
   2  -1  -5 917.419 25.6552   2
   2   1   5 902.551 25.5845   7
  -2   1  -5 853.704 25.0165   7
  -2   1  -5 853.174 24.9717   1
   2   1   5 878.754 26.0412   2
  -2   1  -5 847.577 25.2171   6
  -2  -1   5 924.197 25.5631   7
  -3  -1  -5 19.5569 2.24504   1
  -3   1   5 11.8278 2.18427   1
   3  -1   5 18.7064 2.33928   5
   3  -1   5 14.9430 2.24808   7
   3   1  -5 14.7329 2.11910   2
   3   1  -5 20.5641 2.61266   6
   3   1  -5 14.1413 2.05859   7
   3  -1   5 13.0850 2.35701   2
  -3  -1  -5 15.7590 2.19394   7
  -3  -1  -5 12.8114 1.83809   6
  -3  -1   5 14.5349 2.10464   1
   3  -1  -5 12.8124 2.07710   2
   3  -1  -5 18.8631 2.17233   4
   3   1   5 13.2596 2.25131   2
   3  -1  -5 16.5467 2.36041   3
  -3   1  -5 11.8882 2.60032   7
  -3   1  -5 10.2315 2.07805   1
  -3   1  -5 20.0062 2.14442   6
   3  -1  -5 9.42687 2.11660   7
   3   1   5 14.3791 2.23746   7
   4  -1   5 194.466 7.48221   2
  -4  -1  -5 187.979 6.86349   1
   4  -1   5 184.840 7.36470   2
   4   1  -5 186.073 7.21361   2
  -4  -1  -5 189.873 6.51459   6
   4   1  -5 183.225 6.67535   7
   4  -1   5 193.352 7.28258   3
   4  -1   5 189.828 7.36984   5
   4   1  -5 183.811 7.07832   2
  -4   1   5 197.169 6.92518   1
   4  -1   5 181.471 6.86214   7
  -4   1  -5 191.650 6.82744   1
   4   1   5 199.823 7.45136   2
   4  -1  -5 186.454 7.19285   2
   4   1   5 187.633 6.96583   7
   4  -1  -5 187.368 6.72274   7
   4   1   5 188.655 7.40957   2
  -4  -1   5 185.783 6.82169   1
   4  -1  -5 184.483 7.13963   2
  -4   1  -5 193.127 6.98762   6
   4  -1  -5 182.163 7.52478   4
   4  -1  -5 184.562 7.75677   3
   5   1  -5 8.60892 2.02585   2
   5  -1   5 13.0232 2.64599   3
  -5  -1  -5 9.35454 2.03227   1
   5  -1   5 12.9052 2.35343   7
  -5   1   5 14.0089 2.00056   1
   5  -1   5 13.6339 2.39152   2
   5   1  -5 8.80517 1.93128   7
   5  -1   5 12.5914 2.63547   5
   5   1  -5 9.18576 2.20414   2
   5  -1   5 9.22257 2.33794   2
  -5   1  -5 12.2408 2.20887   1
   5   1   5 15.1941 2.34866   2
   5   1   5 9.20065 2.50182   2
  -5   1  -5 15.6354 1.98084   6
   5  -1  -5 9.12948 2.55880   3
   5   1   5 11.4295 2.46537   3
   5  -1  -5 13.4628 1.89720   7
   5  -1  -5 7.68596 2.09453   2
  -5  -1   5 10.1208 2.01757   1
   5   1   5 9.37460 2.06896   7
   5  -1  -5 13.6696 2.12770   2
  -6   1   5 427.889 12.9061   1
   6  -1   5 415.982 14.4001   3
   6   1  -5 415.437 13.2352   2
   6  -1   5 417.768 12.9085   7
  -6  -1  -5 415.362 12.9792   1
   6   1  -5 415.637 12.6085   7
   6  -1   5 416.975 13.5814   2
   6  -1   5 430.142 14.3094   5
   6   1  -5 422.249 13.4037   2
  -6   1   5 393.889 14.2081   6
  -6   1  -5 417.220 12.9286   1
   6  -1  -5 412.743 13.2898   2
   6   1   5 422.898 14.2767   3
   6   1   5 428.530 13.6681   2
   6  -1  -5 416.213 15.1489   3
   6  -1  -5 417.257 12.5433   7
  -6  -1   5 423.494 12.8670   1
   6  -1  -5 434.864 13.3771   2
   6   1   5 415.508 12.8791   7
   7   1  -5 17.6783 1.75232   7
  -7   1   5 13.8002 1.94802   1
   7   1  -5 12.8960 2.06993   2
   7  -1   5 22.0529 3.43459   3
   7  -1   5 15.4255 2.03659   7
   7   1  -5 10.4787 2.36856   2
  -7   1   5 19.6519 2.93152   6
   7  -1   5 11.4942 2.61570   2
  -7  -1  -5 18.2860 2.22566   1
  -7  -1   5 13.0096 2.01771   1
   7  -1  -5 17.1631 2.21998   2
   7   1   5 15.7643 1.91492   7
  -7   1  -5 8.78309 2.13456   1
   7   1   5 13.2880 2.64236   2
   7   1   5 20.0243 3.28540   3
   7  -1  -5 15.4431 3.50213   3
   7  -1  -5 18.5929 1.71918   7
   7  -1  -5 12.7300 2.19961   2
   8  -1   5 66.5917 3.96363   2
   8   1  -5 68.0559 3.60201   2
   8  -1   5 66.8355 5.11609   3
   8   1   5 66.5731 3.98159   2
   8  -1  -5 62.3455 3.66313   2
   8  -1  -5 68.1646 5.59678   3
   9   1  -5 5.22288 1.78445   2
   9  -1   5 5.95784 2.21666   2
   9  -1   5 11.7148 3.42824   3
   9  -1  -5 7.60625 3.35194   3
   9   1   5 4.84388 2.08467   2
   9  -1  -5 7.36289 2.04845   2
  10   1  -5 150.162 6.01890   2
  10  -1   5 147.020 6.28391   2
  10  -1  -5 148.397 6.02236   2
  10   1   5 142.586 6.23540   2
  11   1  -5 7.22574 2.00474   2
  11  -1   5 9.01897 2.34622   2
  11   1   5 7.50009 2.36621   2
  11  -1  -5 6.39647 2.07658   2
   0  -2   5 14.8830 1.97535   1
   0   2  -5 13.5877 2.11718   6
   0   2   5 18.6471 2.14823   7
   0   2  -5 13.5280 2.07936   1
   0  -2  -5 12.9289 1.87731   7
   0  -2   5 16.5348 2.13029   7
   0  -2  -5 19.1709 2.01697   1
   0   2   5 19.4688 2.06012   1
   0   2  -5 14.9849 1.90242   7
   1  -2   5 9.70619 2.09187   7
  -1   2   5 5.98645 1.80400   7
  -1  -2  -5 7.10111 1.81079   7
  -1  -2  -5 4.64646 1.57523   1
   1   2  -5 9.45585 1.89425   1
  -1   2   5 6.01165 1.71728   1
   1   2  -5 6.78606 1.76740   7
   1  -2   5 10.9082 2.05363   1
   1   2  -5 9.03829 2.13423   6
   1  -2  -5 9.10040 1.85335   1
  -1  -2   5 10.6610 2.12030   7
   1   2   5 8.99758 2.02501   7
  -1  -2   5 9.29491 1.95542   1
  -1   2  -5 8.96436 2.07815   6
  -1   2  -5 8.88548 1.80867   1
  -1   2  -5 10.4234 1.93509   7
   1   2   5 8.21858 1.84675   1
   1  -2  -5 7.52593 1.81675   7
   2  -2   5 1358.01 38.9427   2
  -2   2   5 1326.36 38.2007   1
  -2   2   5 1416.64 38.3286   7
   2   2  -5 1297.62 37.5308   6
   2  -2   5 1375.81 38.3643   7
   2   2  -5 1331.15 37.4528   2
   2  -2   5 1386.82 37.8677   5
   2   2  -5 1232.14 36.6451   7
  -2  -2  -5 1334.27 36.8511   1
  -2  -2  -5 1351.54 36.9378   7
  -2   2  -5 1307.78 37.2248   6
  -2  -2   5 1329.32 38.1070   1
  -2  -2   5 1388.18 38.2199   7
  -2   2  -5 1313.30 36.7872   1
   2   2   5 1372.95 38.3884   7
   2  -2  -5 1260.22 36.7498   7
   2   2   5 1371.49 39.0684   2
   2  -2  -5 1365.22 37.6011   2
  -2   2  -5 1371.74 36.9139   7
  -3  -2  -5 7.33306 1.74944   7
   3  -2   5 11.6238 2.03063   2
   3  -2   5 9.44150 1.96358   5
   3   2  -5 5.06836 1.60736   7
  -3   2   5 6.37929 1.76692   1
   3  -2   5 5.72440 1.88881   7
   3   2  -5 5.46803 1.69977   2
   3   2  -5 7.43344 2.17969   6
  -3  -2  -5 6.52541 1.74642   1
  -3  -2  -5 7.90577 1.76876   6
  -3  -2   5 6.53777 1.72869   1
  -3   2  -5 6.87860 1.71171   1
   3   2   5 7.10295 2.00489   7
   3  -2  -5 7.63896 2.00730   2
   3  -2  -5 8.14477 1.79052   7
   3   2   5 8.37306 2.14836   2
   3  -2  -5 6.28124 1.86575   3
   3  -2  -5 6.25744 1.84316   4
  -3   2  -5 7.22155 1.84276   6
  -3   2  -5 7.97962 1.83660   7
   4  -2   5 5.85678 2.01596   2
   4   2  -5 9.43631 2.01804   2
   4   2  -5 5.67180 1.67229   7
   4   2  -5 7.04013 2.29080   6
   4   2  -5 11.3748 2.24383   2
   4  -2   5 12.2347 2.20581   7
  -4   2   5 10.5971 1.92152   1
  -4  -2  -5 6.62401 1.74773   1
   4  -2   5 10.2455 2.25132   3
   4  -2   5 9.44315 2.26505   5
  -4  -2   5 9.94128 1.90522   1
   4  -2  -5 7.42265 1.96743   2
   4   2   5 10.5768 2.11479   7
   4   2   5 10.9236 2.40161   2
   4  -2  -5 8.31417 2.03588   2
   4  -2  -5 10.1416 2.34107   4
   4  -2  -5 9.15745 1.77853   7
  -4   2  -5 9.26486 2.01978   6
  -4   2  -5 8.71669 1.83673   1
   4  -2  -5 10.1928 2.50773   3
   5   2  -5 8.87770 1.96260   2
  -5  -2  -5 7.19786 1.80524   1
   5  -2   5 9.71341 2.40590   5
  -5   2   5 15.6188 2.59692   6
   5  -2   5 10.0764 2.22854   2
   5  -2   5 10.5890 2.53300   3
  -5   2   5 7.97641 1.80282   1
   5   2  -5 7.51126 1.74105   7
   5   2  -5 7.04975 1.92673   2
   5  -2   5 10.3637 2.10866   7
   5  -2  -5 11.5179 1.94971   2
   5  -2  -5 9.50338 1.83513   7
   5  -2  -5 11.5641 2.75631   3
   5   2   5 6.78171 1.90773   7
   5  -2  -5 7.56789 1.99453   2
   5   2   5 4.54042 1.90082   2
  -5  -2   5 8.04779 1.83980   1
   5  -2  -5 5.42013 2.15191   4
  -5   2  -5 7.62598 1.76905   1
  -5   2  -5 13.3566 2.00768   6
  -6  -2  -5 692.422 20.0072   1
   6  -2   5 690.969 21.8097   3
   6  -2   5 697.540 20.8394   2
  -6   2   5 663.668 20.0081   1
   6   2  -5 702.102 20.3592   2
  -6   2   5 703.916 21.8715   6
   6  -2   5 713.242 20.2309   7
   6   2  -5 672.489 19.6026   7
   6  -2   5 692.661 21.5100   5
   6  -2  -5 665.971 22.1225   3
   6   2   5 684.813 20.1638   7
  -6   2  -5 677.991 19.9013   1
   6  -2  -5 682.371 19.5316   7
   6  -2  -5 678.539 20.5257   2
  -6  -2   5 689.153 20.0975   1
   6   2   5 688.704 20.9567   2
   6  -2  -5 663.925 20.3039   2
   7   2  -5 5.57134 1.41983   7
  -7   2   5 8.94285 2.59163   6
   7  -2   5 9.05718 2.81927   5
  -7  -2  -5 3.30336 1.67602   1
   7   2  -5 5.45723 1.73688   2
   7  -2   5 5.34555 2.63306   3
   7  -2   5 5.52365 1.69369   7
   7  -2   5 4.68426 2.09321   2
  -7   2   5 3.68796 1.60957   1
   7  -2  -5 5.39703 2.66290   3
   7  -2  -5 4.47696 1.75696   2
  -7  -2   5 7.55169 1.87191   1
   7   2   5 7.11563 1.62840   7
  -7   2  -5 3.67778 1.63691   1
   7  -2  -5 5.38866 1.32267   7
   7   2   5 4.53691 1.96939   2
   8   2  -5 -0.0077 1.31499   2
   8  -2   5 4.95812 2.79742   3
   8  -2   5 1.29152 1.87102   2
   8  -2   5 0.44296 2.37358   5
   8   2   5 -0.0609 1.76703   2
   8  -2  -5 1.15967 2.59622   3
   8  -2  -5 2.47962 1.76603   2
   9   2  -5 5.52572 1.75206   2
   9  -2   5 7.03846 3.12378   3
   9  -2   5 9.15581 2.48655   2
   9  -2  -5 7.17729 3.36427   3
   9  -2  -5 5.54968 1.92262   2
   9   2   5 4.61410 2.13794   2
  10  -2   5 260.133 9.49482   2
  10   2  -5 257.925 9.13197   2
  10  -2  -5 271.473 9.28574   2
  10   2   5 267.396 9.72409   2
  10  -2  -5 256.643 12.2823   3
  11  -2   5 1.84496 2.08443   2
  11   2  -5 4.20429 1.85905   2
  11  -2  -5 4.37777 1.90548   2
  11   2   5 3.89614 2.12149   2
   0   3  -5 3416.52 95.1147   6
   0  -3   5 3677.89 99.5919   7
   0   3   5 3707.06 99.6772   7
   0   3  -5 3401.61 94.3287   1
   0   3   5 3683.66 99.5658   1
   0   3  -5 3521.28 94.4960   7
   0  -3  -5 3600.17 94.5363   1
   0  -3  -5 3557.47 94.5865   7
  -1  -3  -5 4.16009 1.69426   7
   1   3  -5 4.43347 1.76030   6
  -1   3   5 4.16560 1.64974   1
   1  -3   5 5.68899 1.77868   1
   1   3  -5 4.16880 1.53460   1
  -1  -3  -5 3.60792 1.60168   1
   1  -3   5 2.85814 1.56242   7
   1   3  -5 3.03225 1.43382   7
  -1   3   5 1.91395 1.51331   7
   1   3   5 2.19730 1.69978   7
  -1   3  -5 4.60417 1.51739   7
   1  -3  -5 3.20838 1.51339   1
  -1   3  -5 2.62589 1.37459   1
  -1  -3   5 2.74617 1.57047   1
  -1   3  -5 4.63241 1.76012   6
   1   3   5 4.70110 1.68841   1
   1  -3  -5 3.42320 1.60212   7
  -1  -3   5 4.19010 1.68234   7
   2  -3   5 782.779 23.4866   2
   2  -3   5 773.024 22.8032   1
  -2  -3  -5 718.160 21.8213   7
   2   3  -5 730.718 22.3698   2
   2   3  -5 740.420 22.5850   6
   2  -3   5 771.684 22.8629   7
   2   3  -5 777.610 21.8367   7
  -2  -3  -5 744.421 21.8893   1
  -2   3   5 779.033 22.8283   1
   2  -3   5 784.103 22.4033   5
  -2   3   5 784.595 22.8754   7
  -2  -3   5 780.911 22.8021   7
   2  -3  -5 722.952 21.7892   7
  -2   3  -5 743.596 21.7612   1
  -2   3  -5 755.866 22.3155   6
  -2   3  -5 742.758 21.8205   7
   2   3   5 800.781 22.8849   1
   2   3   5 793.374 23.0092   7
  -2  -3   5 783.121 22.7182   1
   2   3   5 749.949 23.6555   2
   2  -3  -5 761.151 22.5944   2
  -3  -3  -5 1.58974 1.38583   1
  -3  -3  -5 4.50301 1.64374   7
   3   3  -5 2.19302 1.48913   2
   3  -3   5 5.54474 1.99830   3
   3  -3   5 1.12901 1.42796   5
   3   3  -5 2.66848 1.70012   6
   3  -3   5 3.16276 1.61715   2
   3  -3   5 2.14624 1.54934   7
   3   3  -5 1.89015 1.33561   7
  -3   3   5 3.91308 1.60514   1
   3  -3  -5 2.62597 1.67062   2
  -3  -3   5 4.16801 1.56559   1
  -3   3  -5 2.46982 1.37859   1
  -3  -3   5 4.55003 2.06176   7
   3  -3  -5 1.45109 1.72770   4
   3   3   5 4.20330 1.91012   2
  -3   3  -5 3.82916 1.50524   7
   3  -3  -5 -0.0942 1.28857   3
  -3   3  -5 4.41998 1.75727   6
   3   3   5 5.32541 1.74370   7
   3  -3  -5 3.10079 1.45157   7
  -4   3   5 2434.13 65.7247   1
   4   3  -5 2298.64 64.0647   7
   4   3  -5 2357.16 64.7015   2
   4   3  -5 2322.32 65.2236   6
   4  -3   5 2376.75 66.7758   3
   4  -3   5 2362.97 65.7987   7
   4  -3   5 2409.03 66.1713   5
  -4  -3  -5 2290.17 64.1872   1
   4  -3   5 2427.77 66.4308   2
  -4   3   5 2406.96 67.0795   6
   4   3   5 2468.96 66.7331   2
   4  -3  -5 2343.98 65.3340   3
   4  -3  -5 2379.31 64.8388   2
  -4   3  -5 2444.08 64.8094   6
   4  -3  -5 2270.52 64.0167   7
   4  -3  -5 2340.03 66.1136   4
  -4   3  -5 2465.55 64.2073   1
   4   3   5 2415.78 65.8504   7
  -4  -3   5 2390.55 65.5905   1
   5  -3   5 1.63334 1.65692   7
   5  -3   5 2.20634 1.95778   3
   5  -3   5 4.88347 1.92375   2
  -5   3   5 5.02131 2.33640   6
  -5  -3  -5 2.99263 1.53588   1
   5   3  -5 4.94788 1.65705   2
  -5   3   5 2.56867 1.50549   1
   5   3  -5 1.99127 1.45446   7
   5  -3   5 2.37917 2.03953   5
   5   3  -5 1.77153 2.09176   6
  -5  -3   5 1.76699 1.46489   1
   5  -3  -5 3.64930 1.84715   5
  -5   3  -5 2.13069 1.35968   1
   5  -3  -5 2.32007 1.92589   3
   5   3   5 5.79272 1.73391   7
   5  -3  -5 5.62126 2.36493   4
   5   3   5 2.88086 1.86180   2
   5  -3  -5 6.02950 1.66582   7
  -5   3  -5 5.76950 1.88029   6
   5  -3  -5 1.88969 1.62831   2
   6  -3   5 358.394 11.5083   7
   6   3  -5 366.949 11.9547   2
  -6   3   5 351.852 12.9657   6
   6   3  -5 348.123 11.2133   7
   6  -3   5 352.392 12.6344   5
  -6  -3  -5 359.107 11.5305   1
  -6   3   5 357.056 11.4096   1
   6  -3   5 372.632 12.2097   2
   6  -3   5 362.436 13.3079   3
   6  -3  -5 351.706 13.6691   4
   6   3   5 359.300 12.3890   2
   6   3   5 366.912 11.5426   7
  -6  -3   5 359.776 11.4486   1
   6  -3  -5 359.222 12.1061   2
  -6   3  -5 367.189 11.5305   1
   6  -3  -5 365.311 11.2155   7
   6  -3  -5 353.876 13.5657   3
   7  -3   5 7.05650 2.66367   5
   7   3  -5 3.04088 1.39496   7
  -7   3   5 4.22750 1.63994   1
   7  -3   5 3.54848 1.95564   2
  -7  -3  -5 3.36448 1.63257   1
  -7   3   5 5.18899 2.48057   6
   7   3  -5 3.86316 1.68436   2
   7  -3   5 1.05096 2.24191   3
   7  -3   5 2.70996 1.50630   7
   7  -3  -5 5.19528 2.75357   3
  -7   3  -5 2.99705 1.55131   1
  -7  -3   5 2.27775 1.66815   1
   7  -3  -5 2.42593 1.34925   7
   7   3   5 3.27919 2.01172   2
   7  -3  -5 2.81374 1.87921   2
   7   3   5 4.70891 1.49667   7
   7  -3  -5 2.81026 1.26640   7
   8  -3   5 1063.24 32.6512   5
   8  -3   5 1087.19 31.5171   2
  -8  -3  -5 1042.14 30.0986   1
   8   3  -5 1081.95 30.6520   2
   8  -3   5 1089.94 33.5761   3
   8   3   5 1118.39 31.8804   2
   8  -3  -5 1072.04 30.7637   2
   8  -3  -5 1072.73 33.5524   3
   9   3  -5 5.21646 1.82648   2
   9  -3   5 4.59461 2.91247   5
   9  -3   5 2.22196 1.94081   2
   9  -3   5 3.39998 2.91081   3
   9   3   5 2.76330 1.99761   2
   9  -3  -5 3.41211 3.05004   3
   9  -3  -5 2.40580 1.83087   2
  10   3  -5 115.176 5.29296   2
  10  -3   5 119.850 5.69017   2
  10  -3   5 112.781 7.40579   3
  10  -3  -5 123.581 8.04117   3
  10   3   5 120.009 5.82798   2
  10  -3  -5 120.123 5.50616   2
  11  -3   5 3.55708 2.27998   2
  11   3  -5 4.06083 1.81493   2
  11  -3  -5 -1.1017 3.02103   3
  11  -3  -5 0.16444 1.74990   2
  11   3   5 1.18981 1.96404   2
   0  -4   5 15.0592 2.50680   7
   0  -4   5 13.8524 2.06380   1
   0   4  -5 11.6085 1.86382   7
   0   4  -5 13.4470 1.90111   1
   0   4   5 12.8375 2.02737   1
   0  -4  -5 12.3950 2.01302   7
   0   4   5 13.1043 2.08928   7
   0  -4  -5 12.3576 2.20459   1
   0   4  -5 12.8221 2.23490   6
  -1   4   5 0.81057 1.55006   7
   1  -4   5 -2.1941 1.26256   1
  -1  -4  -5 0.54468 1.44238   1
   1   4  -5 0.82912 1.25630   1
   1  -4   5 -0.6397 1.42623   7
   1   4  -5 -0.7235 1.16885   7
   1   4  -5 -0.1193 1.48442   6
  -1   4   5 1.48434 1.48641   1
  -1   4   5 0.69109 1.45178   6
  -1  -4  -5 -0.2309 1.32040   7
  -1   4  -5 0.34288 1.20071   7
   1   4   5 0.86707 1.34065   1
  -1   4  -5 -0.6426 1.06036   1
   1  -4  -5 0.10285 1.29873   7
   1   4   5 -0.7510 1.36208   7
   1  -4  -5 -0.7902 1.24212   1
  -1   4  -5 0.13554 1.38644   6
  -1  -4   5 1.25961 1.47003   1
  -1  -4   5 -0.7138 1.40467   7
  -2   4   5 699.400 20.8125   7
   2   4  -5 655.735 20.1621   1
   2   4  -5 669.392 21.1087   6
  -2   4   5 692.909 21.5074   6
   2   4  -5 669.530 20.2947   7
  -2   4   5 700.381 20.7847   1
   2  -4   5 701.065 20.3269   5
   2  -4   5 702.268 20.8310   7
   2   4  -5 672.984 21.0520   2
  -2  -4  -5 695.056 20.4551   1
  -2  -4  -5 692.349 20.4730   7
   2  -4   5 684.767 20.7168   1
  -2   4  -5 686.048 20.9898   6
   2   4   5 711.329 20.7952   1
  -2  -4   5 679.028 20.6322   1
  -2  -4   5 707.195 20.7760   7
   2  -4  -5 694.749 20.3018   1
  -2   4  -5 673.873 20.2752   1
  -2   4  -5 726.938 20.5396   7
   2  -4  -5 679.212 20.4116   7
   2  -4  -5 688.059 21.1278   2
   2  -4  -5 688.198 20.4133   3
   2   4   5 688.469 20.8611   7
   3  -4   5 -1.5382 1.45552   7
   3  -4   5 1.54361 1.70623   2
  -3   4   5 2.81748 2.03184   6
   3   4  -5 0.13486 1.24546   7
  -3   4   5 0.14479 1.21685   1
   3  -4   5 2.25156 1.98482   3
   3   4  -5 0.30043 1.35267   2
  -3  -4  -5 -0.2485 1.39699   7
   3  -4   5 -0.8270 1.42961   5
   3   4  -5 0.90641 1.57482   6
  -3  -4  -5 -0.1303 1.29298   1
   3  -4  -5 0.21765 1.64192   2
   3  -4  -5 -1.3915 1.33892   7
   3   4   5 -0.8616 1.32413   7
  -3   4  -5 0.66730 1.31233   1
  -3   4  -5 0.59751 1.54149   6
   3   4   5 -0.0384 1.42667   1
   3   4   5 -1.1765 1.27561   2
   3  -4  -5 1.02849 1.39291   3
   3   4   5 1.63619 1.20135   6
  -3  -4   5 -1.9219 1.24042   1
   4   4  -5 13.1013 2.51311   2
  -4   4   5 6.47202 2.41028   6
   4   4  -5 6.70151 1.71604   7
   4   4  -5 7.40900 2.20837   6
  -4  -4  -5 6.19717 1.83481   1
   4  -4   5 4.98161 1.96039   5
   4  -4   5 7.03562 2.02837   7
   4  -4   5 7.33082 2.55073   3
   4  -4   5 11.0449 2.38626   2
  -4   4   5 9.35703 2.00672   1
   4  -4  -5 11.6880 2.20231   2
  -4   4  -5 3.94587 1.89942   6
   4  -4  -5 9.92175 2.92539   4
   4   4   5 7.89158 2.28656   2
   4  -4  -5 3.01127 1.98852   3
  -4  -4   5 4.26186 1.78994   1
   4   4   5 7.78665 2.04438   7
  -4   4  -5 5.01267 1.63054   1
   4  -4  -5 6.05212 1.86241   7
   5  -4   5 0.93268 1.58499   7
   5   4  -5 -0.2604 1.39972   2
   5   4  -5 0.01365 1.30805   7
   5  -4   5 1.28464 2.06289   3
  -5   4   5 3.23731 2.19431   6
   5  -4   5 2.79162 1.99807   5
  -5  -4  -5 0.25598 1.40890   1
  -5   4   5 -1.0174 1.28108   1
   5  -4   5 -0.1028 1.67901   2
   5   4  -5 -0.3334 1.76276   6
  -5  -4   5 1.57738 1.51160   1
   5  -4  -5 1.09494 1.98439   4
   5  -4  -5 0.56063 1.80350   3
  -5   4  -5 2.79994 1.47288   1
  -5   4  -5 0.81247 1.60718   6
   5  -4  -5 0.10503 1.59371   2
   5   4   5 -0.6626 1.51939   2
   5   4   5 -0.8402 1.35841   7
   5  -4  -5 -0.2654 1.24230   7
   6  -4   5 408.237 12.9848   7
  -6  -4  -5 385.274 12.4585   1
   6  -4   5 410.345 13.6563   2
  -6   4   5 392.727 14.3781   6
   6   4  -5 391.629 12.9689   2
  -6   4   5 419.653 12.8939   1
   6  -4   5 404.902 14.8459   3
   6   4  -5 385.446 12.2565   7
   6  -4   5 390.538 13.8678   5
   6   4   5 414.487 13.8493   2
   6  -4  -5 403.632 12.1396   7
  -6   4  -5 395.018 13.1307   6
   6  -4  -5 382.840 14.4654   3
   6   4   5 403.647 12.8436   7
   6  -4  -5 398.874 15.0418   4
   6  -4  -5 382.494 13.0212   2
  -6   4  -5 378.082 12.3275   1
  -6  -4   5 418.037 12.8602   1
   7  -4   5 2.89290 2.56138   3
   7   4  -5 0.01645 1.24827   7
   7   4  -5 -0.5352 1.41187   2
  -7  -4  -5 1.81989 1.61525   1
   7  -4   5 -1.6147 2.15514   5
  -7   4   5 -0.2971 1.37846   1
   7  -4   5 0.80241 1.76127   2
  -7   4   5 2.59587 2.27684   6
   7  -4   5 0.98001 1.51230   7
  -7   4  -5 2.26525 1.49922   1
   7   4   5 0.98439 1.80680   2
   7  -4  -5 -0.1400 1.24544   7
  -7  -4   5 1.14320 1.60241   1
   7  -4  -5 1.28093 2.45466   4
   7   4   5 1.07831 1.42189   7
   7  -4  -5 0.86858 1.84031   2
   7  -4  -5 -0.9799 2.21831   3
   8  -4   5 3.58584 2.80450   3
  -8  -4  -5 2.46260 1.72005   1
   8  -4   5 0.95861 2.47948   5
   8  -4   5 2.05834 1.97941   2
   8   4  -5 2.02920 1.60996   2
  -8   4  -5 1.26667 1.50123   1
   8   4   5 5.06698 2.28005   2
   8   4   5 1.60720 1.32203   7
   8  -4  -5 2.34226 2.66430   3
   8  -4  -5 1.77065 1.90958   2
   9  -4   5 2.88342 2.89614   3
   9  -4   5 1.29399 1.95627   2
   9   4  -5 -0.8156 1.35978   2
   9  -4   5 -0.3271 2.72398   5
   9  -4  -5 -1.9098 1.56308   2
   9   4   5 2.20683 2.08464   2
   9  -4  -5 0.49628 2.71974   3
  10  -4   5 187.035 9.08570   5
  10   4  -5 172.939 7.06363   2
  10  -4   5 198.176 9.90357   3
  10  -4   5 178.378 7.52296   2
  10   4   5 179.988 7.66523   2
  10  -4  -5 182.887 9.96776   3
  10  -4  -5 169.820 7.07383   2
  11   4  -5 -0.1953 1.56261   2
  11  -4   5 0.19714 1.99618   2
  11   4   5 -0.4052 1.87323   2
  11  -4  -5 0.88995 1.80343   2
  11  -4  -5 0.66235 2.94642   3
  12  -4  -5 4.60060 3.72814   3
   0  -5  -5 77.5714 4.30700   7
   0   5   5 84.8829 4.52795   6
   0   5  -5 83.7924 4.28099   7
   0  -5   5 82.9963 4.42700   7
   0   5  -5 82.5127 4.17970   1
   0  -5  -5 78.5878 4.21008   1
   0   5  -5 78.3283 4.57479   6
   0   5   5 79.4057 4.35974   7
   0  -5   5 76.7472 4.20244   1
   0   5   5 76.0851 4.22212   1
  -1   5   5 4.35421 1.81049   7
   1  -5   5 0.56619 1.04416   4
  -1   5   5 3.26653 1.91627   6
  -1   5   5 3.52288 1.72211   1
  -1  -5  -5 2.70287 1.62091   1
   1   5  -5 2.89977 1.83141   6
   1   5  -5 4.08493 1.63696   7
   1  -5   5 3.50397 1.77969   1
   1  -5   5 5.37439 1.94464   7
   1   5  -5 4.98051 1.69627   1
  -1  -5  -5 6.51609 1.96583   7
   1  -5  -5 5.59020 2.77799   2
  -1   5  -5 5.24634 1.71290   7
   1  -5  -5 3.03026 1.63075   1
   1  -5  -5 2.02136 1.55043   7
  -1  -5   5 5.81196 1.89878   1
  -1  -5   5 5.89264 1.99874   7
   1   5   5 2.25804 1.63446   6
   1   5   5 5.10593 1.89847   7
  -1   5  -5 2.96018 1.76144   6
   1   5   5 3.94544 1.70792   1
   1  -5  -5 3.78353 1.50165   3
  -1   5  -5 3.27402 1.51036   1
  -2   5   5 1839.68 51.8348   6
   2   5  -5 1697.74 49.9165   7
  -2  -5  -5 1856.23 50.2271   7
   2  -5   5 1829.77 50.2446   4
  -2  -5  -5 1774.51 50.0685   1
   2  -5   5 1886.58 51.8799   2
   2   5  -5 1757.87 50.7715   6
   2  -5   5 1922.45 51.0300   1
   2   5  -5 1832.95 50.0174   1
  -2   5   5 1776.24 50.9454   1
   2   5  -5 1804.19 50.8050   2
   2  -5   5 1721.00 50.8524   7
  -2   5   5 1846.17 51.0395   7
   2   5   5 1868.13 51.1622   7
   2  -5  -5 1854.82 51.0162   2
  -2   5  -5 1799.45 50.7226   6
   2   5   5 1907.55 51.0869   1
   2   5   5 1854.69 50.7156   6
  -2  -5   5 1748.10 50.8039   1
  -2   5  -5 1837.16 50.0928   1
  -2  -5   5 1842.53 51.0174   7
   2  -5  -5 1886.68 50.0730   1
   2   5   5 1821.58 52.0210   2
  -2   5  -5 1752.52 50.0616   7
   2  -5  -5 1816.01 50.3583   3
   2  -5  -5 1752.43 50.0286   7
  -3   5   5 1.01491 1.56607   1
   3  -5   5 1.33447 1.79074   2
   3  -5   5 3.21321 2.65708   3
   3   5  -5 2.98286 1.47329   7
   3   5  -5 1.76383 1.53448   2
   3  -5   5 1.06142 1.61019   5
  -3   5   5 1.14989 1.90227   6
   3   5  -5 2.62851 1.82899   6
  -3  -5  -5 2.89350 1.63039   1
   3  -5   5 5.21007 2.00667   7
   3  -5  -5 2.90321 1.62168   3
  -3  -5   5 3.31875 1.70489   1
   3   5   5 1.35961 1.23283   6
  -3   5  -5 1.76577 1.50655   1
   3  -5  -5 1.44181 1.88060   2
  -3   5  -5 2.30688 1.75531   6
   3  -5  -5 1.71715 1.48622   7
   3   5   5 1.66199 1.67060   7
   3   5   5 2.65908 2.01813   2
   4   5  -5 64.9292 3.67981   7
   4  -5   5 73.0201 4.50434   2
   4  -5   5 68.6836 4.23628   5
   4   5  -5 63.4247 4.06665   2
  -4   5   5 64.3752 4.51767   6
   4  -5   5 79.5515 5.55736   3
   4   5  -5 68.9516 4.30781   6
  -4  -5  -5 69.7102 3.91681   1
   4  -5   5 63.7709 3.90238   7
  -4   5   5 61.9833 3.75979   1
   4  -5  -5 55.1608 3.55597   7
   4  -5  -5 64.3360 5.51255   4
   4  -5  -5 60.7122 4.10887   2
   4  -5  -5 66.8559 4.46930   3
  -4  -5   5 69.9139 3.88210   1
   4   5   5 66.0667 3.89673   7
   4   5   5 63.3352 4.34106   2
  -4   5  -5 67.6016 4.21049   6
  -4   5  -5 58.2451 3.60635   1
  -5   5   5 6.47506 2.49276   6
   5   5  -5 3.76821 1.76804   2
   5   5  -5 6.18465 2.38175   6
   5  -5   5 6.18338 2.28992   2
  -5   5   5 7.28472 1.97887   1
  -5  -5  -5 5.56449 1.85186   1
   5   5  -5 4.97006 1.69366   7
   5  -5   5 4.84754 2.56881   3
   5  -5   5 7.43850 2.36628   5
   5  -5   5 6.71228 2.07799   7
   5  -5  -5 3.36235 2.58984   4
  -5  -5   5 6.14679 1.87470   1
   5  -5  -5 6.15682 2.47959   3
   5  -5  -5 5.45884 1.84291   7
  -5   5  -5 4.50846 1.99605   6
  -5   5  -5 3.24277 1.56852   1
   5   5   5 8.34916 2.02177   7
   5  -5  -5 5.21367 2.06283   2
   5   5   5 4.88199 2.16494   2
  -6   5   5 947.347 27.3655   1
   6   5  -5 956.835 26.8991   7
   6  -5   5 956.370 27.4658   7
  -6   5   5 949.428 29.0954   6
   6  -5   5 959.942 29.8911   3
  -6  -5  -5 942.625 26.9617   1
   6   5  -5 935.536 27.6382   2
   6  -5   5 954.005 28.3317   2
   6  -5   5 952.732 28.6622   5
   6   5   5 957.261 28.5846   2
   6  -5  -5 903.872 26.5408   7
   6  -5  -5 928.485 29.2114   3
  -6  -5   5 956.771 27.4159   1
   6  -5  -5 930.973 30.2709   4
   6  -5  -5 919.371 26.6242   7
   6   5   5 923.587 27.3368   7
  -6   5  -5 940.462 26.9357   1
   6  -5  -5 936.961 27.7137   2
  -6   5  -5 921.407 27.7651   6
  -7   5   5 0.43655 2.05070   6
  -7   5   5 1.81584 1.66966   1
   7  -5   5 -0.7837 1.55569   7
   7  -5   5 2.91264 2.71184   3
   7  -5   5 0.96780 2.40633   5
   7   5  -5 1.20021 1.49955   7
  -7  -5  -5 0.67453 1.71094   1
   7  -5   5 0.36544 1.98379   2
   7   5  -5 0.68977 1.56011   2
   7   5   5 1.46634 1.93311   2
   7  -5  -5 2.28110 1.97993   2
  -7  -5   5 2.09321 1.74168   1
   7  -5  -5 1.47486 2.50052   3
   7  -5  -5 1.67834 1.43818   7
  -7   5  -5 2.38786 1.57862   1
   7  -5  -5 0.40064 2.41675   4
   7   5   5 2.83957 1.54027   7
  -8   5   5 35.9654 3.78273   6
   8  -5   5 36.5561 4.55774   3
  -8  -5  -5 36.3633 2.85613   1
   8  -5   5 30.0490 3.91134   5
   8  -5   5 34.8749 3.40367   2
   8  -5   5 31.4374 2.65839   7
   8   5  -5 33.4917 3.08989   2
   8  -5  -5 37.3403 3.36734   2
   8   5   5 34.7509 3.48580   2
  -8  -5   5 31.5891 2.85989   1
  -8   5  -5 34.9656 2.81145   1
   8   5   5 38.5362 2.59308   7
   8  -5  -5 43.0040 4.82051   3
   9  -5   5 5.59237 3.31780   3
   9  -5   5 5.84316 2.51647   2
   9   5  -5 3.06016 1.80131   2
   9  -5   5 3.98810 2.98320   5
   9   5   5 1.53735 1.99085   2
   9  -5  -5 3.57443 2.06594   2
   9  -5  -5 6.00882 3.47355   3
  10  -5   5 359.698 12.4812   2
  10  -5   5 361.563 15.0515   3
  10  -5   5 346.516 13.8567   5
  10   5  -5 362.605 12.2354   2
  10   5   5 361.996 12.7681   2
  10  -5  -5 353.475 15.2346   3
  10  -5  -5 352.772 12.3109   2
  11  -5   5 0.69839 2.09430   2
  11  -5   5 5.66298 3.33279   5
  11  -5   5 -0.8943 3.49938   3
  11   5  -5 1.31034 1.79500   2
  11  -5  -5 1.49080 2.05364   2
  11  -5  -5 1.41051 3.30272   3
  11  -5  -5 -2.9876 1.61592   2
  11   5   5 1.86080 2.18036   2
  12  -5  -5 23.9203 5.48474   3
   0   6  -5 5.32985 1.82354   1
   0  -6  -5 1.53135 1.60153   1
   0  -6  -5 3.43699 1.84930   7
   0   6   5 4.37930 1.86146   1
   0   6  -5 2.98220 1.94316   6
   0  -6   5 3.13325 1.83368   1
   0  -6   5 11.9064 2.55243   7
   0   6   5 5.10005 2.05599   6
   0   6   5 3.20077 1.81234   7
   0   6  -5 5.04574 1.87476   7
   1   6  -5 19.1222 2.60412   6
  -1   6   5 18.2823 2.43907   7
  -1  -6  -5 12.3610 2.36466   7
   1   6  -5 17.7824 2.30016   7
   1  -6   5 17.2488 2.44845   1
   1  -6   5 18.4428 2.61740   7
   1   6  -5 23.6590 2.52386   1
  -1  -6  -5 16.5042 2.38176   1
  -1   6   5 10.6443 2.51147   6
  -1   6   5 14.2535 2.28260   1
   1  -6  -5 18.6173 2.43152   7
   1   6   5 18.6427 2.42359   1
   1  -6  -5 17.1435 2.30308   1
   1   6   5 20.1672 2.66922   7
  -1  -6   5 21.2878 2.52261   1
  -1   6  -5 17.0726 2.29984   7
  -1   6  -5 19.3075 2.28618   1
   1  -6  -5 23.8934 2.65425   3
   1   6   5 19.8837 2.47646   6
  -1   6  -5 20.9047 2.79053   6
  -1  -6   5 18.6805 2.57457   7
   2   6  -5 959.897 26.2594   1
  -2  -6  -5 868.445 26.1983   7
   2   6  -5 883.243 26.2038   7
  -2   6   5 873.922 26.0684   1
  -2   6   5 896.860 26.9699   6
   2  -6   5 902.889 26.0949   1
   2  -6   5 871.732 26.0885   7
  -2  -6  -5 888.239 26.2307   1
  -2   6   5 885.897 26.1339   7
   2   6  -5 888.449 26.9255   6
   2  -6   5 872.987 26.3116   4
   2   6   5 909.772 26.0862   1
   2   6   5 903.123 26.2288   7
  -2  -6   5 858.434 25.9278   1
  -2   6  -5 891.673 26.2615   7
   2  -6  -5 865.795 26.1428   7
   2   6   5 877.130 25.7301   6
  -2   6  -5 879.591 26.0496   1
  -2   6  -5 883.987 26.8988   6
   2  -6  -5 862.141 26.6647   3
   2  -6  -5 926.101 26.1606   1
  -2  -6   5 883.720 26.1219   7
  -3  -6  -5 10.2763 2.27715   1
   3  -6   5 15.1043 2.45328   7
  -3   6   5 12.3130 2.34627   1
   3  -6   5 9.37454 2.13513   5
   3   6  -5 9.56965 2.32060   2
   3   6  -5 9.22471 2.06340   7
   3   6  -5 14.3249 2.49345   6
   3  -6   5 8.39635 2.12837   4
  -3   6   5 7.87861 2.63024   6
   3  -6   5 10.3413 2.63510   2
   3  -6   5 8.25982 3.91663   3
   3   6   5 4.59109 2.20438   2
   3  -6  -5 11.3094 2.53138   3
   3  -6  -5 15.8489 2.36225   7
  -3  -6   5 10.5700 2.29136   1
   3  -6  -5 8.35308 2.49150   2
  -3   6  -5 12.6398 2.02206   1
  -3   6  -5 14.4028 2.48086   6
   3   6   5 8.26204 2.10753   7
   4  -6   5 2.67838 3.08771   3
   4  -6   5 4.78936 2.33457   2
  -4   6   5 4.04916 2.49433   6
   4  -6   5 6.40383 2.29066   5
   4   6  -5 7.74914 1.98185   7
  -4  -6  -5 4.38168 1.98530   1
   4   6  -5 5.68819 2.08876   2
  -4   6   5 8.29763 2.15088   1
   4   6  -5 6.09648 2.29543   6
   4  -6   5 5.58293 2.15622   7
   4  -6  -5 5.19621 2.37090   2
   4   6   5 7.97274 2.52332   2
  -4   6  -5 9.04526 2.46012   6
   4  -6  -5 1.27379 3.05176   4
  -4   6  -5 4.89383 1.88718   1
   4  -6  -5 8.41047 2.54610   3
  -4  -6   5 8.26479 2.21907   1
   4  -6  -5 8.07717 2.05854   7
   4   6   5 8.05914 2.07533   7
   5  -6   5 17.9014 2.90043   2
   5  -6   5 19.4079 2.66284   7
   5  -6   5 16.8581 3.14224   5
  -5   6   5 18.3610 2.93086   6
   5   6  -5 19.9264 2.67464   2
   5  -6   5 22.0426 3.90888   3
  -5   6   5 17.8096 2.33667   1
   5   6  -5 21.7834 2.42906   7
  -5  -6  -5 20.6977 2.57327   1
   5  -6  -5 19.9159 2.44730   7
   5   6   5 19.2961 3.00482   2
   5  -6  -5 13.4381 3.11152   3
  -5   6  -5 16.1765 2.28481   1
   5  -6  -5 23.3580 4.11463   4
   5  -6  -5 16.5185 2.81123   2
  -5  -6   5 17.4628 2.44677   1
   5   6   5 18.4293 2.38706   7
  -5   6  -5 20.1478 2.71837   6
   5  -6  -5 21.4608 2.46001   7
   6  -6   5 496.536 16.5946   5
   6  -6   5 507.391 15.6981   7
  -6   6   5 501.247 15.5191   1
   6  -6   5 490.954 16.4340   2
   6   6  -5 493.421 16.0478   2
   6   6  -5 494.562 15.2221   7
   6  -6   5 503.804 18.2269   3
  -6  -6  -5 457.497 15.2069   1
  -6   6   5 481.779 17.0090   6
   6  -6  -5 460.655 14.9442   7
  -6  -6   5 479.091 15.4197   1
   6  -6  -5 470.364 18.5926   4
   6  -6  -5 498.830 16.2132   2
   6  -6  -5 492.840 17.6007   3
   6   6   5 498.922 16.7596   2
  -6   6  -5 497.783 16.1688   6
   6   6   5 487.853 15.4787   7
  -6   6  -5 500.948 15.3165   1
  -7   6   5 5.72407 1.80657   1
   7  -6   5 3.71348 2.07065   7
   7  -6   5 4.09597 2.60397   5
  -7  -6  -5 8.86811 2.17459   1
   7   6  -5 5.87286 2.17208   2
   7  -6   5 1.99935 2.92417   3
  -7   6   5 5.60697 2.68562   6
   7  -6   5 3.47093 2.35779   2
   7   6  -5 4.62009 1.81932   7
  -7  -6   5 6.80633 2.15064   1
   7  -6  -5 4.25078 1.67056   7
   7  -6  -5 0.87415 1.96595   2
   7  -6  -5 2.84735 2.79850   3
   7   6   5 4.34397 1.78814   7
   7   6   5 3.58410 2.16390   2
  -7   6  -5 4.39598 1.85400   1
   7  -6  -5 5.26243 3.39151   4
   8   6  -5 7.79150 2.34459   2
   8  -6   5 7.72299 3.79076   3
   8  -6   5 7.26104 2.19332   7
   8   6  -5 6.49962 1.86209   7
   8  -6   5 8.25150 2.98825   5
  -8   6   5 7.38887 2.07426   1
   8  -6   5 9.24267 2.75821   2
  -8   6   5 9.18053 3.19871   6
  -8  -6  -5 8.91300 2.31912   1
   8   6   5 6.78921 2.61996   2
   8  -6  -5 0.18109 2.79753   3
  -8  -6   5 5.70510 2.12630   1
  -8   6  -5 7.18178 2.03538   1
   8  -6  -5 5.61102 2.51072   2
   8   6   5 5.96366 1.80360   7
   8  -6  -5 7.59415 3.75517   4
   9  -6   5 14.2471 3.42774   5
   9  -6   5 9.89438 3.63458   3
   9   6  -5 13.5620 2.43795   2
   9  -6   5 10.5153 2.71883   2
   9   6   5 16.5449 2.87533   2
   9  -6  -5 11.0439 2.73966   2
   9  -6  -5 12.4050 4.03936   3
  10  -6   5 201.936 10.6684   3
  10  -6   5 196.579 9.59045   5
  10   6  -5 198.642 8.19736   2
  10  -6   5 201.345 8.28424   2
  10  -6  -5 196.520 8.22244   2
  10  -6  -5 204.435 8.22333   2
  10   6   5 191.138 8.38824   2
  10  -6  -5 211.669 10.9923   3
  11   6  -5 3.68503 2.52078   2
  11  -6   5 1.76270 3.37265   3
  11  -6   5 0.86337 2.58025   2
  11  -6   5 -0.7290 2.96532   5
  11   6   5 5.52328 2.50654   2
  11  -6  -5 3.23039 3.26978   2
  11  -6  -5 2.45174 3.28063   3
  12  -6  -5 0.48496 4.91598   3
   0   7  -5 213.912 8.16618   1
   0   7   5 208.341 8.47192   6
   0   7   5 212.462 8.27125   1
   0  -7  -5 211.770 8.28736   7
   0   7   5 217.847 8.37387   7
   0  -7   5 211.793 8.22538   1
   0  -7   5 206.739 8.33446   7
   0   7  -5 208.607 8.16451   7
   0  -7  -5 215.121 8.24593   1
   0   7  -5 202.653 8.64989   6
  -1   7   5 23.6370 2.95821   6
   1   7  -5 22.9639 2.57768   7
  -1  -7  -5 26.0741 2.83933   7
  -1  -7  -5 27.4245 2.91430   1
  -1   7   5 23.4439 2.76405   1
   1   7  -5 25.7007 3.00695   6
   1  -7   5 27.6652 3.03356   1
   1   7  -5 21.6713 2.48677   1
  -1   7   5 26.8230 2.82622   7
   1  -7   5 25.1792 2.97146   7
   1  -7  -5 26.9856 3.04856   3
  -1   7  -5 27.1004 2.66240   1
  -1   7  -5 26.2753 2.65671   7
  -1  -7   5 34.8771 3.23145   7
  -1   7  -5 28.2549 3.13264   6
   1   7   5 18.9632 2.52477   6
   1   7   5 21.8169 2.61735   1
   1  -7  -5 22.2509 2.70781   7
   1   7   5 29.0398 3.03856   7
   1  -7  -5 26.5007 2.81840   1
  -1  -7   5 26.7998 2.81925   1
  -2   7   5 3.24377 1.94401   1
   2   7  -5 -0.1869 1.46696   7
  -2  -7  -5 0.89912 1.73638   7
  -2  -7  -5 1.49061 1.80892   1
   2   7  -5 1.56961 1.86829   6
   2  -7   5 1.77108 1.87995   1
   2  -7   5 2.96260 2.03341   7
  -2   7   5 2.40687 1.65335   7
   2   7  -5 3.88549 1.80304   1
  -2   7   5 1.80609 2.09076   6
  -2   7  -5 0.63090 1.38311   7
   2  -7  -5 2.36071 1.63038   1
   2   7   5 3.30632 1.95293   1
  -2  -7   5 3.11640 2.09200   7
   2  -7  -5 1.17786 1.72610   3
  -2  -7   5 1.24913 1.97469   1
   2  -7  -5 2.65001 1.80100   7
   2   7   5 4.05746 1.94793   7
  -2   7  -5 0.84431 1.58627   1
   2   7   5 2.16682 1.51721   6
  -2   7  -5 1.23702 1.91174   6
   3   7  -5 26.1474 2.74884   7
  -3  -7  -5 21.5179 2.65446   1
   3  -7   5 25.1187 2.93827   7
  -3   7   5 29.4540 3.32585   6
   3  -7   5 14.8620 5.53521   3
  -3   7   5 26.3749 2.88446   1
   3   7  -5 22.1109 2.90732   6
   3  -7  -5 31.7786 3.01095   7
   3  -7  -5 20.9949 2.96334   3
  -3  -7   5 27.5416 2.93918   1
  -3   7  -5 28.1672 2.72331   1
   3   7   5 21.0480 2.65727   7
  -3   7  -5 28.8231 3.17073   6
  -4   7   5 142.923 7.45515   6
  -4   7   5 157.071 6.71668   1
  -4  -7  -5 150.953 6.61752   1
   4   7  -5 159.769 7.51683   2
   4  -7   5 159.237 7.01787   5
   4  -7   5 164.807 9.82634   3
   4   7  -5 159.910 7.28277   6
   4   7  -5 147.325 6.54704   7
   4  -7   5 153.290 6.74942   7
   4  -7   5 156.255 7.06855   4
  -4   7  -5 164.021 6.67701   1
   4  -7  -5 153.427 7.30282   2
   4  -7  -5 149.447 6.56435   7
   4  -7  -5 155.629 7.72107   3
  -4   7  -5 153.124 7.13234   6
  -4  -7   5 162.741 6.77171   1
   4   7   5 168.473 6.89294   7
   4  -7  -5 146.868 6.51919   7
   4  -7  -5 159.361 7.36337   2
   4  -7  -5 179.048 11.6636   4
   5   7  -5 21.5209 2.54358   7
  -5   7   5 16.8574 2.95943   6
   5   7  -5 17.0709 2.72894   2
   5  -7   5 21.2636 3.16668   2
  -5  -7  -5 15.5228 2.42210   1
   5  -7   5 14.3216 3.02713   5
   5  -7   5 10.9021 3.79939   3
   5  -7   5 19.3706 2.69570   7
  -5   7   5 16.1022 2.39249   1
  -5   7  -5 13.8656 2.90386   6
   5   7   5 20.7635 2.58772   7
  -5  -7   5 19.1084 2.64299   1
   5  -7  -5 12.9928 3.04172   2
   5  -7  -5 10.6622 2.98689   3
   5  -7  -5 16.1907 2.57288   7
   5  -7  -5 20.7332 2.64628   7
   5  -7  -5 13.9506 4.48464   4
  -5   7  -5 17.5799 2.38942   1
   5   7   5 13.0975 3.04246   2
   6  -7   5 -0.2953 2.61215   3
   6   7  -5 1.46471 1.63301   7
   6  -7   5 -0.2015 2.04452   2
  -6   7   5 0.86460 1.64854   1
  -6   7   5 1.42645 2.37279   6
  -6  -7  -5 1.38701 1.75342   1
   6   7  -5 -2.4507 1.44563   2
   6  -7   5 -0.2992 1.94768   7
   6  -7   5 -1.1571 1.97113   5
   6   7   5 0.24546 2.13004   2
  -6   7  -5 0.25427 1.81374   6
  -6  -7   5 0.19824 1.67372   1
   6  -7  -5 -0.7897 1.62524   7
   6   7   5 1.91788 1.72375   7
   6  -7  -5 -1.5469 2.48063   4
  -6   7  -5 0.30730 1.52319   1
   6  -7  -5 1.15957 2.18308   2
   6  -7  -5 1.52637 2.41754   3
  -7   7   5 20.4273 2.45246   1
   7  -7   5 18.4214 4.37940   3
   7  -7   5 20.6357 2.84786   7
  -7   7   5 15.3276 3.49786   6
   7   7  -5 19.8068 2.79275   2
  -7  -7  -5 21.1658 2.73398   1
   7   7  -5 22.4565 2.48501   7
   7  -7   5 18.9970 3.21327   2
   7  -7   5 17.8215 3.52020   5
   7   7   5 13.8225 3.09979   2
  -7  -7   5 18.6995 2.66467   1
   7  -7  -5 18.8827 4.82089   4
   7  -7  -5 15.9254 3.80797   3
   7   7   5 20.9715 2.45996   7
   7  -7  -5 21.6835 2.45781   7
  -7   7  -5 11.2611 2.35585   1
   7  -7  -5 17.8161 2.99333   2
   7  -7  -5 16.3693 2.75822   2
   8  -7   5 92.4700 5.53712   2
  -8   7   5 85.8827 4.51072   1
  -8  -7  -5 83.2896 4.54062   1
   8   7  -5 91.7659 4.32490   7
   8  -7   5 85.9444 5.94875   5
  -8   7   5 84.3325 5.69945   6
   8   7  -5 80.5963 5.01652   2
   8  -7   5 90.6353 4.74420   7
   8  -7   5 86.5736 7.07949   3
  -8  -7   5 96.1274 4.90085   1
   8  -7  -5 85.5795 5.25458   2
   8  -7  -5 91.6949 6.74361   3
   8  -7  -5 84.1525 7.35152   4
   8  -7  -5 86.2471 4.08603   7
   8   7   5 86.6279 4.32712   7
   8  -7  -5 87.2396 5.17632   2
  -8   7  -5 84.7031 4.50266   1
   8   7   5 89.4875 5.53830   2
   9  -7   5 10.1251 2.87805   2
   9   7  -5 7.29867 2.38819   2
   9  -7   5 2.78188 3.28048   3
   9  -7   5 4.12211 3.15180   5
   9  -7  -5 5.65025 3.48544   3
   9  -7  -5 8.36346 2.78157   2
   9   7   5 7.24070 2.63226   2
   9  -7  -5 11.8554 2.85398   2
  10   7  -5 0.58096 1.78564   2
  10  -7   5 2.80041 3.04114   5
  10  -7   5 -1.2158 2.98863   3
  10  -7   5 1.78215 2.29049   2
  10  -7  -5 -0.2069 2.14417   2
  10  -7  -5 0.52600 3.15032   3
  10   7   5 -0.1359 2.11085   2
  11  -7   5 7.04716 3.73075   5
  11  -7   5 8.78449 4.27572   3
  11  -7  -5 9.83703 4.14521   3
   0   8   5 46.1823 3.73472   6
   0   8  -5 49.2910 3.60065   7
   0  -8  -5 50.3623 3.69801   1
   0   8   5 44.8421 3.54124   1
   0  -8   5 44.8538 3.66528   7
   0   8  -5 41.1918 3.81706   6
   0   8  -5 47.8265 3.48027   1
   0   8   5 48.6492 3.67307   7
   0  -8  -5 47.5475 3.71280   7
   0  -8   5 47.6911 3.65378   1
  -1   8   5 30.3448 3.03610   7
  -1  -8  -5 18.9168 2.67485   7
   1  -8   5 22.6147 2.86909   1
   1   8  -5 25.0833 2.65975   1
  -1   8   5 25.4454 3.10487   6
   1   8  -5 22.3184 2.60662   7
   1   8  -5 20.8225 2.88032   6
  -1   8   5 20.7450 2.79676   1
  -1  -8  -5 21.9802 2.78594   1
   1  -8   5 27.2521 3.12497   7
  -1  -8   5 26.4804 3.04829   7
   1   8   5 21.2273 2.79867   7
  -1   8  -5 19.4465 2.89897   6
   1  -8  -5 23.8118 2.74524   1
  -1  -8   5 27.4257 3.03154   1
  -1   8  -5 21.9131 2.60289   1
   1   8   5 24.4962 2.81634   1
   1  -8  -5 21.3569 3.01509   3
  -1   8  -5 20.7566 2.54034   7
   1  -8  -5 24.6425 2.84680   7
   1   8   5 22.4977 2.74787   6
   2  -8   5 114.411 5.52586   1
  -2   8   5 106.608 5.40769   1
  -2  -8  -5 99.6805 5.22295   7
   2   8  -5 101.427 5.65591   6
  -2   8   5 93.8632 5.72012   6
   2  -8   5 107.042 5.53432   7
   2   8  -5 96.0524 5.09035   1
   2   8  -5 97.3923 5.07313   7
  -2  -8  -5 90.1065 5.08024   1
  -2  -8   5 101.514 6.41095   7
   2   8   5 102.792 5.44139   7
  -2  -8   5 112.235 5.47376   1
   2  -8  -5 99.7284 5.23564   7
   2   8   5 99.0127 5.04070   6
   2  -8  -5 107.750 5.34747   7
  -2   8  -5 97.9856 5.62894   6
  -2   8  -5 105.161 5.33557   7
   2   8   5 109.909 5.40066   1
   2  -8  -5 110.757 5.37976   1
  -2   8  -5 96.0293 5.01462   1
   2  -8  -5 96.2960 5.61930   3
  -3   8   5 27.6581 3.47558   6
   3   8  -5 30.0825 2.98194   7
  -3   8   5 27.7303 3.04795   1
   3  -8   5 29.4821 3.10226   7
   3   8  -5 22.4068 3.02599   6
  -3  -8  -5 28.7965 3.00358   1
   3  -8   5 18.6276 6.65559   3
  -3   8  -5 28.5997 2.88742   1
   3  -8  -5 25.4094 2.79443   7
   3   8   5 22.6296 2.87809   7
  -3  -8   5 25.3559 2.90223   1
  -3   8  -5 24.2120 3.15554   6
   3  -8  -5 22.5988 2.77368   7
   3  -8  -5 21.1974 3.21292   3
   4  -8   5 28.4104 3.15666   7
   4  -8   5 38.1511 3.65580   5
   4   8  -5 28.2695 2.93886   7
  -4   8   5 25.8692 3.37122   6
   4  -8   5 34.4994 6.10609   3
   4   8  -5 25.5959 3.18654   6
  -4  -8  -5 28.9047 2.99092   1
  -4   8   5 25.7279 2.81236   1
   4  -8  -5 28.9110 3.03052   7
  -4   8  -5 20.2179 3.03051   6
  -4   8  -5 27.0284 2.72298   1
   4  -8  -5 32.1015 3.75933   3
   4   8   5 34.4025 3.16306   7
   4  -8  -5 25.0437 2.94491   7
  -4  -8   5 32.6058 3.22149   1
   4  -8  -5 35.8673 9.08755   4
   5  -8   5 15.1953 3.08643   5
   5  -8   5 13.1691 4.56716   3
   5   8  -5 5.86774 1.97906   7
  -5  -8  -5 12.1703 2.60365   1
  -5   8   5 9.91088 2.95470   6
   5  -8   5 9.35013 2.51671   7
  -5   8   5 11.9203 2.45555   1
  -5   8  -5 11.5245 2.36287   1
  -5   8  -5 10.4350 2.61615   6
  -5  -8   5 10.1055 2.48267   1
   5   8   5 11.9290 2.48889   7
   5  -8  -5 20.0412 2.64785   7
   5  -8  -5 14.0657 5.60026   4
   5  -8  -5 10.0898 3.05067   3
  -6   8   5 61.6429 4.93391   6
   6  -8   5 75.4990 6.89461   3
  -6  -8  -5 59.5071 3.99882   1
  -6   8   5 60.6924 3.90673   1
   6   8  -5 62.9000 3.90441   7
   6  -8   5 66.7055 4.96817   5
   6  -8   5 61.0455 4.19134   7
  -6  -8   5 54.6248 3.93130   1
  -6   8  -5 59.9822 4.42790   6
  -6   8  -5 63.9104 3.91604   1
   6  -8  -5 62.1013 6.92952   4
   6  -8  -5 67.6352 4.80303   2
   6   8   5 65.8978 4.17752   7
   6  -8  -5 62.8735 5.36641   3
   6  -8  -5 59.6141 4.56166   2
   6  -8  -5 57.5365 3.84668   7
   7   8  -5 17.6348 2.93866   2
   7  -8   5 19.0668 4.74550   3
  -7   8   5 22.0898 3.23315   6
  -7  -8  -5 21.4088 2.76160   1
   7  -8   5 20.3541 3.39284   2
  -7   8   5 20.6364 2.63451   1
   7   8  -5 19.5920 2.52359   7
   7  -8   5 18.8339 3.74081   5
   7  -8   5 24.1710 3.09174   7
   7  -8  -5 14.0941 4.80977   4
   7  -8  -5 21.0447 2.63732   7
   7  -8  -5 20.1661 3.07027   2
  -7  -8   5 19.0328 2.73965   1
  -7   8  -5 20.0697 2.53285   1
   7  -8  -5 21.5186 3.25446   2
  -7   8  -5 21.5955 3.06878   6
   7  -8  -5 15.8430 3.99215   3
   7   8   5 22.5135 2.63771   7
   8   8  -5 14.8335 3.25373   2
   8  -8   5 11.4846 3.36054   2
  -8   8   5 14.8697 3.72884   6
   8  -8   5 8.70783 3.43089   5
  -8   8   5 16.4500 2.79806   1
   8   8  -5 14.3384 2.24072   7
   8  -8   5 16.2954 2.92533   7
   8  -8   5 13.8271 4.47968   3
  -8  -8  -5 14.3320 2.70744   1
   8  -8  -5 16.8403 4.24684   3
   8  -8  -5 20.0432 3.58263   2
   8   8   5 17.4569 2.65172   7
  -8   8  -5 13.2776 2.62171   1
   8  -8  -5 13.3531 4.69272   4
   8  -8  -5 18.5515 2.66169   7
   8   8   5 9.25989 3.06883   2
  -8  -8   5 17.9723 3.11593   1
   9  -8   5 5.44416 2.83747   2
  -9  -8  -5 5.78624 2.27680   1
   9   8  -5 1.69099 1.98146   2
   9  -8   5 2.22405 3.01513   5
   9  -8   5 9.49490 4.16283   3
   9   8   5 5.89271 2.71384   2
   9  -8  -5 5.89870 2.67699   2
   9  -8  -5 3.46805 3.17701   3
  10  -8   5 27.4754 3.59662   2
  10  -8   5 32.7760 4.45901   5
  10  -8   5 34.9769 6.27372   3
  10   8  -5 25.0497 3.17362   2
  10  -8  -5 31.8261 5.05634   3
  10  -8  -5 26.8299 3.45469   2
  10   8   5 28.7544 3.62921   2
  11  -8   5 8.43827 4.14739   3
  11  -8   5 10.3370 3.90445   5
  11  -8  -5 5.19609 3.98432   3
   0   9   5 688.651 21.5484   1
   0   9   5 691.478 21.8333   6
   0   9  -5 690.500 21.4805   7
   0   9   5 739.615 21.8316   7
   0  -9   5 671.973 21.4723   1
   0  -9  -5 731.102 21.7545   7
   0   9  -5 711.376 21.4884   1
   0  -9   5 686.192 21.5675   7
   0  -9  -5 653.798 21.4280   1
   0   9  -5 678.514 22.2005   6
   0  -9  -5 715.021 21.7687   7
  -1  -9  -5 17.0817 2.70354   7
   1   9  -5 22.4689 2.79430   1
   1   9  -5 23.2361 2.78309   7
  -1   9   5 15.5514 2.90225   7
  -1   9   5 18.2674 3.08208   6
   1   9  -5 13.6274 2.99550   6
   1  -9   5 14.1077 2.85306   1
   1  -9   5 22.7181 3.00698   7
  -1  -9  -5 17.2375 2.70552   1
  -1   9   5 11.5355 2.61815   1
  -1  -9  -5 19.6702 2.94464   7
  -1  -9   5 18.6934 2.93856   7
   1  -9  -5 17.2210 2.78413   7
   1  -9  -5 13.5508 3.02252   3
   1  -9  -5 14.9482 2.83276   7
  -1  -9   5 17.7183 2.76848   1
  -1   9  -5 20.0009 2.56061   7
   1   9   5 20.7311 2.96131   7
  -1   9  -5 21.4174 3.14499   6
   1   9   5 20.1478 2.70505   6
  -1   9  -5 15.0594 2.44391   1
   1  -9  -5 21.6643 2.91813   1
   1   9   5 13.9173 2.70807   1
   2  -9   5 265.283 10.0744   1
   2   9  -5 246.380 9.46813   7
  -2   9   5 253.826 10.4647   6
  -2  -9  -5 237.623 9.42065   1
  -2   9   5 269.517 9.88266   1
   2  -9   5 255.661 9.85111   7
   2   9  -5 260.868 10.2877   1
   2   9  -5 246.916 10.0095   6
  -2   9  -5 252.911 10.2029   6
   2   9   5 265.680 9.77407   1
   2  -9  -5 245.257 9.50511   7
  -2   9  -5 237.950 9.29924   1
  -2  -9   5 245.272 9.68589   1
  -2  -9   5 255.064 9.93516   1
   2   9   5 230.102 9.61599   7
   2  -9  -5 248.526 10.3075   3
   2   9   5 269.065 10.4179   6
   2  -9  -5 251.666 9.54279   7
   3  -9   5 12.8518 2.85743   7
   3   9  -5 16.9131 2.86441   6
   3   9  -5 15.9608 2.43482   7
  -3   9   5 18.9137 2.85999   1
  -3  -9  -5 22.6074 2.93737   1
  -3   9   5 18.4442 3.26359   6
   3  -9   5 12.1288 7.39669   3
   3   9   5 22.9627 2.96070   7
  -3  -9   5 21.4306 2.98189   1
  -3   9  -5 22.2553 2.75086   1
   3  -9  -5 21.2579 2.96204   7
  -3  -9   5 30.0575 3.50795   1
  -3   9  -5 23.4945 3.08138   6
   3  -9  -5 18.4759 3.22025   3
  -4  -9  -5 553.577 17.2460   1
   4  -9   5 529.229 17.4065   7
  -4   9   5 537.770 17.3472   1
   4  -9   5 552.165 24.8383   3
  -4   9   5 545.429 18.5217   6
   4   9  -5 561.850 17.2720   7
  -4   9  -5 520.885 16.9392   1
  -4  -9   5 551.829 17.4133   1
  -4   9  -5 535.027 17.9778   6
   4  -9  -5 483.676 16.8773   7
   4  -9  -5 542.672 18.6723   3
   4   9   5 537.369 17.4792   7
  -5  -9  -5 8.34968 2.55740   1
   5  -9   5 11.2659 2.82805   5
   5  -9   5 15.0284 5.79333   3
   5   9  -5 8.45271 2.36155   7
   5  -9   5 9.20246 2.69772   7
  -5   9   5 11.8451 3.20922   6
  -5   9   5 7.06857 2.22208   1
  -5  -9   5 13.7069 2.81667   1
  -5   9  -5 8.76263 2.21412   1
   5  -9  -5 8.72063 2.43937   7
   5  -9  -5 7.88499 2.92815   3
   5  -9  -5 7.55552 5.41074   4
   5   9   5 5.08759 2.16100   7
  -5   9  -5 10.8406 2.79012   6
  -6   9   5 148.322 7.67781   6
  -6   9   5 144.440 6.41040   1
   6  -9   5 141.603 7.28709   5
   6  -9   5 137.150 6.51189   7
   6   9  -5 130.266 6.08184   7
   6  -9   5 140.643 10.0120   3
  -6  -9  -5 130.941 6.24640   1
   6  -9  -5 125.569 5.99068   7
  -6   9  -5 128.319 6.76533   6
   6  -9  -5 134.962 10.8369   4
  -6  -9   5 136.029 6.44547   1
   6   9   5 133.275 6.33881   7
   6  -9  -5 138.010 7.96565   3
  -6   9  -5 128.656 5.98800   1
  -7   9   5 12.1413 3.33274   6
   7  -9   5 13.7989 4.73877   3
   7  -9   5 12.6431 2.80078   7
  -7  -9  -5 19.2248 2.81813   1
  -7   9   5 12.6041 2.51636   1
   7   9  -5 15.8347 2.40761   7
   7  -9   5 12.0904 3.25252   5
   7  -9  -5 11.8232 5.31029   4
  -7  -9   5 12.8970 2.87842   1
   7  -9  -5 19.3270 4.41903   3
  -7   9  -5 15.6126 2.53201   1
   7   9   5 12.9720 2.51576   7
  -7   9  -5 10.4881 2.96930   6
   7  -9  -5 15.8853 2.60858   7
   8   9  -5 287.938 10.2595   7
   8  -9   5 304.329 10.8097   7
   8  -9   5 306.994 14.8780   3
   8  -9   5 288.343 12.0712   5
  -8  -9  -5 290.242 10.5722   1
  -8   9   5 293.568 10.6324   1
  -8   9   5 309.599 12.4077   6
   8  -9  -5 336.915 16.5247   4
  -8   9  -5 277.106 10.4075   1
   8   9   5 299.923 10.5904   7
   8  -9  -5 285.511 10.1129   7
  -8  -9   5 316.716 10.9420   1
   8  -9  -5 290.385 13.2255   3
   8  -9  -5 355.983 15.3937   5
  -9  -9  -5 5.91327 2.33175   1
   9  -9   5 5.54794 4.06227   3
   9  -9   5 5.86340 3.18193   5
   9  -9  -5 3.42204 4.22398   4
   9  -9  -5 5.30687 3.49505   3
   9  -9  -5 1.59818 2.46354   2
  -9   9  -5 3.19670 1.95300   1
  -9  -9   5 4.27484 2.51665   1
  10  -9   5 42.4627 6.12981   3
  10  -9   5 58.6404 5.45773   5
  10  -9  -5 56.8401 6.13430   3
  10  -9  -5 56.6730 4.69874   2
  11  -9   5 9.33514 4.68617   3
  11  -9  -5 3.45320 3.99745   3
   0  10  -5 642.466 19.6582   7
   0 -10   5 625.226 19.6386   1
   0 -10   5 636.298 19.8131   7
   0  10  -5 625.903 19.5450   1
   0  10   5 620.228 19.9471   6
   0  10   5 625.246 19.8487   7
   0  10   5 579.727 19.4476   1
   0 -10  -5 565.127 19.3354   1
   0 -10  -5 630.144 19.8088   7
   0  10  -5 622.454 20.3791   6
  -1  10   5 11.1219 2.61557   1
  -1  10   5 13.9114 3.18035   6
   1  10  -5 9.38171 2.36572   7
   1  10  -5 9.29952 2.78464   6
   1  10  -5 15.7898 2.56320   1
  -1 -10  -5 14.8786 3.13345   7
  -1 -10  -5 12.6391 2.81660   1
   1 -10   5 14.4912 2.95785   1
  -1  10   5 12.6107 2.83082   7
   1 -10   5 17.6396 3.31870   7
   1 -10  -5 11.9164 2.75339   1
  -1 -10   5 15.4750 3.14666   7
  -1  10  -5 11.5430 2.48914   7
   1 -10  -5 14.6234 3.34482   3
  -1  10  -5 9.10968 2.40297   1
   1  10   5 15.9454 2.67034   6
  -1 -10   5 14.2969 2.99494   1
   1  10   5 19.2723 2.84271   1
   1  10   5 15.8783 2.99220   7
  -1  10  -5 13.4259 3.04663   6
   1 -10  -5 16.5652 3.11837   7
   2 -10   5 323.981 11.8897   7
  -2  10   5 328.039 11.8697   1
  -2 -10  -5 303.025 11.3618   1
   2  10  -5 321.950 12.0075   6
   2  10  -5 311.222 11.3669   7
  -2  10   5 330.474 12.5252   6
  -2  10  -5 319.438 11.3345   1
  -2 -10   5 345.673 12.1903   1
  -2 -10   5 309.927 11.6857   1
   2  10   5 308.097 11.7607   7
   2 -10  -5 299.918 12.2891   3
  -2  10  -5 304.961 12.0924   6
   2 -10  -5 328.236 11.5891   7
   3 -10   5 11.8971 3.02282   7
  -3 -10  -5 11.2481 2.69318   1
   3  10  -5 12.6060 2.56557   7
  -3  10   5 10.2190 3.07367   6
   3 -10   5 11.1347 9.14523   3
   3  10  -5 15.8259 2.79855   6
  -3  10   5 10.3553 2.64822   1
  -3  10  -5 9.16814 2.86658   6
  -3 -10   5 14.4954 3.09672   1
   3 -10  -5 6.90220 2.71019   3
   3 -10  -5 14.5686 2.88209   7
  -3 -10   5 11.0854 3.01995   1
  -3  10  -5 11.2169 2.56706   1
   3  10   5 10.0329 2.56272   7
  -4 -10  -5 474.583 15.3573   1
   4 -10   5 420.366 24.0188   3
  -4  10   5 489.685 15.7985   1
   4 -10   5 482.773 15.9391   7
  -4  10   5 466.540 16.8452   6
   4  10  -5 458.290 15.2889   7
  -4  10  -5 447.294 15.0815   1
  -4 -10   5 482.099 15.8271   1
   4  10   5 453.123 15.7291   7
  -4  10  -5 448.810 16.0759   6
   4 -10  -5 472.815 16.8743   3
   4 -10  -5 449.344 15.2288   7
  -4 -10   5 499.776 16.1117   1
   5  10  -5 9.63080 2.31552   7
  -5 -10  -5 12.6567 2.75264   1
  -5  10   5 15.5709 3.46293   6
   5 -10   5 11.1463 2.90117   7
   5 -10   5 13.0549 6.20496   3
   5 -10   5 15.5582 3.32085   5
  -5  10   5 6.81008 2.31394   1
  -5  10  -5 5.42957 2.02426   1
   5 -10  -5 7.19514 6.77399   4
   5  10   5 12.6582 2.66945   7
  -5  10  -5 11.9777 2.89159   6
   5 -10  -5 12.9965 2.83526   7
  -5 -10   5 10.6904 2.63763   1
   5 -10  -5 8.63144 3.12565   3
  -6  10   5 208.038 9.56576   6
   6 -10   5 219.767 9.24266   5
   6 -10   5 210.011 13.4289   3
  -6  10   5 202.672 8.22959   1
  -6 -10  -5 197.265 8.29787   1
   6  10  -5 205.382 8.24507   7
   6 -10   5 194.202 8.21018   7
   6  10   5 188.545 8.13279   7
   6 -10  -5 215.147 14.9413   4
  -6  10  -5 192.107 8.09226   1
  -6  10  -5 217.535 9.30638   6
   6 -10  -5 197.464 8.14425   7
  -6 -10   5 198.538 8.27840   1
   6 -10  -5 207.074 10.1504   3
  -7  10   5 4.97848 2.90119   6
   7 -10   5 6.50273 4.90051   3
   7  10  -5 7.57118 2.25498   7
  -7  10   5 5.10710 2.13357   1
   7 -10   5 4.25291 3.02002   5
  -7 -10  -5 5.90890 2.57844   1
   7 -10   5 5.32413 2.48999   7
  -7  10  -5 9.16230 2.30654   1
   7 -10  -5 7.88806 5.46266   4
   7  10   5 4.70504 2.10236   7
   7 -10  -5 4.67165 2.35536   7
  -7 -10   5 6.16263 2.56758   1
  -7  10  -5 3.33401 2.42671   6
   7 -10  -5 5.54935 3.37612   3
   8 -10   5 211.663 10.0059   5
   8 -10   5 240.487 13.5044   3
   8 -10   5 238.130 9.03026   7
  -8  10   5 225.677 8.82008   1
   8  10  -5 228.378 8.65550   7
  -8 -10  -5 228.804 8.93974   1
   8 -10  -5 236.748 11.6258   3
   8 -10  -5 222.435 8.51695   7
  -8 -10   5 232.642 9.01409   1
   8  10   5 231.301 8.84791   7
   8 -10  -5 243.851 15.0371   4
  -8  10  -5 220.048 8.84197   1
   8 -10  -5 255.251 13.2527   5
  -9 -10  -5 8.83535 2.61501   1
  -9  10   5 4.93240 2.23291   1
   9 -10   5 7.66993 3.38348   5
   9 -10   5 3.61181 4.25645   3
  -9  10  -5 6.06508 2.16538   1
  -9 -10   5 11.4225 2.89043   1
   9  10   5 6.94316 2.51939   7
   9 -10  -5 7.18652 3.59556   3
  10 -10   5 103.375 9.02172   3
  10 -10   5 95.0807 6.59957   5
  10 -10  -5 94.6394 7.69720   3
   0  11   5 260.357 9.86156   1
   0  11   5 232.357 9.69896   7
   0  11   5 250.018 10.0281   6
   0 -11  -5 258.901 9.88726   1
   0  11  -5 245.576 9.58103   1
   0 -11   5 237.588 9.67055   1
   0  11  -5 242.598 9.59044   7
   0 -11  -5 224.491 9.57375   7
   0 -11   5 227.384 9.64137   7
   0  11  -5 238.070 10.2599   6
   1  11  -5 -0.9506 1.96607   6
  -1 -11  -5 1.04935 2.23300   1
   1  11  -5 1.78365 1.86392   7
  -1 -11  -5 3.81032 2.57624   7
   1 -11   5 1.00027 2.56957   7
   1  11  -5 2.73636 2.06919   1
   1 -11   5 0.95888 2.42274   1
  -1  11   5 2.29338 2.46253   6
  -1  11   5 -1.3125 1.87260   1
  -1 -11   5 2.57735 2.47853   1
  -1  11  -5 1.48013 2.00074   7
   1  11   5 0.97971 2.07138   7
   1 -11  -5 -0.9173 2.04548   1
  -1 -11   5 6.70944 2.76836   7
  -1  11  -5 2.26672 2.29195   6
  -1 -11   5 0.59489 2.52065   1
  -1  11  -5 3.14773 2.10876   1
   1  11   5 4.01713 2.31489   1
   1  11   5 0.29169 1.96045   6
   1 -11  -5 3.46452 2.37008   7
   1 -11  -5 1.31793 2.50538   3
   2 -11   5 72.2442 4.94576   7
   2  11  -5 74.7620 4.68157   7
   2  11  -5 71.8116 4.95642   6
  -2  11   5 67.3798 4.59437   1
  -2 -11  -5 62.1494 4.58070   1
  -2  11   5 68.8710 5.08240   6
   2 -11  -5 67.4687 5.35687   3
   2 -11  -5 66.0772 4.63344   7
  -2 -11   5 76.1259 4.99241   1
   2  11   5 66.6042 4.66075   7
  -2 -11   5 57.9719 4.78150   1
  -2  11  -5 63.7776 4.36681   1
  -2  11  -5 62.3180 4.93454   6
   3  11  -5 -2.2812 1.78786   6
  -3  11   5 -0.4500 1.94094   1
  -3 -11  -5 2.98299 2.49232   1
   3  11  -5 1.05187 1.93219   7
   3 -11   5 0.88672 2.30012   7
   3 -11   5 4.30493 6.14525   3
  -3  11   5 -0.3504 2.19493   6
  -3  11  -5 -0.5342 1.88734   1
  -3 -11   5 4.30663 2.82323   1
  -3  11  -5 2.16973 2.28922   6
   3  11   5 4.42266 2.23968   7
   3 -11  -5 -0.3818 2.11350   3
  -3 -11   5 4.58739 2.66299   1
   3 -11  -5 1.38996 2.36950   7
  -4  11   5 191.210 9.05443   6
   4 -11   5 187.231 8.27713   7
  -4 -11  -5 172.436 7.91759   1
   4 -11   5 179.731 17.0521   3
  -4  11   5 182.399 8.01243   1
   4  11  -5 187.271 7.95628   7
  -4 -11   5 182.035 8.19547   1
   4 -11  -5 184.714 7.90760   7
  -4  11  -5 169.161 7.65001   1
  -4 -11   5 192.860 8.45959   1
  -4  11  -5 192.392 8.70401   6
   4  11   5 189.851 8.19094   7
   4 -11  -5 176.844 9.03417   3
   5  11  -5 6.23889 2.29744   7
  -5  11   5 1.52692 1.99414   1
   5 -11   5 -3.2099 5.74184   3
   5 -11   5 3.19944 2.62634   5
  -5 -11  -5 3.66698 2.34436   1
  -5  11   5 -0.3748 2.17521   6
   5 -11   5 4.21761 2.62279   7
   5 -11  -5 1.86768 2.20001   7
   5 -11  -5 -3.5045 7.02937   4
  -5 -11   5 0.99596 2.24682   1
  -5  11  -5 2.69963 2.37253   6
  -5  11  -5 -0.8667 1.80818   1
   5 -11  -5 4.15255 2.80634   3
   5  11   5 2.68199 2.01618   7
   6 -11   5 49.2322 4.47685   5
  -6  11   5 45.7606 4.55992   6
   6  11  -5 53.2407 3.99894   7
   6 -11   5 68.1290 9.13226   3
  -6  11   5 44.4100 3.80672   1
  -6 -11  -5 49.5071 4.11497   1
   6 -11   5 47.9379 4.17051   7
  -6  11  -5 51.7958 3.87571   1
  -6 -11   5 56.3240 4.24850   1
   6 -11  -5 52.0792 3.96888   7
   6 -11  -5 44.3119 5.09176   3
   6  11   5 47.9816 3.87435   7
   6 -11  -5 64.0818 12.5515   4
  -6  11  -5 47.4848 4.37930   6
   7 -11   5 -2.3683 4.10391   3
  -7  11   5 0.72999 1.89141   1
   7 -11   5 2.59817 2.43685   7
   7  11  -5 -0.0835 1.71702   7
   7 -11   5 1.64498 2.78354   5
  -7 -11  -5 6.19064 2.47724   1
   7 -11  -5 0.08086 2.06966   7
  -7 -11   5 -2.0972 2.06843   1
   7 -11  -5 1.14653 2.75105   3
   7 -11  -5 2.59692 5.74153   4
   7  11   5 -0.2134 1.79501   7
  -7  11  -5 0.01118 1.79176   1
  -7  11  -5 -0.0758 2.25446   6
   8  11  -5 110.239 5.46303   7
   8 -11   5 110.216 5.76124   7
  -8  11   5 115.150 5.73269   1
  -8 -11  -5 110.612 5.78128   1
   8 -11   5 108.788 10.1181   3
   8 -11   5 116.295 6.95532   5
   8  11   5 108.125 5.61308   7
  -8 -11   5 108.503 5.87981   1
   8 -11  -5 97.1232 11.1183   4
   8 -11  -5 106.575 5.41826   7
  -8  11  -5 106.065 5.60936   1
   8 -11  -5 109.194 7.83875   3
   9 -11   5 7.92583 3.44582   5
  -9 -11  -5 5.54681 2.58273   1
   9 -11   5 2.08808 4.15793   3
  -9  11   5 3.63508 2.00121   1
  -9  11  -5 1.02000 1.94338   1
  -9 -11   5 4.23961 2.65827   1
   9 -11  -5 2.87028 3.33246   3
  10 -11   5 34.0963 6.54282   5
  10 -11   5 33.2152 7.62700   3
  10 -11  -5 31.9129 5.35914   3
   0  12   5 162.009 7.88589   6
   0 -12  -5 147.311 7.32200   1
   0  12  -5 155.939 7.94974   6
   0  12  -5 171.889 7.61090   1
   0  12   5 160.118 7.59481   1
   0  12  -5 170.913 7.58878   7
   0 -12   5 173.871 7.97139   7
   0 -12   5 159.463 7.68045   1
   0  12   5 174.569 7.93083   7
   0 -12  -5 159.282 7.60821   7
   1 -12   5 0.48315 2.51867   7
  -1  12   5 -1.4717 1.90154   1
   1  12  -5 1.27116 2.09514   1
   1 -12   5 0.66791 2.64157   1
  -1 -12  -5 -0.8106 2.18457   1
   1  12  -5 -1.0182 2.03902   6
   1  12  -5 3.28269 2.13608   7
  -1  12   5 1.70118 2.44796   6
  -1 -12  -5 1.40366 2.61842   7
  -1  12  -5 0.23894 1.92077   1
  -1 -12   5 -1.9331 2.38329   1
  -1  12  -5 -0.4478 2.10342   6
   1 -12  -5 1.54715 2.40061   3
   1 -12  -5 0.33706 2.28053   7
  -1 -12   5 1.65016 2.60249   1
   1  12   5 1.47635 2.23007   1
   1  12   5 -1.2163 1.81000   7
   1 -12  -5 -2.4915 3.76776   1
  -2  12   5 359.465 13.1582   1
  -2 -12  -5 402.038 13.3591   1
  -2  12   5 382.109 14.0061   6
   2 -12   5 380.358 13.3902   7
   2  12  -5 365.137 13.6443   6
   2  12  -5 341.474 12.9164   7
   2 -12  -5 373.615 14.5202   3
  -2 -12   5 368.010 13.2607   1
   2 -12  -5 339.711 12.9606   7
  -2  12  -5 359.094 12.9404   1
  -2 -12   5 343.040 13.3440   1
  -2  12  -5 366.489 13.9106   6
   2  12   5 357.976 13.2159   7
   3  12  -5 1.04859 1.95012   7
   3 -12   5 2.22758 2.44261   7
   3 -12   5 -4.3702 4.48823   3
  -3 -12  -5 -2.7187 2.06430   1
  -3  12   5 1.49881 2.44067   6
  -3  12   5 1.03344 2.11545   1
   3 -12  -5 0.66424 2.30910   7
  -3  12  -5 -0.1252 1.89503   1
   3 -12  -5 0.46273 2.40929   3
  -3  12  -5 -0.6510 2.06152   6
  -3 -12   5 3.16227 2.80051   1
   3  12   5 -1.0927 1.89616   7
  -3 -12   5 -4.3321 2.37016   1
  -4  12   5 124.622 6.35684   1
   4  12  -5 112.113 6.11620   7
   4 -12   5 118.012 13.9791   3
   4 -12   5 127.609 6.56881   7
  -4 -12  -5 119.791 6.25200   1
  -4  12   5 125.057 7.09257   6
  -4 -12   5 118.416 6.42085   1
  -4  12  -5 123.075 6.21544   1
   4  12   5 117.100 6.24315   7
   4 -12  -5 117.434 6.17602   7
  -4  12  -5 121.266 6.87487   6
  -4 -12   5 129.673 6.79489   1
   4 -12  -5 127.638 7.60705   3
   5  12  -5 -0.4729 1.71569   7
  -5  12   5 0.94280 2.58104   6
  -5 -12  -5 6.16258 2.65444   1
   5 -12   5 1.60333 2.54828   7
   5 -12   5 -2.5762 6.96007   3
  -5  12   5 -0.1850 1.96655   1
  -5 -12   5 1.05162 2.25183   1
  -5  12  -5 -0.5525 2.22780   6
  -5  12  -5 1.14277 1.89328   1
   5 -12  -5 2.82698 2.80273   3
   5 -12  -5 -2.9731 1.99995   7
   5 -12  -5 -3.9800 8.67118   4
   5  12   5 0.39307 1.84034   7
  -6  12   5 253.477 9.94912   1
   6 -12   5 256.657 10.1713   7
   6  12  -5 266.517 10.2028   7
   6 -12   5 246.118 10.4543   5
  -6 -12  -5 263.825 10.2051   1
   6 -12   5 227.010 17.3255   3
   6 -12  -5 242.321 20.7928   4
   6 -12  -5 275.210 12.3050   3
   6  12   5 256.685 10.0459   7
   6 -12  -5 257.853 10.1635   7
  -6 -12   5 268.966 10.1842   1
  -6  12  -5 253.131 10.0363   1
   7 -12   5 2.19033 3.00662   5
  -7  12   5 2.33578 2.07675   1
   7 -12   5 -0.3990 2.27367   7
  -7 -12  -5 -0.1117 2.28713   1
   7  12  -5 0.95209 1.87371   7
   7 -12   5 -1.5251 5.10576   3
  -7  12  -5 -1.6104 1.76896   1
   7 -12  -5 2.90234 2.50618   7
   7 -12  -5 -0.3789 2.99744   3
  -7 -12   5 0.66481 2.36747   1
   7  12   5 -1.5315 1.74595   7
   7 -12  -5 -1.6235 6.41321   4
  -8 -12  -5 58.7344 4.57659   1
  -8  12   5 67.0868 4.48605   1
   8 -12   5 68.9549 5.53912   5
   8 -12   5 70.9442 9.51874   3
  -8 -12   5 75.4677 4.87824   1
  -8  12  -5 73.6146 4.69640   1
   8 -12  -5 78.4685 6.69631   3
  -9  12   5 1.40191 2.04801   1
   9 -12   5 0.85591 4.77092   3
   9 -12   5 -1.3452 2.90893   5
  -9 -12  -5 2.95662 2.61359   1
  -9  12  -5 -0.9155 1.88723   1
  -9 -12   5 -1.4518 2.31651   1
   9 -12  -5 -0.7238 2.99961   3
   0  13   5 550.202 18.7987   1
   0  13  -5 555.686 18.3649   1
   0  13  -5 548.033 18.4016   7
   0  13   5 580.596 19.1199   7
   0 -13   5 593.345 19.1067   1
   0 -13  -5 547.038 18.4378   1
   0  13   5 581.041 19.4081   6
   0 -13   5 568.333 19.1058   7
   0 -13  -5 563.116 18.5605   7
   0  13  -5 568.987 19.2607   6
   1  13  -5 2.87706 2.54865   6
   1  13  -5 0.97918 1.97467   7
   1 -13   5 -0.1020 2.72157   7
  -1  13   5 0.56827 2.28925   1
  -1 -13  -5 3.66952 2.62517   1
  -1  13   5 6.01637 2.79668   6
   1  13   5 2.52590 2.25551   7
   1 -13  -5 4.94070 2.84230   3
   1  13   5 4.33860 2.27359   1
  -1  13  -5 0.27509 1.99618   1
   1 -13  -5 -0.4893 2.40546   7
  -1 -13   5 4.56245 2.87319   1
  -1  13  -5 1.51222 2.54753   6
  -2  13   5 -0.0601 2.22792   1
   2 -13   5 3.42531 2.71002   7
  -2 -13  -5 1.39319 2.48708   1
   2  13  -5 -1.7759 1.72044   7
   2  13  -5 -0.6135 2.24419   6
  -2  13   5 0.89523 2.48113   6
  -2 -13   5 1.63119 2.87700   1
   2 -13  -5 -0.5249 2.40958   3
  -2 -13   5 0.56072 2.73656   1
  -2  13  -5 -0.2458 2.22549   6
   2  13   5 -2.6644 1.80666   7
   2 -13  -5 -0.9261 2.26514   7
  -2  13  -5 0.60766 1.97957   1
   3  13  -5 3.21128 2.18508   7
   3 -13   5 7.29318 4.94549   3
   3 -13   5 4.30634 2.70823   7
  -3 -13  -5 -0.4069 2.39069   1
  -3  13   5 -0.5624 1.98041   1
  -3  13   5 -1.5343 2.51756   6
  -3 -13   5 0.41642 2.75875   1
   3 -13  -5 3.58540 2.78204   7
   3  13   5 2.66561 2.29388   7
  -3  13  -5 2.25433 2.25742   1
   3 -13  -5 0.24938 2.48985   3
  -3 -13   5 5.61740 2.86385   1
  -3  13  -5 -2.1126 2.13877   6
   4  13  -5 475.668 15.7943   7
  -4  13   5 484.046 17.2033   6
  -4 -13  -5 418.834 15.4716   1
   4 -13   5 475.487 16.2771   7
  -4  13   5 470.769 16.0220   1
   4 -13   5 387.743 22.8055   3
  -4 -13   5 480.624 16.3874   1
  -4  13  -5 466.212 16.7429   6
   4  13   5 472.525 16.0917   7
   4 -13  -5 442.605 15.5288   7
  -4  13  -5 460.054 15.5328   1
  -4 -13   5 468.469 16.0486   1
   4 -13  -5 473.441 17.4685   3
   5 -13   5 -2.9975 6.93641   3
   5  13  -5 1.59977 2.12810   7
   5 -13   5 0.81917 2.65880   7
  -5 -13  -5 5.77236 2.69385   1
  -5  13   5 6.54733 2.37771   1
  -5 -13   5 7.47776 2.83359   1
   5  13   5 7.18242 2.45828   7
   5 -13  -5 3.71632 2.67026   7
   5 -13  -5 -0.8741 2.62248   3
  -5  13  -5 4.52667 2.29432   1
   5 -13  -5 -2.5106 6.54515   4
   6 -13   5 -3.9718 6.41998   3
   6 -13   5 0.77624 2.68621   7
  -6  13   5 -0.0294 2.02880   1
   6  13  -5 1.02533 2.15164   7
   6 -13   5 5.47882 2.97815   5
  -6 -13  -5 0.67948 2.46822   1
   6 -13  -5 -1.6195 2.43761   7
   6 -13  -5 1.06029 8.45632   4
   6 -13  -5 1.22367 2.98223   3
   6  13   5 0.65815 2.07894   7
  -6 -13   5 -0.5032 2.51858   1
  -6  13  -5 2.20405 2.05235   1
  -7  13   5 0.42354 2.03174   1
  -7 -13  -5 2.52394 2.60225   1
   7 -13   5 4.03200 3.13328   5
   7 -13   5 -4.1378 5.76003   3
  -7 -13   5 3.52397 2.60578   1
   7 -13  -5 1.98693 2.97854   3
  -7  13  -5 -0.4230 1.83756   1
   8 -13   5 226.239 17.2288   3
   8 -13   5 271.111 11.4907   5
  -8 -13  -5 277.893 10.7484   1
  -8  13   5 285.772 10.5022   1
  -8  13  -5 283.438 10.7285   1
   8 -13  -5 269.098 12.9963   3
  -8 -13   5 278.639 10.5781   1
   0  14   5 69.1582 5.20285   6
   0 -14   5 57.9240 4.92213   1
   0 -14  -5 67.1814 5.14223   1
   0 -14  -5 65.1644 5.07187   7
   0  14  -5 66.3839 5.32505   6
   0  14  -5 74.0207 4.90905   7
   0 -14   5 71.0891 5.22271   7
   0  14  -5 65.7450 4.78248   1
   0  14   5 68.3356 4.86938   1
   1  14  -5 5.54031 2.80749   6
  -1  14   5 4.00910 2.39660   1
  -1 -14  -5 5.54937 2.92105   1
  -1  14   5 5.97972 2.76681   6
   1 -14   5 3.96103 2.97262   7
   1  14  -5 3.57851 2.24738   7
  -1 -14   5 4.42031 2.99837   1
  -1  14  -5 3.25016 2.53691   6
  -1  14  -5 4.43841 2.38279   1
   1  14   5 5.05863 2.48655   7
   1 -14  -5 6.08848 2.74932   7
   2  14  -5 27.9695 3.70457   6
  -2 -14  -5 31.8832 4.14663   1
  -2  14   5 33.1027 3.90232   1
   2  14  -5 34.3392 3.66151   7
   2 -14   5 36.5133 4.14493   7
  -2  14   5 40.5115 4.45303   6
   2 -14  -5 30.7811 4.24930   3
  -2  14  -5 31.9046 3.67241   1
  -2 -14   5 42.2644 4.53736   1
  -2  14  -5 33.3406 4.25194   6
   2 -14  -5 36.3841 4.10752   7
   2  14   5 34.1970 3.79011   7
  -3  14   5 7.46733 2.77056   1
   3 -14   5 6.44485 3.07874   7
   3  14  -5 4.35344 2.41255   7
  -3 -14  -5 4.95875 2.84398   1
   3 -14   5 1.85162 4.33447   3
   3  14   5 0.10626 2.09523   7
  -3 -14   5 5.79737 3.19699   1
  -3  14  -5 5.51677 2.49741   1
  -3 -14   5 2.29284 2.76524   1
   3 -14  -5 4.44503 2.88690   3
   3 -14  -5 6.26112 2.92863   7
  -4 -14  -5 51.1644 4.52308   1
   4  14  -5 51.5364 4.23622   7
   4 -14   5 63.1075 4.81967   7
  -4  14   5 59.0870 4.60499   1
   4 -14   5 52.7010 8.42068   3
  -4 -14   5 53.9765 4.63373   1
   4 -14  -5 57.8757 4.64461   7
   4 -14  -5 47.5391 5.20386   3
   4  14   5 52.1540 4.40178   7
   4 -14  -5 56.0376 8.16496   4
  -4  14  -5 54.2356 4.35940   1
   5 -14   5 1.90521 6.50241   3
   5  14  -5 4.48701 2.42478   7
  -5  14   5 3.34349 2.23099   1
  -5 -14  -5 7.34010 3.05498   1
   5 -14   5 3.56330 3.09855   7
   5 -14  -5 2.00967 2.95194   3
  -5 -14   5 1.21434 2.51623   1
  -5  14  -5 4.76298 2.34762   1
   5 -14  -5 4.45180 2.71124   7
   5 -14  -5 11.2410 6.63755   4
   5  14   5 6.58530 2.67292   7
  -6 -14  -5 23.5235 3.70015   1
  -6  14   5 27.2458 3.31337   1
   6 -14   5 30.0071 10.6045   3
   6 -14   5 25.4839 4.35605   5
  -6  14  -5 22.2934 3.66097   1
  -6 -14   5 21.9944 4.05406   1
   6 -14  -5 27.5577 5.17961   3
   7 -14   5 -1.2217 2.71752   5
  -7 -14  -5 8.20798 2.94328   1
   7 -14   5 -4.3071 7.21652   3
  -7  14   5 0.53683 2.08746   1
  -7  14  -5 -1.3689 1.96832   1
  -7 -14   5 8.22949 3.15802   1
   7 -14  -5 3.14958 3.34868   3
   8 -14   5 36.5541 11.2231   3
   8 -14   5 39.2246 7.65942   5
   8 -14  -5 40.4081 6.54696   3
   0  15  -5 119.579 6.53451   1
   0 -15  -5 122.391 7.89941   7
   0  15   5 119.995 6.73027   1
   0 -15   5 126.791 7.13798   1
  -1  15   5 14.9258 3.35701   1
   1  15  -5 12.1668 3.04972   7
   1 -15   5 14.6385 3.58579   7
  -1 -15  -5 15.8912 3.80216   1
   1 -15  -5 13.0825 3.24525   7
  -1 -15   5 7.45525 3.43198   1
   1  15   5 12.3158 3.01162   7
  -1  15  -5 10.9730 2.92361   1
   2 -15   5 119.281 6.86274   7
   2  15  -5 130.519 6.82728   7
  -2 -15  -5 123.932 7.12495   1
  -2  15   5 128.346 6.93051   1
   2 -15  -5 125.603 6.97424   7
  -2  15  -5 122.246 6.62896   1
   2  15   5 136.685 7.02557   7
  -2 -15   5 124.827 6.93790   1
   3 -15   5 11.3073 3.54259   7
  -3 -15  -5 12.5564 3.46155   1
  -3  15   5 16.1022 3.28966   1
   3  15  -5 17.2863 3.32270   7
   3 -15   5 19.0207 5.90972   3
   3 -15  -5 15.6471 3.57420   7
   3 -15  -5 15.0508 3.84271   3
  -3  15  -5 10.8186 2.95731   1
   3  15   5 13.9711 2.99431   7
  -3 -15   5 16.9804 3.90142   1
  -4 -15  -5 83.6811 5.76647   1
   4 -15   5 105.223 9.98831   3
  -4  15   5 86.3315 5.59471   1
  -4  15  -5 90.7870 5.48286   1
  -4 -15   5 91.6798 5.98481   1
   4 -15  -5 92.0440 6.70329   3
  -5  15   5 12.1177 3.01826   1
  -5 -15  -5 9.20586 3.36134   1
   5 -15   5 3.27089 6.05868   3
   5 -15  -5 2.90403 3.14129   3
  -5 -15   5 11.3627 3.48179   1
  -5  15  -5 10.0082 2.78538   1
  -6  15   5 80.8323 5.32151   1
   6 -15   5 64.4302 10.7564   3
  -6 -15  -5 78.3520 5.47355   1
   6 -15   5 84.0900 5.82276   5
  -6 -15   5 87.3381 5.53137   1
  -6  15  -5 72.6114 4.97749   1
   6 -15  -5 78.4042 6.60699   3
   7 -15   5 8.89941 3.96220   5
   7 -15   5 9.80925 8.50162   3
   7 -15  -5 6.17567 3.69784   3
   0  16   5 110.569 7.00793   1
   1  16  -5 11.3386 3.04582   7
  -1 -16  -5 18.4329 4.05449   1
   1 -16   5 13.4113 3.77359   7
  -1  16   5 17.9456 3.52882   1
  -1 -16   5 7.49770 3.54045   1
   1  16   5 12.3051 3.19057   7
  -1  16  -5 10.0050 3.02442   1
   1 -16  -5 13.5672 3.69218   7
   2  16  -5 11.6621 4.69897   7
   2 -16   5 11.8768 4.48566   3
  -2  16   5 10.4836 3.13379   1
  -2 -16  -5 10.9934 3.62552   1
  -2 -16   5 15.5725 4.01901   1
  -2  16  -5 13.2272 3.31022   1
   2  16   5 10.1219 3.53734   7
  -3 -16  -5 8.09315 3.39441   1
   3 -16   5 10.4895 4.88233   3
  -3  16   5 7.89963 2.93383   1
  -3 -16   5 9.94259 3.49811   1
  -3  16  -5 6.32503 2.68942   1
  -4 -16  -5 92.1324 6.21876   1
   4 -16   5 93.9919 9.19533   3
  -4  16   5 99.3679 5.91781   1
  -4  16  -5 98.5003 5.78361   1
  -4 -16   5 89.5171 5.96097   1
   4 -16  -5 87.1616 6.65775   3
   5 -16   5 5.91437 5.47938   3
   5 -16  -5 11.1192 3.82760   3
   6 -16  -5 12.5315 4.26332   3
  -1  17   5 3.48232 2.69564   1
  -1 -17  -5 2.27738 5.34204   1
  -1 -17   5 8.79323 3.47439   1
  -1  17  -5 7.59611 2.93217   1
  -2 -17  -5 7.34465 3.64363   1
  -2  17   5 5.42540 3.08531   1
   2 -17   5 5.14287 3.85948   3
  -2 -17   5 0.70112 3.13339   1
  -2  17  -5 7.28221 2.92828   1
   3 -17   5 -4.1736 3.31036   3
   4 -17   5 11.6499 7.52280   3
   0   0  -6 1007.48 30.0074   6
   0   0  -6 1068.94 29.6016   1
   0   0   6 1104.51 31.1267   7
   0   0   6 1070.87 31.0177   1
   0   0  -6 1016.41 29.4965   7
   1   0  -6 -2.3122 1.29945   6
  -1   0  -6 0.35756 1.36110   6
  -1   0   6 0.47970 1.48831   7
  -1   0  -6 2.33880 1.46907   1
  -1   0  -6 2.08268 1.37694   7
   1   0   6 -0.1746 1.31560   1
  -1   0   6 1.90061 1.44652   1
   1   0  -6 1.82447 1.46804   1
   1   0  -6 -0.1253 1.23992   7
   1   0   6 0.44459 1.46719   7
   2   0   6 14.9448 2.05754   1
  -2   0  -6 14.7687 1.96739   1
  -2   0   6 15.2157 2.15572   7
   2   0  -6 17.7490 2.02956   1
  -2   0  -6 14.9345 2.01617   6
   2   0  -6 16.2666 2.26664   2
   2   0   6 16.2640 2.35858   2
   2   0   6 16.0989 2.20621   7
  -2   0   6 25.3927 2.36766   1
   2   0  -6 16.2068 2.56942   6
   2   0  -6 11.3656 1.80228   7
   2   0  -6 14.9728 1.60689   4
  -2   0  -6 12.7569 1.96930   7
  -3   0  -6 -0.2662 1.24810   7
   3   0   6 -0.3642 1.54513   7
   3   0   6 0.92379 1.62507   2
  -3   0  -6 1.83232 1.38710   1
  -3   0   6 0.91721 1.36257   1
   3   0  -6 0.48620 1.34666   7
   3   0  -6 -0.0361 1.06049   4
  -3   0  -6 1.64799 1.44685   6
   3   0  -6 0.42212 1.40632   2
   4   0  -6 781.040 23.7172   2
   4   0   6 792.343 23.8798   2
  -4   0   6 775.534 22.9257   1
  -4   0  -6 757.560 23.0515   1
   4   0   6 796.392 23.2529   7
   4   0  -6 816.598 23.1871   7
  -4   0  -6 803.169 23.1258   6
   5   0   6 -0.2489 1.69386   2
   5   0  -6 1.16938 1.42681   7
  -5   0  -6 -2.9966 1.11104   1
   5   0   6 -1.2128 1.45328   7
  -5   0   6 1.18432 1.47805   1
   5   0  -6 0.00376 1.38790   2
   6   0  -6 10.7882 2.12640   2
  -6   0  -6 13.5848 2.09847   1
   6   0   6 13.8134 2.11994   7
   6   0  -6 12.3208 1.85017   7
   6   0   6 19.4963 3.27405   2
  -6   0   6 12.2475 1.96154   1
   7   0   6 1.49256 1.91153   2
   7   0  -6 0.72124 1.25334   7
   7   0  -6 1.02433 1.58263   2
   7   0   6 1.34693 1.50725   7
  -7   0  -6 -1.2084 1.43314   1
  -7   0   6 -1.6819 1.35540   1
  -8   0  -6 444.829 13.6108   1
   8   0   6 434.437 14.4774   2
   8   0  -6 418.787 13.9351   2
   9   0   6 -0.3522 1.80094   2
   9   0  -6 3.20382 1.86495   2
  10   0  -6 12.6838 2.55386   2
  10   0   6 10.8207 2.63375   2
  11   0   6 0.78019 1.96296   2
  11   0  -6 -1.1957 1.60768   2
   0   1  -6 466.420 14.6687   7
   0  -1   6 484.687 14.6322   7
   0  -1  -6 474.693 15.1799   6
   0  -1   6 475.960 14.5552   1
   0   1  -6 456.771 15.0905   6
   0   1   6 462.128 14.6470   7
   0  -1  -6 475.186 14.7094   1
   0  -1  -6 441.385 14.6753   7
   0   1  -6 487.086 14.6780   1
   0   1   6 418.318 14.3256   1
   1  -1   6 1.74549 1.39084   1
   1   1  -6 2.34805 1.39475   7
   1   1  -6 2.29501 1.64905   6
  -1  -1  -6 1.65443 1.43555   7
  -1   1   6 1.54963 1.62210   7
   1  -1   6 2.08454 1.61574   7
  -1  -1  -6 1.21379 1.41732   1
   1   1  -6 0.70703 1.38546   1
  -1   1   6 1.90339 1.56929   1
  -1  -1  -6 0.22927 1.34916   6
  -1   1  -6 1.68324 1.51128   6
   1  -1  -6 -0.6381 1.26761   7
  -1   1  -6 -0.8296 1.27230   1
   1   1   6 3.13837 1.67074   7
   1   1   6 2.73400 1.50816   1
   1  -1  -6 0.48844 1.37463   1
  -1  -1   6 2.50731 1.67701   7
  -1  -1   6 -0.1900 1.37483   1
  -1   1  -6 2.38723 1.47213   7
  -2   1   6 3011.42 76.5791   7
  -2  -1  -6 2752.04 75.1474   6
   2   1  -6 2716.30 75.9449   6
   2   1  -6 2830.01 75.8844   2
   2   1  -6 2728.47 75.0536   7
   2  -1   6 2647.23 76.2828   7
  -2  -1  -6 2756.50 75.2240   7
   2   1  -6 2761.38 74.9960   1
  -2  -1  -6 2643.56 74.9825   1
  -2   1   6 2772.71 76.2640   1
   2  -1   6 2815.94 77.1177   2
   2  -1   6 2680.48 76.1695   1
   2  -1  -6 2800.68 75.1778   4
   2  -1  -6 2793.00 75.8488   2
  -2   1  -6 2777.00 75.4090   6
   2  -1  -6 2929.22 75.1379   1
   2   1   6 2777.57 76.2952   1
  -2  -1   6 2942.10 76.3694   1
  -2   1  -6 2744.25 75.1214   7
   2   1   6 2724.90 76.4627   7
   2  -1  -6 2610.83 75.0289   7
  -2   1  -6 2766.59 75.1030   1
  -2  -1   6 2855.72 76.3216   7
   3   1  -6 2.17363 1.45562   7
  -3  -1  -6 2.67461 1.42871   6
   3   1  -6 2.12623 1.46597   2
  -3   1   6 4.21673 1.68684   1
   3  -1   6 1.89372 1.49404   5
   3  -1   6 3.48742 1.86812   2
   3   1  -6 2.03243 1.84871   6
  -3  -1  -6 0.01231 1.37918   1
   3  -1   6 3.81467 1.79035   7
  -3  -1  -6 3.77190 1.68597   7
  -3   1  -6 5.35004 1.67762   6
   3   1   6 2.69229 1.86570   2
   3  -1  -6 2.89849 1.69425   2
  -3   1  -6 1.38799 1.38222   7
  -3   1  -6 3.86016 1.62362   1
   3  -1  -6 2.11992 1.43653   7
   3   1   6 2.53433 1.70406   7
   3  -1  -6 0.71012 1.47824   3
  -3  -1   6 3.58425 1.70780   1
   3  -1  -6 3.58503 1.46535   4
  -4  -1  -6 305.503 9.91471   6
  -4  -1  -6 293.493 10.1720   1
  -4   1   6 312.650 10.2163   1
   4  -1   6 309.398 10.6095   5
   4   1  -6 305.543 10.0769   7
   4  -1   6 293.031 10.2330   7
   4   1  -6 296.718 10.6634   2
   4  -1   6 292.048 10.8266   2
   4  -1  -6 306.691 10.8248   4
   4  -1  -6 302.685 10.9746   3
   4  -1  -6 294.608 10.0964   7
   4  -1  -6 296.934 10.6817   2
   4   1   6 307.226 10.3740   7
  -4   1  -6 298.310 10.1383   1
  -4  -1   6 308.195 10.1858   1
  -4   1  -6 312.996 10.3646   6
   4   1   6 300.104 10.9093   2
  -5  -1  -6 1.25823 1.52044   1
   5   1  -6 0.85463 1.41317   7
   5  -1   6 0.83402 1.84895   5
   5  -1   6 -1.2282 1.55982   2
   5   1  -6 0.45631 1.43870   2
  -5   1   6 2.10064 1.60426   1
   5  -1   6 2.71881 1.73273   7
  -5  -1   6 2.29953 1.64448   1
   5   1   6 3.06569 1.94071   2
   5  -1  -6 2.64849 2.06069   3
   5  -1  -6 1.01565 1.54736   2
  -5   1  -6 1.01807 1.43608   1
   5   1   6 2.12742 1.66028   7
   5  -1  -6 -0.9004 1.30432   7
  -6   1   6 1522.59 40.9809   1
  -6  -1  -6 1437.70 40.1131   1
   6   1  -6 1428.47 40.5375   2
   6  -1   6 1458.06 40.9603   7
   6   1  -6 1429.80 39.7652   7
   6  -1   6 1451.06 41.6987   2
   6  -1  -6 1439.78 42.2178   3
   6  -1  -6 1427.11 39.6487   7
   6   1   6 1439.94 40.8991   7
  -6   1  -6 1415.01 39.9639   1
   6   1   6 1463.45 41.8154   2
  -6  -1   6 1469.57 40.8155   1
   6  -1  -6 1448.75 40.6457   2
  -7  -1  -6 3.16895 1.64507   1
   7   1  -6 1.51142 1.37379   7
   7  -1   6 0.92675 1.55029   7
   7   1  -6 1.32012 1.57684   2
   7  -1   6 1.71651 2.04835   2
  -7   1   6 5.34233 2.54124   6
  -7   1   6 2.91825 1.69153   1
   7  -1  -6 2.55055 1.38530   7
  -7  -1   6 1.36476 1.57181   1
   7  -1  -6 0.86455 2.34069   3
   7   1   6 1.21276 1.85617   2
  -7   1  -6 2.71785 1.61391   1
   7   1   6 1.51568 1.53601   7
   7  -1  -6 1.97365 1.78418   2
  -8  -1  -6 130.208 5.40667   1
   8   1  -6 124.418 5.65291   2
   8  -1   6 114.081 5.71785   2
   8  -1  -6 121.820 5.70127   2
   8  -1  -6 121.552 7.48929   3
  -8   1  -6 124.502 5.33445   1
   8   1   6 121.772 5.85451   2
   9  -1   6 0.36974 1.95329   2
   9   1  -6 -1.8207 1.48068   2
   9   1   6 0.01339 1.89260   2
   9  -1  -6 2.04944 1.78403   2
  10  -1   6 535.703 17.3171   2
  10   1  -6 537.352 16.9764   2
  10   1   6 547.429 17.3498   2
  10  -1  -6 549.375 16.9970   2
  11   1  -6 1.10978 1.92807   2
  11  -1   6 3.13075 2.22461   2
  11   1   6 -0.5451 1.92358   2
  11  -1  -6 0.94218 1.94950   2
   0  -2   6 165.826 6.62258   7
   0  -2  -6 156.424 6.44910   7
   0   2   6 150.330 6.50331   7
   0   2  -6 166.968 6.58624   7
   0   2   6 166.280 6.56655   1
   0   2  -6 164.822 7.06346   6
   0  -2   6 160.822 6.47310   1
   0  -2  -6 167.200 6.55668   1
   1   2  -6 10.4779 2.44768   6
  -1   2   6 8.48033 2.07342   1
  -1  -2  -6 5.70440 1.86370   1
  -1  -2  -6 6.25386 1.78146   7
   1   2  -6 3.62415 1.73024   1
  -1   2   6 6.50488 1.95005   7
   1  -2   6 7.48244 1.95388   1
   1   2  -6 8.00226 1.99016   7
   1  -2   6 4.41385 1.97127   7
   1  -2  -6 7.04041 1.91492   7
   1  -2  -6 6.53750 1.82187   1
  -1  -2   6 6.37860 1.95386   1
  -1   2  -6 5.28748 1.77708   7
   1   2   6 7.12264 1.89932   1
  -1   2  -6 5.96899 1.80302   1
   1   2   6 8.84022 2.20180   7
  -1   2  -6 8.68620 2.15665   6
  -1  -2   6 13.7112 2.47695   7
   2   2  -6 56.1282 3.88806   6
  -2  -2  -6 61.0145 3.62257   7
   2   2  -6 57.3186 3.52003   7
   2   2  -6 61.7910 3.51017   1
   2  -2   6 61.3735 3.26971   5
   2  -2   6 63.1640 3.63395   1
   2   2  -6 63.3501 3.97403   2
  -2   2   6 54.5867 3.49852   7
   2  -2   6 59.1320 3.69847   7
  -2  -2  -6 63.9526 3.59182   6
  -2   2   6 67.0620 3.70642   1
  -2  -2  -6 58.5097 3.55555   1
   2  -2   6 65.1305 4.09454   2
   2  -2  -6 58.5461 3.58714   7
  -2  -2   6 62.7511 3.61251   1
  -2   2  -6 57.6585 3.47457   1
   2   2   6 59.8998 3.77091   7
  -2   2  -6 63.4015 3.68052   7
   2  -2  -6 61.3703 3.56716   1
  -2  -2   6 62.9857 3.83313   7
   2   2   6 63.8182 3.67103   1
   2   2   6 62.2705 4.09661   2
   2  -2  -6 66.3581 4.12000   2
  -2   2  -6 60.7714 3.75096   6
   3  -2   6 12.2102 2.14248   5
   3  -2   6 5.31522 2.04197   2
  -3  -2  -6 6.67639 1.74478   6
   3  -2   6 10.6845 3.23644   1
   3  -2   6 7.87979 2.26174   7
   3   2  -6 7.98230 2.16973   2
   3   2  -6 3.87618 1.74557   7
  -3   2   6 6.59334 1.92920   1
   3   2  -6 9.55927 2.36428   6
  -3  -2  -6 7.82940 1.95576   1
  -3  -2  -6 4.44225 1.72733   7
  -3  -2   6 7.57261 1.97648   1
   3   2   6 6.16465 2.05343   2
   3   2   6 10.7873 2.31813   1
   3  -2  -6 6.78308 2.01111   3
  -3   2  -6 5.62879 2.21963   7
   3  -2  -6 7.70350 1.96179   7
  -3   2  -6 8.56728 2.00762   6
   3   2   6 11.6028 2.29465   7
   3  -2  -6 6.95518 2.05111   2
   3  -2  -6 6.98374 2.05875   4
  -3   2  -6 6.08219 1.78961   1
   4  -2   6 95.2617 4.69844   7
   4   2  -6 93.2458 5.37001   6
  -4   2   6 89.4521 4.49665   1
  -4  -2  -6 94.8248 4.57818   1
   4  -2   6 95.1183 5.14568   2
   4   2  -6 97.7202 4.92989   2
   4  -2   6 96.5226 4.88916   5
   4   2  -6 99.7761 4.53950   7
   4  -2   6 92.2030 4.67644   3
   4  -2  -6 93.2672 4.95328   2
   4  -2  -6 92.1254 5.27778   4
   4   2   6 97.6696 4.73721   7
  -4   2  -6 98.1166 4.85482   6
  -4   2  -6 92.3515 4.48478   1
  -4  -2   6 89.7571 4.44905   1
   4  -2  -6 96.4240 5.14354   3
   4   2   6 99.7913 5.21116   2
   4  -2  -6 89.0475 4.44559   7
  -5  -2  -6 7.80025 1.98150   1
   5   2  -6 4.23074 1.64491   7
   5   2  -6 2.91578 1.66614   2
   5  -2   6 4.72769 2.17094   5
  -5   2   6 3.54631 1.75282   1
   5  -2   6 4.64861 1.89236   7
   5  -2   6 4.19269 2.02568   2
  -5  -2   6 5.82351 1.85779   1
   5  -2  -6 6.77765 2.27095   4
   5   2   6 6.33488 2.19358   2
   5  -2  -6 5.34288 1.96505   2
   5   2   6 4.47424 1.85643   7
  -5   2  -6 4.72510 1.71696   1
   5  -2  -6 3.63576 2.13706   3
   5  -2  -6 5.86375 1.81460   7
  -5   2  -6 4.70054 1.79947   6
  -6   2   6 26.0589 3.30546   6
   6  -2   6 30.1067 3.37727   5
  -6  -2  -6 31.6401 2.70615   1
   6   2  -6 31.4140 2.84789   2
   6   2  -6 29.3134 2.48001   7
  -6   2   6 30.9847 2.58851   1
   6  -2   6 28.5700 2.69514   7
   6  -2   6 31.0947 3.13943   2
   6   2   6 28.4329 3.04485   2
  -6   2  -6 33.0584 2.69061   1
   6  -2  -6 31.2846 2.49171   7
   6  -2  -6 31.7478 2.91592   2
  -6  -2   6 28.0663 2.50413   1
   6   2   6 27.3352 2.55975   7
   6  -2  -6 30.9781 3.55304   3
   7   2  -6 5.77228 1.91011   2
   7   2  -6 7.28806 1.72284   7
  -7   2   6 6.29533 2.72481   6
   7  -2   6 9.86333 2.85396   5
  -7   2   6 7.15875 1.91354   1
  -7  -2  -6 4.50071 1.88472   1
   7  -2   6 6.92847 2.39394   2
   7  -2   6 6.57550 1.92732   7
   7  -2  -6 8.72115 1.77388   7
   7  -2  -6 7.65578 2.29734   2
   7   2   6 4.91727 1.73341   7
  -7  -2   6 5.97236 1.90273   1
   7  -2  -6 9.33724 3.08745   3
  -7   2  -6 6.21372 1.88315   1
   7   2   6 3.71588 2.15551   2
   8  -2   6 26.9434 3.00983   2
  -8  -2  -6 26.6455 2.53009   1
   8   2  -6 28.6339 2.70529   2
  -8   2  -6 19.9114 2.38845   1
   8  -2  -6 28.5185 4.15361   3
   8  -2  -6 25.5309 2.74393   2
   8   2   6 26.2606 3.05162   2
   8   2   6 25.3798 2.21233   7
   9  -2   6 5.00155 2.25943   2
   9   2  -6 2.10485 1.75119   2
   9  -2  -6 3.15429 1.97992   2
   9  -2  -6 2.19812 2.76476   3
   9   2   6 0.22255 1.95540   2
  10   2  -6 14.5577 2.32350   2
  10  -2   6 16.8920 3.14586   2
  10  -2  -6 17.5596 4.40704   3
  10   2   6 16.7514 3.24902   2
  10  -2  -6 19.2433 3.06200   2
  11  -2   6 2.48148 2.18720   2
  11   2  -6 2.22481 1.91731   2
  11  -2  -6 6.42260 2.35636   2
  11   2   6 5.73084 2.52393   2
   0  -3   6 37.9961 2.94613   1
   0  -3  -6 35.4770 2.85848   7
   0  -3  -6 41.1751 2.98022   1
   0   3   6 33.9711 2.88614   1
   0   3  -6 35.9510 3.12943   6
   0  -3   6 33.7364 2.94782   7
   0   3   6 37.2951 3.01603   7
   0   3  -6 36.1490 2.75563   1
   0   3  -6 33.0960 2.70778   7
  -1  -3  -6 14.9464 2.18969   7
  -1   3   6 15.8968 2.34213   7
   1   3  -6 9.29200 2.06199   7
   1   3  -6 16.4256 2.45533   6
   1  -3   6 10.5959 2.36807   7
   1  -3   6 15.0676 2.29919   1
  -1  -3  -6 9.64089 2.14159   1
   1   3  -6 10.0167 2.08451   1
  -1   3   6 6.89881 1.99693   1
  -1   3  -6 14.0341 2.40406   6
  -1   3  -6 10.8730 2.15282   7
   1  -3  -6 9.78797 2.14003   7
  -1   3  -6 13.3159 2.07955   1
   1   3   6 14.1807 2.62089   7
  -1  -3   6 9.94141 2.23012   7
  -1  -3   6 14.1908 2.19155   1
   1   3   6 10.7467 2.27561   1
   1  -3  -6 11.3922 2.23799   1
  -2   3   6 531.076 15.9026   7
   2   3  -6 464.934 15.4508   7
   2   3  -6 513.972 15.5442   1
   2  -3   6 489.304 15.7003   1
   2  -3   6 508.734 15.1278   5
   2   3  -6 487.529 16.2009   2
  -2  -3  -6 502.298 15.6416   1
  -2   3   6 513.867 15.7322   1
  -2  -3  -6 496.735 15.6791   7
   2   3  -6 492.659 16.3480   6
   2  -3   6 478.689 15.7165   7
   2   3   6 495.334 16.7906   2
   2  -3  -6 522.864 15.6040   1
  -2   3  -6 501.204 15.6827   7
  -2  -3   6 490.662 15.6218   1
   2  -3  -6 499.896 16.4308   2
  -2   3  -6 519.626 15.6763   1
   2   3   6 501.530 15.7203   1
  -2   3  -6 483.713 16.0037   6
   2  -3  -6 491.731 15.5546   7
  -2  -3   6 521.561 15.8267   7
   2   3   6 491.272 15.8459   7
   3  -3   6 17.0708 2.31694   5
   3   3  -6 18.1184 2.64948   6
   3  -3   6 9.95504 2.28293   3
   3  -3   6 13.8929 2.60946   7
   3   3  -6 12.8065 1.97327   7
  -3   3   6 10.3206 2.10346   1
  -3  -3  -6 10.7688 2.23290   1
   3   3  -6 8.89019 2.23623   2
   3  -3   6 11.1049 2.57760   2
   3  -3  -6 13.9324 2.48077   2
   3   3   6 12.6881 2.44351   7
   3  -3  -6 12.2868 2.15818   3
   3  -3  -6 11.9361 2.71825   4
  -3   3  -6 17.3648 2.32317   1
  -3   3  -6 17.2477 2.36617   6
  -3  -3   6 12.7126 2.36157   1
   3   3   6 15.1272 2.66914   2
   3  -3  -6 14.5321 2.13429   7
   4  -3   6 25.2341 2.69307   7
  -4  -3  -6 22.2506 2.36562   1
   4   3  -6 23.4469 2.40349   7
  -4   3   6 21.8007 2.31377   1
  -4   3   6 21.6056 3.05673   6
   4   3  -6 25.3801 2.63402   2
   4  -3   6 23.6243 2.73357   5
   4  -3   6 23.3313 2.75041   3
   4   3  -6 20.3125 2.74619   6
   4  -3   6 24.1555 2.80383   2
  -4   3  -6 20.5042 2.33015   1
   4  -3  -6 23.8204 2.72140   2
  -4  -3   6 21.2653 2.37829   1
  -4   3  -6 25.7990 2.64816   6
   4  -3  -6 18.8171 2.59503   3
   4   3   6 24.6405 2.62885   7
   4   3   6 23.9890 2.90368   2
   4  -3  -6 26.1950 2.49348   7
   5   3  -6 12.1292 2.15104   2
   5   3  -6 8.05822 1.92865   7
   5  -3   6 9.37427 2.19492   7
   5  -3   6 9.16367 2.44757   3
  -5   3   6 9.70142 2.06721   1
   5   3  -6 15.2832 3.19468   6
  -5  -3  -6 13.5309 2.17846   1
  -5   3   6 13.6450 2.97228   6
   5  -3   6 10.2703 2.53560   2
   5  -3   6 12.1185 2.60836   5
   5  -3  -6 12.4738 2.90040   3
  -5  -3   6 9.63198 2.18390   1
   5  -3  -6 8.47968 2.35255   2
   5  -3  -6 14.1685 2.09088   7
   5  -3  -6 9.50010 2.73011   4
  -5   3  -6 12.5116 2.13554   6
  -5   3  -6 8.04527 1.92797   1
   5   3   6 14.4106 2.25039   7
   5   3   6 7.58507 2.43685   2
   6  -3   6 254.468 9.91439   5
   6  -3   6 250.008 8.99848   7
   6  -3   6 242.356 10.1036   3
  -6   3   6 252.514 10.4198   6
   6   3  -6 240.770 8.55679   7
  -6   3   6 251.601 8.85130   1
   6   3  -6 235.720 9.15527   2
   6  -3   6 252.752 9.68640   2
  -6  -3  -6 241.697 8.75072   1
  -6  -3   6 250.561 8.88110   1
   6  -3  -6 246.294 9.38608   2
   6  -3  -6 245.974 8.51873   7
   6  -3  -6 253.047 10.4277   3
  -6   3  -6 245.283 8.73114   1
   6  -3  -6 235.673 10.5517   4
   6   3   6 260.155 9.91679   2
   6   3   6 251.573 9.02573   7
   7  -3   6 11.2495 2.30634   7
  -7   3   6 14.0293 3.29587   6
  -7   3   6 13.2761 2.13722   1
  -7  -3  -6 13.6141 2.21059   1
   7  -3   6 11.0647 2.96183   5
   7   3  -6 12.9553 1.98709   7
   7   3  -6 12.9293 2.17494   2
   7  -3   6 8.84107 2.52886   2
   7  -3  -6 9.67196 3.21052   3
  -7   3  -6 7.99003 1.95612   1
   7  -3  -6 8.25186 2.43849   2
   7   3   6 13.5622 2.10121   7
   7  -3  -6 16.5383 1.99910   7
  -7  -3   6 9.08706 2.13956   1
   7   3   6 5.82669 2.39824   2
   8  -3   6 11.4535 3.32156   5
  -8  -3  -6 9.77639 2.16063   1
   8   3  -6 11.5582 2.49135   2
   8  -3   6 11.8875 2.25219   7
   8  -3   6 12.5826 2.89834   2
   8  -3  -6 12.8154 3.55663   3
  -8   3  -6 11.0981 2.24960   1
   8   3   6 10.6978 2.86855   2
   8   3   6 11.3058 1.82933   7
   8  -3  -6 12.1044 2.75224   2
   9  -3   6 6.03780 2.42027   2
   9   3  -6 5.13086 1.93708   2
   9  -3   6 10.5426 3.35948   5
   9   3   6 5.39025 2.56045   2
   9  -3  -6 13.5106 2.78221   2
   9  -3  -6 4.77196 2.98434   3
  10   3  -6 96.4457 5.00196   2
  10  -3   6 102.622 5.51801   2
  10   3   6 105.755 5.62477   2
  10  -3  -6 105.742 7.30568   3
  10  -3  -6 92.1490 5.08897   2
  11   3  -6 6.32266 2.22873   2
  11  -3   6 2.57445 2.22914   2
  11  -3  -6 7.66832 2.32697   2
  11   3   6 9.37113 2.59028   2
  11  -3  -6 10.5822 3.97393   3
   0  -4   6 54.3204 3.51584   1
   0   4   6 52.0272 3.59321   7
   0   4  -6 47.9529 3.23391   7
   0   4  -6 44.8656 3.14069   1
   0  -4  -6 46.0766 3.32197   7
   0  -4  -6 47.6521 3.39146   1
   0   4  -6 54.8831 3.83824   6
   0   4   6 51.7792 3.47612   1
   0  -4   6 49.1531 3.49943   7
  -1   4   6 17.4266 2.52885   7
  -1  -4  -6 19.1646 2.45279   7
   1  -4   6 17.3612 2.37480   1
  -1   4   6 16.1951 2.34119   1
  -1  -4  -6 19.3547 2.47445   1
   1  -4   6 15.6307 2.38216   7
   1  -4   6 17.5404 2.01710   5
   1   4  -6 18.7728 2.24344   7
   1   4  -6 17.8573 2.72825   6
   1   4  -6 16.7077 2.21895   1
   1   4   6 15.6762 2.35094   1
  -1   4  -6 17.1039 2.18016   1
   1  -4  -6 14.5787 2.26283   1
   1  -4  -6 14.3786 2.28064   7
  -1   4  -6 19.1180 2.53301   6
  -1  -4   6 17.6279 2.39265   1
   1   4   6 15.4990 2.43449   7
  -1   4  -6 15.0358 2.16734   7
  -1  -4   6 18.3627 2.58709   7
   2   4  -6 207.810 8.62815   6
   2  -4   6 220.636 8.14045   1
  -2  -4  -6 210.419 7.94745   7
  -2  -4  -6 209.470 7.86140   1
   2  -4   6 209.905 8.09475   7
   2   4  -6 219.265 7.84745   1
  -2   4   6 216.404 8.18806   7
   2   4  -6 210.832 8.47343   2
  -2   4   6 205.759 8.01733   1
   2  -4   6 207.303 9.20214   3
   2  -4   6 204.522 7.44740   5
   2   4  -6 201.380 7.72976   7
  -2   4  -6 210.596 7.79475   1
   2   4   6 213.123 8.22469   7
  -2   4  -6 206.652 8.33771   6
   2  -4  -6 200.400 7.45854   3
   2  -4  -6 197.398 8.42887   2
   2   4   6 208.463 8.00271   1
  -2  -4   6 209.416 8.00524   7
  -2  -4   6 216.042 8.03044   1
   2  -4  -6 199.443 7.78488   7
  -2   4  -6 198.678 7.76871   7
  -3   4   6 18.6480 2.80371   6
  -3  -4  -6 16.1155 2.35243   1
   3   4  -6 15.3426 2.33784   2
   3  -4   6 12.2747 2.43496   7
   3  -4   6 18.8202 2.94580   3
   3   4  -6 16.3584 2.26723   7
   3  -4   6 17.2913 2.45138   5
  -3   4   6 15.5765 2.36355   1
   3  -4   6 18.8257 2.65831   2
   3   4  -6 16.7200 2.54196   6
   3  -4  -6 16.1986 2.69179   2
   3   4   6 10.7035 2.59073   2
   3  -4  -6 18.5091 2.42783   7
  -3   4  -6 12.6718 2.02217   1
   3   4   6 15.4301 2.39785   7
   3  -4  -6 15.7098 2.35358   3
  -3  -4   6 22.4991 2.50297   1
  -3   4  -6 18.0922 2.51461   6
   4  -4   6 35.0134 3.01791   7
   4   4  -6 37.5376 3.39236   6
   4  -4   6 34.5767 3.20773   5
  -4   4   6 37.2049 2.96744   1
  -4   4   6 33.0415 3.54018   6
  -4  -4  -6 38.0420 2.98502   1
   4  -4   6 40.2421 3.52641   2
   4  -4   6 37.3259 3.61316   3
   4   4  -6 34.7887 2.89602   7
   4   4  -6 37.4809 3.22277   2
  -4  -4   6 41.0271 2.98366   1
   4  -4  -6 40.6422 3.47747   2
   4  -4  -6 35.5823 2.91596   7
   4  -4  -6 34.4233 3.22767   3
   4   4   6 38.2018 3.14031   7
  -4   4  -6 37.2896 3.24953   6
   4  -4  -6 38.8703 4.17562   4
   4   4   6 35.6896 3.42752   2
  -4   4  -6 37.8010 2.86997   1
   5  -4   6 12.4764 2.92463   3
   5   4  -6 14.6318 3.03760   6
   5  -4   6 10.1029 2.50014   5
   5   4  -6 12.9975 2.33761   2
   5  -4   6 10.1777 2.46271   7
  -5   4   6 12.3175 3.11235   6
  -5  -4  -6 8.87698 2.13600   1
   5   4  -6 14.0365 2.11869   7
   5  -4   6 9.88103 2.66063   2
  -5   4   6 11.6964 2.32713   1
  -5  -4   6 10.8512 2.23303   1
   5  -4  -6 10.8534 2.79002   3
  -5   4  -6 10.2818 2.05708   1
   5  -4  -6 20.3884 3.38568   4
   5  -4  -6 11.3123 2.23887   7
   5   4   6 12.0243 2.81097   2
   5  -4  -6 8.04825 2.33975   2
  -5   4  -6 13.3976 2.38529   6
   5   4   6 10.1611 2.23550   7
   6  -4   6 107.869 6.40948   3
  -6  -4  -6 105.891 5.07993   1
  -6   4   6 114.222 5.13949   1
   6  -4   6 113.893 5.95852   2
   6   4  -6 109.875 5.58138   2
   6   4  -6 103.669 4.90965   7
   6  -4   6 113.730 6.10917   5
  -6   4   6 115.467 6.45321   6
   6  -4   6 119.331 5.47284   7
   6  -4  -6 108.852 6.80950   4
   6  -4  -6 116.277 5.73077   2
   6  -4  -6 107.638 6.36062   3
   6  -4  -6 110.527 4.95798   7
  -6   4  -6 113.189 5.13818   1
   6   4   6 117.630 5.33394   7
  -6  -4   6 112.963 5.22659   1
   6   4   6 122.107 6.22270   2
   7   4  -6 13.1186 2.10051   7
   7   4  -6 7.55154 2.25368   2
   7  -4   6 15.2119 2.78102   2
  -7   4   6 13.7613 2.40897   1
  -7   4   6 8.88721 2.78636   6
   7  -4   6 9.97835 2.27021   7
   7  -4   6 12.5685 3.12488   5
  -7  -4  -6 10.9284 2.24496   1
   7  -4   6 9.27394 3.09710   3
   7  -4  -6 14.8897 2.06394   7
  -7   4  -6 13.1007 2.32098   1
  -7  -4   6 10.9031 2.32003   1
   7  -4  -6 22.4159 3.56128   3
   7   4   6 15.2803 2.18629   7
   7  -4  -6 18.1572 2.15082   7
   7  -4  -6 8.24335 3.08847   4
   7   4   6 15.1982 2.79405   2
   7  -4  -6 14.5481 2.66656   2
   8  -4   6 29.8825 3.20386   2
  -8   4   6 19.7862 3.29451   6
  -8  -4  -6 22.1296 2.52852   1
   8  -4   6 28.7249 4.25081   5
   8   4  -6 18.5987 2.54833   2
   8  -4   6 20.6247 2.51068   7
  -8   4   6 22.7162 3.50762   1
   8   4   6 25.4308 2.33178   7
   8  -4  -6 20.4579 2.86155   2
  -8   4  -6 16.8785 2.35915   1
   8  -4  -6 32.3571 4.33060   3
  -8  -4   6 27.0782 2.75328   1
   8   4   6 18.5656 3.05704   2
   9  -4   6 8.92754 3.25429   5
   9  -4   6 8.41441 2.51362   2
   9   4  -6 5.58518 2.01411   2
   9  -4  -6 5.72909 3.13650   3
   9   4   6 7.23391 2.61976   2
   9  -4  -6 6.31295 2.30221   2
  10  -4   6 38.9525 4.57509   5
  10   4  -6 43.3195 3.46555   2
  10  -4   6 46.1292 3.86351   2
  10  -4  -6 42.3609 5.16834   3
  10   4   6 43.0609 3.81277   2
  10  -4  -6 46.5827 3.62696   2
  11  -4   6 2.45998 2.32553   2
  11   4  -6 7.58281 2.38555   2
  11  -4  -6 9.67657 3.82057   3
  11   4   6 8.58956 2.69563   2
  11  -4  -6 9.34632 2.47769   2
  12  -4  -6 11.2540 4.62769   3
   0  -5  -6 45.2847 3.30217   1
   0  -5  -6 43.3021 3.33556   7
   0   5   6 42.4437 3.36870   6
   0  -5   6 40.2837 3.26643   1
   0   5  -6 35.0046 2.96642   1
   0   5   6 42.3326 3.43907   7
   0  -5   6 43.1386 3.34632   7
   0   5  -6 43.3953 3.58681   6
   0   5   6 42.0772 3.23896   1
   0   5  -6 44.3076 3.20906   7
   1  -5   6 17.2801 2.52530   7
   1  -5   6 16.1147 2.42056   1
  -1   5   6 13.9313 2.63272   7
   1   5  -6 16.2350 2.55830   6
  -1   5   6 10.9728 2.29203   1
  -1  -5  -6 16.4560 2.57521   7
   1   5  -6 14.9252 2.15470   1
  -1   5   6 16.4603 2.79352   6
   1  -5   6 15.9703 2.00378   5
   1   5  -6 16.1341 2.20744   7
  -1  -5  -6 11.8280 2.36697   1
   1  -5  -6 13.8930 2.24014   1
   1   5   6 15.9633 2.37501   6
   1  -5  -6 14.6421 2.37440   7
   1   5   6 10.3717 2.34494   1
  -1   5  -6 18.7614 2.71448   6
  -1  -5   6 20.4388 2.61553   1
  -1  -5   6 15.0552 2.38020   7
   1   5   6 13.1627 2.64171   7
  -1   5  -6 9.66199 2.13879   1
  -1   5  -6 9.20802 2.05004   7
  -2   5   6 155.194 6.61305   7
  -2   5   6 156.528 7.23273   6
   2   5  -6 160.274 6.34567   1
   2   5  -6 150.123 6.99904   6
  -2  -5  -6 136.001 6.27481   7
   2   5  -6 148.179 6.28946   7
   2  -5   6 144.812 6.48738   1
  -2  -5  -6 149.721 6.38737   1
   2  -5   6 152.709 6.03215   5
  -2   5   6 145.126 6.43263   1
   2  -5   6 142.923 6.49414   7
  -2   5  -6 145.988 6.76046   6
  -2   5  -6 143.714 6.23015   1
   2   5   6 162.742 6.63959   1
   2   5   6 157.162 6.71791   7
   2  -5  -6 142.979 6.31843   7
  -2  -5   6 151.114 6.50588   1
  -2   5  -6 141.145 6.29096   7
  -2  -5   6 155.260 6.55521   7
   2  -5  -6 140.106 6.04237   3
   2   5   6 153.112 6.36997   6
   2  -5  -6 153.882 6.32034   1
   3  -5   6 9.79857 2.20358   5
   3  -5   6 13.1833 3.25962   3
   3   5  -6 10.7598 2.52168   2
   3  -5   6 12.0567 2.88647   2
   3   5  -6 11.4266 2.72974   6
  -3  -5  -6 16.5775 2.49340   1
  -3   5   6 17.7128 2.48972   1
  -3   5   6 13.1018 3.02070   6
   3   5  -6 18.7931 2.37482   7
   3  -5   6 11.4096 2.57644   7
   3   5   6 8.80327 2.40318   6
   3   5   6 16.5008 2.60287   7
   3   5   6 8.73154 2.83202   2
   3  -5  -6 15.5811 2.45248   7
  -3  -5   6 18.8421 2.51329   1
  -3   5  -6 17.1026 2.59944   6
  -3   5  -6 11.6098 2.21980   1
   3  -5  -6 11.8319 2.38063   3
   3  -5  -6 16.2717 2.65657   2
   4   5  -6 28.7036 2.68352   7
   4  -5   6 33.7037 3.07686   7
  -4   5   6 31.2689 2.89642   1
  -4  -5  -6 25.3399 2.69610   1
   4  -5   6 30.0560 3.72431   3
   4  -5   6 30.2312 3.28561   2
   4   5  -6 36.8496 3.44190   6
   4  -5   6 28.2399 3.09682   5
   4   5  -6 32.0445 3.15569   2
  -4   5   6 29.1286 3.57786   6
   4  -5  -6 39.7020 4.80894   4
  -4  -5   6 31.7314 2.90233   1
   4  -5  -6 26.4663 2.74849   7
   4  -5  -6 40.0080 3.54894   3
   4  -5  -6 30.7329 3.27952   2
  -4   5  -6 29.3709 2.78622   1
   4   5   6 33.6560 3.08981   7
  -4   5  -6 31.5844 3.14427   6
   4   5   6 32.5111 3.43111   2
  -5   5   6 7.28111 2.08958   1
  -5  -5  -6 6.25705 2.04081   1
   5  -5   6 5.36735 2.54605   3
   5  -5   6 6.93950 2.27385   7
   5  -5   6 10.1724 2.58862   5
   5   5  -6 10.6729 2.16059   7
  -5   5   6 10.7338 2.96602   6
   5   5  -6 14.7185 2.42101   2
   5   5  -6 7.30951 2.57076   6
   5  -5   6 15.3958 2.74628   2
   5   5   6 10.0879 2.37949   7
  -5   5  -6 6.95468 1.95428   1
   5  -5  -6 8.04029 3.29169   4
  -5  -5   6 9.92858 2.27933   1
  -5   5  -6 7.25753 2.09668   6
   5  -5  -6 5.82411 2.31849   2
   5  -5  -6 7.77028 2.09525   7
   5   5   6 5.13993 2.47123   2
   5  -5  -6 11.0365 2.71803   3
  -6   5   6 103.483 4.91762   1
  -6  -5  -6 101.458 4.94261   1
  -6   5   6 92.3203 5.92578   6
   6  -5   6 97.0722 6.21160   3
   6  -5   6 97.1297 5.67504   5
   6  -5   6 103.890 5.67986   2
   6   5  -6 91.9705 4.65449   7
   6   5  -6 94.3282 5.16698   2
   6  -5   6 98.6566 5.08839   7
  -6  -5   6 97.8163 4.89361   1
  -6   5  -6 96.8228 5.24447   6
   6  -5  -6 94.5275 6.07430   3
   6  -5  -6 93.0605 4.57494   7
  -6   5  -6 96.9709 4.71259   1
   6  -5  -6 91.3091 5.27135   2
   6   5   6 98.9645 4.89056   7
   6   5   6 97.8065 5.74366   2
   6  -5  -6 105.917 7.18410   4
   7   5  -6 10.3925 2.47926   2
   7  -5   6 10.5914 3.38742   3
  -7   5   6 12.9447 3.43882   6
   7  -5   6 17.5054 3.37098   5
  -7   5   6 10.6478 2.23213   1
   7  -5   6 9.58702 2.65206   2
  -7  -5  -6 10.2145 2.24527   1
   7   5  -6 10.3611 2.09340   7
   7  -5   6 10.6504 2.33417   7
  -7   5  -6 9.05475 2.04655   1
   7  -5  -6 11.3363 3.64558   4
   7  -5  -6 14.3278 2.13113   7
   7   5   6 9.41175 2.18263   7
   7   5   6 5.71656 2.45531   2
  -7  -5   6 10.6604 2.40223   1
   7  -5  -6 13.6089 2.12109   7
   7  -5  -6 8.99461 2.49788   2
   7  -5  -6 4.48744 2.79610   3
   8   5  -6 18.5019 2.18400   7
   8   5  -6 15.9048 2.53174   2
  -8   5   6 20.0822 3.35728   6
   8  -5   6 22.1762 4.31468   3
   8  -5   6 19.8189 3.07151   2
   8  -5   6 16.6439 3.69072   5
  -8  -5  -6 20.8203 2.98761   1
   8  -5   6 16.7458 2.35672   7
  -8   5   6 17.7584 2.36746   1
  -8  -5   6 16.3312 2.56200   1
   8   5   6 22.6864 3.09225   2
   8  -5  -6 26.1679 4.72451   3
   8  -5  -6 17.8725 2.85110   2
   8   5   6 20.4766 2.35332   7
  -8   5  -6 20.7615 2.50348   1
   9  -5   6 7.34650 2.64293   2
   9  -5   6 8.04521 3.34725   5
   9   5  -6 4.70425 2.07128   2
   9  -5  -6 2.28218 2.99938   3
   9   5   6 5.86716 2.49315   2
   9  -5  -6 5.13469 2.33873   2
  10   5  -6 48.7520 3.70566   2
  10  -5   6 45.0689 5.06358   5
  10  -5   6 50.3127 4.06203   2
  10  -5  -6 45.3464 3.76056   2
  10  -5  -6 47.3538 5.52295   3
  10   5   6 43.2315 3.99354   2
  11   5  -6 8.54189 3.81147   2
  11  -5   6 6.13603 3.28370   2
  11   5   6 3.19768 2.47464   2
  11  -5  -6 4.84687 3.63051   3
  12  -5  -6 2.92177 4.22210   3
   0  -6  -6 2121.78 57.0940   7
   0   6   6 2151.23 58.1416   7
   0   6   6 2044.49 57.8904   1
   0  -6   6 2104.56 58.0012   7
   0  -6   6 2017.76 57.7880   1
   0   6  -6 1987.49 57.5831   6
   0   6   6 2087.54 58.2783   6
   0  -6  -6 2029.52 56.8357   1
   0   6  -6 2055.54 56.7670   1
   0   6  -6 2022.92 56.8991   7
   1  -6   6 4.14459 2.08688   1
   1   6  -6 4.76299 1.84802   1
   1   6  -6 7.54102 2.53324   6
  -1   6   6 5.28174 2.37719   6
  -1  -6  -6 5.43312 2.12276   7
  -1   6   6 7.09696 2.19686   7
   1   6  -6 9.18423 2.08866   7
  -1   6   6 5.73770 2.07628   1
  -1  -6  -6 9.24413 2.31269   1
   1  -6   6 10.2808 2.48814   7
   1  -6  -6 7.62945 2.25104   1
  -1  -6   6 6.20399 2.18331   1
  -1   6  -6 9.06608 2.08171   1
   1   6   6 3.73168 1.94369   1
   1   6   6 4.76756 2.14945   7
  -1  -6   6 9.01110 2.37873   7
   1   6   6 9.77362 2.30291   6
  -1   6  -6 7.52723 2.25165   6
   1  -6  -6 6.28894 2.17623   7
  -1   6  -6 6.77300 1.85789   7
  -2   6   6 342.412 11.8995   1
   2   6  -6 325.762 12.1007   6
   2   6  -6 340.541 11.3764   1
   2  -6   6 349.431 11.8215   1
  -2   6   6 347.291 11.9746   7
  -2  -6  -6 317.194 11.4196   7
   2   6  -6 335.919 11.4347   7
  -2  -6  -6 333.496 11.4732   1
  -2   6   6 335.480 12.5520   6
   2  -6   6 347.212 11.9495   7
   2  -6   6 341.667 11.2492   5
  -2   6  -6 319.848 11.2736   1
   2   6   6 344.141 11.8593   1
   2   6   6 337.882 12.0126   7
   2  -6  -6 332.752 11.4302   3
  -2  -6   6 349.556 11.8908   7
   2   6   6 331.581 11.5801   6
  -2  -6   6 341.005 11.7924   1
  -2   6  -6 326.659 12.0502   6
  -2   6  -6 322.271 11.3823   7
   2  -6  -6 308.120 11.2336   1
   2  -6  -6 339.564 11.5646   7
  -3  -6  -6 8.06628 2.25959   1
   3   6  -6 7.69667 2.06793   7
  -3   6   6 7.47791 2.60842   6
   3  -6   6 8.96276 3.58926   3
  -3   6   6 6.99247 2.17598   1
   3   6  -6 6.21211 2.26149   6
   3  -6   6 6.70549 2.09490   5
   3  -6   6 4.90195 2.25410   7
   3  -6  -6 6.49688 2.08422   3
  -3  -6   6 4.93870 1.99690   1
  -3   6  -6 8.56424 2.37043   6
  -3   6  -6 6.49231 2.04153   1
   3   6   6 8.14085 2.33557   7
   3  -6  -6 6.25971 2.08791   7
   4  -6   6 1528.30 42.4061   5
  -4   6   6 1467.08 43.5808   6
   4   6  -6 1471.90 41.8802   7
  -4  -6  -6 1433.13 41.8741   1
   4   6  -6 1487.47 42.9824   6
  -4   6   6 1535.04 42.3177   1
   4  -6   6 1494.11 42.3736   7
   4  -6   6 1489.37 44.7748   3
   4   6  -6 1489.92 42.7254   2
  -4   6  -6 1462.23 41.8311   1
  -4   6  -6 1484.14 42.7355   6
   4  -6  -6 1565.95 47.4607   4
   4  -6  -6 1433.28 42.7348   3
   4  -6  -6 1514.68 41.9346   7
  -4  -6   6 1470.79 42.1897   1
   4   6   6 1472.21 42.4021   7
   4  -6  -6 1480.56 42.8650   2
   5  -6   6 7.03755 2.48604   5
  -5  -6  -6 6.36984 2.10870   1
   5   6  -6 8.74291 2.37167   2
   5  -6   6 4.57448 2.70545   3
   5   6  -6 5.69367 1.89236   7
  -5   6   6 6.27226 2.69593   6
  -5   6   6 5.24465 2.03172   1
   5  -6   6 5.85700 2.26190   7
   5   6  -6 6.77740 2.57342   6
   5  -6   6 6.58318 2.55518   2
   5  -6  -6 6.83874 2.55975   2
  -5   6  -6 8.42226 2.09877   1
  -5   6  -6 7.71534 2.34195   6
   5   6   6 8.36698 2.64043   2
  -5  -6   6 5.22219 2.26361   1
   5  -6  -6 7.61641 2.74952   3
   5  -6  -6 10.3984 2.29105   7
   5  -6  -6 8.79173 3.62902   4
   5   6   6 5.53537 2.04455   7
   6  -6   6 204.287 8.66854   2
   6  -6   6 184.683 7.76168   7
  -6   6   6 198.067 9.01805   6
   6  -6   6 211.221 9.80139   3
   6   6  -6 192.081 8.20902   2
  -6   6   6 187.539 7.62196   1
   6   6  -6 186.692 7.43578   7
   6  -6   6 189.970 8.49414   5
  -6  -6  -6 187.523 7.56023   1
   6  -6  -6 183.509 7.35593   7
  -6   6  -6 182.761 7.43514   1
   6  -6  -6 190.020 10.5005   4
   6  -6  -6 190.719 7.41281   7
   6   6   6 200.398 7.78676   7
   6   6   6 194.102 8.70622   2
   6  -6  -6 188.517 9.03907   3
   6  -6  -6 192.312 8.33035   2
  -6   6  -6 195.603 8.24059   6
  -6  -6   6 194.941 7.75899   1
   7   6  -6 7.61246 2.02206   7
   7  -6   6 9.13341 2.89359   2
  -7  -6  -6 10.3936 2.35317   1
  -7   6   6 6.63919 2.09452   1
   7  -6   6 8.17377 3.20441   3
   7  -6   6 10.4530 2.43274   7
   7   6  -6 5.44728 2.13153   2
  -7   6   6 9.02995 3.02859   6
   7  -6   6 3.62421 2.73822   5
   7   6   6 7.00041 2.68899   2
   7  -6  -6 10.4270 2.13932   7
  -7  -6   6 6.12740 2.24826   1
   7   6   6 9.45923 2.35365   7
   7  -6  -6 8.51901 2.68505   2
   7  -6  -6 7.98621 3.56217   4
  -7   6  -6 5.14044 1.93471   1
   7  -6  -6 10.1225 3.25005   3
   8  -6   6 727.176 23.8289   5
   8   6  -6 726.962 21.3428   7
   8  -6   6 739.323 25.1718   3
  -8   6   6 771.527 24.3903   6
   8   6  -6 743.957 22.5933   2
   8  -6   6 726.388 23.2447   2
   8  -6   6 751.256 22.2546   7
  -8   6   6 747.202 22.1558   1
  -8  -6  -6 692.647 21.6326   1
   8   6   6 759.097 22.1385   7
   8  -6  -6 759.458 26.1556   4
   8   6   6 742.062 23.6752   2
  -8  -6   6 751.099 22.2864   1
  -8   6  -6 728.000 21.7786   1
   8  -6  -6 698.285 21.0324   7
   8  -6  -6 718.568 22.6648   2
   8  -6  -6 747.237 24.7686   3
  -9  -6  -6 6.21020 3.44317   1
   9  -6   6 3.09075 3.23978   5
   9   6  -6 4.93905 2.10120   2
   9  -6   6 6.00523 2.59167   2
   9   6   6 3.18208 2.33128   2
   9  -6  -6 5.23027 3.25794   3
   9  -6  -6 7.04760 2.58915   2
  10  -6   6 86.6144 5.32100   2
  10   6  -6 85.4799 4.98849   2
  10  -6   6 77.1952 6.06544   5
  10  -6  -6 80.2878 5.00269   2
  10   6   6 84.7727 5.38222   2
  10  -6  -6 79.0272 6.76439   3
  11  -6   6 4.14581 3.49408   5
  11  -6  -6 3.12791 3.42852   3
   0   7  -6 59.8604 4.37137   6
   0   7  -6 55.6713 3.89000   7
   0   7   6 65.8985 4.50597   6
   0   7  -6 65.2092 4.00096   1
   0  -7  -6 60.3185 4.07616   1
   0  -7   6 59.4709 4.18402   1
   0  -7   6 72.3815 4.50684   7
   0   7   6 67.7699 4.29751   1
   0  -7  -6 64.9411 4.18059   7
   0   7   6 71.1006 4.44218   7
  -1   7   6 0.59027 1.91507   1
   1  -7   6 0.45560 1.96490   1
   1   7  -6 4.68383 1.90319   7
  -1  -7  -6 2.53997 2.03580   1
   1   7  -6 3.81391 1.86342   1
   1   7  -6 0.24927 1.85530   6
   1  -7   6 2.89571 2.26190   7
  -1   7   6 3.34882 2.20674   6
  -1   7   6 3.53614 1.97435   7
  -1  -7  -6 0.20151 1.79156   7
  -1  -7   6 1.94216 2.12560   7
  -1   7  -6 1.95931 1.76370   1
  -1  -7   6 1.37231 1.94894   1
   1   7   6 3.80737 2.07261   1
  -1   7  -6 1.32269 2.08824   6
   1   7   6 1.67899 1.79600   6
   1  -7  -6 5.36461 2.11324   1
  -1   7  -6 2.38317 1.78315   7
   1   7   6 6.20128 2.29812   7
   1  -7  -6 2.99358 2.02036   7
   2   7  -6 666.743 20.5225   7
  -2   7   6 668.931 21.9746   6
   2  -7   6 700.649 21.3426   7
   2   7  -6 670.256 21.3947   6
  -2   7   6 678.055 21.2381   1
  -2  -7  -6 640.859 20.4954   1
   2  -7   6 708.053 21.1993   1
  -2  -7  -6 672.454 20.7078   7
   2   7  -6 676.540 20.5126   1
  -2  -7   6 713.350 21.2473   1
  -2   7  -6 656.833 20.5038   1
   2   7   6 718.178 21.3041   1
   2  -7  -6 675.578 20.8432   3
   2   7   6 657.664 21.2896   7
  -2  -7   6 674.165 21.9225   7
   2   7   6 672.282 20.9245   6
  -2   7  -6 691.968 20.6811   7
  -2   7  -6 641.627 21.1277   6
   2  -7  -6 666.111 20.5001   1
   2  -7  -6 653.913 20.5931   7
   3   7  -6 2.90332 2.14817   6
   3  -7   6 -0.7469 1.74370   5
  -3   7   6 1.67745 2.24795   6
  -3  -7  -6 1.16246 1.88585   1
  -3   7   6 3.58927 2.01819   1
   3  -7   6 0.73477 3.08423   3
   3  -7   6 -0.0199 1.91943   7
   3   7  -6 1.98538 1.71075   7
   3  -7  -6 0.06757 1.58259   3
  -3  -7   6 2.72711 2.13174   1
  -3   7  -6 2.87213 1.86296   1
   3  -7  -6 1.59392 1.88574   7
  -3   7  -6 2.07036 1.92188   6
   3   7   6 0.83994 1.85829   7
   4   7  -6 43.4084 3.40542   7
  -4  -7  -6 49.8791 3.62086   1
   4  -7   6 50.8699 3.82818   7
   4  -7   6 44.1775 3.77611   5
  -4   7   6 52.3458 3.78099   1
   4  -7   6 38.3721 5.15784   3
   4   7  -6 49.0315 4.09211   6
  -4   7   6 50.4668 4.36238   6
  -4   7  -6 44.2381 3.85684   6
   4   7   6 54.2375 3.77189   7
  -4   7  -6 45.4132 3.44198   1
  -4  -7   6 44.4331 3.56972   1
   4  -7  -6 45.5619 3.58971   7
   4  -7  -6 54.3548 7.57356   4
   4  -7  -6 46.3962 4.06495   3
   5  -7   6 2.91664 2.87796   3
  -5   7   6 3.57898 2.55008   6
   5  -7   6 3.41553 2.30295   7
   5  -7   6 1.29316 2.22933   5
   5   7  -6 2.78785 1.80268   7
  -5  -7  -6 4.06525 2.07178   1
  -5   7   6 3.25358 1.97653   1
  -5   7  -6 3.17065 1.83329   1
   5  -7  -6 5.32547 3.91651   4
   5  -7  -6 4.38096 2.07544   7
  -5  -7   6 2.03562 2.12247   1
   5  -7  -6 2.51078 2.35011   2
   5  -7  -6 1.05457 2.17110   3
   5   7   6 4.19625 2.02829   7
   5  -7  -6 2.51639 1.94927   7
  -5   7  -6 6.49692 2.40923   6
   6  -7   6 405.436 16.9288   2
   6   7  -6 405.868 13.5249   7
  -6   7   6 415.074 15.1433   6
  -6  -7  -6 416.860 13.7620   1
   6  -7   6 403.689 14.3059   5
   6   7  -6 419.083 14.5529   2
   6  -7   6 408.750 16.0319   3
  -6   7   6 411.333 13.5133   1
   6  -7   6 404.435 13.6569   7
   6  -7  -6 399.410 13.4535   7
   6  -7  -6 427.767 15.7015   3
  -6   7  -6 412.432 14.4716   6
  -6  -7   6 414.801 13.5889   1
  -6   7  -6 410.583 13.6302   1
   6   7   6 394.067 13.4749   7
   6  -7  -6 419.936 18.1640   4
   6  -7  -6 406.456 14.5362   2
   7  -7   6 3.45631 2.19861   7
   7  -7   6 -0.1042 2.20315   2
  -7   7   6 1.11645 2.37445   6
   7  -7   6 1.78717 2.91059   3
  -7   7   6 1.66569 1.79523   1
  -7  -7  -6 1.17473 1.93639   1
   7   7  -6 -1.1375 1.54693   7
   7  -7   6 -3.9019 2.28208   5
   7   7  -6 1.99914 1.99228   2
   7  -7  -6 -0.8003 2.03483   2
  -7   7  -6 1.48387 1.69784   1
   7  -7  -6 1.63768 2.47714   3
  -7  -7   6 -0.3233 2.03487   1
   7   7   6 -0.9060 2.24585   2
   7  -7  -6 0.64633 1.80283   7
   7  -7  -6 -0.8995 3.43794   4
   7   7   6 0.46638 1.74353   7
   8  -7   6 23.8123 2.92398   7
   8  -7   6 25.4574 3.61319   2
   8  -7   6 30.9371 3.91993   5
   8   7  -6 21.1129 2.96446   2
   8   7  -6 21.7217 2.59122   7
  -8   7   6 22.7353 2.69852   1
   8  -7   6 28.9822 4.66760   3
  -8   7   6 20.9373 3.51797   6
  -8  -7  -6 23.8129 2.94876   1
  -8   7  -6 24.7099 2.68195   1
   8  -7  -6 26.2270 4.20897   3
   8  -7  -6 22.8556 2.51323   7
   8   7   6 25.5918 2.70068   7
   8  -7  -6 31.5344 5.34596   4
   8   7   6 18.9255 3.35954   2
   8  -7  -6 19.5190 3.09174   2
  -8  -7   6 27.1744 3.60309   1
   9  -7   6 5.72608 2.82604   2
  -9  -7  -6 5.30946 2.22109   1
   9  -7   6 9.96621 3.47523   5
   9   7  -6 0.39702 1.79317   2
   9  -7   6 3.20240 3.19387   3
   9  -7  -6 3.85375 2.36871   2
   9   7   6 1.16065 2.15860   2
   9  -7  -6 4.16178 3.24475   3
   9  -7  -6 2.64126 2.44411   2
  10  -7   6 201.399 9.70493   5
  10   7  -6 201.290 8.49671   2
  10  -7   6 195.786 8.74705   2
  10  -7  -6 197.591 8.42683   2
  10  -7  -6 187.445 10.4255   3
  10  -7  -6 189.708 8.40023   2
  10   7   6 203.808 8.94103   2
  11  -7   6 2.95943 3.32389   5
  11  -7  -6 5.36786 3.69494   3
   0  -8  -6 50.6067 3.89556   7
   0   8  -6 50.9860 3.77105   1
   0  -8  -6 50.0657 3.82542   1
   0   8   6 61.0731 4.15899   1
   0   8  -6 57.1855 4.32013   6
   0   8   6 46.0947 3.94238   6
   0   8  -6 58.4128 4.02538   7
   0   8   6 48.0577 3.86272   7
   0  -8   6 58.6699 4.12994   1
   0  -8   6 54.1501 4.29668   7
  -1   8   6 -1.1565 1.64550   1
   1  -8   6 2.25111 2.30742   7
  -1  -8  -6 0.17588 1.85859   7
  -1   8   6 -0.1115 1.73384   7
  -1   8   6 3.31385 2.31103   6
   1  -8   6 -1.2890 1.78219   1
   1   8  -6 1.08080 1.67652   1
   1   8  -6 0.42968 1.64778   7
   1   8  -6 1.63334 2.11498   6
  -1  -8  -6 1.22882 1.96479   1
  -1   8  -6 -0.8982 1.59980   7
  -1   8  -6 0.85805 1.64970   1
  -1  -8   6 -0.0313 2.02654   1
   1   8   6 -0.2596 1.73615   1
  -1   8  -6 0.35919 1.91258   6
   1  -8  -6 0.40281 1.74574   7
  -1  -8   6 2.57139 2.35959   7
   1   8   6 2.62366 1.96804   6
   1   8   6 1.82464 2.02447   7
   1  -8  -6 -1.6469 1.81968   1
   2   8  -6 35.4528 3.13614   1
   2  -8   6 34.3041 3.43246   7
   2  -8   6 31.2808 3.47183   1
  -2  -8  -6 30.0024 3.11582   1
   2   8  -6 29.2405 3.04452   7
   2   8  -6 27.1467 3.40159   6
  -2  -8  -6 35.9685 3.64430   7
  -2   8   6 30.9958 3.26020   1
  -2   8   6 29.8564 3.58666   6
  -2  -8   6 30.1461 3.37921   1
   2  -8  -6 30.9157 3.38410   3
  -2   8  -6 25.8029 3.18901   6
   2   8   6 27.7492 2.87044   6
   2   8   6 34.5769 3.26054   7
  -2   8  -6 31.4606 3.00408   1
   2  -8  -6 34.6891 3.30141   7
   2   8   6 30.2018 3.09095   1
   3   8  -6 2.83315 2.16878   6
  -3   8   6 0.02415 2.20012   6
  -3   8   6 -2.6887 1.59385   1
   3  -8   6 1.43776 2.18233   7
   3   8  -6 0.82493 1.77338   7
  -3  -8  -6 0.32565 1.86164   1
   3  -8   6 -0.6719 3.48381   3
   3   8   6 -0.9790 1.66841   7
   3  -8  -6 1.08335 2.01589   7
  -3  -8   6 0.34733 1.97030   1
   3  -8  -6 -0.7940 1.67738   3
  -3   8  -6 0.84783 1.89088   6
  -3   8  -6 -0.8297 1.52918   1
   4   8  -6 44.7812 4.04801   6
   4  -8   6 42.9959 3.60402   7
   4   8  -6 49.4235 3.65742   7
  -4   8   6 48.2989 4.41396   6
   4  -8   6 42.3455 3.79634   5
   4  -8   6 42.5964 5.80616   3
  -4   8   6 43.0970 3.46403   1
  -4  -8  -6 43.5718 3.54204   1
   4  -8  -6 51.4294 4.27017   3
  -4   8  -6 45.3991 3.60591   1
   4  -8  -6 46.5190 3.76180   7
   4  -8  -6 47.4254 3.76527   7
  -4   8  -6 45.2636 4.02570   6
   4   8   6 48.3713 3.70532   7
  -4  -8   6 41.7953 3.54430   1
   4  -8  -6 63.0763 9.16370   4
   5   8  -6 -0.9162 1.59392   7
   5  -8   6 0.59214 2.18732   7
   5  -8   6 2.95815 3.15910   3
  -5  -8  -6 0.45615 1.85812   1
   5  -8   6 3.02802 2.52406   5
  -5   8   6 1.02258 1.77101   1
  -5   8   6 0.64526 2.11533   6
   5  -8  -6 1.17689 4.60724   4
   5  -8  -6 0.61827 1.94467   7
  -5  -8   6 -1.3680 1.94593   1
  -5   8  -6 0.24851 1.80037   6
  -5   8  -6 0.77662 1.71481   1
   5  -8  -6 3.29419 2.12905   7
   5   8   6 2.94783 1.95450   7
   5  -8  -6 -0.3085 2.16070   3
   6  -8   6 18.8305 4.62339   3
   6   8  -6 16.3230 2.45379   7
  -6  -8  -6 17.6485 2.73722   1
  -6   8   6 17.7040 3.07349   1
  -6   8   6 19.0502 4.00371   6
   6  -8   6 19.6682 2.94521   7
   6  -8   6 21.0958 3.72696   5
  -6   8  -6 16.0506 2.49903   1
   6  -8  -6 19.1938 2.71661   7
   6  -8  -6 29.6675 6.94833   4
  -6  -8   6 21.1461 3.39836   1
   6  -8  -6 21.9161 4.27262   3
   6   8   6 17.5322 2.70951   7
  -6   8  -6 20.9157 3.71544   6
  -7  -8  -6 -1.2533 1.85209   1
   7  -8   6 0.39023 2.14222   7
   7   8  -6 -1.0973 1.53787   7
  -7   8   6 -3.4339 1.45216   1
  -7   8   6 4.39359 2.69233   6
   7  -8   6 0.67853 2.42844   5
   7  -8   6 1.78715 3.15373   3
   7  -8  -6 1.73609 4.07172   4
   7  -8  -6 -0.1406 2.63966   3
   7  -8  -6 0.02906 1.71907   7
  -7  -8   6 -0.6493 2.00969   1
  -7   8  -6 0.55853 1.61035   1
   7   8   6 -1.8316 1.67120   7
   8   8  -6 29.9609 2.87878   7
   8  -8   6 34.9274 5.07656   3
   8  -8   6 38.3698 4.44181   5
  -8   8   6 28.1925 2.97787   1
   8  -8   6 30.8078 3.36407   7
  -8   8   6 32.8050 3.91190   6
  -8  -8  -6 29.8787 3.19795   1
   8  -8  -6 33.2499 4.70615   3
   8  -8  -6 39.7000 4.00544   2
   8  -8  -6 30.1677 2.84460   7
  -8  -8   6 35.3716 3.40430   1
  -8   8  -6 27.2059 2.92608   1
   8   8   6 31.4895 2.98916   7
   8  -8  -6 38.7220 7.23765   4
   8  -8  -6 29.8639 3.60154   2
   9  -8   6 1.73958 3.67743   3
  -9  -8  -6 1.03680 2.02573   1
   9   8  -6 -0.4641 1.84520   2
   9  -8   6 4.36859 3.18496   5
   9  -8  -6 -2.0935 3.79519   4
  -9   8  -6 -1.1586 1.60938   1
   9  -8  -6 2.23116 2.47759   2
  -9  -8   6 3.97174 2.89330   1
   9  -8  -6 0.20305 3.04814   3
  10   8  -6 8.30983 2.77379   2
  10  -8   6 6.17345 3.38551   5
  10  -8   6 7.56916 3.10169   2
  10  -8  -6 10.7005 3.22944   2
  10  -8  -6 8.83211 4.05319   3
  11  -8   6 1.03113 3.37769   5
  11  -8  -6 -1.2080 3.11221   3
   0   9   6 16.8908 3.45990   6
   0   9   6 17.2370 3.19652   1
   0   9  -6 16.4953 3.03672   7
   0  -9  -6 14.4321 2.98995   7
   0  -9  -6 8.66350 2.59905   7
   0   9  -6 16.7338 3.45299   6
   0  -9  -6 15.4132 3.05933   1
   0  -9   6 13.1000 3.34076   7
   0   9   6 14.9433 3.05855   7
   0   9  -6 17.6835 3.08365   1
   0  -9   6 12.1510 3.08728   1
  -1   9   6 2.26331 2.17450   7
   1  -9   6 3.95774 2.47055   7
  -1  -9  -6 0.84372 1.94814   7
  -1   9   6 3.80220 2.24980   1
   1   9  -6 3.38649 1.93990   1
   1   9  -6 0.44814 1.87463   6
  -1  -9  -6 4.30715 2.32700   1
   1  -9   6 4.60479 2.40062   1
   1   9  -6 1.84014 1.77683   7
  -1  -9  -6 3.70572 2.21738   7
  -1   9   6 3.72711 2.46629   6
   1  -9  -6 1.87075 2.14118   7
  -1   9  -6 -0.4214 1.57712   7
   1  -9  -6 4.19108 2.29016   7
  -1   9  -6 3.24607 1.86199   1
  -1  -9   6 0.14292 2.14499   1
  -1  -9   6 4.66470 2.53406   7
   1   9   6 2.59185 2.02543   1
   1   9   6 4.08905 2.18121   6
   1   9   6 0.13142 1.90950   7
  -1   9  -6 3.01950 2.27167   6
   1  -9  -6 3.49948 2.14945   1
  -2  -9  -6 854.421 25.4573   1
   2   9  -6 852.014 26.0532   6
  -2   9   6 829.695 25.7446   1
   2  -9   6 856.922 25.9105   7
  -2   9   6 827.311 26.5481   6
   2   9  -6 811.597 25.2276   7
   2   9   6 841.366 25.7416   1
  -2   9  -6 834.419 25.1147   1
  -2   9  -6 819.707 26.0239   6
   2  -9  -6 829.250 26.6002   3
   2  -9  -6 818.523 25.3093   7
   2  -9  -6 830.550 25.3787   7
   2   9   6 851.072 25.9828   7
  -2  -9   6 884.186 25.8580   1
   3   9  -6 -0.1046 1.73954   7
  -3   9   6 -0.3466 2.25822   6
   3  -9   6 -2.5570 4.16880   3
  -3   9   6 2.36818 2.12439   1
   3  -9   6 0.04853 2.31051   7
   3   9  -6 0.35116 2.04064   6
  -3  -9  -6 -0.3842 2.08875   1
   3  -9  -6 3.84328 2.12859   3
   3  -9  -6 -0.1964 1.83871   7
  -3  -9   6 3.13948 2.29855   1
  -3   9  -6 2.71913 2.09919   6
   3  -9  -6 1.41354 2.00205   7
  -3   9  -6 2.20131 1.80712   1
   3   9   6 4.00955 2.29562   7
   4   9  -6 15.6161 2.90129   7
   4  -9   6 15.7127 3.20721   5
   4  -9   6 12.5501 5.08874   3
   4  -9   6 8.41284 2.76484   7
   4   9  -6 19.9655 3.70658   6
  -4   9   6 14.9712 3.77986   6
  -4  -9  -6 10.8391 2.89779   1
  -4   9   6 13.9978 2.91676   1
   4  -9  -6 11.0392 2.76770   7
  -4   9  -6 14.3944 3.29723   6
   4   9   6 18.0898 3.16741   7
  -4   9  -6 13.0993 2.74974   1
  -4  -9   6 17.2440 3.17712   1
   4  -9  -6 14.8531 3.33624   3
   4  -9  -6 7.49093 2.54328   7
   5  -9   6 2.40145 2.38099   5
  -5  -9  -6 3.73715 2.19440   1
   5   9  -6 2.61511 1.84699   7
   5  -9   6 1.27776 3.62871   3
  -5   9   6 3.12411 2.06595   1
  -5   9   6 6.49916 2.92401   6
   5  -9   6 1.69670 2.30877   7
   5  -9  -6 1.33154 6.26479   4
  -5   9  -6 3.06183 1.87040   1
  -5   9  -6 1.08783 1.98140   6
   5  -9  -6 0.64398 2.14871   7
  -5  -9   6 0.98976 2.14118   1
   5   9   6 2.51797 2.13305   7
   5  -9  -6 2.66801 2.41019   3
   6  -9   6 529.749 17.7460   5
   6  -9   6 515.538 17.0716   7
   6  -9   6 532.752 21.0166   3
   6   9  -6 526.623 16.9623   7
  -6   9   6 527.555 17.0272   1
  -6   9   6 526.448 18.5483   6
  -6  -9  -6 503.117 16.8813   1
   6  -9  -6 531.756 16.8706   7
  -6   9  -6 515.891 17.8475   6
   6  -9  -6 532.355 18.9775   3
   6  -9  -6 582.972 25.7370   4
  -6   9  -6 513.930 16.8969   1
  -6  -9   6 517.747 17.0424   1
   6   9   6 539.030 17.1986   7
   7  -9   6 2.77318 2.83464   5
   7  -9   6 -0.9627 3.02680   3
  -7   9   6 2.21760 2.66265   6
  -7  -9  -6 3.21359 2.31434   1
  -7   9   6 5.20921 2.16583   1
   7  -9   6 0.77548 2.15694   7
   7   9  -6 2.05279 1.82293   7
   7  -9  -6 0.91341 1.93204   7
  -7   9  -6 1.60214 1.84336   1
  -7  -9   6 2.47066 2.39936   1
   7   9   6 -1.3272 1.76256   7
   7  -9  -6 -0.8026 2.53072   3
  -7   9  -6 1.93870 2.18099   6
   7  -9  -6 2.18478 4.93464   4
   8  -9   6 4.76412 2.61301   7
  -8   9   6 10.2355 2.48866   1
   8  -9   6 8.49483 3.24587   5
   8  -9   6 5.11669 3.97169   3
  -8   9   6 13.7291 4.76701   6
   8   9  -6 9.75384 2.48910   7
  -8  -9  -6 12.5307 2.86914   1
  -8   9  -6 8.03922 2.43139   1
   8  -9  -6 13.0046 3.86714   3
   8  -9  -6 9.34097 5.64754   4
   8   9   6 7.52795 2.27686   7
   8  -9  -6 8.38980 2.47779   7
  -8  -9   6 9.82655 2.85966   1
  -9  -9  -6 0.72431 2.14638   1
   9  -9   6 -0.5822 2.76923   5
   9  -9   6 2.32930 3.59291   3
   9  -9  -6 3.51705 3.39661   3
   9  -9  -6 3.81508 5.38170   4
  -9   9  -6 3.01419 2.01601   1
  -9  -9   6 2.54120 2.24451   1
   9   9   6 1.78620 2.84137   7
  10  -9   6 257.148 11.3519   5
  10  -9  -6 259.716 12.6825   3
   0  10  -6 380.019 13.9994   6
   0 -10  -6 374.202 13.2105   7
   0  10   6 405.452 13.8269   7
   0 -10  -6 363.627 13.1660   1
   0 -10  -6 376.555 13.3337   7
   0  10   6 378.761 13.5707   1
   0 -10   6 388.630 13.5776   1
   0  10  -6 372.736 13.0236   1
   0  10  -6 361.442 13.0510   7
   0 -10   6 380.345 13.6639   7
   0  10   6 377.903 13.8001   6
  -1  10   6 9.00247 2.59500   7
  -1 -10  -6 10.4808 2.87594   7
  -1  10   6 4.55412 2.40822   1
   1 -10   6 13.5616 3.16921   7
  -1  10   6 6.41723 2.72085   6
   1 -10   6 11.3219 3.13317   1
   1  10  -6 7.93727 2.33039   7
  -1 -10  -6 9.37288 2.66425   7
  -1 -10  -6 10.3842 2.84633   1
   1  10  -6 8.59317 2.50608   1
   1  10  -6 6.81640 2.62546   6
   1 -10  -6 11.3026 2.62547   7
  -1 -10   6 8.44354 2.84935   1
  -1 -10   6 9.00909 2.84465   7
  -1  10  -6 10.8034 2.60922   7
  -1  10  -6 9.91095 2.53935   1
   1  10   6 9.81573 2.72491   7
  -1  10  -6 8.75836 2.85700   6
   1 -10  -6 6.29097 2.59841   7
   1  10   6 10.3807 2.74881   6
   1 -10  -6 7.15469 2.54493   1
   1  10   6 12.6935 2.91992   1
  -2  10   6 253.111 10.6765   6
  -2  10   6 267.225 10.1548   1
   2  10  -6 243.728 9.86204   7
   2  10  -6 248.860 10.4635   6
   2 -10   6 255.626 10.2178   7
  -2 -10  -6 267.770 10.1351   1
  -2  10  -6 252.874 10.6394   6
   2  10   6 246.770 10.1402   7
   2 -10  -6 277.444 10.3108   7
  -2  10  -6 245.644 9.80013   1
  -2 -10   6 257.701 10.0543   1
   2 -10  -6 258.415 10.1162   7
   3  10  -6 10.0103 2.61108   7
  -3 -10  -6 6.30777 2.68817   1
   3 -10   6 14.9453 6.48053   3
   3 -10   6 8.20890 2.77797   7
  -3  10   6 5.86570 2.45366   1
   3  10  -6 7.64091 2.63887   6
  -3  10   6 8.38225 3.08459   6
  -3 -10   6 6.76743 2.67199   1
  -3  10  -6 10.2641 2.47248   1
  -3  10  -6 5.30957 2.52035   6
   3  10   6 11.0321 2.77905   7
   3 -10  -6 7.72838 2.59655   7
   3 -10  -6 7.86058 2.64571   3
   4 -10   6 270.413 16.1672   3
  -4 -10  -6 289.739 10.9266   1
  -4  10   6 299.185 12.0181   6
   4  10  -6 297.642 10.9757   7
  -4  10   6 282.421 10.9310   1
   4 -10   6 310.361 11.2932   7
   4 -10   6 294.877 11.0810   5
   4 -10  -6 277.024 10.7790   7
   4 -10  -6 292.877 11.9205   3
  -4  10  -6 297.901 11.7258   6
  -4 -10   6 298.949 11.0250   1
  -4  10  -6 293.619 10.7709   1
   4  10   6 290.964 11.1043   7
   5 -10   6 8.27955 2.87689   5
   5  10  -6 6.12596 2.30474   7
   5 -10   6 5.32481 4.42174   3
  -5  10   6 6.46215 2.85939   6
   5 -10   6 5.98999 2.73542   7
  -5  10   6 5.45388 2.26402   1
  -5 -10  -6 5.01446 2.43188   1
  -5 -10   6 6.90357 2.73597   1
   5 -10  -6 4.89912 2.69458   3
   5  10   6 3.90122 2.32014   7
  -5  10  -6 5.53382 2.47054   6
  -5  10  -6 3.31295 2.07017   1
   5 -10  -6 1.96804 7.62311   4
   5 -10  -6 8.25064 2.70658   7
  -6  10   6 168.107 7.21836   1
   6 -10   6 155.572 7.68403   5
   6 -10   6 147.524 10.3649   3
   6  10  -6 140.559 6.80248   7
  -6  10   6 148.801 8.19326   6
  -6 -10  -6 146.133 6.98469   1
   6 -10   6 159.919 7.26691   7
   6 -10  -6 159.384 7.02407   7
   6 -10  -6 164.770 8.61393   3
   6  10   6 162.226 7.26957   7
   6 -10  -6 160.678 15.1594   4
  -6  10  -6 145.426 6.85547   1
  -6 -10   6 159.070 7.26679   1
  -6  10  -6 164.803 7.87320   6
  -7  10   6 4.93129 2.98122   6
  -7  10   6 5.39739 2.17701   1
   7 -10   6 8.10322 2.98701   5
   7  10  -6 5.76031 2.11394   7
  -7 -10  -6 2.56190 2.24654   1
   7 -10   6 0.25895 3.44351   3
   7 -10   6 7.07277 2.80447   7
   7  10   6 4.96578 2.27845   7
  -7  10  -6 3.47051 1.92162   1
   7 -10  -6 4.43680 5.77300   4
   7 -10  -6 8.40552 2.46752   7
   7 -10  -6 6.09417 3.24697   3
  -7 -10   6 4.38557 2.55540   1
  -7  10  -6 2.83098 2.47308   6
   8 -10   6 174.319 7.53335   7
  -8  10   6 169.456 7.37471   1
   8 -10   6 157.871 10.5813   3
   8  10  -6 170.318 7.22824   7
   8 -10   6 177.701 8.59501   5
  -8 -10  -6 186.782 7.73208   1
   8 -10  -6 180.362 14.1213   4
   8 -10  -6 177.317 9.61857   3
   8  10   6 176.115 7.43342   7
  -8  10  -6 167.820 7.39931   1
  -8 -10   6 177.919 7.66305   1
   8 -10  -6 167.281 7.13272   7
  -9 -10  -6 7.94937 2.56905   1
   9 -10   6 4.77726 3.26394   5
   9 -10   6 2.38120 4.17905   3
  -9  10   6 1.78915 1.99990   1
  -9  10  -6 3.49813 2.15916   1
  -9 -10   6 3.87171 2.42807   1
   9 -10  -6 3.30867 3.41258   3
  10 -10   6 53.8372 5.31127   5
  10 -10  -6 73.4326 6.72045   3
   0 -11   6 77.1155 5.29504   7
   0  11  -6 69.0479 4.60695   1
   0  11   6 73.3968 4.85610   1
   0 -11   6 71.0579 5.01149   1
   0  11  -6 71.6208 5.24634   6
   0 -11  -6 74.2976 5.04614   1
   0  11  -6 61.9000 4.53807   7
   0  11   6 72.8409 5.10888   6
   0 -11  -6 78.3287 5.19739   7
   0  11   6 76.3280 5.03557   7
  -1  11   6 12.8750 3.00484   1
   1 -11   6 9.82156 3.13096   1
   1  11  -6 18.0058 2.76633   7
   1  11  -6 17.0258 2.73506   1
   1 -11   6 14.4725 3.39640   7
  -1 -11  -6 15.9314 3.15790   1
  -1 -11  -6 21.2834 3.47320   7
  -1  11   6 13.9337 3.34029   6
   1  11  -6 13.5377 3.22511   6
   1 -11  -6 17.1103 3.36095   7
  -1  11  -6 12.8650 2.77555   1
  -1 -11   6 12.8272 3.23088   1
   1  11   6 14.9910 3.16826   6
   1  11   6 9.73083 2.69916   1
   1 -11  -6 14.4604 3.16822   1
  -1  11  -6 10.1268 2.97350   6
  -1  11  -6 5.25831 2.97227   7
   1  11   6 12.5558 2.84098   7
   2 -11   6 16.1041 3.72769   7
  -2  11   6 22.5091 4.31271   6
   2  11  -6 18.2468 3.20393   7
  -2 -11  -6 22.0833 3.82439   1
  -2  11   6 21.3263 3.61338   1
   2  11  -6 23.4144 4.09904   6
   2 -11  -6 15.0739 3.33081   7
  -2 -11   6 17.5896 3.63638   1
   2  11   6 19.6086 3.48303   7
  -2  11  -6 16.4708 3.17322   1
  -2  11  -6 18.1775 3.78906   6
  -3  11   6 10.8390 2.85249   1
  -3 -11  -6 7.37817 2.82171   1
   3 -11   6 10.5756 5.59915   3
   3  11  -6 8.38177 2.52830   7
   3 -11   6 7.57569 3.01555   7
  -3  11   6 14.9449 3.72043   6
   3  11  -6 7.65527 2.91009   6
   3 -11  -6 11.4775 3.13816   3
   3  11   6 12.8451 2.92026   7
   3 -11  -6 12.6624 2.92574   7
  -3 -11   6 14.2620 3.16317   1
  -3  11  -6 14.4180 2.83747   1
  -3  11  -6 10.0516 2.99569   6
  -4  11   6 56.9282 5.06019   6
  -4  11   6 55.9756 4.25154   1
  -4 -11  -6 58.6818 4.35515   1
   4  11  -6 54.4922 4.21458   7
   4 -11   6 52.1435 4.34204   7
   4 -11   6 57.5788 8.72147   3
  -4 -11   6 60.0845 4.46620   1
   4 -11  -6 48.2887 4.71804   3
   4  11   6 52.3767 4.26431   7
  -4  11  -6 59.3808 4.72734   6
  -4  11  -6 56.2395 4.06040   1
   4 -11  -6 56.4543 4.39330   7
  -5 -11  -6 12.4029 2.92557   1
   5 -11   6 16.2592 3.25659   5
   5 -11   6 9.35468 3.04695   7
   5  11  -6 9.00111 2.46484   7
   5 -11   6 9.35715 5.39913   3
  -5  11   6 12.3673 2.76244   1
  -5  11   6 10.7027 3.38717   6
   5  11   6 11.9067 2.71006   7
   5 -11  -6 8.26251 2.62717   7
  -5  11  -6 11.9367 3.10567   6
  -5 -11   6 5.84524 2.72330   1
   5 -11  -6 7.36025 3.06680   3
  -5  11  -6 9.92194 2.53950   1
   5 -11  -6 4.67846 10.5568   4
   6 -11   6 6.83890 4.77886   3
  -6  11   6 14.3362 3.93940   6
   6 -11   6 16.0507 3.64507   5
   6 -11   6 12.9560 3.21055   7
  -6  11   6 8.97720 2.75588   1
  -6 -11  -6 13.1543 3.13224   1
   6  11  -6 10.5403 2.60353   7
   6 -11  -6 13.5754 10.1466   4
   6  11   6 11.4256 2.91366   7
  -6  11  -6 10.7443 2.68146   1
   6 -11  -6 7.59518 3.42669   3
  -6 -11   6 12.4295 3.08513   1
   6 -11  -6 8.10457 2.83645   7
  -6  11  -6 14.2788 3.44614   6
   7 -11   6 2.65786 2.50537   7
   7 -11   6 6.74085 3.08306   5
  -7 -11  -6 7.73678 2.74816   1
   7 -11   6 5.37233 4.58294   3
   7  11  -6 6.02651 2.29099   7
  -7  11   6 6.65311 2.36221   1
  -7  11  -6 7.50778 2.35917   1
   7 -11  -6 4.43652 3.16837   3
  -7 -11   6 10.4709 3.04657   1
   7 -11  -6 6.12777 7.96065   4
   7  11   6 7.37781 2.32961   7
   7 -11  -6 9.32235 2.69770   7
  -8  11   6 27.8275 3.18966   1
   8  11  -6 24.8997 3.02492   7
  -8 -11  -6 23.9880 3.32180   1
   8 -11   6 21.3155 3.34437   7
   8 -11   6 30.3200 4.54090   5
   8 -11   6 29.7833 6.39959   3
  -8  11  -6 25.7368 3.11445   1
   8 -11  -6 31.6799 5.60632   3
   8  11   6 28.3390 4.06111   7
   8 -11  -6 24.8097 3.19955   7
  -8 -11   6 28.1730 3.48262   1
  -9  11   6 5.28075 2.20531   1
   9 -11   6 4.01466 4.53237   3
  -9 -11  -6 6.24096 2.57298   1
   9 -11   6 6.93400 3.39471   5
  -9  11  -6 4.79787 2.30786   1
   9 -11  -6 2.29766 3.27935   3
  -9 -11   6 6.40024 2.88005   1
  10 -11   6 4.94923 5.25874   3
   0 -12   6 681.378 22.1800   7
   0  12   6 687.765 22.4113   6
   0  12   6 693.906 22.2264   7
   0  12  -6 652.337 22.3515   6
   0 -12  -6 647.240 21.5044   7
   0 -12  -6 729.840 21.7889   1
   0 -12   6 668.444 21.9516   1
   0  12  -6 654.355 21.4637   7
   0  12  -6 678.944 21.4939   1
   0  12   6 707.992 22.1446   1
   1  12  -6 10.0038 2.70062   1
  -1  12   6 15.4567 3.18400   1
  -1  12   6 15.5051 3.54206   6
   1  12  -6 11.1781 3.13279   6
  -1 -12  -6 15.8383 3.33278   1
   1  12  -6 11.2689 2.70610   7
   1 -12   6 18.2745 3.67690   7
   1 -12   6 18.0329 3.80617   1
  -1  12  -6 13.7475 2.84259   1
   1 -12  -6 15.1350 3.38908   7
   1  12   6 16.0350 3.31004   7
  -1 -12   6 12.8318 3.41251   1
   1  12   6 11.1020 2.87660   1
  -1  12  -6 11.2847 3.08163   6
   2 -12   6 216.741 9.35523   7
   2  12  -6 199.313 9.26273   6
  -2  12   6 224.117 9.94067   6
  -2 -12  -6 199.738 8.79216   1
   2  12  -6 198.222 8.68624   7
  -2  12   6 226.018 9.29325   1
  -2  12  -6 208.270 9.53420   6
   2 -12  -6 194.982 8.71599   7
   2  12   6 206.642 9.19202   7
  -2 -12   6 208.501 9.19303   1
  -2  12  -6 211.231 8.77683   1
   3  12  -6 7.90897 2.44744   7
   3 -12   6 15.8116 3.61489   7
  -3  12   6 14.7124 3.63935   6
  -3  12   6 11.7604 3.09240   1
   3  12  -6 12.5489 3.29026   6
   3 -12   6 4.40360 4.33072   3
  -3 -12  -6 15.6429 3.42433   1
  -3  12  -6 12.6776 3.30534   6
  -3 -12   6 14.5312 3.27984   1
   3 -12  -6 12.8350 3.09196   7
  -3  12  -6 14.2820 2.92074   1
   3  12   6 14.8068 3.13484   7
  -4  12   6 495.046 17.2355   1
   4 -12   6 525.127 25.0512   3
   4  12  -6 508.118 16.8098   7
  -4  12   6 528.570 18.5443   6
   4 -12   6 518.105 17.5435   7
  -4 -12  -6 433.935 16.3318   1
   4 -12  -6 529.126 16.8152   7
  -4  12  -6 513.610 17.7174   6
  -4  12  -6 496.432 16.5828   1
  -4 -12   6 538.846 17.5725   1
   4  12   6 522.971 17.5298   7
   4 -12  -6 487.967 17.7635   3
   5  12  -6 5.47343 2.28924   7
  -5 -12  -6 14.4098 3.30665   1
   5 -12   6 9.55165 3.06673   5
   5 -12   6 2.60558 5.73569   3
  -5  12   6 10.2612 2.72586   1
   5 -12   6 8.43028 2.99638   7
   5 -12  -6 12.6143 3.02073   7
   5 -12  -6 7.86674 3.15496   3
   5  12   6 11.3209 2.84338   7
  -5  12  -6 4.99796 2.68963   6
  -5 -12   6 13.1327 3.24787   1
   5 -12  -6 -3.3226 12.9575   4
  -5  12  -6 10.5595 2.63220   1
  -6 -12  -6 110.975 6.35517   1
   6 -12   6 119.654 11.1497   3
   6 -12   6 125.178 6.72376   7
  -6  12   6 130.411 6.58485   1
   6  12  -6 131.813 6.49135   7
   6 -12   6 123.224 7.06368   5
  -6  12  -6 142.622 6.66614   1
  -6 -12   6 135.521 6.76271   1
   6  12   6 140.383 6.80220   7
   6 -12  -6 126.338 25.5863   4
   6 -12  -6 136.536 6.64432   7
   6 -12  -6 127.722 7.83847   3
   7 -12   6 -0.6446 4.80120   3
  -7 -12  -6 12.0867 2.95650   1
   7 -12   6 10.0366 3.40071   5
  -7  12   6 9.67603 2.51764   1
   7  12  -6 3.99953 2.21938   7
   7 -12   6 7.60246 3.18337   7
   7 -12  -6 8.06146 2.81128   7
   7  12   6 6.62541 2.82164   7
  -7 -12   6 4.96443 2.87579   1
   7 -12  -6 5.77078 3.19308   3
   7 -12  -6 5.12890 16.3150   4
  -7  12  -6 5.08165 2.34290   1
   8 -12   6 259.175 15.3825   3
   8 -12   6 287.016 11.7440   5
  -8  12   6 281.419 10.6643   1
  -8 -12  -6 273.976 10.5058   1
  -8 -12   6 295.250 10.8989   1
   8 -12  -6 265.256 12.5640   3
  -8  12  -6 277.085 10.4230   1
   9 -12   6 -0.8744 3.03598   5
   9 -12   6 -4.3481 3.74841   3
  -9  12   6 7.92653 3.15111   1
   9 -12  -6 5.69374 3.35853   3
   0 -13  -6 54.0564 4.66636   1
   0  13  -6 57.6075 4.39390   1
   0 -13   6 50.3242 4.62135   1
   0  13   6 55.8177 4.69507   6
   0  13  -6 53.9207 4.30508   7
   0  13   6 50.4278 4.44031   1
   0  13  -6 52.1658 4.81864   6
   0 -13   6 48.4417 4.60547   7
   0 -13  -6 44.3163 4.39526   7
   0  13   6 45.5795 4.32897   7
  -1  13   6 7.09772 2.84084   1
   1  13  -6 4.54665 2.85715   6
   1  13  -6 6.83960 2.55499   7
  -1  13   6 3.23150 2.75151   6
   1 -13   6 5.99800 3.07515   7
  -1 -13  -6 6.67019 2.88845   1
   1 -13  -6 1.48955 2.40276   7
  -1 -13   6 7.78923 3.25911   1
  -1  13  -6 4.08091 2.65649   6
  -1  13  -6 1.31116 2.17040   1
   1  13   6 6.86255 2.80804   7
   2  13  -6 8.36831 3.23619   6
  -2  13   6 13.2623 3.39975   1
   2  13  -6 10.7969 2.90387   7
   2 -13   6 10.3993 3.50546   7
  -2 -13  -6 6.81837 2.97279   1
  -2  13   6 12.6362 3.57119   6
  -2  13  -6 8.97078 2.78667   1
   2  13   6 9.22009 2.87045   7
   2 -13  -6 8.54187 2.96668   7
  -2 -13   6 16.4094 3.71349   1
  -2  13  -6 10.9640 3.31601   6
  -3  13   6 5.17184 2.63916   1
   3 -13   6 6.49569 2.98565   7
  -3  13   6 2.64712 2.81303   6
   3 -13   6 2.25498 4.04923   3
   3  13  -6 -0.7343 1.87816   7
  -3 -13  -6 3.53816 2.61214   1
   3 -13  -6 2.51470 2.63808   7
  -3  13  -6 4.62754 2.28544   1
  -3  13  -6 5.51004 2.85403   6
  -3 -13   6 0.81664 2.75406   1
   3  13   6 5.21634 2.34004   7
   4 -13   6 45.9546 4.35911   7
   4  13  -6 39.7020 3.87175   7
  -4  13   6 33.8601 3.82913   1
   4 -13   6 53.8667 9.91514   3
  -4 -13  -6 39.6123 4.00046   1
   4  13   6 36.8387 3.85455   7
  -4  13  -6 30.8215 3.53845   1
   4 -13  -6 38.4398 3.91217   7
  -4 -13   6 31.6352 4.08295   1
   5  13  -6 5.05050 2.37023   7
   5 -13   6 -0.6207 2.58106   7
   5 -13   6 1.41732 6.09901   3
  -5 -13  -6 6.91754 2.79401   1
  -5  13   6 4.93822 2.35931   1
   5 -13   6 1.33901 2.63143   5
   5  13   6 2.62817 2.27894   7
  -5  13  -6 3.40685 2.04767   1
  -5 -13   6 8.31204 2.97913   1
   5 -13  -6 7.71590 2.90159   7
   5 -13  -6 5.44056 2.89363   3
   5 -13  -6 0.40601 8.05891   4
   6 -13   6 2.82613 5.84855   3
   6  13  -6 6.02377 3.44188   7
   6 -13   6 7.47399 3.13828   5
  -6  13   6 5.44696 2.47909   1
  -6 -13  -6 3.79348 2.66779   1
  -6  13  -6 1.59980 2.19688   1
   6 -13  -6 4.32445 4.07484   7
   6 -13  -6 3.14086 3.00162   3
  -6 -13   6 5.53523 3.05391   1
  -7 -13  -6 -0.7225 2.39860   1
   7 -13   6 3.10744 2.96236   5
   7 -13   6 -5.4504 4.58705   3
  -7  13   6 0.51547 2.08892   1
   7 -13  -6 0.58657 2.84562   3
  -7  13  -6 3.60577 2.33335   1
  -7 -13   6 1.64575 2.78581   1
   8 -13   6 16.5085 3.99476   5
   8 -13   6 12.3247 5.78030   3
  -8  13   6 19.5533 4.03723   1
   8 -13  -6 18.9197 4.60651   3
  -8 -13   6 23.9205 5.15742   1
  -8  13  -6 27.8488 5.71636   1
   0  14  -6 303.947 12.4168   6
   0 -14  -6 277.514 11.6283   7
   0 -14   6 318.206 12.1436   1
   0  14   6 316.798 12.0525   1
   0 -14  -6 320.233 11.9016   1
   0 -14   6 287.272 15.7401   7
   0  14  -6 287.477 11.4621   1
   1  14  -6 6.63777 2.69138   7
   1 -14   6 1.52742 2.96075   7
  -1 -14  -6 9.25124 3.09772   1
  -1  14   6 8.88416 3.18310   6
   1  14  -6 2.39129 2.43772   6
  -1  14   6 0.81381 2.50976   1
  -1  14  -6 4.01963 2.37679   1
   1  14   6 3.50353 2.51624   7
   1 -14  -6 4.79435 2.86552   7
  -1 -14   6 2.95832 3.13759   1
   2  14  -6 54.9286 4.82213   6
   2 -14   6 52.0245 4.75752   7
   2  14  -6 46.8719 4.28696   7
  -2 -14  -6 57.4047 4.91008   1
  -2  14   6 44.3782 4.25553   1
   2 -14  -6 50.2726 4.46586   7
  -2  14  -6 50.5754 4.42412   1
  -2 -14   6 56.3209 4.94244   1
   2  14   6 54.3366 4.46155   7
  -3 -14  -6 0.31998 2.68259   1
   3  14  -6 1.83709 2.33616   7
   3 -14   6 3.91260 2.91528   7
   3 -14   6 5.72349 4.31843   3
  -3  14   6 3.76650 2.48741   1
   3 -14  -6 -0.0895 2.54475   7
  -3 -14   6 2.16057 3.01563   1
   3  14   6 5.38605 2.50660   7
  -3  14  -6 1.90571 2.20935   1
   4 -14   6 242.825 10.2270   7
  -4  14   6 240.532 9.92670   1
   4 -14   6 199.877 13.6058   3
  -4 -14  -6 233.119 9.95977   1
   4  14  -6 245.061 10.0798   7
  -4 -14   6 236.773 9.96332   1
   4 -14  -6 242.676 9.99306   7
  -4  14  -6 235.439 9.80670   1
   4  14   6 252.321 10.0830   7
  -5 -14  -6 6.92931 3.13058   1
   5 -14   6 -0.1446 2.56993   5
  -5  14   6 6.06032 2.59348   1
   5 -14   6 -2.2372 4.86808   3
  -5  14  -6 6.22534 2.54114   1
  -5 -14   6 8.10946 3.26242   1
  -6 -14  -6 31.3045 3.94921   1
   6 -14   6 40.9295 9.77341   3
   6 -14   6 26.1761 3.90317   5
  -6  14   6 29.1956 3.52887   1
  -6  14  -6 34.0172 3.61652   1
   6 -14  -6 40.4098 5.89693   3
  -6 -14   6 35.2811 4.00438   1
   7 -14   6 4.31091 2.90759   5
   7 -14   6 -1.7878 5.64536   3
   7 -14  -6 3.46539 3.19240   3
   0  15  -6 46.0445 4.87230   1
   0  15   6 51.4286 4.58206   1
  -1 -15  -6 -1.4950 2.65551   1
   1 -15   6 2.50474 3.14476   7
  -1  15   6 0.83676 2.50914   1
   1  15  -6 0.08311 2.20232   7
   1 -15  -6 1.85943 2.75895   7
  -1  15  -6 -0.7430 2.23136   1
  -1 -15   6 -2.9197 2.89506   1
   1  15   6 0.77969 2.42024   7
   2 -15   6 203.740 11.7083   3
  -2 -15  -6 230.289 9.67131   1
   2 -15   6 208.344 9.51970   7
   2  15  -6 224.475 9.57468   7
  -2  15   6 204.149 9.38762   1
   2  15   6 220.440 9.49073   7
   2 -15  -6 204.394 9.42123   7
  -2  15  -6 201.187 9.19083   1
  -2 -15   6 223.953 9.61255   1
   3  15  -6 0.39962 2.24366   7
  -3 -15  -6 -0.1731 2.64752   1
   3 -15   6 -1.4805 3.00401   7
   3 -15   6 -0.3887 3.40285   3
  -3  15   6 -0.8474 2.17722   1
   3  15   6 0.09292 2.16782   7
  -3  15  -6 4.28851 2.32043   1
   3 -15  -6 -0.8853 2.84965   7
  -3 -15   6 -0.3588 3.08535   1
  -4 -15  -6 33.6038 4.22450   1
  -4  15   6 25.9367 3.69877   1
   4 -15   6 29.1583 6.62739   3
  -4  15  -6 31.0364 3.47127   1
  -4 -15   6 38.9685 4.38390   1
  -5 -15  -6 0.82272 2.76905   1
   5 -15   6 -8.2430 3.56946   3
   5 -15   6 4.65519 2.96570   5
  -5  15   6 3.48907 2.45409   1
  -5 -15   6 -1.5348 2.91352   1
  -5  15  -6 1.50570 2.08455   1
   6 -15   6 158.585 8.02567   5
   6 -15   6 140.228 11.9623   3
  -1 -16  -6 -0.6401 2.71714   1
   1  16  -6 -0.7480 2.43655   7
  -1  16   6 -2.6585 2.16753   1
   1 -16   6 -0.3609 3.14635   7
  -1 -16   6 1.43032 3.07558   1
  -1  16  -6 3.81770 2.54442   1
  -2 -16  -6 27.0103 4.06743   1
   2 -16   6 41.4378 5.78143   3
  -2  16   6 37.9561 4.19914   1
  -2  16  -6 36.0962 3.82059   1
  -2 -16   6 30.8765 4.25050   1
  -3  16   6 1.15315 2.42938   1
  -3 -16  -6 -2.0643 2.66545   1
   3 -16   6 -0.3527 3.54624   3
  -3  16  -6 3.40329 2.50744   1
  -3 -16   6 0.98457 3.19702   1
   4 -16   6 416.550 19.2457   3
  -4  16   6 442.072 16.7194   1
  -4 -16  -6 429.989 15.7758   1
  -4 -16   6 438.772 16.4845   1
  -4  16  -6 425.245 15.9610   1
   5 -16   6 -0.1342 2.77684   5
   5 -16   6 6.71829 4.96083   3
  -1  17   6 1.57436 2.68655   1
  -1  17  -6 5.38628 2.73831   1
  -1 -17   6 1.51181 3.11687   1
   2 -17   6 18.1459 4.94292   3
  -2  17   6 10.4057 4.96263   1
  -2 -17  -6 8.35085 3.88438   1
  -2  17  -6 9.45544 3.92660   1
  -2 -17   6 9.49930 4.25950   1
   3 -17   6 0.85986 3.85237   3
   0   0  -7 1.74537 1.73112   6
   0   0   7 1.12881 1.45035   1
   0   0  -7 1.38760 1.45881   1
   0   0  -7 -1.0263 1.31361   7
   0   0   7 0.80165 1.67849   7
   1   0   7 7.16078 2.21505   7
  -1   0  -7 9.99707 2.32838   6
   1   0  -7 6.68862 2.05470   1
  -1   0  -7 7.39140 2.09965   1
   1   0   7 5.21117 2.11029   1
  -1   0   7 6.81680 2.34479   7
   1   0  -7 7.13552 2.08365   7
  -1   0  -7 4.56159 1.82218   7
   1   0  -7 10.3862 2.54267   6
  -1   0   7 7.16050 2.07360   1
  -2   0  -7 0.75409 1.44166   7
   2   0   7 0.69743 1.70591   7
  -2   0   7 1.21436 1.66951   7
  -2   0  -7 0.49903 1.43126   6
   2   0  -7 0.45366 1.40989   1
   2   0  -7 8.46006 2.37366   2
  -2   0   7 -0.4573 1.40105   1
   2   0  -7 1.83373 2.07001   6
  -2   0  -7 2.04394 1.57630   1
   2   0   7 2.00714 1.76464   2
   2   0   7 4.08211 1.80882   1
   2   0  -7 7.09575 2.01276   7
  -3   0  -7 5.70719 2.00561   1
   3   0  -7 7.03191 2.08091   7
  -3   0  -7 8.49005 2.12135   6
   3   0   7 6.51556 2.21179   7
  -3   0   7 8.39345 2.13727   1
   3   0   7 6.38765 2.42630   2
   3   0  -7 3.86703 2.16157   2
  -4   0   7 1.65264 1.61513   1
   4   0  -7 1.25633 1.71785   2
   4   0  -7 -1.8065 1.30272   7
   4   0   7 0.71345 1.76863   2
  -4   0  -7 1.45428 1.49950   6
  -4   0  -7 2.49882 1.63327   1
   4   0   7 1.57935 1.76767   7
   5   0  -7 5.52017 2.26212   2
  -5   0  -7 7.59274 2.18019   1
  -5   0   7 8.11682 2.17833   1
   5   0   7 8.47062 2.34684   7
   5   0   7 6.96170 2.57910   2
   5   0  -7 9.20567 2.38168   7
  -6   0   7 3.02902 1.71489   1
   6   0   7 1.58974 1.76935   7
   6   0   7 -1.4534 1.83163   2
   6   0  -7 0.92482 1.81283   2
  -6   0  -7 0.12640 1.52123   1
   6   0  -7 -0.6564 1.48466   7
  -7   0   7 -0.2480 1.79455   1
  -7   0  -7 7.05236 2.20556   1
   7   0  -7 5.53889 2.29736   2
   7   0   7 6.95143 2.13089   7
   7   0  -7 6.85256 1.81872   7
   7   0   7 1.85319 2.18254   2
   8   0   7 -1.0457 1.50929   7
   8   0   7 -0.5563 2.00326   2
   8   0  -7 -1.9251 1.58791   2
  -8   0  -7 2.01263 1.83359   1
   9   0  -7 3.96264 2.02797   2
   9   0   7 6.86631 2.52665   2
  10   0   7 2.35789 2.22952   2
  10   0  -7 1.45726 1.90152   2
  11   0  -7 4.65438 2.35069   2
  11   0   7 2.91887 2.36547   2
   0  -1  -7 777.324 23.5495   7
   0   1   7 833.963 23.7271   7
   0  -1   7 791.165 23.6082   7
   0   1  -7 777.045 24.0433   6
   0  -1  -7 796.789 24.0579   6
   0  -1  -7 800.853 23.5135   1
   0   1  -7 787.844 23.4560   1
   0   1  -7 796.565 23.5566   7
   0   1   7 740.666 23.3035   1
   1   1  -7 7.87602 2.06837   1
  -1   1   7 8.42824 2.29319   1
  -1  -1  -7 11.1866 2.36833   1
   1  -1   7 6.76965 2.20101   1
   1  -1   7 10.3477 2.51812   7
  -1  -1  -7 9.20908 2.20960   7
  -1   1   7 15.3192 2.43950   7
  -1  -1  -7 11.2562 2.48397   6
   1   1  -7 11.7130 2.63951   6
   1   1  -7 9.02254 2.29143   7
   1  -1  -7 4.80229 1.91068   7
   1  -1  -7 7.31116 2.02370   1
  -1   1  -7 9.37414 2.30335   6
  -1  -1   7 10.2175 2.36330   1
  -1  -1   7 8.90835 2.54137   7
  -1   1  -7 12.6773 2.45027   1
   1   1   7 11.2485 2.47001   1
  -1   1  -7 6.52479 2.11488   7
   1   1   7 9.79114 2.41144   7
   2  -1   7 577.791 17.9402   1
   2  -1   7 575.470 18.0297   7
   2   1  -7 573.681 17.6036   1
  -2  -1  -7 560.796 17.6152   1
   2   1  -7 573.717 18.5269   6
  -2   1   7 572.976 17.8783   1
   2   1  -7 561.946 18.4923   2
  -2   1   7 571.143 17.9878   7
   2   1  -7 549.721 17.5426   7
  -2  -1  -7 582.522 17.8300   6
  -2  -1  -7 588.943 17.7815   7
   2   1   7 606.072 18.1168   1
  -2   1  -7 574.784 17.7073   7
   2  -1  -7 559.309 17.5673   1
  -2   1  -7 548.195 17.5360   1
   2  -1  -7 574.239 17.3784   4
  -2  -1   7 581.727 17.9171   1
   2  -1  -7 595.180 17.7964   7
   2   1   7 593.504 18.1891   7
  -2  -1   7 558.929 17.9144   7
  -2   1  -7 563.703 17.9756   6
   3   1  -7 15.2729 2.71642   6
   3   1  -7 9.27511 2.15833   7
   3  -1   7 8.76857 2.37581   7
   3   1  -7 8.72022 2.51689   2
   3  -1   7 6.91646 2.57022   2
  -3  -1  -7 5.01516 2.01730   1
  -3   1   7 11.5067 2.41589   1
  -3  -1  -7 10.0529 2.15182   6
   3  -1  -7 11.4343 2.42714   7
   3  -1  -7 12.2831 2.00854   4
  -3   1  -7 11.2268 2.39906   1
  -3  -1   7 3.71745 2.03940   1
  -3   1  -7 9.74460 2.25947   6
   3  -1  -7 6.23690 2.30040   2
   3   1   7 10.0977 2.49833   7
   3   1   7 8.47273 2.59158   2
  -4  -1  -7 551.169 17.3514   1
   4   1  -7 535.476 17.1504   7
  -4   1   7 536.576 17.1599   1
  -4  -1  -7 562.541 17.2959   6
   4  -1   7 555.958 17.3848   7
   4  -1   7 546.830 18.0893   2
   4   1  -7 574.246 18.1229   2
   4   1   7 577.435 17.6147   7
   4  -1  -7 544.116 17.9879   2
  -4  -1   7 553.463 17.2183   1
   4  -1  -7 587.004 17.8485   4
   4  -1  -7 561.451 17.3004   7
  -4   1  -7 584.864 17.5892   6
   4   1   7 579.459 18.2381   2
   4  -1  -7 552.546 17.8816   3
  -4   1  -7 550.781 17.3107   1
   5   1  -7 7.16580 2.14330   7
   5  -1   7 7.78435 2.38222   7
  -5   1   7 8.20517 2.08726   1
  -5  -1  -7 12.4563 2.41154   1
   5  -1   7 5.39981 2.45152   2
   5   1  -7 8.63023 2.35604   2
   5   1   7 7.52024 2.58020   2
   5  -1  -7 7.81295 2.30771   2
   5  -1  -7 9.40095 2.13026   7
   5   1   7 10.1982 2.48778   7
  -5   1  -7 7.76468 2.15246   1
   5  -1  -7 14.4640 2.99101   3
  -5  -1   7 7.72768 2.22130   1
  -6  -1  -7 283.169 10.1275   1
   6  -1   7 315.592 10.4494   7
   6   1  -7 290.252 10.6802   2
   6  -1   7 296.004 11.0551   2
  -6   1   7 297.109 10.2015   1
   6   1  -7 296.882 9.98936   7
   6  -1  -7 290.482 9.81811   7
   6   1   7 284.296 11.0102   2
   6  -1  -7 287.413 11.5404   3
  -6   1  -7 284.718 10.1028   1
   6  -1  -7 304.474 10.8192   2
  -6  -1   7 288.737 10.0674   1
   6   1   7 292.633 10.2289   7
  -7  -1  -7 10.0567 2.37611   1
   7  -1   7 9.66554 2.32353   7
  -7   1   7 8.91363 2.33231   1
   7  -1   7 4.17020 2.47425   2
  -7   1   7 6.31744 2.79494   6
   7   1  -7 8.67951 2.43783   2
   7   1  -7 8.20925 1.96302   7
   7   1   7 6.49924 2.49105   2
   7   1   7 11.4800 2.36942   7
   7  -1  -7 11.2588 2.68098   2
   7  -1  -7 8.11915 1.89145   7
  -7  -1   7 5.73225 2.10253   1
  -7   1  -7 7.36599 2.20848   1
  -8  -1  -7 251.471 9.11311   1
   8  -1   7 263.131 9.04361   7
   8   1  -7 250.053 9.55732   2
   8  -1   7 257.662 10.1913   2
   8   1   7 282.181 9.17860   7
  -8   1  -7 266.026 9.18647   1
   8  -1  -7 250.028 9.51447   2
  -8  -1   7 268.376 10.0488   1
   8   1   7 250.294 10.1367   2
   9   1  -7 6.33968 2.31827   2
   9  -1   7 3.21407 2.47400   2
   9  -1  -7 1.52701 1.95782   2
   9   1   7 6.78386 2.60006   2
  10  -1   7 114.601 6.02574   2
  10   1  -7 109.067 5.56608   2
  10  -1  -7 107.038 5.46418   2
  10   1   7 117.303 6.02480   2
  11  -1   7 6.27289 2.63945   2
  11   1  -7 3.95363 2.24750   2
  11   1   7 4.81163 2.38700   2
  11  -1  -7 6.39268 2.43972   2
   0   2   7 352.279 11.8914   7
   0   2  -7 344.663 12.3974   6
   0  -2   7 323.251 11.5092   1
   0  -2   7 344.744 11.7447   7
   0  -2  -7 357.972 11.8021   7
   0   2  -7 333.461 11.7113   7
   0   2  -7 349.423 11.7230   1
  -1  -2  -7 11.0982 2.27768   7
   1  -2   7 6.23095 2.26148   7
  -1   2   7 5.21043 2.03828   1
   1   2  -7 8.19742 2.05567   1
   1   2  -7 11.9939 2.63209   6
   1   2  -7 8.74385 2.11992   7
  -1   2   7 7.06362 2.24900   7
   1  -2   7 7.78533 2.27255   1
  -1  -2  -7 5.54171 1.91842   1
   1  -2  -7 8.74146 2.18158   7
  -1  -2   7 10.5643 2.26566   1
  -1   2  -7 10.0582 2.21980   1
   1  -2  -7 7.54517 2.06503   1
  -1  -2   7 8.34089 2.37152   7
   1   2   7 3.28865 1.99885   1
  -1   2  -7 7.35997 2.03472   7
  -1   2  -7 10.2675 2.42550   6
   1   2   7 6.99211 2.26887   7
   2  -2   7 541.457 16.6580   1
  -2  -2  -7 517.866 16.4467   1
   2   2  -7 512.170 17.1336   6
  -2  -2  -7 511.651 16.4672   7
   2   2  -7 541.846 16.3827   1
   2  -2   7 449.961 16.5161   7
  -2   2   7 576.613 16.9186   7
   2   2  -7 518.191 16.3543   7
  -2  -2  -7 525.409 16.4409   6
   2  -2   7 525.623 15.8375   5
  -2   2   7 526.716 16.6832   1
   2   2  -7 496.182 17.0698   2
  -2   2  -7 533.135 16.4900   7
  -2  -2   7 501.863 16.4959   1
  -2   2  -7 527.470 16.8754   6
  -2   2  -7 507.295 16.3441   1
   2   2   7 533.723 16.6560   1
   2  -2  -7 528.098 16.5019   7
   2  -2  -7 537.160 16.4181   1
   2   2   7 556.958 16.9547   7
  -2  -2   7 551.821 16.7790   7
  -3  -2  -7 10.0325 2.25289   1
   3   2  -7 14.7453 2.61997   6
  -3  -2  -7 3.06423 1.74100   6
   3  -2   7 5.76530 1.99056   5
   3   2  -7 5.77628 1.90877   7
   3   2  -7 4.69669 2.05145   2
   3  -2   7 6.05027 2.46730   2
   3  -2   7 8.11735 2.36606   7
  -3   2   7 5.07993 2.01364   1
   3   2   7 8.24977 2.38980   7
  -3   2  -7 8.97168 2.26834   6
   3  -2  -7 11.3718 2.30988   4
   3  -2  -7 9.52915 2.51942   2
   3   2   7 6.40757 2.38120   2
   3  -2  -7 9.00264 2.10733   3
   3  -2  -7 8.32158 2.11350   7
  -3   2  -7 8.01178 2.10331   1
  -3  -2   7 8.83724 2.24297   1
  -4  -2  -7 236.161 8.77540   1
   4   2  -7 224.548 8.56868   7
  -4   2   7 253.975 8.93088   1
   4  -2   7 245.068 8.98035   7
   4   2  -7 233.221 9.25133   2
   4  -2   7 238.367 8.89311   5
   4  -2   7 233.315 9.44033   2
   4   2  -7 230.861 9.67770   6
   4   2   7 228.475 8.92127   7
   4  -2  -7 235.612 9.13185   3
   4  -2  -7 247.791 9.50589   4
   4  -2  -7 240.987 9.34795   2
   4  -2  -7 236.435 8.65733   7
  -4  -2   7 237.539 8.75626   1
  -4   2  -7 234.134 8.91881   6
   4   2   7 236.559 9.56792   2
  -4   2  -7 236.759 8.69763   1
  -5  -2  -7 7.74657 2.17577   1
   5   2  -7 5.75810 1.90891   7
   5   2  -7 6.82978 2.14735   2
   5  -2   7 1.56014 2.07072   2
   5  -2   7 7.66644 2.23278   7
  -5   2   7 7.73054 2.17231   1
   5  -2   7 6.50689 2.41887   5
   5  -2  -7 7.76917 2.02856   7
  -5  -2   7 9.24068 2.27482   1
   5  -2  -7 8.61800 2.45624   2
  -5   2  -7 5.84612 1.95907   6
   5   2   7 7.39839 2.22544   7
   5  -2  -7 5.34743 2.15843   4
   5  -2  -7 4.81955 2.30860   3
   5   2   7 6.13187 2.45373   2
  -5   2  -7 6.28934 2.01595   1
  -6  -2  -7 309.648 10.6555   1
   6  -2   7 310.270 11.5407   2
  -6   2   7 310.428 12.1981   6
   6  -2   7 317.859 10.8927   7
   6   2  -7 302.909 11.1052   2
  -6   2   7 320.412 10.7452   1
   6   2  -7 302.587 10.3021   7
   6  -2   7 324.326 11.7005   5
  -6   2  -7 311.663 10.5637   1
   6   2   7 324.073 11.8147   2
   6  -2  -7 311.021 11.2477   2
   6  -2  -7 304.508 10.2486   7
   6  -2  -7 303.647 11.9669   3
   6   2   7 314.452 10.8445   7
  -6  -2   7 308.010 10.7049   1
   7  -2   7 8.63418 2.63885   2
   7   2  -7 5.73577 2.15480   2
  -7   2   7 4.60211 1.99442   1
  -7  -2  -7 6.66909 2.10012   1
   7  -2   7 6.86830 2.21370   7
  -7   2   7 9.64668 3.12055   6
   7   2  -7 5.77810 1.85689   7
  -7  -2   7 7.93080 2.20940   1
  -7   2  -7 4.71517 1.99443   1
   7  -2  -7 9.07897 1.98419   7
   7  -2  -7 13.5843 3.31303   3
   7  -2  -7 6.88018 2.37927   2
   7   2   7 8.13520 2.19777   7
   7   2   7 6.26512 2.49870   2
   8  -2   7 102.294 4.77902   7
   8   2  -7 95.9251 5.22095   2
  -8  -2  -7 96.3609 4.79700   1
   8  -2   7 98.1928 5.64448   2
  -8   2   7 111.906 5.39824   1
   8   2   7 96.9733 5.64861   2
  -8   2  -7 98.9351 4.80754   1
   8  -2  -7 100.592 5.28059   2
  -8  -2   7 101.465 4.81589   1
   8  -2  -7 102.125 6.73943   3
   8   2   7 102.770 4.76507   7
   9  -2   7 3.33602 2.48426   2
   9   2  -7 2.61526 1.82407   2
   9   2   7 2.25662 2.26988   2
   9  -2  -7 3.94959 2.86269   3
   9  -2  -7 3.91134 2.16957   2
  10   2  -7 150.092 6.67397   2
  10  -2   7 148.393 7.05371   2
  10  -2  -7 142.584 6.65944   2
  10   2   7 148.863 7.08503   2
  11   2  -7 3.01484 2.15800   2
  11  -2   7 4.42772 2.46390   2
  11   2   7 3.57837 2.56138   2
  11  -2  -7 3.50376 2.35456   2
   0   3  -7 1828.11 50.0127   7
   0   3   7 1774.83 50.0823   7
   0  -3   7 1771.23 49.8454   1
   0  -3  -7 1799.32 50.0352   7
   0   3  -7 1758.91 50.6650   6
   0  -3   7 1776.07 49.9146   7
   0  -3  -7 1825.97 50.0594   1
   0   3   7 1813.96 49.9845   1
   0   3  -7 1729.60 49.7953   1
  -1  -3  -7 -0.2239 1.47483   7
   1   3  -7 1.52866 1.53335   7
   1  -3   7 2.16937 1.80451   1
  -1   3   7 -1.4193 1.66354   7
   1   3  -7 -1.2787 1.47826   6
   1  -3   7 1.89095 1.98602   7
   1   3  -7 3.12033 1.62900   1
  -1  -3  -7 1.71909 1.69643   1
  -1   3   7 2.34871 1.70821   1
   1  -3  -7 2.20287 1.58506   7
  -1   3  -7 0.68092 1.51882   7
   1   3   7 0.76257 1.70056   1
  -1   3  -7 2.30114 1.87197   6
   1   3   7 -1.3890 1.61881   7
  -1   3  -7 1.44708 1.41628   1
   1  -3  -7 0.92058 1.49602   1
  -1  -3   7 1.24379 1.74669   7
  -1  -3   7 1.10858 1.70912   1
  -2  -3  -7 921.640 28.3282   1
   2  -3   7 994.758 28.7990   7
   2   3  -7 997.499 32.6559   2
   2   3  -7 937.896 28.3201   7
   2  -3   7 990.771 27.7353   5
  -2   3   7 961.279 28.5981   1
  -2  -3  -7 963.472 28.4755   7
   2   3  -7 939.327 29.2061   6
  -2   3   7 1038.23 28.8173   7
   2  -3   7 1002.12 28.7340   1
   2   3  -7 1022.82 28.4672   1
   2  -3  -7 958.996 28.4011   7
  -2   3  -7 952.468 28.3168   1
  -2  -3   7 931.433 28.5778   7
   2   3   7 971.393 28.7710   7
  -2   3  -7 976.095 28.9291   6
  -2  -3   7 944.548 28.4790   1
   2  -3  -7 993.861 29.6538   2
   2   3   7 980.849 28.6627   1
   2  -3  -7 1001.96 28.3113   1
  -2   3  -7 1000.00 28.5555   7
   3   3  -7 1.91738 1.57589   2
  -3  -3  -7 1.99822 1.66740   1
   3   3  -7 -0.0524 1.67290   6
   3  -3   7 -0.9045 1.79695   7
   3  -3   7 1.26285 1.83863   2
   3   3  -7 3.49507 1.75742   7
  -3   3   7 2.22358 1.68482   1
   3  -3   7 2.09254 1.57206   5
   3  -3  -7 1.67762 1.73750   4
   3  -3  -7 1.30184 1.78021   3
   3  -3  -7 -0.5562 1.54763   7
   3   3   7 -1.1518 1.61194   7
  -3  -3   7 1.18632 1.60764   1
  -3   3  -7 3.65297 1.91754   6
  -3   3  -7 2.33579 1.59489   1
   3   3   7 1.91373 1.89718   2
   3  -3  -7 -0.7851 1.68027   2
   4  -3   7 1156.76 36.4832   7
   4  -3   7 1296.29 37.5012   2
   4   3  -7 1337.67 38.2609   2
   4  -3   7 1302.10 36.4950   5
   4   3  -7 1353.48 37.4391   7
  -4   3   7 1308.64 36.4581   1
  -4  -3  -7 1346.06 37.5007   1
   4   3  -7 1291.18 38.5703   6
  -4  -3   7 1304.55 36.4322   1
   4  -3  -7 1322.86 38.8627   4
  -4   3  -7 1318.21 37.8617   6
   4  -3  -7 1270.65 37.2101   7
   4   3   7 1294.39 37.6396   2
   4   3   7 1294.10 36.6505   7
  -4   3  -7 1306.11 37.3374   1
   4  -3  -7 1310.41 37.8116   3
   4  -3  -7 1282.63 38.1860   2
  -5  -3  -7 1.05238 1.66033   1
   5  -3   7 -0.7701 1.90273   7
   5   3  -7 0.53835 1.61905   2
   5   3  -7 1.83607 2.34360   6
  -5   3   7 0.80678 2.16897   6
   5  -3   7 1.76170 2.07467   2
   5   3  -7 1.27475 1.52784   7
   5  -3   7 1.15851 2.04609   5
  -5   3   7 1.88025 1.71063   1
  -5   3  -7 -0.3543 1.63513   6
  -5   3  -7 2.34813 1.71746   1
   5  -3  -7 -0.3507 1.79638   4
   5  -3  -7 1.32779 1.89797   3
  -5  -3   7 1.87003 1.74375   1
   5  -3  -7 0.66306 1.75887   2
   5   3   7 3.11611 1.95845   7
   5   3   7 2.39204 2.14624   2
   5  -3  -7 2.45077 1.76301   7
   6  -3   7 563.919 18.6865   2
  -6   3   7 578.090 19.3800   6
   6   3  -7 552.967 17.2708   7
   6   3  -7 571.271 18.2808   2
   6  -3   7 567.689 18.4157   5
  -6   3   7 575.514 17.6526   1
  -6  -3  -7 573.513 17.6453   1
   6  -3   7 567.372 17.6900   7
   6  -3  -7 567.464 19.0299   3
   6   3   7 579.520 17.8166   7
   6  -3  -7 568.414 19.4589   4
   6   3   7 578.181 18.8094   2
   6  -3  -7 549.649 17.2442   7
  -6   3  -7 585.055 17.6389   1
   6  -3  -7 569.144 18.2885   2
  -6  -3   7 570.366 17.5738   1
   7   3  -7 -0.1756 1.59168   2
   7  -3   7 -3.2597 2.20496   5
  -7   3   7 -0.5376 1.60658   1
   7   3  -7 1.27962 1.57656   7
   7  -3   7 0.65228 1.79168   7
   7  -3   7 1.39035 2.11524   2
  -7  -3  -7 0.30579 1.61471   1
  -7   3   7 -2.6544 2.28351   6
  -7  -3   7 -0.1116 1.68957   1
   7   3   7 1.21852 1.78493   7
   7   3   7 2.35188 2.19724   2
  -7   3  -7 -0.1028 1.49327   1
   7  -3  -7 3.65561 1.74546   7
   7  -3  -7 3.00292 2.50434   3
   7  -3  -7 2.77308 2.08083   2
   8   3  -7 616.494 19.8434   2
   8  -3   7 645.036 20.6107   2
  -8   3   7 619.195 19.3182   1
   8  -3   7 652.365 21.1505   5
  -8  -3  -7 636.645 19.1989   1
   8  -3   7 684.390 19.6180   7
   8   3   7 657.316 19.3418   7
  -8  -3   7 632.807 19.4302   1
   8  -3  -7 633.806 21.7144   3
   8   3   7 642.257 20.7730   2
  -8   3  -7 640.935 19.2116   1
   8  -3  -7 632.001 19.9860   2
   9  -3   7 1.30371 2.17870   2
   9   3  -7 2.90491 1.98577   2
   9   3   7 -0.0912 2.12692   2
   9  -3  -7 -1.6506 1.98279   2
   9  -3  -7 1.16825 2.64982   3
  10  -3   7 238.710 9.63073   2
  10   3  -7 257.091 9.72194   2
  10  -3  -7 247.937 9.80050   2
  10   3   7 244.969 9.85675   2
  10  -3  -7 254.018 11.8975   3
  11  -3   7 2.12177 2.53620   2
  11   3  -7 -1.4377 1.99652   2
  11   3   7 1.93795 2.45419   2
  11  -3  -7 0.53444 3.17863   2
   0   4  -7 160.662 6.83400   7
   0  -4  -7 167.281 6.97597   7
   0  -4  -7 170.381 6.90484   1
   0  -4   7 163.700 6.93554   1
   0   4  -7 152.329 6.70370   1
   0  -4   7 154.960 6.93339   7
   0   4   7 164.305 7.04522   7
   0   4   7 171.816 7.07481   1
   0   4  -7 167.177 7.45261   6
   1   4  -7 0.09082 1.42215   7
   1  -4   7 -0.4489 1.75213   7
  -1   4   7 1.93237 1.78731   1
  -1  -4  -7 0.29579 1.61878   7
  -1   4   7 0.76254 1.69674   7
  -1  -4  -7 1.52077 1.68698   1
   1   4  -7 0.37134 1.41760   1
   1   4  -7 -0.1771 1.73823   6
   1  -4   7 -0.6218 1.71329   1
  -1   4  -7 -1.4218 1.33850   1
   1  -4  -7 1.25920 1.74493   1
  -1   4  -7 0.67421 1.45874   7
  -1  -4   7 1.97322 1.86851   1
  -1  -4   7 3.98615 1.97631   7
   1   4   7 1.00086 1.77521   7
  -1   4  -7 -1.3394 1.59688   6
   1  -4  -7 2.36745 1.75719   7
   1   4   7 0.27841 1.63298   1
   2  -4   7 1473.78 40.7052   5
   2   4  -7 1513.75 40.6858   1
  -2  -4  -7 1516.09 40.8882   7
  -2   4   7 1397.61 41.5701   7
  -2   4   7 1472.39 41.5951   1
   2   4  -7 1422.28 41.7072   6
   2  -4   7 1457.48 41.6571   7
   2  -4   7 1504.77 41.6608   1
   2   4  -7 1401.19 40.6000   7
  -2  -4  -7 1385.04 40.5513   1
  -2   4  -7 1371.86 40.6173   7
  -2   4  -7 1370.71 40.5288   1
   2   4   7 1505.69 41.8836   7
   2   4   7 1490.84 41.6834   1
  -2  -4   7 1452.60 41.6170   7
  -2  -4   7 1455.74 41.5423   1
   2  -4  -7 1407.87 40.6399   7
  -2   4  -7 1450.70 41.3911   6
   2  -4  -7 1487.91 40.6708   1
   3   4  -7 0.91584 1.75716   6
   3  -4   7 1.07304 1.95643   7
   3   4  -7 0.83119 1.67109   2
   3  -4   7 1.13513 1.65116   5
  -3   4   7 1.19399 1.60710   1
  -3  -4  -7 1.27699 1.66686   1
   3   4  -7 0.23784 1.53956   7
  -3  -4   7 1.81638 1.93133   1
   3  -4  -7 -0.3029 1.83231   2
  -3   4  -7 2.25522 1.65395   1
   3  -4  -7 0.06293 1.50143   7
   3   4   7 -1.1283 1.65282   7
  -3   4  -7 0.90405 1.64764   6
  -4   4   7 121.250 5.57183   1
   4  -4   7 121.602 5.74974   7
   4  -4   7 121.908 6.38527   2
   4   4  -7 119.966 6.11437   2
  -4  -4  -7 116.272 5.49872   1
   4   4  -7 116.763 5.48320   7
   4   4  -7 116.837 6.27243   6
  -4   4   7 122.753 6.58315   6
   4  -4   7 114.722 5.57174   5
  -4   4  -7 113.212 5.79646   6
  -4   4  -7 112.772 5.46597   1
   4   4   7 116.167 5.71363   7
   4  -4  -7 113.098 5.43974   7
   4  -4  -7 121.071 6.25086   2
  -4  -4   7 106.879 5.42174   1
   4  -4  -7 110.147 5.68297   3
   4  -4  -7 117.836 6.78934   4
   4   4   7 124.078 6.51554   2
  -5   4   7 3.19130 2.52017   6
   5  -4   7 1.95624 2.14474   2
  -5   4   7 2.06991 1.83175   1
   5   4  -7 -0.2354 1.61341   7
   5   4  -7 0.79634 2.23884   6
  -5  -4  -7 1.60333 1.72121   1
   5   4  -7 0.82490 1.74216   2
   5  -4   7 1.06706 1.90876   7
   5  -4   7 -0.5935 1.94487   5
  -5   4  -7 0.84076 1.72424   6
   5  -4  -7 0.48660 1.62254   7
  -5  -4   7 0.12816 1.79562   1
   5   4   7 -0.8362 2.00594   2
   5   4   7 3.07240 1.98541   7
   5  -4  -7 1.91870 2.18549   4
  -5   4  -7 -0.3970 1.50472   1
   5  -4  -7 0.50451 1.86233   3
   5  -4  -7 -1.0085 1.81186   2
  -6  -4  -7 841.504 25.4744   1
   6  -4   7 881.222 26.9280   2
   6   4  -7 862.585 26.3122   2
   6  -4   7 858.414 26.4535   5
  -6   4   7 870.809 25.7225   1
  -6   4   7 863.640 27.5332   6
   6  -4   7 869.500 25.9612   7
   6   4  -7 873.237 25.3718   7
   6   4   7 891.883 27.2933   2
   6  -4  -7 860.961 27.0303   3
  -6  -4   7 893.121 25.8151   1
   6  -4  -7 850.978 25.2078   7
   6  -4  -7 871.541 26.5034   2
   6  -4  -7 886.199 28.0457   4
   6   4   7 888.582 25.9715   7
  -6   4  -7 875.693 25.5046   1
  -7   4   7 -0.7836 2.31649   6
  -7   4   7 0.53803 1.70440   1
   7   4  -7 1.74423 1.59453   7
   7  -4   7 0.40105 2.25615   2
   7  -4   7 1.50439 2.52045   5
   7   4  -7 2.11162 1.87905   2
   7  -4   7 1.02522 1.91015   7
  -7  -4  -7 2.40132 1.85754   1
  -7  -4   7 -0.6637 1.76610   1
   7  -4  -7 0.94975 2.42014   4
   7  -4  -7 -0.6193 1.46607   7
   7  -4  -7 -0.1116 1.90204   2
   7  -4  -7 1.92769 2.39783   3
  -7   4  -7 1.17094 1.69512   1
   7   4   7 -0.6904 1.94604   2
   7   4   7 0.57404 1.76434   7
   8  -4   7 64.3636 4.86753   5
   8   4  -7 53.9332 3.36234   7
  -8  -4  -7 58.0308 3.74897   1
   8  -4   7 54.2100 3.76455   7
   8   4  -7 52.8221 3.96676   2
   8  -4   7 58.2167 4.45934   2
  -8   4   7 56.6036 4.88996   6
  -8   4   7 52.1585 3.56556   1
   8  -4  -7 57.8031 4.39939   2
   8   4   7 57.2775 3.56222   7
   8   4   7 52.6615 4.41988   2
   8  -4  -7 56.1177 5.08325   3
  -8   4  -7 54.8604 3.66265   1
  -8  -4   7 57.5889 3.77747   1
   9  -4   7 -0.2523 2.25936   2
   9   4  -7 -1.7801 1.67939   2
   9  -4   7 -0.2882 2.90004   5
   9  -4  -7 2.44470 2.89456   3
   9   4   7 -0.8109 2.08618   2
   9  -4  -7 2.93133 2.24463   2
  10  -4   7 404.753 14.0790   2
  10   4  -7 385.399 13.3056   2
  10  -4  -7 387.174 13.3563   2
  10  -4  -7 372.106 15.5614   3
  10   4   7 394.661 14.2681   2
  11  -4  -7 -0.0220 3.23154   3
  11   4   7 2.27670 3.85470   2
   0   5   7 1694.95 47.0360   1
   0   5   7 1756.96 47.2288   7
   0  -5   7 1574.84 46.7178   1
   0   5  -7 1577.80 45.4269   7
   0  -5  -7 1601.98 45.4402   1
   0   5   7 1624.87 47.2699   6
   0  -5  -7 1680.46 45.6228   7
   0   5  -7 1577.75 46.1826   6
   0  -5   7 1664.96 47.0157   7
   1   5  -7 2.71725 1.75979   1
   1  -5   7 0.54002 1.94427   7
  -1   5   7 2.95699 2.21213   6
   1  -5   7 3.59312 1.96826   1
  -1  -5  -7 2.09908 1.88408   1
  -1  -5  -7 2.31740 1.86300   7
   1   5  -7 3.12002 2.06898   6
  -1   5   7 0.65661 1.70178   7
   1   5  -7 2.70367 1.63957   7
  -1   5   7 2.24547 1.88512   1
   1   5   7 2.18936 1.76257   1
   1  -5  -7 0.06549 1.75245   1
   1   5   7 3.43387 2.09419   7
  -1  -5   7 3.44102 2.03111   1
  -1   5  -7 3.54654 1.78522   7
  -1   5  -7 1.65975 1.93419   6
   1  -5  -7 4.22908 1.99153   7
  -1   5  -7 2.52454 1.54245   1
  -1  -5   7 2.80343 1.95186   7
  -2   5   7 523.943 17.7400   6
  -2  -5  -7 518.217 16.9384   7
  -2   5   7 538.679 17.1612   7
   2   5  -7 536.713 16.8313   1
   2  -5   7 513.350 16.0869   5
   2  -5   7 526.359 17.0790   7
  -2  -5  -7 529.088 16.9291   1
   2   5  -7 526.509 17.7850   6
  -2   5   7 544.107 17.0811   1
   2  -5   7 541.719 17.0859   1
   2   5  -7 550.928 16.9265   7
  -2   5  -7 534.465 17.5847   6
   2   5   7 540.604 16.9684   6
   2  -5  -7 530.896 16.9866   7
   2   5   7 527.413 17.0498   1
  -2  -5   7 541.443 16.9721   1
  -2   5  -7 503.831 16.7061   1
  -2  -5   7 537.783 17.0630   7
   2  -5  -7 544.734 16.9004   1
   2   5   7 540.060 17.2673   7
  -2   5  -7 542.065 16.9577   7
   3   5  -7 0.00472 1.51179   7
  -3   5   7 5.87508 2.12107   1
   3  -5   7 1.18769 2.23156   3
  -3  -5  -7 3.64144 1.87706   1
   3  -5   7 3.85758 2.11884   7
  -3   5   7 2.90298 2.42935   6
   3   5  -7 4.11978 2.32848   6
   3  -5   7 5.32123 1.98563   5
  -3   5  -7 2.75609 1.74319   1
   3  -5  -7 3.12033 1.95516   7
   3   5   7 3.05360 2.14279   7
  -3   5  -7 4.79050 2.16178   6
  -3  -5   7 4.19694 2.09781   1
   4  -5   7 1235.33 34.8536   5
   4   5  -7 1178.00 35.2381   2
  -4  -5  -7 1170.09 34.0451   1
  -4   5   7 1196.62 34.8488   1
   4   5  -7 1175.32 34.0174   7
   4  -5   7 1202.23 35.0026   7
  -4   5   7 1172.94 36.1407   6
   4   5  -7 1175.82 35.1419   6
   4  -5  -7 1185.70 34.5221   3
  -4   5  -7 1211.68 34.8088   6
   4  -5  -7 1203.13 36.9965   4
  -4   5  -7 1169.96 33.9601   1
  -4  -5   7 1244.79 34.8971   1
   4   5   7 1222.60 35.1377   7
   4  -5  -7 1146.54 33.9355   7
   4  -5  -7 1188.71 35.0062   2
  -5   5   7 -1.1733 2.04279   6
  -5  -5  -7 0.05182 1.74012   1
   5  -5   7 0.45271 2.02102   5
  -5   5   7 -0.5559 1.65886   1
   5   5  -7 0.26553 1.61630   7
   5  -5   7 0.20930 2.06666   7
   5  -5   7 1.86724 2.28561   2
   5   5  -7 0.76511 1.72513   2
   5   5  -7 2.65501 2.33505   6
   5   5   7 -1.8985 1.80820   7
   5   5   7 0.67102 2.74572   2
   5  -5  -7 0.61421 2.31225   4
   5  -5  -7 0.62466 2.02694   2
  -5   5  -7 0.54177 1.80639   6
  -5  -5   7 1.95134 2.01690   1
   5  -5  -7 0.89981 1.91975   3
  -5   5  -7 1.70924 1.61489   1
   5  -5  -7 -2.3613 1.56924   7
   6   5  -7 279.632 9.98457   7
  -6   5   7 265.219 9.86477   1
   6  -5   7 277.706 10.9898   2
   6   5  -7 293.957 10.8656   2
  -6   5   7 284.411 11.6041   6
   6  -5   7 281.973 10.7052   5
  -6  -5  -7 277.204 10.0625   1
   6  -5   7 282.910 10.2075   7
   6  -5  -7 306.519 12.9334   4
   6  -5  -7 270.257 9.83045   7
   6   5   7 279.640 10.1310   7
   6   5   7 279.625 11.2142   2
  -6   5  -7 276.279 10.0400   1
  -6  -5   7 281.757 10.0529   1
   6  -5  -7 276.220 11.3470   3
   6  -5  -7 274.463 10.8221   2
  -7  -5  -7 2.40166 1.96375   1
   7  -5   7 3.05433 2.59115   5
   7   5  -7 4.09466 2.07003   2
   7  -5   7 2.36993 2.27557   2
   7   5  -7 3.04584 1.79271   7
   7  -5   7 1.76806 2.18163   7
  -7   5   7 3.86220 1.93185   1
  -7   5   7 1.85876 2.51208   6
   7  -5  -7 1.68128 2.15121   2
   7  -5  -7 0.68505 2.59178   4
   7  -5  -7 2.47681 1.76644   7
  -7   5  -7 3.29707 1.85525   1
   7   5   7 2.17859 2.40465   2
  -7  -5   7 0.62983 1.94703   1
   7   5   7 4.09953 1.84312   7
   7  -5  -7 5.46299 2.75511   3
   7  -5  -7 2.72667 1.76455   7
  -8   5   7 630.216 21.0808   6
  -8   5   7 628.881 18.9938   1
   8   5  -7 596.080 17.9223   7
   8   5  -7 618.357 19.3530   2
   8  -5   7 598.404 20.0831   2
  -8  -5  -7 587.041 18.4120   1
   8  -5   7 605.184 20.4414   5
   8  -5   7 609.957 18.9283   7
  -8  -5   7 640.578 19.1057   1
  -8   5  -7 609.001 18.4343   1
   8  -5  -7 597.000 17.7567   7
   8   5   7 639.688 20.5103   2
   8  -5  -7 580.352 19.2605   2
   8  -5  -7 595.322 20.8594   3
   8   5   7 622.216 18.8708   7
   9  -5   7 0.55382 2.31780   2
   9   5  -7 0.00474 1.81272   2
  -9  -5  -7 0.62996 1.80586   1
   9  -5   7 -0.4899 2.65069   5
   9  -5  -7 0.54543 2.13369   2
   9  -5  -7 -1.0273 2.53552   3
   9   5   7 4.07389 2.47526   2
  10  -5   7 96.8206 6.53810   5
  10   5  -7 99.3787 5.54853   2
  10  -5   7 110.112 6.05595   2
  10  -5  -7 102.103 7.34253   3
  10   5   7 98.4330 5.93288   2
  10  -5  -7 100.644 5.61015   2
  11  -5  -7 2.27605 3.13195   3
   0   6   7 1262.23 36.6707   7
   0   6   7 1305.33 36.6268   1
   0  -6   7 1244.83 36.3730   1
   0  -6   7 1228.42 36.4943   7
   0  -6  -7 1285.09 36.2473   7
   0   6  -7 1196.16 36.7396   6
   0   6   7 1272.11 36.9282   6
   0   6  -7 1265.57 36.1198   7
   0   6  -7 1230.45 35.8547   1
   0  -6  -7 1251.36 35.9808   1
  -1   6   7 2.73102 2.08125   1
  -1   6   7 5.02640 2.41624   6
   1  -6   7 5.85904 2.39772   1
  -1  -6  -7 5.82946 2.10595   1
   1   6  -7 7.24162 2.09813   1
   1   6  -7 6.39415 2.46325   6
   1   6  -7 4.68732 1.92010   7
  -1  -6  -7 6.08752 2.30702   7
   1  -6   7 5.11222 2.36534   7
  -1   6   7 6.53101 2.21171   7
   1   6   7 0.32371 1.83589   1
  -1  -6   7 5.55212 2.27957   7
  -1   6  -7 2.21018 1.87342   7
  -1   6  -7 7.10700 2.49960   6
   1  -6  -7 7.44827 2.35989   7
   1  -6  -7 7.36049 2.18066   1
  -1   6  -7 8.69888 2.30321   1
   1   6   7 5.25857 2.26696   7
  -1  -6   7 4.21229 2.24763   1
   1   6   7 4.04423 2.07156   6
  -2   6   7 470.220 15.7912   1
  -2  -6  -7 473.562 15.6033   1
   2  -6   7 483.562 15.9222   7
   2   6  -7 461.374 16.3784   6
  -2   6   7 469.804 16.5547   6
   2   6  -7 483.268 15.6237   7
   2  -6   7 486.191 15.7737   1
   2   6  -7 482.555 15.5098   1
  -2  -6  -7 478.791 15.7280   7
   2  -6   7 475.390 14.9667   5
  -2  -6   7 511.720 19.5900   7
  -2  -6   7 489.439 15.7816   1
   2   6   7 484.262 16.0031   7
   2   6   7 491.572 15.7443   6
   2   6   7 481.962 15.8622   1
   2  -6  -7 484.655 15.6869   7
  -2   6  -7 474.816 15.6363   7
   2  -6  -7 484.374 15.5672   1
  -2   6  -7 473.963 15.5401   1
  -2   6  -7 477.248 16.2765   6
   3   6  -7 4.92877 2.44738   6
   3  -6   7 7.14759 2.17193   5
   3   6  -7 5.34951 1.89047   7
  -3  -6  -7 6.61226 2.29422   1
  -3   6   7 5.66514 2.22854   1
   3  -6   7 4.68095 2.90625   3
  -3   6   7 8.22688 2.67713   6
   3  -6   7 3.56175 2.13748   7
   3   6   7 8.06260 2.45542   7
  -3   6  -7 6.15816 2.15528   1
  -3  -6   7 9.54252 2.46271   1
  -3   6  -7 7.42862 2.42718   6
   3  -6  -7 1.57038 2.08190   7
   4  -6   7 853.759 27.7800   3
  -4   6   7 896.545 27.5006   6
   4  -6   7 838.734 26.1312   7
  -4   6   7 878.209 26.1751   1
   4  -6   7 901.472 26.0794   5
  -4  -6  -7 862.639 25.7136   1
   4   6  -7 838.278 25.5152   7
   4   6  -7 857.762 26.7383   6
   4  -6  -7 871.487 26.3243   3
  -4   6  -7 884.251 25.7161   1
  -4   6  -7 852.310 26.4156   6
   4  -6  -7 849.343 25.5996   7
   4  -6  -7 846.420 29.2757   4
   4   6   7 865.164 26.3011   7
  -4  -6   7 895.504 26.1107   1
  -5   6   7 4.30281 2.11219   1
   5   6  -7 3.76155 2.49815   6
   5  -6   7 5.46257 2.53256   5
   5  -6   7 1.55672 2.04957   7
  -5  -6  -7 2.64822 1.98940   1
  -5   6   7 6.25133 2.83768   6
   5   6  -7 2.44321 1.80008   7
   5  -6  -7 5.40162 2.14002   7
   5   6   7 5.60500 2.27673   7
  -5   6  -7 2.25912 2.03266   6
  -5  -6   7 1.98209 2.18389   1
   5  -6  -7 5.58673 3.29983   4
   5  -6  -7 6.17845 2.97798   2
   5  -6  -7 4.80260 2.40942   3
  -5   6  -7 -0.8101 1.52347   1
   6  -6   7 295.372 11.2393   5
  -6   6   7 307.304 12.2069   6
   6   6  -7 306.976 10.5512   7
  -6  -6  -7 293.762 10.6063   1
   6   6  -7 294.324 11.3702   2
  -6   6   7 303.913 10.6385   1
   6  -6   7 286.426 10.7211   7
   6  -6  -7 305.617 13.6068   4
  -6  -6   7 287.089 10.5367   1
  -6   6  -7 294.094 10.4919   1
   6  -6  -7 279.480 10.2978   7
   6   6   7 309.028 10.7968   7
   6  -6  -7 303.585 11.9977   3
  -6   6  -7 295.342 11.3006   6
   6  -6  -7 300.335 11.5576   2
  -7  -6  -7 6.44579 2.22683   1
  -7   6   7 6.84237 2.99428   6
   7  -6   7 4.36268 2.43479   7
   7   6  -7 4.33634 2.01364   7
   7   6  -7 2.89781 2.01871   2
  -7   6   7 4.27812 2.06329   1
   7  -6   7 6.45089 2.76261   5
   7  -6   7 3.83593 2.68333   2
  -7  -6   7 6.03762 2.39460   1
   7  -6  -7 5.20688 2.06832   7
   7  -6  -7 3.25366 1.90955   7
  -7   6  -7 6.37223 2.09158   1
   7  -6  -7 2.08143 3.12390   4
   7  -6  -7 5.83345 2.78750   3
   7   6   7 7.36613 2.24343   7
   7  -6  -7 3.17504 2.38681   2
   8  -6   7 404.765 14.3911   2
  -8  -6  -7 373.897 12.8071   1
   8   6  -7 389.931 12.5084   7
  -8   6   7 395.126 13.1237   1
   8   6  -7 400.095 13.7528   2
   8  -6   7 393.059 14.4330   5
  -8   6   7 397.583 15.0555   6
   8  -6   7 394.022 13.1663   7
   8  -6  -7 381.138 12.2375   7
   8  -6  -7 388.787 15.0797   3
   8  -6  -7 365.850 13.5671   2
   8   6   7 406.594 14.5643   2
  -8  -6   7 389.442 13.1788   1
  -8   6  -7 369.819 12.7721   1
   8  -6  -7 387.758 16.3440   4
   8   6   7 391.813 13.0716   7
   9  -6   7 0.47329 2.87080   5
   9   6  -7 0.26286 1.87086   2
  -9  -6  -7 2.87550 2.15698   1
   9  -6   7 -0.4445 2.38513   2
   9   6   7 0.17337 2.24852   2
   9  -6  -7 4.87798 3.01820   3
  -9   6  -7 1.95839 2.06338   1
   9  -6  -7 1.72071 2.24948   2
  10  -6   7 150.785 7.47266   2
  10  -6   7 151.228 8.23705   5
  10   6  -7 134.034 6.74816   2
  10  -6  -7 145.521 8.71195   3
  10   6   7 147.102 7.53368   2
  10  -6  -7 140.373 6.87141   2
  11  -6   7 0.98123 3.33577   5
  11  -6  -7 5.04766 3.48619   3
   0   7  -7 86.3273 5.08798   7
   0  -7  -7 91.7656 5.26966   7
   0   7  -7 96.5866 5.75462   6
   0   7   7 93.0676 5.23912   1
   0  -7   7 85.9680 5.15531   1
   0  -7  -7 94.9101 5.22242   1
   0   7  -7 109.983 5.35647   1
   0   7   7 101.561 5.50756   7
   0  -7   7 89.1087 5.29592   7
   0   7   7 100.935 5.54299   6
   1   7  -7 17.7481 2.58107   7
   1  -7   7 12.0684 2.75785   1
  -1   7   7 19.1872 3.23271   6
   1   7  -7 15.1320 3.17366   6
   1  -7   7 19.8018 2.99531   7
  -1   7   7 16.9025 3.06391   1
   1   7  -7 17.8773 2.59304   1
  -1  -7  -7 14.3034 2.82692   1
  -1   7   7 11.5876 2.73735   7
  -1  -7  -7 19.3890 2.98744   7
  -1  -7   7 13.7518 2.90693   1
   1   7   7 14.7484 2.95513   7
  -1   7  -7 15.5888 2.73134   6
  -1   7  -7 18.6464 2.66437   7
   1  -7  -7 18.2510 2.94321   7
  -1  -7   7 16.1698 3.12670   7
   1   7   7 19.4696 2.90610   6
   1   7   7 17.6512 2.69003   1
  -1   7  -7 23.9572 2.79506   1
   1  -7  -7 16.6748 2.66333   1
   2   7  -7 39.8955 3.46097   1
  -2  -7  -7 39.0392 3.42156   1
   2  -7   7 46.9275 3.75348   1
  -2   7   7 36.5893 3.96237   6
   2   7  -7 33.0031 3.69313   6
  -2  -7  -7 35.7482 3.44435   7
   2   7  -7 36.6760 3.24579   7
   2  -7   7 35.8994 3.02559   5
   2  -7   7 39.0001 3.70439   7
  -2   7   7 34.0898 3.46073   1
  -2   7  -7 33.5827 3.45378   6
  -2   7  -7 39.4476 3.32179   1
   2   7   7 43.7028 3.59751   1
   2   7   7 36.7302 3.60997   7
  -2  -7   7 36.5562 3.58624   1
   2  -7  -7 40.4043 3.51028   7
   2   7   7 37.9596 3.34580   6
   3   7  -7 13.9566 3.05791   6
   3  -7   7 14.3042 2.66038   5
   3  -7   7 8.41255 3.57915   3
   3   7  -7 12.5176 2.57346   7
   3  -7   7 13.6469 2.95113   7
  -3   7   7 13.0585 2.81664   1
  -3  -7  -7 11.7787 2.61935   1
  -3   7   7 12.5034 3.22953   6
   3   7   7 14.7693 2.89419   7
  -3  -7   7 11.7849 2.82285   1
   3  -7  -7 17.8466 2.85096   7
  -3   7  -7 7.88928 2.18711   1
  -3   7  -7 9.80280 2.60349   6
   4  -7   7 69.2331 4.55660   7
   4  -7   7 70.9919 4.52165   5
  -4  -7  -7 65.9318 4.39605   1
   4  -7   7 60.1892 5.67413   3
  -4   7   7 77.8964 4.52634   1
   4   7  -7 71.9008 4.36436   7
   4   7  -7 75.0452 5.14573   6
  -4   7   7 67.2115 5.21889   6
   4  -7  -7 73.4145 7.34149   4
  -4  -7   7 71.3614 4.53987   1
  -4   7  -7 72.8295 4.38677   1
   4  -7  -7 61.9952 4.28402   7
  -4   7  -7 67.5391 4.78622   6
   4   7   7 65.2488 4.35924   7
   5  -7   7 11.3304 2.74976   7
   5   7  -7 9.65464 2.35344   7
  -5   7   7 15.9982 3.58855   6
   5   7  -7 13.6633 4.39427   6
   5  -7   7 17.5613 3.79658   3
   5  -7   7 7.84498 2.51787   5
  -5   7   7 10.9692 2.61987   1
  -5  -7  -7 15.9604 2.88938   1
   5  -7  -7 11.3959 2.99812   3
  -5   7  -7 16.9894 2.83197   6
   5   7   7 10.4327 2.49497   7
   5  -7  -7 12.5688 4.19136   4
  -5   7  -7 11.9869 2.53938   1
   5  -7  -7 16.2882 2.63116   7
  -5  -7   7 12.6614 2.82571   1
  -6   7   7 25.9110 4.52322   6
  -6  -7  -7 16.4970 2.67364   1
  -6   7   7 19.1568 3.16273   1
   6   7  -7 18.2264 2.93376   7
   6  -7   7 17.8995 3.27676   7
   6  -7   7 24.0197 3.78237   5
   6   7   7 20.0971 3.24294   7
   6  -7  -7 16.3893 2.86348   7
   6  -7  -7 18.4645 2.98166   7
  -6   7  -7 21.3302 3.66988   6
   6  -7  -7 14.2091 4.79250   4
  -6   7  -7 17.6947 2.51852   1
  -6  -7   7 22.2351 3.49536   1
   6  -7  -7 20.9413 3.90107   3
   7  -7   7 8.18452 3.02520   5
  -7   7   7 6.80688 2.94295   6
  -7  -7  -7 10.2380 2.57320   1
   7  -7   7 8.38430 2.68984   7
  -7   7   7 9.49130 2.43695   1
   7   7  -7 5.75190 2.04193   7
   7  -7  -7 5.28378 2.77827   2
   7  -7  -7 10.0742 4.24608   4
   7  -7  -7 4.02832 2.92220   3
   7  -7  -7 10.9186 2.38873   7
   7   7   7 7.28638 2.40741   7
  -7  -7   7 8.40771 2.52640   1
  -7   7  -7 6.87606 2.03305   1
  -8  -7  -7 32.0314 3.28156   1
   8  -7   7 32.9884 3.36642   7
   8   7  -7 38.5330 4.06282   2
   8  -7   7 37.2938 4.33563   5
   8   7  -7 39.0408 3.13510   7
  -8   7   7 33.8321 4.12334   6
  -8   7   7 36.9213 3.30252   1
  -8  -7   7 34.9248 3.44875   1
   8  -7  -7 40.0923 3.94376   2
   8  -7  -7 39.4312 4.80775   3
  -8   7  -7 32.1769 3.17552   1
   8  -7  -7 36.8790 3.05424   7
   8  -7  -7 40.6302 5.61282   4
   8   7   7 36.4757 3.22410   7
  -9  -7  -7 16.8420 2.71622   1
   9   7  -7 4.76044 2.36466   2
   9  -7   7 6.25664 3.22323   5
   9  -7  -7 4.83159 2.58525   2
  -9   7  -7 8.78244 2.35767   1
   9  -7  -7 5.77432 3.19273   3
  10  -7   7 5.42618 2.96730   2
  10   7  -7 1.69380 2.30522   2
  10  -7   7 14.1091 4.05181   5
  10  -7  -7 4.90678 2.55654   2
  10  -7  -7 3.84989 2.61427   2
  10  -7  -7 6.02440 3.70484   3
  11  -7   7 5.85390 3.59693   5
  11  -7  -7 4.62992 3.58847   3
   0  -8  -7 47.8172 4.03088   7
   0   8   7 48.4953 4.16662   6
   0   8   7 55.3214 4.25318   7
   0   8  -7 44.8619 4.05826   6
   0   8   7 51.8565 4.06644   1
   0  -8   7 49.8748 4.23224   7
   0  -8  -7 45.1890 3.67092   1
   0   8  -7 47.2470 3.67164   1
   0   8  -7 43.5394 3.62352   7
   0  -8   7 55.7472 4.27369   1
  -1  -8  -7 19.3368 2.96647   7
   1  -8   7 21.2168 3.09872   7
  -1   8   7 18.0964 3.16117   6
   1  -8   7 21.3822 3.08482   1
   1   8  -7 23.4206 2.80683   7
   1   8  -7 19.1167 3.14535   6
  -1   8   7 21.1307 2.98419   1
  -1  -8  -7 17.5917 3.15367   1
  -1   8   7 22.4599 3.25153   7
   1   8  -7 19.9614 2.71623   1
  -1   8  -7 17.2286 2.72856   7
   1  -8  -7 18.7782 2.86972   7
   1  -8  -7 18.0690 2.81137   1
   1   8   7 20.2795 2.88748   1
   1   8   7 19.9900 2.93158   6
  -1   8  -7 16.7122 2.86540   6
   1   8   7 15.7570 3.07874   7
  -1  -8   7 20.0486 3.13464   1
  -1   8  -7 17.0679 2.66712   1
  -1  -8   7 22.3071 3.26006   7
   2   8  -7 3.20096 1.98206   7
  -2   8   7 5.38894 2.41657   1
   2   8  -7 3.71782 2.51240   6
  -2   8   7 19.0106 3.81842   6
   2  -8   7 7.42833 2.30180   5
   2  -8   7 7.27611 2.82026   7
  -2  -8  -7 11.1836 2.83310   1
  -2  -8   7 8.12601 2.73424   1
   2  -8  -7 6.93315 2.56715   7
  -2   8  -7 6.02759 2.54807   6
  -2   8  -7 5.64325 2.16905   1
   2   8   7 5.12835 2.45725   1
   2   8   7 11.1692 2.85164   7
   3  -8   7 11.5241 2.91918   7
  -3   8   7 19.3319 3.27362   6
  -3   8   7 15.7067 3.04674   1
   3  -8   7 9.93674 4.06058   3
   3  -8   7 13.6005 2.71343   5
   3   8  -7 9.61594 2.82780   6
  -3  -8  -7 10.3436 2.66396   1
   3   8  -7 13.4042 2.68932   7
  -3   8  -7 11.6998 2.52226   1
  -3   8  -7 12.1612 2.92717   6
  -3  -8   7 15.3184 3.09903   1
   3   8   7 13.7527 2.92919   7
   3  -8  -7 11.9252 2.67552   7
  -4   8   7 30.7334 3.18693   1
   4   8  -7 27.3335 3.06087   7
   4  -8   7 32.7515 4.84203   3
  -4   8   7 36.2806 3.96060   6
  -4  -8  -7 25.9849 3.03293   1
   4  -8   7 31.5854 3.36608   7
   4   8  -7 31.9979 3.64797   6
   4  -8   7 34.6227 3.57394   5
  -4   8  -7 30.2438 3.34610   6
   4   8   7 35.3939 3.33582   7
   4  -8  -7 32.2994 3.32096   7
  -4  -8   7 33.9195 3.59123   1
  -4   8  -7 29.3883 3.01693   1
   4  -8  -7 36.5730 7.75268   4
  -5   8   7 14.9402 2.86008   1
   5  -8   7 13.4126 3.06473   7
  -5  -8  -7 22.9650 3.02352   1
   5  -8   7 14.1436 4.05322   3
   5   8  -7 17.6891 2.59044   7
  -5   8   7 16.6916 3.62755   6
   5  -8   7 17.8033 3.30470   5
   5   8   7 24.8664 3.15035   7
  -5   8  -7 20.0534 2.76641   1
   5  -8  -7 20.8208 5.69786   4
  -5   8  -7 13.2939 3.04328   6
   5  -8  -7 18.7367 3.33304   3
  -5  -8   7 21.5072 3.18125   1
   5  -8  -7 20.9589 3.06350   7
   5  -8  -7 18.8879 2.98984   7
   6  -8   7 4.33726 2.51182   7
  -6  -8  -7 3.80475 2.30686   1
   6  -8   7 2.16038 2.60980   5
   6   8  -7 3.69417 2.05975   7
  -6   8   7 2.20236 2.76032   6
   6  -8   7 5.06234 3.44948   3
  -6   8   7 4.66761 2.26362   1
   6  -8  -7 3.09016 4.03918   4
   6  -8  -7 1.71433 2.49246   3
   6   8   7 5.09142 2.19671   7
   6  -8  -7 1.74122 2.08318   7
  -6  -8   7 7.44988 2.78737   1
   6  -8  -7 2.33713 2.06492   7
  -6   8  -7 3.87356 2.32043   6
  -6   8  -7 4.89727 2.17771   1
   7  -8   7 5.32675 2.96133   5
  -7  -8  -7 6.03830 2.38616   1
   7  -8   7 5.68473 2.65371   7
   7   8  -7 8.55385 2.30724   7
  -7   8   7 3.76581 2.07420   1
  -7   8   7 10.6353 3.18957   6
   7  -8  -7 7.76804 4.55365   4
  -7  -8   7 8.98051 2.77579   1
   7   8   7 3.26424 1.99640   7
   7  -8  -7 8.08521 2.42653   7
   7  -8  -7 6.20774 3.06048   3
  -7   8  -7 5.37834 2.04669   1
  -8  -8  -7 19.5893 3.21152   1
   8  -8   7 13.0931 3.48192   5
  -8   8   7 13.4402 3.90018   6
  -8   8   7 18.2945 3.13212   1
   8   8  -7 15.9984 2.82986   7
   8  -8   7 21.2938 3.60802   7
   8  -8  -7 16.6933 5.53090   4
   8  -8  -7 16.7349 2.75186   7
   8  -8  -7 9.38935 3.49819   3
   8   8   7 16.1682 2.91386   7
  -8   8  -7 15.3730 2.90681   1
  -8  -8   7 16.9716 3.21022   1
  -9  -8  -7 12.7583 2.75843   1
   9  -8   7 11.6503 3.45914   5
   9  -8  -7 8.52977 3.66864   3
   9   8   7 8.02110 2.97389   7
   9  -8  -7 4.14345 4.41028   4
  -9   8  -7 11.3028 2.47231   1
  -9  -8   7 14.0054 2.82645   1
  10  -8   7 7.16175 3.52709   5
  10  -8  -7 -1.5785 3.07184   2
  10  -8  -7 2.12247 3.16507   3
   0   9  -7 135.710 7.19130   6
   0   9  -7 142.994 6.72184   7
   0   9   7 140.071 6.85162   1
   0  -9   7 143.539 7.06063   7
   0   9   7 144.404 7.22928   6
   0  -9   7 142.386 6.98909   1
   0  -9  -7 142.525 6.91706   7
   0  -9  -7 127.761 6.61182   1
   0   9  -7 153.671 6.82131   1
   0   9   7 146.856 7.03545   7
   1   9  -7 9.53822 2.49321   1
  -1  -9  -7 8.38225 2.62671   7
  -1   9   7 11.1709 2.82953   7
  -1  -9  -7 6.83804 2.55941   1
  -1   9   7 10.7472 2.91793   1
   1  -9   7 11.5447 3.13475   7
  -1   9   7 16.3460 3.43796   6
   1   9  -7 8.56687 2.39545   7
   1  -9   7 13.2009 3.01647   1
   1   9  -7 5.03986 2.45092   6
   1  -9  -7 12.2950 2.90512   1
   1   9   7 9.03467 2.69304   6
  -1   9  -7 9.64570 2.83998   6
  -1  -9   7 10.9474 3.11233   7
   1   9   7 11.3919 2.87673   7
  -1   9  -7 8.53917 2.48712   1
  -1   9  -7 13.0478 2.80542   7
  -1  -9   7 10.2482 2.97656   1
   1   9   7 11.2735 2.81384   1
   1  -9  -7 7.11410 2.56205   7
  -2   9   7 634.913 20.1355   1
   2   9  -7 591.893 20.0176   6
   2  -9   7 620.300 20.1572   7
  -2  -9  -7 611.580 19.3623   1
   2   9  -7 614.449 19.3737   7
  -2   9   7 615.609 20.9090   6
   2  -9  -7 595.195 19.2380   7
  -2   9  -7 564.321 19.8994   6
  -2   9  -7 623.818 19.2800   1
  -2  -9   7 633.426 20.0785   1
   2   9   7 644.379 20.3368   7
   3  -9   7 6.80630 4.18348   3
  -3  -9  -7 4.32938 2.32613   1
   3   9  -7 7.41965 2.73616   6
  -3   9   7 7.20501 2.86171   6
   3  -9   7 6.48816 2.76380   7
   3  -9   7 11.1489 2.63058   5
  -3   9   7 6.97082 2.61667   1
   3   9  -7 6.18384 2.21260   7
  -3  -9   7 8.04185 2.74190   1
   3  -9  -7 6.87450 2.52186   7
   3  -9  -7 7.70393 2.52991   7
  -3   9  -7 6.31352 2.26419   1
  -3   9  -7 5.54461 2.56954   6
   3   9   7 3.16937 2.16089   7
  -4   9   7 122.257 6.06931   1
   4   9  -7 106.130 5.74399   7
   4  -9   7 110.104 6.07768   7
   4  -9   7 110.396 8.36878   3
   4  -9   7 108.040 5.88380   5
  -4   9   7 119.939 6.91751   6
  -4  -9  -7 101.486 5.73799   1
   4   9  -7 112.083 6.43840   6
   4  -9  -7 111.311 5.90945   7
  -4  -9   7 113.337 6.07239   1
   4  -9  -7 114.320 5.91434   7
  -4   9  -7 105.251 5.61809   1
   4   9   7 118.259 6.24915   7
  -4   9  -7 118.679 6.47262   6
  -5  -9  -7 10.4420 2.70630   1
   5  -9   7 7.18843 2.74371   5
   5  -9   7 6.70142 2.66333   7
  -5   9   7 9.47556 2.65248   1
  -5   9   7 10.2195 3.39664   6
   5   9  -7 8.93071 2.40289   7
   5  -9   7 8.18156 3.65185   3
   5  -9  -7 10.8761 5.43130   4
   5  -9  -7 4.69394 2.40491   7
   5   9   7 14.0470 2.94495   7
  -5  -9   7 9.65563 2.90306   1
  -5   9  -7 5.88051 2.22944   1
  -5   9  -7 10.7485 2.86666   6
   5  -9  -7 9.47224 2.71377   7
   6  -9   7 372.316 13.2080   7
   6  -9   7 388.435 13.6938   5
   6  -9   7 354.868 15.7637   3
  -6   9   7 375.696 13.1113   1
   6   9  -7 355.668 12.8509   7
  -6  -9  -7 342.331 12.9841   1
  -6   9   7 374.960 14.5792   6
  -6  -9   7 374.833 13.1965   1
  -6   9  -7 371.302 12.9938   1
  -6   9  -7 391.168 14.0021   6
   6  -9  -7 395.644 19.2191   4
   6  -9  -7 394.197 14.7663   3
   6  -9  -7 386.766 13.0321   7
   6   9   7 395.716 13.4149   7
  -7   9   7 3.99878 2.25447   1
  -7   9   7 4.78780 2.98977   6
   7  -9   7 2.58877 2.67165   5
   7  -9   7 5.87078 2.68392   7
  -7  -9  -7 2.42468 2.19302   1
   7  -9   7 3.89539 3.91282   3
   7   9  -7 5.92014 2.06021   7
   7  -9  -7 2.02016 2.70366   3
   7  -9  -7 9.60319 5.37548   4
   7   9   7 3.52413 2.16130   7
  -7   9  -7 2.04160 1.89019   1
  -7  -9   7 7.09118 2.72766   1
   7  -9  -7 4.32518 2.32141   7
   8   9  -7 61.4956 4.05818   7
   8  -9   7 60.9615 4.50367   7
  -8  -9  -7 62.0550 4.48477   1
   8  -9   7 63.0010 5.26256   5
  -8   9   7 66.0116 4.31403   1
   8   9   7 65.0493 4.33502   7
   8  -9  -7 67.7265 5.93246   3
  -8  -9   7 68.9267 4.59210   1
  -8   9  -7 69.0493 4.31740   1
   8  -9  -7 64.1803 8.24780   4
   8  -9  -7 63.1684 4.12636   7
  -9  -9  -7 5.96475 2.56301   1
   9  -9   7 7.37827 3.43056   5
  -9   9   7 3.28522 2.22544   1
  -9   9  -7 4.98243 2.22258   1
   9  -9  -7 5.39137 3.26468   3
  -9  -9   7 2.85839 2.40755   1
   9   9   7 6.71896 2.25197   7
  10  -9   7 178.685 9.01167   5
  10  -9  -7 190.759 10.2816   3
   0  10   7 2.10003 2.26334   7
   0 -10  -7 -0.9252 2.23023   7
   0 -10  -7 4.96853 2.62799   7
   0  10  -7 3.17453 2.06273   1
   0 -10   7 4.18331 2.66714   7
   0  10  -7 -0.0013 1.94387   7
   0 -10   7 6.56685 3.02042   1
   0  10   7 6.99553 2.77798   6
   0  10   7 4.12552 2.35643   1
   0  10  -7 2.66131 2.49949   6
   0 -10  -7 1.69899 2.28690   1
  -1  10   7 4.44449 2.70065   6
   1  10  -7 -0.3204 1.74866   1
   1  10  -7 1.00200 2.21042   6
   1  10  -7 3.16130 1.98347   7
  -1 -10  -7 0.59400 2.08934   1
   1 -10   7 2.60184 2.76304   1
  -1 -10  -7 5.78235 2.55567   7
   1 -10   7 -0.9593 2.47758   7
  -1  10   7 3.33037 2.34910   1
  -1 -10  -7 1.42322 2.34190   7
  -1  10  -7 1.23675 2.01132   7
  -1  10  -7 4.39431 2.58245   6
   1 -10  -7 4.80097 2.56736   7
  -1 -10   7 7.60303 2.82805   1
  -1  10  -7 6.22039 2.41206   1
   1  10   7 4.29304 2.41052   1
   1 -10  -7 2.43072 2.46241   7
  -1 -10   7 0.92222 2.78311   7
   1 -10  -7 5.57394 2.65009   1
   1  10   7 3.32881 2.46816   6
   1  10   7 6.64135 2.63104   7
  -2 -10  -7 602.928 19.3673   1
   2  10  -7 572.036 19.8771   6
  -2  10   7 642.094 20.4038   1
   2 -10   7 637.826 20.4793   7
   2  10  -7 598.473 19.2229   7
  -2  10   7 626.773 21.1109   6
  -2 -10   7 609.943 20.2069   1
  -2  10  -7 618.257 19.3081   1
   2 -10  -7 588.538 19.3459   7
   2  10   7 648.293 20.6956   7
  -2  10  -7 603.725 20.2097   6
   2 -10  -7 585.887 19.3075   7
  -3 -10  -7 1.98613 2.34481   1
   3  10  -7 2.93675 2.47743   6
   3  10  -7 -1.0906 1.75840   7
   3 -10   7 3.68658 2.36696   5
   3 -10   7 -0.7324 3.91045   3
   3 -10   7 3.39140 2.74370   7
  -3  10   7 4.34764 2.31362   1
  -3  10   7 5.28859 2.71173   6
   3 -10  -7 1.27086 2.14054   7
   3 -10  -7 0.56406 2.41020   7
  -3  10  -7 3.01515 2.37654   6
  -3 -10   7 3.34985 2.59384   1
   3  10   7 1.89934 2.23321   7
  -3  10  -7 0.69394 1.86534   1
  -4  10   7 0.00201 2.44814   6
   4 -10   7 2.47046 2.63072   7
  -4  10   7 3.19529 2.28741   1
   4  10  -7 3.88260 2.12205   7
  -4 -10  -7 4.90562 2.55481   1
   4 -10   7 -0.6063 2.23507   5
   4 -10   7 -0.0518 3.83498   3
  -4 -10   7 3.68213 2.77567   1
  -4  10  -7 3.01288 2.21769   1
   4 -10  -7 -4.0421 1.72175   7
   4  10   7 4.54764 2.47360   7
  -4  10  -7 0.13979 1.94188   6
   4 -10  -7 0.95613 2.12000   7
  -5  10   7 -1.7546 2.30365   6
   5 -10   7 1.20107 2.47980   7
  -5 -10  -7 1.64649 2.22188   1
   5 -10   7 1.28133 3.62539   3
  -5  10   7 0.07372 2.09250   1
   5 -10   7 1.33896 2.47544   5
   5  10  -7 0.98749 1.72202   7
   5 -10  -7 6.80276 5.74293   4
   5  10   7 3.48452 2.26148   7
  -5 -10   7 1.87182 2.38424   1
  -5  10  -7 2.27402 2.20605   6
   5 -10  -7 4.78125 2.48634   7
  -5  10  -7 0.04976 1.82387   1
   6 -10   7 398.326 14.0186   5
  -6  10   7 389.830 14.8764   6
   6 -10   7 378.906 13.5466   7
   6 -10   7 361.467 16.6149   3
  -6 -10  -7 401.501 13.8468   1
   6  10  -7 394.920 13.6964   7
  -6  10   7 386.417 13.5209   1
  -6  10  -7 393.786 14.6797   6
  -6 -10   7 395.459 13.6511   1
   6 -10  -7 384.528 13.6136   7
   6  10   7 394.639 13.7506   7
   6 -10  -7 388.605 21.1526   4
  -6  10  -7 409.167 13.7596   1
   6 -10  -7 401.992 16.8004   3
  -7  10   7 2.87445 2.10689   1
   7 -10   7 5.29038 2.90904   5
   7 -10   7 1.90947 3.63241   3
   7 -10   7 0.99830 2.43602   7
   7  10  -7 2.32642 1.93809   7
  -7 -10  -7 3.20197 2.37692   1
  -7  10  -7 0.73609 1.90155   1
   7 -10  -7 8.86159 6.15347   4
   7  10   7 1.92034 2.09503   7
   7 -10  -7 0.20776 2.12250   7
   7 -10  -7 2.29896 2.73894   3
  -7 -10   7 -1.6410 2.37172   1
  -7  10  -7 3.31073 2.39430   6
  -8  10   7 1.39711 2.08545   1
   8 -10   7 1.20189 2.70270   7
  -8 -10  -7 1.06388 2.19604   1
   8  10  -7 2.86542 2.01111   7
   8 -10   7 6.86942 3.17881   5
   8 -10  -7 -0.2332 2.05351   7
  -8 -10   7 3.66777 2.63037   1
   8 -10  -7 3.71924 3.10989   3
   8 -10  -7 2.71713 5.15874   4
  -8  10  -7 0.42161 1.87492   1
   8  10   7 -0.5392 1.93210   7
   9 -10   7 1.14097 3.08166   5
  -9  10   7 0.73232 1.99729   1
  -9 -10  -7 3.21658 2.49615   1
  -9 -10   7 2.50909 2.50863   1
  -9  10  -7 2.16107 2.06039   1
   9 -10  -7 -0.7256 2.85457   3
  10 -10  -7 196.186 10.5498   3
   0 -11   7 534.060 17.5547   1
   0 -11  -7 491.558 17.0059   7
   0  11  -7 505.336 17.0371   7
   0  11   7 542.729 17.6230   1
   0  11   7 510.402 17.7025   6
   0 -11   7 515.810 17.5329   7
   0 -11  -7 512.541 17.1316   7
   0 -11  -7 549.252 17.1997   1
   0  11  -7 468.721 17.5206   6
   0  11  -7 510.836 16.9751   1
   0  11   7 494.148 17.5152   7
   1  11  -7 -2.5295 1.83354   7
   1 -11   7 0.25508 2.60997   1
   1 -11   7 -2.5738 2.44384   7
   1  11  -7 -0.7339 1.92027   6
  -1 -11  -7 -0.8026 2.49577   1
  -1 -11  -7 -2.7666 2.06271   7
  -1 -11  -7 -0.4305 2.32709   7
  -1  11   7 0.63495 2.09295   1
   1  11  -7 -0.6016 1.91549   1
  -1  11   7 0.29493 2.28305   6
   1 -11  -7 0.35672 2.38950   7
  -1  11  -7 1.52109 2.05729   1
   1  11   7 0.36561 2.33314   1
  -1  11  -7 4.20213 2.53064   6
   1  11   7 3.14454 2.40009   7
  -1 -11   7 -1.6494 2.46434   1
   1 -11  -7 -1.2920 2.41576   7
   2  11  -7 1.17059 2.22105   6
  -2 -11  -7 -1.4516 2.28314   1
   2  11  -7 -1.8230 1.62722   7
  -2  11   7 2.17544 2.37343   1
   2 -11   7 -2.2429 2.34026   7
  -2  11   7 0.29812 2.50067   6
   2 -11  -7 1.74136 2.41637   7
   2  11   7 1.13556 2.21737   7
  -2 -11   7 0.74758 2.67952   1
  -2  11  -7 -0.1902 2.26806   6
   2 -11  -7 -0.3232 2.17237   7
  -2  11  -7 -0.5746 1.86641   1
  -3  11   7 1.73460 2.54287   6
   3  11  -7 0.91852 2.18275   6
  -3  11   7 -1.2835 2.03318   1
   3 -11   7 -3.3516 2.41688   7
   3 -11   7 -3.8789 3.62707   3
   3  11  -7 -1.8161 1.65900   7
  -3 -11  -7 0.08029 2.39568   1
   3  11   7 1.71666 2.26394   7
  -3 -11   7 -0.2796 2.62730   1
  -3  11  -7 0.23469 1.90888   1
  -3  11  -7 1.59090 2.21446   6
   3 -11  -7 -2.2157 2.01645   7
  -4  11   7 408.333 15.2738   6
   4 -11   7 389.924 14.2506   7
  -4  11   7 380.692 14.0887   1
   4 -11   7 408.830 19.1909   3
  -4 -11  -7 396.931 14.0677   1
   4  11  -7 402.849 13.9010   7
   4 -11   7 415.332 14.0450   5
  -4  11  -7 401.098 14.8207   6
  -4  11  -7 375.919 13.6778   1
   4 -11  -7 380.423 13.7771   7
   4  11   7 426.885 14.5625   7
  -4 -11   7 397.762 14.1690   1
   5 -11   7 0.82468 2.46808   5
   5  11  -7 0.62544 1.99894   7
  -5  11   7 0.98503 2.52252   6
  -5 -11  -7 -0.0419 2.25202   1
  -5  11   7 0.05682 2.17590   1
   5 -11   7 -0.3339 2.46817   7
   5 -11   7 6.30677 4.17114   3
   5 -11  -7 0.23404 2.30858   7
  -5  11  -7 -0.7419 1.75124   1
  -5  11  -7 2.12816 2.52783   6
   5 -11  -7 0.59905 6.33769   4
   5  11   7 -0.2487 2.00269   7
  -5 -11   7 -1.5179 2.29852   1
  -6  11   7 0.05039 1.91416   1
   6  11  -7 0.84724 1.98300   7
  -6 -11  -7 2.21395 2.35735   1
   6 -11   7 5.25708 2.83684   5
   6 -11   7 1.73369 2.59153   7
   6 -11   7 -5.7588 3.12711   3
  -6  11  -7 -0.7411 2.39482   6
   6  11   7 1.45144 2.18279   7
   6 -11  -7 -1.0080 6.15883   4
  -6 -11   7 -1.0077 2.43547   1
  -6  11  -7 0.90546 1.98633   1
   6 -11  -7 -0.9473 2.21425   7
   7 -11   7 1.87202 3.89925   3
   7 -11   7 5.22608 3.02625   5
  -7  11   7 -1.0716 2.01040   1
   7  11  -7 2.44208 1.98200   7
  -7 -11  -7 3.50391 2.50043   1
   7 -11   7 1.61077 2.52933   7
  -7  11  -7 2.26068 2.09199   1
  -7 -11   7 6.71823 2.90892   1
   7 -11  -7 -4.8224 5.74188   4
   7 -11  -7 -0.2101 2.22812   7
   7  11   7 -0.9395 1.86585   7
   8 -11   7 242.868 10.6157   5
  -8  11   7 255.008 9.81906   1
  -8 -11  -7 230.659 9.58335   1
  -8  11  -7 235.584 9.34369   1
   8 -11  -7 246.190 11.3797   3
  -8 -11   7 250.275 9.92422   1
  -9 -11  -7 1.77456 2.39879   1
   9 -11   7 2.90775 3.04543   5
  -9  11   7 -1.8975 1.85491   1
   9 -11  -7 -1.7584 2.73455   3
  -9 -11   7 4.03262 2.67716   1
  -9  11  -7 -1.2815 1.94373   1
   0  12  -7 101.059 5.68042   7
   0 -12   7 82.0877 5.64723   1
   0  12   7 89.9882 5.79610   7
   0 -12   7 92.3503 5.88293   7
   0  12   7 82.5358 5.42002   1
   0 -12  -7 66.8054 5.17387   1
   0  12  -7 82.4493 5.28981   1
   0 -12  -7 83.3943 5.50713   7
   0  12   7 101.316 6.08971   6
   0  12  -7 103.089 6.28940   6
   1 -12   7 3.19013 2.79055   7
   1  12  -7 0.31551 2.11400   7
  -1  12   7 -0.4762 2.35572   6
   1  12  -7 -1.1472 2.31877   6
  -1  12   7 1.64184 2.39851   1
  -1 -12  -7 1.83831 2.51919   1
  -1 -12   7 0.67252 2.74371   1
  -1  12  -7 -1.1668 2.21992   6
   1 -12  -7 -1.3765 2.16154   7
   1  12   7 3.72101 2.32266   7
  -1  12  -7 -3.0640 1.72691   1
   1  12   7 2.43649 2.36301   1
  -2  12   7 747.361 23.8112   6
  -2  12   7 740.299 22.9299   1
  -2 -12  -7 690.102 22.3570   1
   2 -12   7 715.205 23.0639   7
   2  12  -7 698.299 22.4058   7
   2  12  -7 725.608 23.2996   6
  -2 -12   7 684.899 22.7484   1
   2 -12  -7 706.031 22.5542   7
   2  12   7 703.335 22.9597   7
  -2  12  -7 693.082 22.2900   1
  -2  12  -7 713.251 23.5006   6
  -3 -12  -7 1.48456 2.40458   1
  -3  12   7 -1.3220 2.51537   6
   3  12  -7 1.35145 2.13472   7
   3 -12   7 -2.0188 2.43376   7
   3 -12   7 -2.4370 3.27747   3
   3  12  -7 0.96522 2.32009   6
  -3  12   7 1.07001 2.36085   1
  -3  12  -7 2.62622 2.24414   1
  -3 -12   7 2.08830 2.82659   1
  -3  12  -7 -1.7206 2.00993   6
   3 -12  -7 1.68741 2.52860   7
   3  12   7 -0.3095 2.02484   7
   4 -12   7 66.0830 4.90497   5
   4 -12   7 77.6114 5.28337   7
   4  12  -7 72.0214 4.91316   7
   4 -12   7 85.8829 9.10243   3
  -4  12   7 72.0406 5.59516   6
  -4 -12  -7 78.2028 5.16234   1
  -4  12   7 75.8743 4.94105   1
  -4 -12   7 62.3635 5.06874   1
   4 -12  -7 71.2710 4.95319   7
  -4  12  -7 71.5140 4.87832   1
   4  12   7 78.4618 5.23989   7
  -4  12  -7 74.9931 5.48574   6
   5 -12   7 3.13962 2.74252   5
   5 -12   7 -4.2091 4.29531   3
  -5  12   7 2.24991 2.24243   1
   5  12  -7 0.32072 1.95991   7
   5 -12   7 -1.6855 2.40533   7
  -5 -12  -7 -1.6496 2.14945   1
   5 -12  -7 -3.4864 6.45268   4
  -5 -12   7 -5.1379 2.28111   1
  -5  12  -7 3.41897 2.21575   1
   5  12   7 1.78789 2.12206   7
   5 -12  -7 1.38634 2.41121   7
   6 -12   7 433.589 20.2168   3
  -6  12   7 479.467 16.0635   1
  -6 -12  -7 460.689 15.8226   1
   6 -12   7 461.937 16.0680   7
   6  12  -7 457.886 15.6829   7
   6 -12   7 453.947 16.1845   5
   6 -12  -7 470.426 15.7633   7
   6 -12  -7 415.965 26.9859   4
   6  12   7 494.084 16.2696   7
  -6 -12   7 494.448 16.2167   1
  -6  12  -7 479.841 15.8053   1
  -7  12   7 -0.8588 2.01018   1
   7 -12   7 -3.8181 3.51995   3
  -7 -12  -7 1.38485 2.53395   1
   7 -12   7 2.42337 2.86595   5
  -7 -12   7 2.12042 2.71056   1
  -7  12  -7 0.67344 1.96332   1
  -8 -12  -7 49.3732 4.28283   1
  -8  12   7 55.3991 4.24830   1
   8 -12   7 46.6225 4.64407   5
  -8  12  -7 45.8975 4.00032   1
  -8 -12   7 35.4141 4.14283   1
   0  13  -7 256.752 11.1122   6
   0 -13  -7 284.457 10.6449   1
   0  13  -7 241.043 10.2871   7
   0  13   7 254.961 10.5355   1
   0  13   7 257.785 10.8113   6
   0 -13  -7 240.419 10.4081   7
   0 -13   7 256.050 10.7908   7
   0  13  -7 252.092 10.3547   1
   0 -13   7 264.549 10.7698   1
  -1 -13  -7 0.32653 2.75364   1
  -1  13   7 5.33844 2.99359   6
   1  13  -7 4.86025 2.85681   6
   1 -13   7 4.16208 2.98152   7
   1  13  -7 0.08468 2.13461   7
  -1  13   7 3.52363 2.54823   1
  -1 -13   7 0.75369 2.83305   1
  -1  13  -7 0.82711 2.45249   6
   1  13   7 6.07194 2.77676   7
  -1  13  -7 2.15434 2.26545   1
   1 -13  -7 1.34411 2.52648   7
  -2  13   7 195.090 9.37293   6
   2 -13   7 212.989 9.25852   7
   2  13  -7 186.646 8.46766   7
  -2 -13  -7 167.583 8.40141   1
  -2  13   7 188.589 8.78084   1
   2  13  -7 210.957 9.38746   6
   2  13   7 187.777 8.76172   7
  -2  13  -7 177.795 9.68566   6
  -2 -13   7 182.770 8.88204   1
   2 -13  -7 191.770 8.69462   7
  -2  13  -7 183.749 8.35495   1
   3 -13   7 6.12045 3.12452   7
   3 -13   7 5.66632 4.41433   3
   3  13  -7 7.29436 2.62926   7
  -3 -13  -7 3.17551 2.90280   1
  -3  13   7 1.73445 2.35349   1
   3  13   7 1.43365 2.36800   7
   3 -13  -7 6.56114 2.81190   7
  -3 -13   7 0.24509 2.67199   1
  -3  13  -7 0.30788 2.09972   1
  -4  13   7 210.315 9.11011   1
   4 -13   7 205.343 12.7686   3
   4 -13   7 226.121 9.43342   7
   4  13  -7 214.002 9.10970   7
  -4 -13  -7 210.869 9.27666   1
   4 -13   7 203.446 8.91916   5
   4  13   7 203.920 9.09842   7
  -4  13  -7 206.395 8.89219   1
  -4 -13   7 202.080 9.13186   1
   4 -13  -7 195.034 8.90903   7
   5 -13   7 6.38765 2.86033   5
   5 -13   7 -4.0106 4.59398   3
   5 -13   7 -0.3456 2.58791   7
   5  13  -7 -2.9210 1.81469   7
  -5 -13  -7 2.83074 2.79322   1
  -5  13   7 2.14551 2.20668   1
   5 -13  -7 4.02726 2.73265   7
  -5 -13   7 3.38721 2.89193   1
   5 -13  -7 2.24792 6.02112   4
  -5  13  -7 3.99172 2.27883   1
   5  13   7 3.33824 2.38984   7
  -6  13   7 135.460 6.84102   1
   6 -13   7 127.623 7.06294   5
   6 -13   7 130.455 10.7658   3
  -6 -13  -7 114.875 6.48249   1
  -6 -13   7 142.744 7.13537   1
  -6  13  -7 132.155 6.55991   1
   7 -13   7 2.60661 2.80903   5
   7 -13   7 -2.6272 4.24775   3
  -7  13   7 0.69080 2.09959   1
  -7 -13  -7 7.33276 2.93535   1
  -7 -13   7 8.79425 3.38110   1
  -7  13  -7 1.45596 2.30434   1
   8 -13   7 132.463 7.24471   5
   0  14  -7 -1.1885 2.16940   1
   0 -14  -7 3.62724 2.83617   7
   0 -14   7 -0.2384 2.78186   1
   0  14   7 4.14795 2.64241   1
  -1  14   7 5.48072 2.87397   1
   1  14  -7 7.55124 2.79173   7
   1 -14   7 3.59742 3.10789   7
  -1 -14  -7 10.6373 3.28572   1
   1 -14  -7 8.18690 3.01854   7
  -1  14  -7 9.24812 2.92461   1
  -1 -14   7 9.04559 3.49564   1
   1  14   7 9.35207 3.00396   7
  -2  14   7 106.382 6.37196   1
  -2 -14  -7 116.982 6.54754   1
   2 -14   7 114.832 6.72859   7
   2  14  -7 110.290 6.33501   7
  -2  14  -7 105.372 6.22466   1
  -2 -14   7 118.745 6.79324   1
   2 -14  -7 109.860 6.36392   7
   2  14   7 111.914 6.56931   7
   3 -14   7 6.45306 3.37508   7
   3  14  -7 3.57455 2.37672   7
  -3  14   7 11.1484 3.18462   1
   3 -14   7 7.32369 4.25459   3
  -3 -14  -7 7.55260 3.09762   1
   3 -14  -7 10.4707 3.42432   7
  -3  14  -7 3.65602 2.43690   1
  -3 -14   7 7.59290 3.49760   1
   3  14   7 4.59332 2.54925   7
   4 -14   7 1.52213 3.94525   3
  -4  14   7 3.88996 2.53510   1
   4  14  -7 -1.6037 2.62948   7
   4 -14   7 -2.3518 4.37584   7
  -4 -14  -7 0.93280 2.60796   1
   4  14   7 -0.3228 2.79319   7
  -4  14  -7 -1.6177 1.77087   1
  -4 -14   7 3.90267 3.18044   1
   5 -14   7 4.08542 3.05352   5
  -5 -14  -7 5.22086 3.04643   1
  -5  14   7 7.51449 2.71055   1
   5 -14   7 7.16427 5.07801   3
  -5  14  -7 7.41151 2.60496   1
  -5 -14   7 14.2521 3.64883   1
   6 -14   7 82.9612 5.70590   5
  -6 -14  -7 90.8785 5.74807   1
   6 -14   7 94.8086 9.81391   3
  -6  14   7 87.7523 5.45007   1
  -6  14  -7 82.5362 5.30667   1
  -6 -14   7 73.7488 5.29225   1
   7 -14   7 7.31711 3.11847   5
   7 -14   7 0.50338 5.24715   3
   0  15   7 66.7728 5.21194   1
  -1  15   7 3.95513 2.76874   1
   1  15  -7 8.82861 2.95469   7
  -1 -15  -7 12.6493 3.68445   1
   1 -15   7 4.58748 3.36747   7
  -1 -15   7 6.66567 3.50996   1
  -1  15  -7 6.88622 2.86168   1
   1 -15  -7 8.62170 3.23674   7
   1  15   7 6.49071 2.93547   7
  -2 -15  -7 130.250 7.08634   1
   2 -15   7 109.841 8.34841   3
   2  15  -7 136.009 7.12916   7
   2 -15   7 120.293 7.08921   7
  -2  15   7 124.089 6.89944   1
  -2  15  -7 119.274 6.69655   1
   2 -15  -7 112.170 6.94706   7
   2  15   7 119.338 6.79297   7
  -2 -15   7 122.963 6.95068   1
   3 -15   7 6.95257 4.36806   3
  -3 -15  -7 6.51096 3.19743   1
  -3  15   7 5.57922 2.71285   1
  -3 -15   7 6.53591 3.52828   1
  -3  15  -7 6.92175 2.75610   1
  -4 -15  -7 48.2675 4.85443   1
  -4  15   7 58.5024 4.75070   1
   4 -15   7 49.9963 6.45865   3
  -4 -15   7 53.8303 4.99682   1
  -4  15  -7 46.9975 4.20121   1
   5 -15   7 3.05676 4.32645   3
  -5 -15  -7 8.40390 4.41253   1
  -5  15   7 7.12197 4.01722   1
  -5 -15   7 3.99666 3.99162   1
  -5  15  -7 6.37427 3.98677   1
   6 -15   7 73.5624 8.28917   3
   6 -15   7 69.0994 5.48290   5
  -1  16   7 3.91949 2.56608   1
  -1 -16  -7 2.52349 3.25007   1
  -1 -16   7 12.0999 3.81757   1
  -1  16  -7 6.55497 2.83177   1
  -2 -16  -7 45.8361 4.82715   1
   2 -16   7 37.7529 5.49849   3
  -2  16   7 43.0701 4.29629   1
  -2  16  -7 29.2465 3.85436   1
  -2 -16   7 37.9785 4.66408   1
  -3 -16  -7 5.24232 3.13602   1
  -3  16   7 9.09322 3.10893   1
   3 -16   7 3.31429 3.70145   3
  -3  16  -7 4.72258 2.68998   1
  -3 -16   7 5.26112 3.40307   1
   4 -16   7 -1.3881 3.58453   3
   2 -17   7 5.41794 4.36471   3
   0   0  -8 995.088 30.1142   1
   0   0   8 1040.30 30.4638   1
   0   0  -8 1028.26 30.8528   6
   0   0   8 1044.70 30.5724   7
   0   0  -8 1080.16 30.3657   7
   1   0  -8 0.64492 1.53328   1
  -1   0   8 0.20302 1.94975   7
   1   0   8 1.52492 1.92727   7
  -1   0  -8 0.74082 1.74730   6
  -1   0  -8 -1.2261 1.38109   7
  -1   0  -8 -1.4878 1.40185   1
   1   0  -8 -0.0661 1.78168   6
   1   0   8 0.60929 1.60402   1
  -1   0   8 0.54383 1.72247   1
   1   0  -8 3.73443 1.86398   7
   2   0  -8 607.646 18.9509   1
  -2   0  -8 612.839 19.1214   7
   2   0  -8 615.916 20.0404   6
   2   0   8 619.720 19.5286   7
  -2   0   8 603.585 19.2885   1
   2   0   8 666.967 19.4796   1
   2   0  -8 604.992 19.0184   7
  -2   0  -8 622.584 19.3643   6
  -2   0  -8 617.366 19.0942   1
  -2   0   8 609.529 19.3853   7
  -3   0  -8 -1.6695 1.42455   1
   3   0  -8 0.66802 1.69618   7
  -3   0  -8 -1.7570 1.31937   6
  -3   0   8 2.91659 1.87462   1
   3   0  -8 -1.7985 1.50624   2
   3   0   8 2.19657 2.01951   7
   4   0  -8 759.835 23.3731   2
   4   0   8 755.509 23.6776   2
  -4   0  -8 724.257 22.4086   1
  -4   0  -8 742.122 22.4373   6
   4   0   8 744.848 22.7676   7
  -4   0   8 744.372 22.5467   1
   4   0  -8 743.117 22.3525   7
  -5   0  -8 0.34410 1.60658   1
   5   0  -8 -0.5066 1.65936   7
  -5   0   8 -1.0730 1.71057   1
   5   0   8 1.05176 2.01587   7
   5   0  -8 1.44910 1.80135   2
   5   0   8 2.84532 2.38536   2
   6   0  -8 377.984 13.2424   2
   6   0   8 374.767 12.7076   7
  -6   0   8 362.817 12.4031   1
   6   0   8 384.794 13.6461   2
   6   0  -8 366.986 12.2573   7
  -6   0  -8 362.786 12.4080   1
  -7   0  -8 -1.9976 1.54958   1
   7   0  -8 -1.2652 1.48602   2
   7   0   8 0.06201 2.18519   2
  -7   0   8 -0.8505 1.65510   1
   7   0  -8 0.58957 1.59023   7
   7   0   8 0.90462 1.79723   7
  -8   0  -8 328.646 11.2316   1
  -8   0   8 353.253 11.7918   1
   8   0  -8 314.387 12.6905   7
   8   0  -8 328.853 11.9415   2
   8   0   8 350.844 12.9269   2
   8   0   8 348.325 11.6315   7
   9   0  -8 -0.1192 1.80137   2
   9   0   8 1.16322 2.11481   2
  10   0  -8 166.945 7.43897   2
  10   0   8 171.800 7.93490   2
   0  -1  -8 523.129 17.0670   1
   0   1  -8 544.765 17.8321   6
   0   1   8 574.455 17.6953   1
   0   1  -8 540.060 17.2356   7
   0  -1  -8 543.956 17.8249   6
   0  -1  -8 549.144 17.3020   7
   0  -1   8 560.013 17.8147   7
   0  -1   8 572.273 17.7363   1
   0   1   8 532.284 17.6534   7
   0   1  -8 557.909 17.2540   1
   1  -1   8 2.43659 2.17755   7
  -1  -1  -8 4.37993 1.96751   1
   1   1  -8 2.97386 1.78044   7
   1  -1   8 2.19715 1.84924   1
  -1   1   8 2.86571 1.99795   7
   1   1  -8 3.79120 1.89063   1
  -1  -1  -8 4.84351 2.00750   7
   1   1  -8 7.89131 2.51623   6
  -1   1   8 5.07903 2.07130   1
  -1  -1  -8 6.23165 2.16799   6
   1   1   8 4.38831 2.27643   7
   1   1   8 5.49168 2.27157   1
  -1  -1   8 3.56049 2.11583   1
   1  -1  -8 6.00265 1.98377   1
   1  -1  -8 5.42793 1.97922   7
  -1   1  -8 6.56338 2.22235   6
  -1  -1   8 3.54383 2.25175   7
  -1   1  -8 3.51689 1.81140   1
  -1   1  -8 3.83014 1.85019   7
   2   1  -8 398.259 14.1254   6
   2  -1   8 392.586 13.2412   1
   2   1  -8 399.521 13.1816   1
  -2  -1  -8 392.273 13.2771   7
  -2  -1  -8 395.739 13.4304   6
  -2   1   8 381.169 13.2950   7
  -2   1   8 394.986 13.2822   1
   2   1  -8 378.589 13.0787   7
   2  -1   8 395.381 13.4045   7
  -2  -1  -8 383.446 13.1322   1
   2  -1  -8 389.832 13.2123   7
  -2  -1   8 386.342 13.3318   7
   2   1   8 389.998 13.4220   7
   2  -1  -8 410.475 13.2260   1
  -2   1  -8 394.322 13.5281   6
  -2  -1   8 403.915 13.3130   1
  -2   1  -8 404.209 13.2809   7
  -2   1  -8 377.024 13.1055   1
   2   1   8 421.332 13.4784   1
  -3  -1  -8 3.02505 1.92107   1
   3   1  -8 -0.6655 1.70637   2
   3  -1   8 1.92795 1.98477   7
  -3   1   8 4.69678 2.10412   1
   3   1  -8 2.08803 1.70664   7
   3   1  -8 3.29854 2.37254   6
  -3  -1  -8 3.67173 1.81798   6
  -3   1  -8 2.18209 1.84995   6
   3  -1  -8 0.78857 1.68086   7
   3  -1  -8 0.98599 1.86858   2
  -3  -1   8 0.35454 1.71259   1
   3   1   8 3.82592 2.09562   7
  -3   1  -8 -0.8944 1.53579   1
   4  -1   8 405.483 13.5997   7
   4   1  -8 409.444 13.6570   7
  -4   1   8 401.216 13.4463   1
  -4  -1  -8 415.254 13.7683   1
   4   1  -8 406.056 14.4480   2
   4  -1   8 410.390 14.5213   2
   4  -1  -8 417.930 13.7510   7
   4  -1  -8 425.917 14.5666   2
   4   1   8 419.669 14.5953   2
  -4   1  -8 416.515 13.7316   1
   4   1   8 393.959 13.7233   7
  -4   1  -8 415.814 13.9697   6
  -4  -1   8 409.489 13.4730   1
   5  -1   8 8.50632 2.55806   7
  -5   1   8 4.16289 2.02485   1
   5   1  -8 7.40841 2.52641   2
   5  -1   8 4.22470 2.40813   2
   5   1  -8 8.73472 2.34629   7
  -5  -1  -8 7.89382 2.23023   1
  -5   1  -8 8.03630 2.27741   1
   5  -1  -8 7.68786 2.29227   7
   5   1   8 6.82064 2.71967   2
   5   1   8 9.91658 2.66002   7
  -5  -1   8 6.81649 2.20324   1
   5  -1  -8 7.11281 2.51315   2
   6  -1   8 276.856 10.7191   2
  -6  -1  -8 256.825 9.49533   1
   6   1  -8 263.281 10.2028   2
  -6   1   8 270.079 9.67152   1
   6  -1   8 276.908 9.88821   7
   6   1  -8 273.957 9.42656   7
  -6   1  -8 241.707 9.35166   1
   6   1   8 275.597 10.8129   2
  -6  -1   8 259.764 9.58327   1
   6   1   8 246.394 9.63362   7
   6  -1  -8 272.803 10.2755   2
   6  -1  -8 248.903 9.20318   7
  -7  -1  -8 2.23854 1.77268   1
   7   1  -8 0.91731 1.78624   2
  -7   1   8 1.92868 2.60146   6
  -7   1   8 3.61327 2.11894   1
   7   1  -8 -0.5083 1.61325   7
   7  -1   8 0.16855 1.75026   7
   7  -1   8 -0.6678 2.10355   2
   7  -1  -8 1.03087 1.61450   7
   7  -1  -8 2.34572 2.12965   2
  -7   1  -8 0.03402 1.61463   1
  -7  -1   8 2.23298 1.76830   1
   7   1   8 -2.6262 1.96137   2
   7   1   8 -0.2634 1.73984   7
   8  -1   8 209.183 9.00296   2
  -8   1   8 200.575 7.87795   1
  -8  -1  -8 208.519 8.10310   1
   8   1  -8 205.449 7.71304   7
   8  -1   8 200.397 7.79117   7
   8   1  -8 203.269 8.61420   2
   8  -1  -8 209.124 8.67689   2
  -8   1  -8 203.804 7.98740   1
  -8  -1   8 211.012 7.92733   1
   8   1   8 210.164 9.00726   2
   8   1   8 208.632 7.84535   7
   8  -1  -8 206.556 9.54146   7
   9   1  -8 6.25115 2.47131   2
   9  -1   8 7.54670 2.84148   2
   9   1   8 3.60191 2.65716   2
   9  -1  -8 4.88064 2.45707   2
  10   1  -8 135.472 6.62960   2
  10  -1   8 137.189 6.92935   2
  10  -1  -8 140.682 6.65997   2
  10   1   8 133.688 6.88588   2
   0  -2   8 2781.23 74.6718   1
   0   2   8 2713.26 74.6498   1
   0  -2   8 2743.86 74.7201   7
   0  -2  -8 2775.34 72.9127   7
   0   2  -8 2657.06 73.5150   6
   0   2  -8 2593.10 72.7936   7
   0   2  -8 2641.35 72.6958   1
   0   2   8 2609.27 74.7191   7
   0  -2  -8 2556.85 72.6917   1
  -1  -2  -8 7.38116 2.24437   1
  -1   2   8 17.0668 2.61694   1
   1   2  -8 12.9635 2.81129   6
   1  -2   8 14.6276 2.79929   1
   1  -2   8 8.14565 2.52911   7
  -1   2   8 8.16644 2.44357   7
  -1  -2  -8 15.3223 2.43589   7
   1   2  -8 13.6139 2.57667   7
   1   2  -8 11.4411 2.36813   1
  -1   2  -8 12.1052 2.75557   6
  -1  -2   8 11.6545 2.79663   7
  -1  -2   8 9.69406 2.53214   1
  -1   2  -8 17.4122 2.48203   1
  -1   2  -8 9.60727 2.32440   7
   1   2   8 9.61208 2.56152   7
   1  -2  -8 10.1932 2.40199   7
   1   2   8 13.6192 2.73444   1
   1  -2  -8 9.01696 2.39456   1
   2  -2   8 276.387 10.2687   7
  -2  -2  -8 307.200 10.4710   7
   2   2  -8 276.248 9.98461   1
  -2   2   8 276.036 10.1506   1
   2   2  -8 267.035 10.8053   6
  -2  -2  -8 259.993 9.92781   1
   2   2  -8 268.417 9.95337   7
   2  -2   8 281.503 10.1830   1
  -2   2  -8 269.940 10.0014   1
  -2   2  -8 273.875 10.0603   7
  -2  -2   8 263.418 10.0736   1
  -2  -2   8 298.356 10.3280   7
   2  -2  -8 281.898 10.2302   7
  -2   2  -8 276.987 10.4953   6
   2   2   8 255.668 10.2317   7
   2   2   8 291.746 10.2519   1
  -3  -2  -8 7.63754 2.23975   1
  -3  -2  -8 5.29720 1.98831   6
   3   2  -8 4.82673 2.04470   7
   3  -2   8 5.06425 2.37541   7
  -3   2   8 7.58503 2.31552   1
   3   2  -8 7.87545 2.73949   6
   3  -2  -8 7.02250 2.17119   7
  -3   2  -8 9.10642 2.22263   1
  -3   2  -8 7.79097 2.28425   6
   3  -2  -8 5.55484 1.98476   4
  -3  -2   8 8.89917 2.44864   1
   3   2   8 10.7191 2.66032   7
   4   2  -8 1980.11 54.9008   7
   4   2  -8 1938.42 55.8719   2
   4   2  -8 1935.83 56.2598   6
  -4  -2  -8 1990.15 55.0264   1
   4  -2   8 1957.61 55.6920   7
   4  -2   8 2048.13 61.7417   2
  -4   2   8 1971.06 55.5633   1
   4  -2  -8 1954.74 56.9530   4
   4   2   8 2009.12 55.8565   7
  -4   2  -8 1989.42 55.0057   1
  -4   2  -8 1976.56 55.3113   6
   4  -2  -8 2024.89 55.9730   2
   4  -2  -8 1963.43 54.9137   7
  -4  -2   8 2002.53 55.5774   1
   5   2  -8 9.94905 2.72580   2
   5  -2   8 17.7649 3.08043   2
   5  -2   8 12.0389 2.75110   7
   5   2  -8 16.1640 2.41101   7
  -5   2   8 12.6997 2.68748   1
  -5  -2  -8 12.3923 2.58206   1
   5   2   8 14.6589 2.89471   7
  -5   2  -8 11.1049 2.49813   1
   5  -2  -8 15.2277 3.10361   3
   5   2   8 11.6899 3.04753   2
   5  -2  -8 9.08440 2.54506   2
  -5  -2   8 13.1177 2.71376   1
   5  -2  -8 17.1352 2.62015   7
   6   2  -8 161.454 7.27685   2
  -6   2   8 164.290 8.11200   6
   6  -2   8 154.627 6.75803   7
  -6  -2  -8 156.334 6.75505   1
   6   2  -8 146.768 6.40645   7
  -6   2   8 157.860 6.65015   1
   6  -2   8 150.065 7.35072   2
  -6   2  -8 153.129 6.60328   1
   6  -2  -8 155.840 7.20906   2
   6   2   8 146.925 6.64819   7
  -6  -2   8 148.472 6.56714   1
   6   2   8 158.365 7.54548   2
   6  -2  -8 152.622 7.60546   3
   6  -2  -8 149.952 6.35819   7
  -7   2   8 3.42109 2.01369   1
   7   2  -8 3.97251 2.13571   2
   7   2  -8 1.68777 1.72277   7
  -7   2   8 2.42537 2.64334   6
   7  -2   8 2.09864 2.07593   7
  -7  -2  -8 1.93846 1.99515   1
   7  -2   8 2.37798 2.54489   2
   7  -2  -8 4.84355 2.74544   3
  -7  -2   8 4.13515 2.10695   1
  -7   2  -8 2.36190 1.93031   1
   7  -2  -8 3.86921 1.84560   7
   7   2   8 3.52680 2.47675   2
   7   2   8 1.03694 1.90573   7
   7  -2  -8 5.22769 2.16531   2
   8  -2   8 960.938 29.3236   2
  -8  -2  -8 946.053 27.9463   1
   8  -2   8 942.382 27.9907   7
   8   2  -8 967.955 27.3342   7
  -8   2   8 986.524 28.1152   1
   8   2  -8 944.259 28.6942   2
   8   2   8 966.377 29.3771   2
  -8  -2   8 971.809 28.0694   1
  -8   2  -8 968.011 27.9657   1
   8  -2  -8 942.088 28.7477   2
   8   2   8 962.611 27.9716   7
   8  -2  -8 954.376 27.6332   7
   9   2  -8 10.7089 2.78664   2
   9  -2   8 6.69763 2.87434   2
   9  -2  -8 10.3784 2.86736   2
   9   2   8 11.1233 2.90439   2
  10  -2   8 64.7230 4.79891   2
  10   2  -8 60.9754 4.38057   2
  10  -2  -8 63.4460 4.51915   2
  10   2   8 69.3756 4.93732   2
   0  -3  -8 1.20443 1.67396   1
   0  -3   8 -1.2368 1.85132   7
   0  -3   8 0.52650 1.91855   1
   0   3  -8 3.02400 1.93966   7
   0   3   8 1.93027 2.00524   7
   0   3   8 6.05263 2.23078   1
   0   3  -8 -0.9764 1.58805   6
   0  -3  -8 2.39608 1.88222   7
   0   3  -8 -1.4647 1.42444   1
   1   3  -8 15.0045 2.45146   1
  -1   3   8 13.4635 2.84393   7
   1  -3   8 19.1309 2.79687   1
  -1  -3  -8 15.7300 2.56342   7
  -1  -3  -8 14.4387 2.71582   1
   1   3  -8 15.2489 2.47258   7
   1   3  -8 19.1392 3.01309   6
  -1   3   8 19.3210 2.78061   1
   1  -3   8 16.6859 3.07196   7
  -1  -3   8 19.5787 2.99313   7
   1  -3  -8 15.9182 2.54296   1
  -1   3  -8 18.9181 2.64195   7
   1   3   8 19.2808 2.78227   1
   1   3   8 24.5649 3.27225   7
  -1  -3   8 10.9603 2.67603   1
  -1   3  -8 19.3681 2.60583   1
   1  -3  -8 16.5001 2.64611   7
  -1   3  -8 21.7956 2.81945   6
   2   3  -8 0.70820 1.70647   7
  -2  -3  -8 2.21654 1.81046   7
   2  -3   8 2.95516 2.03934   1
   2  -3   8 2.22036 2.18921   7
  -2   3   8 1.44777 1.89631   7
  -2   3   8 1.77176 1.88342   1
   2   3  -8 2.17853 2.15279   6
  -2  -3  -8 9.81431 2.41380   1
   2  -3   8 0.44174 1.57415   5
   2   3  -8 0.93279 1.66899   1
  -2   3  -8 2.93994 1.72848   1
   2  -3  -8 1.82106 1.75506   1
   2  -3  -8 3.43743 1.92343   7
  -2   3  -8 4.13009 1.99307   7
  -2  -3   8 2.54712 2.08042   7
  -2   3  -8 0.22689 1.73209   6
   2   3   8 0.17347 1.71262   1
   2   3   8 1.37659 1.96965   7
  -2  -3   8 1.15729 1.84017   1
   3   3  -8 18.6442 2.66744   7
   3  -3   8 13.7850 2.93718   7
  -3   3   8 17.7062 2.79594   1
  -3  -3  -8 18.6857 2.81500   1
   3   3  -8 13.8236 3.15807   6
   3  -3   8 18.5492 2.58329   5
  -3  -3   8 12.8052 2.65640   1
  -3   3  -8 18.0259 2.64938   6
   3   3   8 11.2991 2.75855   7
   3  -3  -8 14.7404 2.65491   4
  -3   3  -8 18.3733 2.54574   1
   3  -3  -8 12.7522 2.59314   7
   4   3  -8 0.83507 1.71209   2
   4  -3   8 1.98565 1.93161   5
   4   3  -8 0.52888 1.65237   7
  -4  -3  -8 6.97018 2.21261   1
   4  -3   8 1.23343 1.89601   7
  -4   3   8 0.62991 1.85395   1
   4   3  -8 3.51157 2.32565   6
   4  -3  -8 0.50255 2.03785   2
   4  -3  -8 2.63423 1.97745   4
  -4  -3   8 -1.3937 1.69580   1
  -4   3  -8 3.73412 1.94143   6
   4  -3  -8 0.35080 1.71267   7
  -4   3  -8 1.78105 1.81540   1
   4   3   8 4.82488 2.13326   7
   5   3  -8 11.6466 2.44949   7
  -5   3   8 12.8603 2.62839   1
  -5  -3  -8 12.9166 2.67473   1
   5  -3   8 12.8624 3.03590   2
   5  -3   8 15.2374 2.97956   7
   5   3  -8 10.7069 2.63233   2
   5   3  -8 13.8431 3.33002   6
   5  -3   8 11.2223 2.77038   5
  -5   3   8 15.7445 3.53828   6
   5   3   8 14.8458 2.86071   7
   5  -3  -8 7.33795 2.61520   2
  -5   3  -8 10.3725 2.46687   1
  -5  -3   8 12.3450 2.68980   1
   5  -3  -8 10.3256 2.36148   7
   5  -3  -8 12.6410 2.89021   4
   5   3   8 8.15994 3.62745   2
  -5   3  -8 14.3614 2.48458   6
   6   3  -8 4.09105 2.28813   2
  -6   3   8 3.07460 1.91407   1
  -6  -3  -8 0.89803 1.76784   1
   6  -3   8 4.76299 2.53431   2
   6  -3   8 5.06011 2.46973   5
  -6   3   8 3.82194 2.82638   6
   6  -3   8 2.75162 2.07164   7
   6   3  -8 -0.3090 1.61441   7
   6   3   8 1.10238 2.31387   2
   6  -3  -8 2.02305 2.23884   2
  -6  -3   8 2.56132 1.99278   1
  -6   3  -8 1.58113 1.75528   1
   6   3   8 4.23212 2.11747   7
   6  -3  -8 5.74230 2.65709   4
   6  -3  -8 3.57484 1.92276   7
   6  -3  -8 3.71711 2.37198   3
  -7   3   8 9.36873 2.40846   1
   7   3  -8 10.0100 2.67283   2
   7  -3   8 11.5200 2.66412   7
   7   3  -8 11.4848 2.34374   7
   7  -3   8 6.37389 2.53958   2
   7  -3   8 13.7752 3.23473   5
  -7  -3  -8 10.0609 2.47053   1
  -7   3   8 10.5423 3.40120   6
  -7   3  -8 11.2266 2.49991   1
   7  -3  -8 7.45108 2.91948   3
   7   3   8 9.01046 3.00160   2
   7   3   8 16.3250 2.55115   7
   7  -3  -8 15.4481 2.39600   7
   7  -3  -8 11.2414 2.89583   2
  -7  -3   8 8.44014 2.39140   1
  -8   3   8 1.06729 1.89570   1
   8   3  -8 -0.5886 1.62528   7
  -8   3   8 -0.6772 2.66798   6
   8  -3   8 2.14194 2.45377   2
  -8  -3  -8 -0.1126 1.82401   1
   8  -3   8 0.43702 1.95870   7
   8   3  -8 1.97004 1.90456   2
  -8   3  -8 -1.3518 1.66786   1
   8  -3  -8 3.75941 2.55826   2
   8  -3  -8 1.02808 1.65491   7
   8  -3  -8 1.83152 2.55953   3
  -8  -3   8 2.58862 2.07021   1
   8   3   8 -0.2214 2.16751   2
   8   3   8 1.28059 1.82723   7
  -9  -3  -8 7.93345 2.39551   1
   9  -3   8 4.85388 2.65777   2
   9   3  -8 6.20352 2.32547   2
   9  -3  -8 9.43924 2.89791   2
   9   3   8 7.51301 2.90390   2
   9  -3  -8 8.75096 3.46403   3
  10   3  -8 1.67705 2.06260   2
  10  -3   8 4.62717 2.74990   2
  10   3   8 4.96719 2.60321   2
  10  -3  -8 1.81513 2.36902   2
   0   4  -8 42.0420 3.33784   1
   0  -4   8 45.7478 3.68343   1
   0   4   8 45.9702 3.60711   1
   0   4  -8 45.6572 3.84180   6
   0   4   8 44.8606 3.72013   7
   0  -4   8 42.8658 3.61116   7
   0   4  -8 43.2031 3.42088   7
   0  -4  -8 44.0979 3.52973   1
   0  -4  -8 44.9440 3.56441   7
   1  -4   8 24.8591 3.14032   7
   1   4  -8 23.2003 2.67263   1
   1   4  -8 20.7484 2.65948   7
  -1  -4  -8 20.2268 2.95515   7
  -1   4   8 20.7448 2.85629   1
  -1  -4  -8 19.2360 2.69506   1
   1  -4   8 20.0385 3.04041   1
   1   4  -8 18.9075 2.98212   6
  -1   4   8 20.7012 2.94462   7
   1  -4  -8 26.6592 2.91812   1
   1   4   8 21.7996 3.05892   7
  -1   4  -8 25.5191 3.07647   6
   1   4   8 20.7217 2.88434   1
  -1  -4   8 23.3469 3.00782   1
  -1   4  -8 18.9820 2.58779   7
  -1  -4   8 32.3627 3.26380   7
   1  -4  -8 17.8010 2.75817   7
  -1   4  -8 22.9907 2.74856   1
   2   4  -8 112.698 5.51386   1
   2  -4   8 130.857 5.99387   1
   2   4  -8 113.407 5.54545   7
   2  -4   8 114.305 5.89276   7
  -2  -4  -8 109.654 5.57640   1
  -2   4   8 112.777 5.70535   1
  -2  -4  -8 109.278 5.61338   7
   2   4  -8 106.887 6.18099   6
  -2  -4   8 112.536 5.71693   1
  -2   4  -8 112.959 5.93237   6
   2  -4  -8 116.049 5.58243   1
   2  -4  -8 112.555 5.63384   7
   2   4   8 110.067 5.84307   7
  -2   4  -8 105.581 5.47329   1
  -2  -4   8 110.884 6.63081   7
  -2   4  -8 126.111 5.78878   7
   2   4   8 105.735 5.57392   1
   3   4  -8 22.0730 3.37094   6
  -3   4   8 20.5500 2.75434   1
   3  -4   8 28.8583 3.42898   7
  -3  -4  -8 20.6108 2.99344   1
   3   4  -8 24.0891 2.93176   7
   3  -4   8 28.2474 2.78398   5
   3  -4  -8 21.9525 3.36105   4
   3  -4  -8 22.4736 2.92213   7
  -3   4  -8 26.8093 3.06066   1
  -3  -4   8 20.4935 2.88752   1
   3   4   8 23.7436 3.00323   7
  -3   4  -8 28.6076 3.04040   6
   4  -4   8 44.6991 3.62893   7
   4  -4   8 42.2599 3.49171   5
  -4  -4  -8 42.1869 3.38286   1
   4   4  -8 39.0851 3.32270   7
  -4   4   8 36.4474 3.19325   1
   4   4  -8 37.5895 3.86472   6
  -4   4   8 36.0484 3.87626   6
   4  -4  -8 44.8711 4.11957   4
  -4   4  -8 36.1031 3.25065   1
  -4  -4   8 37.4135 3.29146   1
   4   4   8 36.4879 3.52588   7
  -4   4  -8 36.9914 3.44913   6
   4  -4  -8 38.3780 3.32383   7
   5  -4   8 12.8384 2.78522   5
   5   4  -8 15.3182 2.85474   2
   5   4  -8 14.6929 3.41879   6
   5   4  -8 12.3305 2.56263   7
   5  -4   8 23.6619 3.04312   7
  -5   4   8 14.2611 2.74766   1
  -5  -4  -8 16.8332 2.65783   1
  -5   4   8 16.0991 3.58556   6
  -5   4  -8 13.7974 2.69014   1
   5  -4  -8 10.7264 2.90234   4
  -5  -4   8 14.2722 2.78065   1
   5  -4  -8 12.8150 2.54990   7
  -5   4  -8 20.8106 2.82160   6
   5   4   8 12.5563 2.80186   7
   5  -4  -8 16.6347 2.99622   2
  -6   4   8 59.9872 3.93074   1
   6  -4   8 61.2965 4.94654   2
   6   4  -8 63.4888 4.00369   7
   6  -4   8 65.0399 4.33851   7
  -6   4   8 60.9818 5.09337   6
  -6  -4  -8 55.6918 3.91157   1
   6   4  -8 64.8988 4.54099   2
   6  -4   8 71.3356 4.82098   5
   6  -4  -8 56.4935 3.80857   7
   6  -4  -8 57.9539 4.64107   3
   6   4   8 62.5373 4.23314   7
  -6   4  -8 64.0956 4.09654   1
   6  -4  -8 55.0966 4.88047   4
  -6  -4   8 62.4772 4.07597   1
   6  -4  -8 62.4552 4.62496   2
  -7   4   8 17.2226 2.61209   1
  -7   4   8 19.8244 3.42848   6
   7  -4   8 17.8016 3.29144   2
   7  -4   8 12.6949 2.74930   7
   7   4  -8 18.6819 2.97044   2
  -7  -4  -8 19.1148 2.87560   1
   7   4  -8 17.0998 2.52213   7
   7  -4   8 21.3824 3.73759   5
   7  -4  -8 20.7601 3.55980   3
   7  -4  -8 22.3467 2.66234   7
   7   4   8 16.1897 3.54677   2
   7  -4  -8 16.8187 3.11822   2
   7   4   8 25.9924 2.93589   7
   7  -4  -8 13.3683 3.65482   4
  -7  -4   8 22.8806 2.87633   1
  -7   4  -8 16.2885 2.52520   1
   8  -4   8 27.8074 3.65977   2
   8   4  -8 30.8317 3.24526   2
   8  -4   8 27.9278 3.02490   7
  -8   4   8 28.6375 4.03419   6
  -8  -4  -8 31.3120 3.04396   1
  -8   4   8 22.3812 2.78939   1
   8  -4   8 30.2177 4.36821   5
   8   4  -8 27.0087 2.73708   7
   8  -4  -8 27.8229 3.58698   2
   8   4   8 26.1895 3.68574   2
   8  -4  -8 30.8195 4.10508   3
  -8  -4   8 33.6993 3.16979   1
  -8   4  -8 23.3735 2.78835   1
   8   4   8 29.2685 2.95471   7
   8  -4  -8 26.9113 2.60935   7
   9  -4   8 6.86614 2.75337   2
   9   4  -8 7.40113 2.49565   2
  -9  -4  -8 12.2227 2.52326   1
   9  -4  -8 9.95924 3.01908   2
   9  -4  -8 11.3981 3.55744   3
   9   4   8 4.85294 2.78336   2
  -9   4  -8 6.35386 2.32986   1
  10   4  -8 25.3847 3.16494   2
  10  -4   8 24.6151 3.44116   2
  10  -4  -8 30.2153 3.53396   2
  10  -4  -8 29.0893 4.62937   3
  10   4   8 21.7387 3.58967   2
   0  -5  -8 148.121 6.69039   7
   0  -5   8 155.849 7.04407   7
   0  -5  -8 151.027 6.65301   1
   0   5  -8 137.811 7.08336   6
   0   5  -8 146.369 6.52383   1
   0  -5   8 145.341 6.79136   1
   0   5   8 142.799 6.73679   1
   0   5  -8 142.134 6.55407   7
   0   5   8 158.694 7.16770   7
   1  -5   8 31.6032 3.45267   1
   1   5  -8 27.2735 2.93145   1
  -1  -5  -8 22.8257 2.91593   1
  -1   5   8 22.0163 3.12508   1
   1  -5   8 30.8788 3.41419   7
   1   5  -8 34.9352 3.12264   7
   1   5  -8 23.3436 3.15057   6
  -1  -5  -8 27.3434 3.08776   7
  -1   5   8 23.5580 3.10934   7
  -1   5  -8 19.2836 2.72244   1
  -1  -5   8 21.5075 2.99831   1
  -1   5  -8 26.8655 2.86717   7
  -1   5  -8 25.3574 3.16502   6
   1  -5  -8 24.7678 2.88557   1
   1  -5  -8 20.5844 2.88169   7
  -1  -5   8 23.5942 3.23365   7
   1   5   8 25.7846 3.10262   1
   1   5   8 29.7354 3.34467   7
   2  -5   8 724.793 22.2734   7
   2   5  -8 714.523 22.6982   6
  -2  -5  -8 711.803 21.7052   7
  -2  -5  -8 676.485 21.4800   1
  -2   5   8 677.280 22.0385   1
   2   5  -8 706.681 21.5013   1
  -2   5   8 710.137 23.0290   6
   2  -5   8 709.309 22.1568   1
   2   5  -8 656.884 21.4110   7
  -2   5  -8 704.548 22.3169   6
  -2   5  -8 676.020 21.4807   1
   2  -5  -8 691.714 21.5347   7
  -2  -5   8 742.670 22.2145   1
   2   5   8 792.443 22.5228   1
   2  -5  -8 720.753 22.8116   1
  -2   5  -8 736.140 21.8116   7
   2   5   8 692.336 22.2639   7
   3   5  -8 23.1311 3.21635   6
  -3   5   8 23.4442 3.30533   6
  -3  -5  -8 20.9527 2.94387   1
  -3   5   8 19.6978 2.97348   1
   3  -5   8 28.7229 3.23454   7
   3   5  -8 12.4824 2.56969   7
   3  -5   8 23.2878 2.80787   5
   3   5   8 22.2496 3.06054   7
   3  -5  -8 16.9701 2.67097   7
  -3   5  -8 20.6113 2.87047   6
  -3   5  -8 25.2511 2.90323   1
  -3  -5   8 27.7879 3.29446   1
   4  -5   8 112.449 5.51068   5
  -4   5   8 106.729 6.36991   6
   4  -5   8 107.832 5.73020   7
   4   5  -8 104.575 5.41829   7
  -4  -5  -8 103.851 5.49000   1
  -4   5   8 106.015 5.57155   1
   4   5  -8 114.524 6.32018   6
  -4   5  -8 108.333 5.47038   1
  -4  -5   8 118.360 5.75723   1
   4   5   8 113.415 5.78708   7
  -4   5  -8 107.420 5.89276   6
   4  -5  -8 104.780 6.84925   4
   4  -5  -8 114.376 5.61175   7
   5   5  -8 20.7411 3.39745   6
  -5   5   8 23.1246 3.62845   6
  -5   5   8 19.3640 2.84890   1
  -5  -5  -8 19.4848 2.85061   1
   5  -5   8 15.4733 3.09990   5
   5  -5   8 21.8035 3.15122   7
   5   5  -8 19.7472 2.69596   7
  -5   5  -8 22.4942 2.82710   1
  -5  -5   8 13.7522 2.83173   1
   5  -5  -8 22.6087 2.94003   7
  -5   5  -8 23.1886 3.01031   6
   5  -5  -8 24.7515 3.71960   4
   5   5   8 19.3449 3.00604   7
  -6   5   8 403.463 15.1472   6
   6  -5   8 409.854 14.0557   5
  -6  -5  -8 377.990 13.4479   1
   6   5  -8 418.872 13.5568   7
  -6   5   8 406.164 13.5351   1
   6  -5   8 410.145 13.8018   7
  -6  -5   8 395.319 13.5108   1
   6   5   8 404.451 13.7655   7
  -6   5  -8 395.156 13.4563   1
   6  -5  -8 419.021 14.6595   2
   6  -5  -8 401.941 13.3469   7
   6  -5  -8 404.306 15.7841   4
   7  -5   8 12.0020 3.17533   5
   7   5  -8 12.6012 2.46620   7
   7  -5   8 9.48771 2.62790   7
  -7   5   8 12.8109 2.71032   1
   7   5  -8 14.7257 3.17217   2
  -7   5   8 18.4743 4.04753   6
  -7  -5  -8 11.6391 2.52297   1
   7   5   8 12.3951 2.63645   7
  -7   5  -8 16.1161 2.59823   1
   7  -5  -8 11.7462 3.18464   3
  -7  -5   8 11.4444 2.75190   1
   7  -5  -8 16.6166 2.55806   7
   7  -5  -8 13.6666 3.67178   4
   7  -5  -8 12.7562 3.16559   2
   8  -5   8 56.1798 4.88269   2
  -8   5   8 64.8897 5.39655   6
   8  -5   8 52.0196 4.62134   5
  -8  -5  -8 56.7869 3.93191   1
   8  -5   8 60.5973 4.06726   7
   8   5  -8 58.7676 3.64788   7
   8   5  -8 54.4812 4.25662   2
  -8   5   8 54.4136 3.86392   1
  -8   5  -8 56.3868 3.88989   1
  -8  -5   8 63.3944 4.18392   1
   8  -5  -8 51.0369 4.98647   3
   8  -5  -8 56.6726 4.55996   2
   8  -5  -8 53.5286 3.54475   7
   8  -5  -8 59.0144 3.57476   7
   8   5   8 53.9208 3.77176   7
   9   5  -8 8.46207 2.53045   2
   9  -5   8 12.0486 3.26082   2
  -9  -5  -8 9.77704 2.47454   1
   9  -5   8 18.7300 3.98775   5
   9  -5  -8 13.7337 3.19297   2
   9   5   8 11.0924 3.34649   2
  -9   5  -8 10.0175 2.46542   1
   9  -5  -8 10.9887 3.53041   3
  10   5  -8 165.133 7.53506   2
  10  -5   8 167.713 7.90733   2
  10  -5  -8 149.786 8.82640   3
  10   5   8 156.958 7.98182   2
  10  -5  -8 151.792 7.49789   2
  11  -5  -8 1.96988 3.24255   3
   0   6   8 4.55212 2.46651   6
   0  -6   8 8.27455 2.65782   1
   0   6  -8 7.89165 2.37240   1
   0   6  -8 4.23987 2.02602   7
   0   6   8 5.99469 2.41421   1
   0  -6  -8 6.59595 2.45508   7
   0   6  -8 4.69836 2.50337   6
   0  -6   8 7.35875 2.72188   7
   0   6   8 6.04505 2.52043   7
   0  -6  -8 9.51074 2.50797   1
  -1   6   8 10.0822 2.66757   7
   1   6  -8 8.23300 2.16978   7
  -1  -6  -8 8.08152 2.54167   1
  -1   6   8 11.4965 3.02811   6
   1   6  -8 7.81867 2.37845   1
   1  -6   8 16.2372 3.17756   7
  -1  -6  -8 12.0681 2.82843   7
   1  -6   8 8.27726 2.62706   1
  -1   6   8 8.19387 2.58751   1
   1   6  -8 11.6691 2.92052   6
  -1   6  -8 11.3594 2.53062   1
   1   6   8 8.44728 2.53177   1
   1  -6  -8 12.5616 2.83180   7
   1   6   8 8.90413 2.69518   7
  -1  -6   8 13.0028 3.00886   7
  -1  -6   8 10.6605 2.77758   1
  -1   6  -8 9.88836 2.27154   7
   1   6   8 11.2694 2.80693   6
   1  -6  -8 11.4136 2.63063   1
  -1   6  -8 15.5081 3.24573   6
   2  -6   8 333.375 11.8921   1
  -2   6   8 336.859 11.9006   1
  -2  -6  -8 352.155 12.9681   7
  -2   6   8 310.238 12.3936   6
  -2  -6  -8 334.685 11.7074   1
   2   6  -8 331.958 12.5978   6
   2  -6   8 328.714 11.9205   7
   2   6  -8 303.157 11.4403   7
   2   6   8 340.532 11.9283   1
  -2   6  -8 313.384 12.2071   6
   2   6   8 322.463 11.7272   6
   2   6   8 336.674 12.0938   7
  -2   6  -8 336.415 11.6347   1
  -2  -6   8 326.619 11.8242   1
   2  -6  -8 305.106 11.5734   7
   3  -6   8 6.85988 2.40898   7
   3   6  -8 4.34407 2.35149   6
  -3   6   8 9.05885 3.03267   6
   3  -6   8 5.47242 2.08115   5
  -3  -6  -8 6.73829 2.30021   1
  -3   6   8 8.64467 2.47222   1
   3   6  -8 5.43869 2.07793   7
  -3   6  -8 9.29895 2.70453   6
  -3  -6   8 8.83472 2.72294   1
   3   6   8 8.69272 2.59501   7
  -3   6  -8 4.89484 2.00279   1
   3  -6  -8 7.42405 2.41062   7
  -4   6   8 2.16913 2.13611   1
  -4   6   8 6.09484 2.81200   6
   4  -6   8 2.18047 1.98555   5
   4  -6   8 2.50558 2.24909   7
  -4  -6  -8 2.14733 1.93374   1
   4   6  -8 3.57747 1.92216   7
   4   6  -8 6.41039 2.73484   6
   4  -6  -8 3.73970 2.26600   7
  -4  -6   8 1.26952 2.15466   1
  -4   6  -8 5.70074 2.51178   6
   4  -6  -8 1.17118 2.55351   4
   4   6   8 4.31141 2.31996   7
  -4   6  -8 2.85349 1.86769   1
   5  -6   8 9.81645 2.77260   5
   5  -6   8 9.71572 2.66096   7
  -5  -6  -8 12.2360 2.73967   1
  -5   6   8 9.59480 3.21412   6
   5   6  -8 10.4353 2.37563   7
  -5   6   8 9.22339 2.50725   1
   5   6  -8 13.4869 3.37736   6
   5  -6  -8 10.4086 3.41114   4
  -5   6  -8 5.65680 2.35119   6
   5   6   8 9.95753 2.58279   7
  -5   6  -8 8.83276 2.34603   1
  -5  -6   8 9.38033 2.67953   1
   5  -6  -8 13.3464 2.70181   7
  -6   6   8 198.002 8.11876   1
   6  -6   8 213.435 8.72681   5
  -6   6   8 193.305 9.38292   6
   6   6  -8 201.196 8.09160   7
   6  -6   8 200.644 8.38555   7
  -6  -6  -8 197.225 8.14192   1
  -6   6  -8 199.047 8.06647   1
   6  -6  -8 191.495 7.91721   7
  -6  -6   8 205.913 8.21348   1
  -6   6  -8 207.322 9.96477   6
   6  -6  -8 205.431 10.4726   4
   6   6   8 191.906 8.21216   7
   7  -6   8 7.33689 2.98229   5
   7  -6   8 1.51114 2.24766   7
  -7   6   8 7.71674 3.37183   6
  -7   6   8 1.57427 2.02915   1
  -7  -6  -8 7.44464 2.39901   1
   7   6  -8 1.54467 1.89925   7
   7  -6  -8 4.49755 2.10983   7
  -7   6  -8 0.97548 1.78758   1
  -7  -6   8 4.60359 2.32214   1
   7  -6  -8 3.58364 2.69172   3
   7   6   8 4.18850 2.13090   7
   7  -6  -8 0.47023 2.78674   4
   7  -6  -8 7.47430 2.20080   7
  -8   6   8 0.96457 2.76648   6
  -8   6   8 1.67359 1.97505   1
   8   6  -8 -0.3624 1.69362   7
  -8  -6  -8 -0.1302 1.92702   1
   8  -6   8 2.14430 2.22152   7
   8  -6   8 0.27794 2.85427   5
   8  -6  -8 4.14125 2.00278   7
   8  -6  -8 -1.7881 2.36707   3
   8  -6  -8 2.56971 2.61560   2
   8   6   8 5.57913 2.17366   7
  -8  -6   8 1.06258 2.14362   1
   8  -6  -8 3.81078 3.36058   4
  -8   6  -8 0.10416 1.77742   1
   9   6  -8 2.25144 2.31959   2
   9  -6   8 9.89338 3.52269   5
  -9  -6  -8 9.92859 2.58813   1
  -9   6  -8 3.87444 2.18038   1
   9  -6  -8 6.53465 3.35085   3
   9  -6  -8 10.1329 2.89498   2
  10  -6   8 95.1331 6.53566   5
  10   6  -8 96.3186 5.74107   2
  10  -6  -8 97.4477 7.12503   3
  10  -6  -8 89.8303 5.70309   2
  11  -6  -8 4.05931 3.22152   3
   0  -7   8 350.859 12.3597   1
   0   7   8 344.807 12.6208   6
   0  -7  -8 305.965 11.6115   1
   0  -7  -8 322.410 11.8409   7
   0   7  -8 337.039 11.7061   1
   0   7   8 328.828 12.2836   7
   0   7  -8 315.125 12.4668   6
   0   7  -8 338.138 11.8926   7
   0   7   8 338.043 12.2637   1
   0  -7   8 330.058 12.3276   7
   1   7  -8 1.87059 1.80776   7
   1   7  -8 1.33050 2.12931   6
  -1   7   8 3.54494 2.17224   1
   1  -7   8 -1.0379 2.16389   7
   1  -7   8 4.09760 2.47650   1
  -1  -7  -8 0.69718 2.17342   7
  -1  -7  -8 2.35038 2.07102   1
   1   7  -8 0.72319 1.66683   1
  -1   7   8 -0.1652 1.97495   7
  -1   7   8 5.33048 2.57070   6
   1   7   8 2.02216 2.34486   7
  -1   7  -8 2.74260 2.25621   6
  -1   7  -8 2.47974 1.93540   1
  -1  -7   8 5.14684 2.67980   7
  -1  -7   8 2.31040 2.26492   1
   1  -7  -8 1.22637 1.96465   1
   1   7   8 1.88461 2.06450   6
  -1   7  -8 2.81957 1.78436   7
   1   7   8 1.72288 2.17052   1
   1  -7  -8 4.34359 2.33949   7
  -2   7   8 710.633 23.1231   6
  -2  -7  -8 698.227 21.5700   1
   2   7  -8 717.766 21.6425   7
   2   7  -8 679.779 22.5165   6
   2  -7   8 743.630 25.5440   1
  -2   7   8 717.768 22.3114   1
   2  -7   8 705.802 22.3720   7
  -2  -7   8 697.180 22.1822   1
  -2   7  -8 682.457 22.2941   6
   2   7   8 742.234 22.3330   6
   2   7   8 714.374 22.3277   1
   2   7   8 694.074 22.4433   7
  -2   7  -8 704.284 21.5550   1
   2  -7  -8 661.067 21.5141   7
   3  -7   8 0.33419 2.16807   5
   3   7  -8 2.42603 1.95889   7
   3   7  -8 3.40177 2.41194   6
  -3   7   8 1.30489 2.15761   1
  -3  -7  -8 1.17848 1.97645   1
  -3   7   8 2.13566 2.63371   6
   3  -7   8 3.94285 2.41311   7
  -3   7  -8 1.31957 1.91260   6
   3  -7  -8 2.91477 2.18767   7
  -3   7  -8 -0.7167 1.58209   1
   3   7   8 2.08510 2.23035   7
  -3  -7   8 2.22609 2.36918   1
   4  -7   8 266.893 10.1555   7
  -4   7   8 253.195 10.9635   6
   4  -7   8 257.758 9.66053   5
  -4  -7  -8 233.620 9.39008   1
  -4   7   8 251.681 9.86125   1
   4   7  -8 249.944 9.49025   7
   4   7  -8 252.989 10.4451   6
   4   7   8 263.974 10.1177   7
   4  -7  -8 245.463 9.51956   7
  -4  -7   8 257.616 9.95287   1
   4  -7  -8 235.186 12.2085   4
  -4   7  -8 239.869 10.0414   6
  -4   7  -8 234.246 9.34372   1
   5   7  -8 1.21079 2.29229   6
  -5   7   8 2.51884 2.52601   6
   5  -7   8 -0.1636 2.05781   7
   5  -7   8 -0.4937 2.28478   5
  -5  -7  -8 2.42780 2.18117   1
   5   7  -8 0.32982 1.78277   7
  -5   7   8 -2.2617 1.92659   1
   5   7   8 3.16336 2.25002   7
  -5   7  -8 1.31305 1.99967   6
   5  -7  -8 6.42708 3.34724   4
   5  -7  -8 2.20193 2.09149   7
  -5   7  -8 1.60125 1.81170   1
  -5  -7   8 1.62253 2.17998   1
  -6   7   8 439.508 14.9923   1
   6  -7   8 450.744 15.2470   7
   6   7  -8 428.392 14.6915   7
  -6  -7  -8 452.858 14.9243   1
  -6   7   8 455.046 16.6645   6
   6  -7   8 478.393 15.5399   5
   6   7   8 451.948 15.2002   7
  -6  -7   8 447.054 15.0775   1
   6  -7  -8 442.930 18.0936   4
  -6   7  -8 444.476 14.8150   1
   6  -7  -8 447.765 14.7002   7
  -6   7  -8 451.752 15.6262   6
   7  -7   8 2.00790 2.34910   7
  -7  -7  -8 -0.8959 1.99501   1
  -7   7   8 1.18615 2.49348   6
  -7   7   8 0.21303 1.90042   1
   7  -7   8 0.45019 2.71979   5
   7   7  -8 0.02827 1.79367   7
   7   7   8 0.64723 1.97176   7
   7  -7  -8 3.19511 2.20771   7
   7  -7  -8 2.40875 1.96984   7
  -7  -7   8 0.58518 2.17481   1
   7  -7  -8 -2.0112 2.85582   4
  -7   7  -8 0.83723 1.80339   1
  -8  -7  -8 145.482 6.50425   1
   8  -7   8 139.339 7.33314   5
   8  -7   8 142.300 6.60091   7
  -8   7   8 141.512 7.98970   6
  -8   7   8 130.582 6.19239   1
   8   7  -8 129.048 6.00440   7
   8  -7  -8 134.190 8.94750   4
   8  -7  -8 134.923 7.96749   3
  -8  -7   8 129.678 6.34529   1
  -8   7  -8 139.179 6.37866   1
   8   7   8 138.422 6.41008   7
   8  -7  -8 133.099 6.00746   7
  -9  -7  -8 -0.6763 2.00058   1
   9  -7   8 6.56659 3.30325   5
   9   7   8 3.01555 2.30985   7
  -9  -7   8 3.47063 2.40231   1
  -9   7  -8 0.38593 1.86257   1
   9  -7  -8 4.69844 3.06120   3
  10  -7   8 234.243 10.5487   5
  10  -7  -8 218.620 10.8414   3
  11  -7  -8 3.38992 3.84617   3
   0  -8  -8 2912.90 75.9435   1
   0  -8  -8 2837.45 75.9565   7
   0   8  -8 2608.40 75.6748   7
   0   8   8 2869.32 77.9739   6
   0   8   8 2797.64 77.6107   7
   0  -8   8 2671.51 77.1885   1
   0   8   8 2857.51 77.5370   1
   0  -8   8 2786.30 77.5372   7
   0   8  -8 2677.87 75.5596   1
   0   8  -8 2642.54 76.6070   6
  -1  -8  -8 2.27587 2.29136   7
   1   8  -8 1.37844 1.85650   1
  -1   8   8 0.03680 2.10472   7
   1  -8   8 -0.9509 2.45536   7
  -1   8   8 2.23606 2.38821   6
  -1  -8  -8 2.01598 2.17948   1
   1  -8   8 1.20156 2.54131   1
  -1   8   8 -1.8085 2.01969   1
   1   8  -8 1.33649 1.95496   7
   1   8  -8 -5.1540 1.53151   6
   1   8   8 -0.4474 2.04735   7
   1  -8  -8 1.73412 2.15496   1
  -1   8  -8 -1.3036 1.74477   1
  -1  -8   8 2.03094 2.40872   1
   1  -8  -8 -2.5361 1.77856   7
   1   8   8 2.00771 2.17151   6
  -1   8  -8 2.60985 2.21891   6
  -1   8  -8 -1.1352 1.73860   7
   1   8   8 -0.8535 1.99702   1
  -1  -8   8 0.35161 2.38607   7
  -2   8   8 202.767 8.59569   1
  -2  -8  -8 195.553 8.30864   1
   2   8  -8 185.605 8.77873   6
   2   8  -8 185.117 8.09029   7
   2  -8   8 196.871 8.54031   7
  -2   8   8 194.884 9.04973   6
  -2  -8   8 204.402 8.62480   1
   2  -8  -8 194.917 8.33310   7
   2   8   8 187.090 8.49531   7
  -2   8  -8 190.699 8.74132   6
  -2   8  -8 186.797 8.06327   1
  -3   8   8 0.68535 2.23936   1
   3  -8   8 0.37361 2.38560   7
  -3   8   8 -2.1361 2.01665   6
  -3  -8  -8 0.89360 2.06925   1
   3   8  -8 2.09103 2.24623   6
   3   8  -8 1.37349 1.89556   7
  -3   8  -8 2.31761 2.05350   1
   3   8   8 0.25456 2.20217   7
  -3  -8   8 2.50120 2.25992   1
  -3   8  -8 0.23875 1.94696   6
   3  -8  -8 -0.2994 1.82559   7
   4   8  -8 2088.97 58.5657   6
  -4   8   8 2104.18 60.9501   6
   4   8  -8 2087.09 57.3167   7
   4  -8   8 2156.01 59.1958   5
   4  -8   8 2116.07 59.7327   7
  -4   8   8 2168.97 59.7214   1
  -4  -8  -8 2068.19 57.3276   1
  -4  -8   8 2111.31 59.5615   1
   4  -8  -8 1896.61 62.0835   4
  -4   8  -8 2053.35 58.1291   6
  -4   8  -8 2008.61 57.2001   1
   4   8   8 2110.84 59.8064   7
   4  -8  -8 2058.93 57.2238   7
  -5  -8  -8 -1.7518 1.91976   1
   5  -8   8 -1.5058 2.10896   7
  -5   8   8 0.08760 2.50256   6
   5   8  -8 -2.2909 1.54932   7
   5  -8   8 0.98728 2.20557   5
  -5   8   8 -0.9999 1.83554   1
  -5   8  -8 0.07445 2.01506   6
   5  -8  -8 0.03680 3.01768   4
   5  -8  -8 -0.9177 1.94928   7
  -5   8  -8 0.96531 1.83674   1
  -5  -8   8 -2.7187 2.00223   1
   5   8   8 -1.9915 1.93069   7
  -6  -8  -8 119.698 6.16653   1
   6  -8   8 123.944 6.42168   7
   6  -8   8 133.061 6.77187   5
   6   8  -8 122.382 6.07125   7
  -6   8   8 135.185 7.61973   6
  -6   8   8 123.625 6.26141   1
  -6  -8   8 136.122 6.50094   1
   6   8   8 134.829 6.62604   7
   6  -8  -8 122.319 6.00153   7
  -6   8  -8 125.504 6.63563   6
   6  -8  -8 133.698 9.20352   4
  -6   8  -8 120.385 5.98796   1
   6  -8  -8 116.524 6.03341   7
  -7   8   8 -1.1075 2.57811   6
   7  -8   8 -1.2592 2.44118   5
  -7   8   8 3.92300 2.21161   1
   7  -8   8 -1.8902 2.23197   7
  -7  -8  -8 4.90128 2.25184   1
   7   8  -8 0.32343 1.85539   7
   7  -8  -8 4.11480 3.89684   4
   7   8   8 1.85558 2.03620   7
  -7  -8   8 1.06515 2.25433   1
   7  -8  -8 1.65450 2.07413   7
  -7   8  -8 3.05241 1.97718   1
  -8  -8  -8 1069.87 32.0743   1
   8  -8   8 1151.91 34.6370   5
  -8   8   8 1143.77 33.5494   1
   8   8  -8 1133.96 31.8642   7
   8  -8   8 1149.75 33.6794   7
  -8  -8   8 1135.46 33.5717   1
   8  -8  -8 1045.71 36.5211   4
   8  -8  -8 1104.39 31.6233   7
  -8   8  -8 1108.34 32.0875   1
   8   8   8 1185.33 33.7870   7
  -9   8   8 1.52559 2.27252   1
   9  -8   8 3.00695 2.98564   5
  -9  -8  -8 -0.9342 2.03160   1
  -9  -8   8 0.24491 2.31966   1
   9   8   8 0.53973 1.97447   7
  -9   8  -8 -0.3226 1.85697   1
  10  -8   8 70.9201 5.86351   5
  10  -8  -8 59.3680 5.98763   3
   0  -9   8 153.543 7.38703   1
   0   9  -8 145.469 7.69533   6
   0  -9   8 155.857 7.52814   7
   0   9   8 157.763 7.42552   1
   0  -9  -8 151.765 7.22981   7
   0   9  -8 152.630 7.08354   1
   0   9  -8 150.109 7.13842   7
   0  -9  -8 145.564 7.08873   1
   0   9   8 157.796 7.48084   7
   0   9   8 155.969 7.63456   6
   1  -9   8 3.69856 2.64478   7
   1   9  -8 4.00783 2.24181   1
  -1  -9  -8 5.43265 2.54858   7
   1  -9   8 6.15450 2.75127   1
   1   9  -8 2.68569 2.21306   7
  -1   9   8 5.40442 2.52684   1
  -1   9   8 4.27740 2.63186   6
   1   9  -8 3.37679 2.50329   6
  -1  -9  -8 6.19509 2.52078   1
   1   9   8 4.19089 2.35021   1
  -1   9  -8 5.43914 2.47752   7
  -1   9  -8 2.38410 2.38858   6
  -1  -9   8 3.97213 2.77843   1
   1   9   8 1.87732 2.22983   6
   1  -9  -8 3.10511 2.44927   1
  -1  -9   8 -0.5395 2.47773   7
  -1   9  -8 5.23344 2.29484   1
   1  -9  -8 4.73762 2.44105   7
   1   9   8 3.90703 2.38956   7
  -2   9   8 44.7214 4.37354   6
  -2   9   8 50.5834 4.18698   1
  -2  -9  -8 42.1511 3.84930   1
   2   9  -8 47.1403 3.93732   7
   2  -9   8 47.9234 4.18695   7
   2   9  -8 48.4854 4.37813   6
  -2   9  -8 43.8033 4.21453   6
  -2  -9   8 45.2337 4.26129   1
  -2   9  -8 41.9350 3.71351   1
   2   9   8 47.2966 4.24030   7
   2  -9  -8 47.6254 3.99411   7
   3  -9   8 -1.8883 3.17039   3
   3   9  -8 0.74980 2.18825   6
  -3   9   8 3.32868 2.40909   1
   3  -9   8 -1.0900 2.26175   7
   3   9  -8 -0.0173 1.83844   7
  -3  -9  -8 3.81154 2.30300   1
  -3   9   8 2.93924 2.62747   6
  -3   9  -8 4.90091 2.22373   1
   3  -9  -8 0.74423 2.19858   7
  -3   9  -8 2.47905 2.13594   6
  -3  -9   8 -0.9795 2.46165   1
   3   9   8 1.25341 2.16238   7
   4  -9   8 122.879 6.18851   5
   4   9  -8 125.343 6.33579   7
  -4  -9  -8 132.038 6.53103   1
  -4   9   8 136.594 6.50281   1
   4  -9   8 116.155 6.47571   7
   4   9  -8 121.752 6.98012   6
  -4   9   8 124.271 7.25644   6
  -4   9  -8 131.458 6.40186   1
  -4  -9   8 126.492 6.56013   1
   4   9   8 132.648 6.64642   7
   4  -9  -8 125.035 10.1456   4
   4  -9  -8 133.388 6.46150   7
   4  -9  -8 125.993 6.35131   7
  -4   9  -8 126.128 6.92229   6
  -5   9   8 3.66665 2.93939   6
   5  -9   8 3.20866 2.65497   7
  -5   9   8 1.38398 2.12114   1
   5   9  -8 3.98243 2.02346   7
  -5  -9  -8 4.50124 2.36938   1
   5  -9   8 2.31144 2.36804   5
   5  -9  -8 4.01323 4.03095   4
   5   9   8 5.50612 2.40837   7
  -5   9  -8 4.45139 2.52042   6
   5  -9  -8 5.52961 2.61852   7
   5  -9  -8 2.79119 2.28561   7
  -5  -9   8 2.13866 2.57618   1
  -5   9  -8 4.82790 2.30808   1
  -6  -9  -8 42.9627 3.78132   1
   6  -9   8 33.3384 3.79871   7
  -6   9   8 27.3201 3.29669   1
   6   9  -8 40.5875 3.54009   7
  -6   9   8 35.6200 4.43522   6
   6  -9   8 33.5924 3.89980   5
  -6   9  -8 33.3379 3.33688   1
  -6   9  -8 31.1615 3.72269   6
   6  -9  -8 37.0407 3.69748   7
   6  -9  -8 33.7887 5.98184   4
  -6  -9   8 33.4385 3.65373   1
   6   9   8 35.2280 3.66326   7
   7  -9   8 -0.4000 2.56767   5
  -7   9   8 1.52872 2.05145   1
  -7  -9  -8 0.64664 2.33786   1
   7  -9   8 2.27752 2.59286   7
   7   9  -8 3.36940 2.05940   7
   7  -9  -8 6.03761 2.50988   7
  -7   9  -8 3.02273 2.06410   1
  -7  -9   8 4.82698 2.59265   1
   7   9   8 3.33924 2.28140   7
   7  -9  -8 -1.4871 3.89881   4
  -8   9   8 72.4413 4.63029   1
   8  -9   8 77.3223 4.97276   7
  -8  -9  -8 70.1285 4.70255   1
   8  -9   8 74.0298 5.52319   5
   8   9  -8 69.7754 4.41423   7
  -8   9  -8 72.1055 4.62161   1
  -8  -9   8 79.9602 5.04863   1
   8  -9  -8 60.9863 7.38473   4
   8  -9  -8 71.9563 4.45930   7
   8   9   8 78.3257 4.89443   7
  -9   9   8 3.15678 2.09960   1
  -9  -9  -8 0.53009 2.25231   1
   9  -9   8 -1.1033 2.79771   5
  -9  -9   8 1.79705 2.46918   1
  -9   9  -8 4.36835 2.21412   1
  10  -9   8 33.9476 5.31454   5
   0  10   8 60.5033 4.80787   6
   0 -10   8 55.5798 4.85426   7
   0 -10  -8 63.8738 4.66695   7
   0  10   8 61.3352 4.71773   7
   0  10  -8 59.1038 4.47925   7
   0  10   8 59.3293 4.60360   1
   0 -10  -8 58.9471 4.57003   1
   0  10  -8 62.0697 4.96018   6
   0  10  -8 58.8733 4.36787   1
   0 -10   8 60.2599 4.78835   1
   1 -10   8 9.43803 3.16326   1
   1 -10   8 9.59080 3.33697   7
  -1  10   8 10.3695 3.25588   6
  -1  10   8 12.8001 3.20526   1
   1  10  -8 7.71918 2.83602   6
   1  10  -8 9.32826 2.52209   7
   1  10  -8 9.17621 2.65331   1
  -1 -10  -8 7.41065 2.72088   7
  -1 -10  -8 12.9303 3.26487   1
  -1 -10   8 11.9766 3.47664   1
   1 -10  -8 12.7777 3.02083   7
   1  10   8 9.67763 2.85473   7
  -1  10  -8 8.11606 2.50900   1
   1  10   8 14.6463 3.24551   1
   1  10   8 11.6757 3.13052   6
  -1  10  -8 3.25298 2.34352   6
  -2 -10  -8 387.087 13.8196   1
   2  10  -8 393.827 13.7784   7
   2 -10   8 403.792 14.3988   7
  -2  10   8 393.344 14.2060   1
   2  10  -8 393.221 14.5067   6
  -2  10   8 407.602 15.0163   6
   2 -10  -8 368.177 13.6742   7
  -2 -10   8 389.545 14.2046   1
  -2  10  -8 379.064 13.5651   1
  -2  10  -8 379.229 14.4003   6
   2  10   8 403.113 14.3576   7
   2 -10  -8 389.161 13.7985   7
   3  10  -8 9.20033 2.55488   7
   3 -10   8 11.8104 3.19326   7
   3  10  -8 11.8710 3.22550   6
   3 -10   8 7.62127 4.17675   3
  -3 -10  -8 10.3572 3.05264   1
  -3  10   8 12.2586 3.09132   1
  -3  10   8 6.94080 2.91997   6
  -3 -10   8 15.0181 3.42363   1
  -3  10  -8 8.41451 2.64070   1
  -3  10  -8 8.06819 2.75936   6
   3 -10  -8 8.57303 2.83681   7
   3 -10  -8 11.8287 3.03014   7
   3  10   8 9.33532 2.90602   7
  -4  10   8 51.6629 4.99267   6
   4 -10   8 51.7558 4.40932   7
   4  10  -8 50.0024 4.11413   7
   4 -10   8 47.5714 5.65173   5
  -4  10   8 49.0284 4.18424   1
   4 -10   8 40.5919 6.18423   3
   4  10  -8 49.7661 4.61397   6
  -4 -10  -8 46.7911 4.26935   1
  -4  10  -8 44.8233 3.83928   1
  -4 -10   8 48.8769 4.51336   1
  -4  10  -8 54.6467 4.61700   6
   4 -10  -8 55.7130 4.26656   7
   4 -10  -8 47.6758 4.12325   7
   4  10   8 49.6172 4.27995   7
  -5 -10  -8 5.15275 2.73785   1
   5 -10   8 4.34164 2.75269   7
   5  10  -8 7.80325 2.34673   7
  -5  10   8 7.15803 3.22852   6
   5 -10   8 8.84440 2.71150   5
  -5  10   8 6.89345 2.64431   1
  -5  10  -8 7.15269 2.77594   6
   5 -10  -8 6.42306 4.68249   4
  -5 -10   8 12.4645 3.26001   1
   5  10   8 6.58577 2.46332   7
   5 -10  -8 6.53915 2.66957   7
  -5  10  -8 6.37067 2.40239   1
  -6 -10  -8 245.200 9.82661   1
   6  10  -8 237.595 9.57917   7
   6 -10   8 250.575 10.1264   5
   6 -10   8 240.144 9.95914   7
  -6  10   8 260.595 9.97615   1
  -6  10  -8 256.999 10.6773   6
   6 -10  -8 258.451 9.78719   7
   6 -10  -8 218.431 13.9754   4
   6  10   8 257.462 10.1567   7
  -6  10  -8 248.177 9.73257   1
  -6 -10   8 238.688 9.85662   1
   7 -10   8 5.91735 2.65199   7
   7 -10   8 3.05133 2.76845   5
   7  10  -8 10.1971 2.74962   7
  -7 -10  -8 6.18519 2.60669   1
  -7  10   8 6.16913 2.46060   1
   7 -10  -8 11.9369 5.20032   4
   7 -10  -8 12.2276 2.90771   7
   7  10   8 9.06010 2.74635   7
  -7 -10   8 7.00297 2.83371   1
  -7  10  -8 5.85783 2.32698   1
  -8 -10  -8 32.2256 3.60947   1
  -8  10   8 31.9931 3.39654   1
   8 -10   8 32.3625 4.14066   5
  -8 -10   8 32.3109 3.71184   1
  -8  10  -8 29.9247 3.29257   1
   9 -10   8 3.08650 3.22899   5
  -9  10   8 6.80455 2.44523   1
  -9 -10  -8 1.67039 2.39246   1
  -9  10  -8 2.77382 2.22447   1
  -9 -10   8 5.83983 2.60000   1
   0 -11   8 2.30491 2.99417   1
   0  11   8 3.46026 2.76605   6
   0 -11  -8 2.98098 2.75900   1
   0  11  -8 4.43410 2.33578   1
   0  11   8 5.51839 2.93183   7
   0 -11  -8 -1.5413 2.20299   7
   0 -11   8 7.44573 3.08794   7
   0  11  -8 4.47865 2.56258   6
   0 -11  -8 5.18958 2.66479   7
   0  11   8 4.73126 2.74470   1
   0  11  -8 3.86805 2.19381   7
   1  11  -8 19.6634 3.05829   7
  -1  11   8 21.0934 3.68437   6
  -1  11   8 15.7970 3.34132   1
  -1 -11  -8 18.7137 3.49527   1
   1 -11   8 15.1799 3.85848   1
   1  11  -8 19.3498 3.35652   6
   1 -11   8 26.3646 3.83995   7
  -1 -11   8 21.2814 3.95379   1
   1  11   8 13.9607 3.29010   7
  -1  11  -8 14.2292 2.99217   1
   1  11   8 17.8451 3.49085   1
   1 -11  -8 27.2764 3.61805   7
  -1  11  -8 14.6099 3.44656   6
   1 -11  -8 18.2713 3.63103   7
  -2 -11  -8 23.8591 3.98788   1
   2  11  -8 24.9715 4.33969   6
  -2  11   8 16.7178 3.56633   1
   2 -11   8 18.3090 3.91830   7
  -2  11   8 23.9323 4.54964   6
   2  11  -8 14.3245 3.14687   7
   2  11   8 20.5567 3.75690   7
   2 -11  -8 20.8322 3.76283   7
  -2  11  -8 20.1384 3.16008   1
  -2  11  -8 21.2625 4.07389   6
  -2 -11   8 24.7294 4.30288   1
   2 -11  -8 21.0641 3.87843   7
  -3  11   8 21.8055 3.20765   1
  -3 -11  -8 24.0867 3.62906   1
   3 -11   8 17.2103 3.61180   7
  -3  11   8 18.2596 4.02173   6
   3  11  -8 13.4539 3.44057   6
   3  11  -8 14.6449 3.02296   7
   3 -11   8 14.9549 5.03711   3
  -3  11  -8 13.3636 3.36696   6
  -3  11  -8 18.2967 2.89949   1
  -3 -11   8 18.4942 3.62586   1
   3  11   8 17.7882 3.52056   7
   3 -11  -8 21.0854 3.27836   7
   3 -11  -8 21.4622 3.25244   7
  -4  11   8 -0.2984 2.74233   6
   4 -11   8 0.28464 2.62437   7
  -4  11   8 2.83421 2.56128   1
  -4 -11  -8 -1.8072 2.26322   1
   4  11  -8 3.72372 2.19599   7
   4 -11   8 4.09823 3.87006   3
  -4  11  -8 3.35657 2.36366   1
   4 -11  -8 3.54323 2.46470   7
   4  11   8 3.86352 2.45066   7
  -4  11  -8 5.72488 2.78729   6
  -4 -11   8 -1.0824 2.54972   1
   5 -11   8 11.2182 3.23855   7
  -5 -11  -8 13.9057 3.15085   1
  -5  11   8 5.52065 2.53996   1
   5  11  -8 9.95972 2.65946   7
   5 -11   8 15.3542 3.19549   5
  -5  11  -8 12.4817 2.82296   1
  -5 -11   8 9.37884 3.17859   1
   5  11   8 9.48085 2.80707   7
  -5  11  -8 11.9615 3.93588   6
   5 -11  -8 15.7607 3.30821   7
   5 -11  -8 5.09370 4.87152   4
   6 -11   8 15.0097 3.40849   7
   6  11  -8 16.1186 3.19270   7
   6 -11   8 11.0694 3.30561   5
  -6 -11  -8 13.8267 3.40152   1
  -6  11   8 17.7224 3.38457   1
   6 -11  -8 -1.1369 4.38647   4
  -6 -11   8 13.2624 3.58607   1
   6  11   8 15.0326 3.38493   7
   6 -11  -8 10.1887 3.03866   7
  -6  11  -8 15.5957 3.21731   1
  -7 -11  -8 16.4725 3.36950   1
  -7  11   8 12.7596 2.84708   1
   7 -11   8 8.19099 3.26025   5
  -7  11  -8 10.4861 2.73226   1
  -7 -11   8 12.6499 3.28323   1
  -8 -11  -8 1.65914 2.42772   1
   8 -11   8 3.26976 3.03747   5
  -8  11   8 4.00265 2.35044   1
  -8 -11   8 6.26600 2.73309   1
  -8  11  -8 -0.0167 1.90069   1
   9 -11   8 6.26239 3.53581   5
   0 -12  -8 175.605 8.27949   7
   0  12  -8 173.775 8.02369   1
   0  12   8 183.367 8.76062   6
   0  12   8 172.786 8.35767   1
   0 -12   8 174.309 8.49508   1
   0 -12  -8 181.142 8.29665   1
   0  12  -8 159.380 7.83688   7
   0  12  -8 175.247 8.74593   6
   0 -12  -8 173.929 8.23839   7
   0 -12   8 190.588 8.67436   7
   1  12  -8 7.40322 2.82376   6
  -1 -12  -8 13.9896 3.34252   1
   1  12  -8 9.77484 2.74846   7
  -1  12   8 9.90582 3.16306   1
  -1  12   8 8.53698 3.18954   6
   1 -12   8 5.70451 3.15312   7
  -1 -12   8 11.1492 3.39359   1
  -1  12  -8 7.57346 2.69768   1
   1 -12  -8 9.18712 2.96885   7
  -1  12  -8 4.21710 2.74354   6
   1  12   8 12.6263 3.23206   7
   1 -12  -8 11.2009 3.06822   7
   2  12  -8 12.5959 3.45780   6
  -2 -12  -8 11.5415 3.37364   1
   2 -12   8 16.5372 3.80128   7
  -2  12   8 9.18389 3.41830   6
   2  12  -8 12.8751 3.01766   7
  -2  12   8 13.2164 3.37017   1
   2 -12  -8 15.5204 3.62641   7
   2  12   8 16.0549 3.36613   7
  -2 -12   8 17.0231 3.92143   1
  -2  12  -8 20.5787 4.09272   6
  -2  12  -8 18.8350 3.52900   1
   3  12  -8 7.25587 3.07167   6
   3 -12   8 10.7491 3.30059   7
  -3  12   8 16.0458 3.84618   6
  -3  12   8 15.1762 3.40536   1
   3 -12   8 13.7328 4.65430   3
  -3 -12  -8 14.8256 3.36347   1
   3  12  -8 16.9320 3.26077   7
  -3 -12   8 13.2186 3.49940   1
  -3  12  -8 12.3619 3.94028   6
  -3  12  -8 11.8529 2.89714   1
   3  12   8 9.56718 2.93950   7
   3 -12  -8 15.4245 3.25290   7
   4 -12   8 130.840 7.08211   7
   4 -12   8 141.963 9.99843   3
  -4  12   8 131.227 6.80812   1
   4  12  -8 135.330 6.77968   7
  -4 -12  -8 123.441 6.87239   1
  -4  12  -8 132.319 6.70302   1
   4  12   8 133.117 6.93522   7
   4 -12  -8 144.188 7.15717   7
  -4 -12   8 128.180 6.95908   1
   5 -12   8 5.71825 2.98462   7
   5  12  -8 7.16903 2.46534   7
  -5 -12  -8 3.48781 2.75137   1
   5 -12   8 5.45606 4.32779   5
   5 -12   8 8.83004 6.86867   3
  -5  12   8 2.60072 2.24244   1
   5 -12  -8 8.34419 2.93440   7
   5 -12  -8 1.84690 5.63445   4
   5  12   8 1.43920 2.12459   7
  -5 -12   8 11.4130 3.36733   1
  -5  12  -8 9.38092 2.65417   1
  -6  12   8 12.2317 3.08183   1
  -6 -12  -8 11.4761 3.26330   1
   6 -12   8 10.4704 3.30885   5
  -6  12  -8 11.6613 2.88727   1
  -6 -12   8 7.29067 3.21554   1
  -7 -12  -8 15.1100 3.38011   1
  -7  12   8 7.01691 2.68810   1
   7 -12   8 12.3791 3.36475   5
  -7  12  -8 8.80574 2.59819   1
  -7 -12   8 13.1553 3.47270   1
   8 -12   8 67.5134 5.31611   5
   0 -13  -8 6.76941 3.55328   1
   0 -13   8 6.18013 3.37578   1
   0  13   8 8.20521 3.22104   1
   0  13  -8 4.48941 2.63138   1
   0 -13  -8 8.87486 3.24233   7
  -1  13   8 6.33767 2.80348   1
   1  13  -8 8.73451 3.63869   6
   1 -13   8 15.4899 3.84838   7
   1  13  -8 8.85592 2.82662   7
  -1 -13  -8 10.4576 3.25603   1
  -1  13   8 11.5588 3.64205   6
  -1  13  -8 11.5484 2.92540   1
  -1 -13   8 9.64984 3.51499   1
   1  13   8 10.4696 2.99746   7
   1 -13  -8 12.2710 3.34373   7
   2  13  -8 480.165 17.7849   6
   2 -13   8 522.059 17.6104   7
   2  13  -8 493.188 16.9135   7
  -2 -13  -8 565.717 17.4541   1
  -2  13   8 504.395 17.4123   1
  -2  13  -8 457.436 16.5678   1
   2 -13  -8 465.364 16.8094   7
  -2 -13   8 494.956 17.4727   1
   2  13   8 508.215 17.5827   7
  -3  13   8 9.08005 3.09841   1
   3 -13   8 13.8190 4.56391   3
   3  13  -8 12.3146 2.96813   7
   3 -13   8 10.7349 3.40011   7
  -3 -13  -8 10.0897 3.17906   1
  -3  13  -8 8.96524 2.78629   1
   3  13   8 9.37269 3.03575   7
  -3 -13   8 17.2612 3.77034   1
   3 -13  -8 12.0609 3.18488   7
   4 -13   8 3.17651 2.86063   7
   4  13  -8 4.12947 2.55021   7
  -4 -13  -8 5.77484 3.04582   1
   4 -13   8 0.69698 3.48583   3
  -4  13   8 5.04303 2.51979   1
   4  13   8 7.42745 2.91102   7
   4 -13  -8 10.7911 4.57681   4
   4 -13  -8 10.0646 3.19202   7
  -4 -13   8 5.96178 3.12199   1
  -4  13  -8 7.90250 2.76447   1
   5 -13   8 9.79159 5.02936   3
  -5 -13  -8 6.16706 3.06144   1
  -5  13   8 9.35437 2.78988   1
  -5 -13   8 9.38959 3.38156   1
  -5  13  -8 8.63529 2.72185   1
  -6 -13  -8 361.839 13.0222   1
  -6  13   8 334.122 12.5385   1
   6 -13   8 338.413 12.6536   5
  -6  13  -8 326.999 12.5287   1
  -6 -13   8 338.792 12.7772   1
   7 -13   8 16.0036 3.63711   5
   0 -14   8 371.082 16.1078   1
   0  14   8 349.081 13.5065   1
  -1  14   8 4.78692 2.81143   1
  -1 -14  -8 4.26875 3.00681   1
   1 -14   8 3.98575 3.34895   7
   1  14  -8 0.20078 2.16973   7
  -1 -14   8 2.17244 3.47332   1
   1  14   8 8.02734 2.95358   7
  -1  14  -8 6.03249 2.68926   1
   1 -14  -8 5.15026 3.10981   7
   2  14  -8 52.9927 4.40149   7
   2 -14   8 52.8034 5.90125   3
   2 -14   8 57.8312 4.90158   7
  -2  14   8 55.1478 4.80104   1
  -2 -14  -8 52.2089 4.70343   1
   2  14   8 55.3190 4.66552   7
  -2  14  -8 51.8553 4.48733   1
   2 -14  -8 60.5575 5.08289   7
  -2 -14   8 43.0320 4.85635   1
   3  14  -8 2.15712 2.46999   7
  -3  14   8 6.22232 2.84193   1
   3 -14   8 4.57539 3.77351   3
   3 -14   8 0.35095 3.35256   7
  -3 -14  -8 1.36331 2.93521   1
   3  14   8 6.31929 2.85905   7
   3 -14  -8 6.26504 3.68057   7
  -3 -14   8 3.86116 3.24652   1
  -3  14  -8 2.44002 2.34552   1
  -4  14   8 277.225 10.9874   1
  -4 -14  -8 264.306 10.6333   1
   4 -14   8 245.101 13.3992   3
  -4  14  -8 244.786 10.2828   1
  -4 -14   8 269.624 11.0028   1
   5 -14   8 3.21025 4.31711   3
  -5 -14  -8 4.59261 2.99099   1
  -5  14   8 5.03960 2.75567   1
  -5 -14   8 5.00186 3.27572   1
  -5  14  -8 1.67340 2.39631   1
   7 -14   8 -2.3311 4.28327   5
  -1  15   8 4.02376 2.83777   1
  -1 -15  -8 -0.6003 2.93396   1
   1  15  -8 1.01390 2.32737   7
   1 -15   8 4.20007 3.48411   7
   1 -15  -8 2.36246 3.46963   7
  -1 -15   8 5.38085 3.43048   1
  -1  15  -8 1.95183 2.49830   1
   2 -15   8 156.372 9.51428   3
  -2 -15  -8 166.586 8.06808   1
  -2  15   8 164.012 8.14795   1
  -2  15  -8 144.969 7.56206   1
  -2 -15   8 164.216 8.26980   1
  -3 -15  -8 1.74178 2.94591   1
   3 -15   8 1.79844 3.37109   3
  -3  15   8 -0.8691 2.20813   1
  -3 -15   8 3.86639 3.45270   1
  -3  15  -8 1.21705 2.26110   1
   4 -15   8 119.950 8.71931   3
  -4 -15  -8 138.026 7.16281   1
  -4  15   8 117.850 7.29541   1
  -4  15  -8 106.397 6.43822   1
  -4 -15   8 117.733 7.16665   1
   5 -15   8 2.40269 4.06458   3
  -1  16   8 0.00186 2.68881   1
  -1  16  -8 1.05623 2.44670   1
  -1 -16   8 -3.2561 3.07873   1
  -2  16   8 64.8814 5.75950   1
   2 -16   8 71.6980 6.67383   3
  -2 -16  -8 68.3575 5.35025   1
  -2  16  -8 59.4592 5.01060   1
  -2 -16   8 60.4634 5.57794   1
   3 -16   8 -2.0731 3.18929   3
   4 -16   8 30.1348 6.34405   3
   0   0  -9 -0.3865 1.64190   1
   0   0   9 -1.4033 1.81887   7
   0   0   9 -0.3504 1.72754   1
   0   0  -9 3.08310 1.85719   7
   0   0  -9 -1.8762 1.70857   6
   1   0  -9 22.8106 3.25804   6
  -1   0  -9 22.5883 3.00505   7
   1   0   9 22.2731 3.31416   7
   1   0  -9 23.6750 2.97286   7
   1   0   9 24.6745 3.34509   1
  -1   0  -9 17.7636 2.85514   6
   1   0  -9 25.6366 3.07831   1
  -1   0   9 19.3174 3.06802   1
  -1   0   9 21.7071 3.25910   7
  -1   0  -9 20.1261 2.90241   1
   2   0  -9 -0.9421 1.50585   1
  -2   0  -9 3.77431 1.93335   7
  -2   0  -9 0.37004 1.69755   1
  -2   0   9 0.44074 1.81219   1
  -2   0  -9 -1.5938 1.55935   6
   2   0   9 0.22104 1.84589   1
   2   0  -9 2.80930 2.34673   6
   2   0   9 0.65339 2.07379   7
   2   0  -9 -0.0613 1.75092   7
   3   0   9 14.4021 3.12943   7
   3   0  -9 24.9807 3.19417   7
  -3   0   9 25.2498 3.27193   1
  -3   0  -9 19.9706 3.06701   1
  -3   0  -9 21.1115 2.81316   6
  -4   0  -9 -1.4267 1.65163   6
   4   0  -9 1.22228 1.81436   7
  -4   0  -9 1.79059 1.86843   1
  -4   0   9 1.33332 1.99527   1
   4   0   9 1.96768 2.15434   7
   5   0   9 20.6874 3.11578   7
   5   0  -9 15.7052 2.97412   2
  -5   0   9 21.6686 3.09489   1
  -5   0  -9 15.4723 2.99193   1
   5   0  -9 16.1930 3.07295   7
  -6   0  -9 7.32649 2.41008   1
   6   0  -9 3.51550 2.20897   2
   6   0  -9 1.18418 1.79922   7
   6   0   9 4.29544 2.31469   7
  -6   0   9 -0.2011 1.91512   1
  -7   0   9 7.66004 2.57431   1
   7   0  -9 11.7562 2.54900   7
   7   0  -9 11.6746 3.06299   2
   7   0   9 11.6275 3.25083   2
  -7   0  -9 17.8163 2.84413   1
   7   0   9 14.9459 3.00271   7
   8   0   9 -1.4029 1.70701   7
   8   0   9 0.56856 2.48460   2
  -8   0   9 2.01376 2.04694   1
  -8   0  -9 0.87585 1.89302   1
   8   0  -9 -0.1885 1.93777   2
   8   0  -9 -1.3416 1.59287   7
   9   0   9 9.28656 3.15171   2
  -9   0  -9 8.64375 2.53909   1
   9   0  -9 9.78926 2.90246   2
  10   0   9 -1.4025 2.19512   2
  10   0  -9 -0.7719 2.15814   2
   0  -1  -9 1018.16 29.5109   1
   0  -1  -9 1018.41 30.2643   6
   0   1  -9 1024.84 30.3710   6
   0   1   9 980.484 29.8601   1
   0   1  -9 973.683 29.4861   7
   0  -1   9 1015.48 30.0135   7
   0  -1   9 1037.18 29.9928   1
   0   1  -9 995.546 29.4982   1
   0  -1  -9 958.070 29.4771   7
   0   1   9 1008.38 30.0608   7
   1  -1   9 15.1732 3.25572   7
   1   1  -9 11.1278 2.90949   1
  -1  -1  -9 18.5956 2.90473   6
  -1  -1  -9 15.0333 2.84254   1
   1   1  -9 11.1589 2.71694   7
   1  -1   9 10.2558 2.88081   1
  -1   1   9 11.7084 2.76649   1
  -1  -1  -9 16.9930 2.71488   7
   1   1  -9 20.6582 3.10771   6
  -1   1   9 18.3705 2.99076   7
   1  -1  -9 16.3905 2.62484   1
  -1   1  -9 15.5092 3.13112   6
  -1   1  -9 8.38904 2.62596   1
  -1  -1   9 13.3599 3.16339   7
   1   1   9 12.1579 3.06452   7
   1  -1  -9 13.3469 2.76869   7
  -1   1  -9 11.9891 2.83175   7
  -1  -1   9 15.2847 3.02961   1
   1   1   9 16.6276 3.10263   1
  -2  -1  -9 743.786 23.0881   6
   2   1  -9 717.007 23.6802   6
   2   1  -9 744.419 22.6746   1
   2  -1   9 740.409 23.3459   7
  -2  -1  -9 762.187 22.9121   7
  -2  -1  -9 723.447 22.7014   1
   2  -1   9 758.601 23.3193   1
   2   1  -9 736.184 22.7357   7
  -2   1   9 800.162 23.3710   1
   2   1   9 758.499 23.4225   7
   2  -1  -9 776.643 22.9346   7
  -2   1  -9 758.052 22.8663   7
   2  -1  -9 734.718 22.6500   1
   2   1   9 778.210 23.3498   1
  -2  -1   9 733.226 23.1543   1
  -2   1  -9 747.398 23.1975   6
  -2   1  -9 733.279 22.7662   1
  -3   1   9 10.7524 2.70908   1
   3  -1   9 15.0321 3.21075   7
  -3  -1  -9 19.4117 2.79242   1
   3   1  -9 18.3365 3.15450   6
  -3  -1  -9 16.3223 2.67846   6
   3   1  -9 12.9996 2.80887   7
   3   1   9 16.0215 3.19093   7
  -3  -1   9 13.6870 3.06404   1
  -3   1  -9 16.2484 3.13204   1
  -3   1  -9 17.1457 2.67174   6
   3  -1  -9 20.2393 2.94503   7
   4   1  -9 761.380 23.4017   7
   4  -1   9 763.046 23.9486   7
  -4  -1  -9 782.514 23.5302   1
  -4   1   9 794.792 23.7784   1
   4   1   9 793.354 24.1110   7
  -4   1  -9 806.003 23.7137   1
  -4  -1   9 796.161 23.8454   1
  -4   1  -9 763.920 23.6622   6
   4  -1  -9 758.586 23.4462   7
  -5   1   9 12.3610 2.80794   1
  -5  -1  -9 13.8954 2.65248   1
   5  -1   9 8.11167 2.77580   7
   5   1  -9 10.3327 3.25335   2
   5   1  -9 6.96263 2.49638   7
  -5   1  -9 8.48669 2.48385   1
  -5  -1   9 10.9438 2.82290   1
   5   1   9 13.1707 2.98928   7
   5  -1  -9 8.49612 2.50246   7
   5  -1  -9 6.80827 2.68248   2
  -6   1   9 437.447 14.5640   1
   6  -1   9 450.403 14.7602   7
   6   1  -9 440.672 14.2385   7
   6   1  -9 433.935 15.3203   2
  -6  -1  -9 437.715 14.4045   1
  -6   1  -9 427.234 14.4045   1
   6  -1  -9 426.578 14.1822   7
  -6  -1   9 453.426 14.6501   1
   6  -1  -9 430.858 15.2759   2
   6   1   9 429.772 14.6784   7
   7   1  -9 7.25534 2.74827   2
   7  -1   9 10.3150 3.42606   2
  -7   1   9 11.9646 2.74952   1
   7   1  -9 10.1395 2.49447   7
  -7  -1  -9 19.3651 2.84329   1
   7  -1   9 13.5362 2.98294   7
  -7  -1   9 9.27372 2.71019   1
  -7   1  -9 10.9274 2.67611   1
   7  -1  -9 12.1411 2.46003   7
   7   1   9 10.0634 2.61225   7
   7   1   9 9.14147 3.89765   2
   7  -1  -9 8.97310 2.87520   2
   8   1  -9 367.637 11.9593   7
   8  -1   9 362.348 12.3420   7
   8  -1   9 357.898 13.5020   2
   8   1  -9 365.282 13.2977   2
  -8   1   9 368.365 12.3662   1
  -8  -1  -9 365.517 12.5635   1
   8   1   9 343.464 13.4358   2
   8  -1  -9 362.895 13.3221   2
   8  -1  -9 360.316 11.8447   7
  -8  -1   9 368.427 12.2829   1
   8   1   9 365.480 12.2100   7
  -8   1  -9 366.897 12.4960   1
   9   1  -9 3.50140 2.44520   2
   9  -1   9 3.37679 2.69555   2
  -9  -1  -9 3.33200 2.26453   1
  -9   1  -9 6.99316 2.50485   1
   9   1   9 4.06429 2.71611   2
   9  -1  -9 5.83802 2.60842   2
  10   1  -9 190.393 8.36026   2
  10  -1   9 178.100 8.39909   2
  10   1   9 177.133 8.33760   2
  10  -1  -9 182.759 8.23114   2
   0   2   9 15.9754 3.08795   7
   0   2  -9 10.2499 2.48768   1
   0   2   9 16.1481 3.08707   1
   0   2  -9 11.4808 2.92841   6
   0  -2  -9 10.4284 2.54285   1
   0   2  -9 9.53825 2.52977   7
   0  -2   9 14.8995 3.07731   7
   0  -2  -9 11.4369 2.61883   7
   0  -2   9 14.3860 2.82404   1
  -1  -2  -9 5.91767 2.18030   1
   1  -2   9 12.6451 3.11089   7
  -1  -2  -9 9.11292 2.41805   7
   1   2  -9 9.07166 2.50431   7
   1   2  -9 5.76436 2.16718   1
   1  -2   9 8.69113 2.59414   1
  -1   2   9 7.54914 2.60494   7
   1   2  -9 9.32399 2.70467   6
  -1   2   9 10.8374 2.58174   1
   1   2   9 12.2939 2.97225   7
  -1   2  -9 11.0169 2.66855   6
  -1   2  -9 6.87259 2.25701   1
  -1   2  -9 8.54307 2.51206   7
   1  -2  -9 7.81015 2.31970   1
   1  -2  -9 8.36789 2.45282   7
  -1  -2   9 3.65445 2.56948   7
  -1  -2   9 9.65073 2.74068   1
   1   2   9 7.04886 2.35659   1
   2   2  -9 62.1372 4.03832   1
  -2  -2  -9 50.0912 4.02099   7
   2   2  -9 55.0197 3.94611   7
  -2  -2  -9 62.5688 4.07432   1
   2  -2   9 62.2530 4.27785   1
   2  -2   9 56.8732 4.30388   7
  -2   2   9 55.5462 4.03656   1
   2   2  -9 49.3382 4.30797   6
   2   2   9 58.8520 4.31186   7
  -2   2  -9 57.8941 4.24760   6
   2  -2  -9 68.3936 4.30478   7
   2   2   9 61.8469 4.19488   1
  -2   2  -9 52.4060 3.94797   7
   2  -2  -9 64.4806 4.20099   1
  -2   2  -9 54.4027 3.98025   1
  -2  -2   9 60.1778 4.20254   1
   3   2  -9 9.30606 2.95140   6
   3   2  -9 8.80138 2.31659   7
   3  -2   9 11.3553 2.88032   7
  -3   2   9 6.17048 2.37397   1
  -3  -2  -9 9.31527 2.42849   1
  -3   2  -9 10.0030 2.56101   6
   3   2   9 6.89834 2.57553   7
  -3   2  -9 8.29304 2.41147   1
   3  -2  -9 12.0020 2.70023   7
  -3  -2   9 10.5178 2.76680   1
   4   2  -9 9.49435 2.48917   7
  -4   2   9 11.6376 2.77842   1
   4   2  -9 19.6881 3.77831   6
  -4  -2  -9 14.4999 2.76436   1
   4  -2   9 8.39096 2.51248   7
  -4  -2   9 8.85218 2.69561   1
   4  -2  -9 8.67013 2.52296   7
   4   2   9 16.0164 3.02267   7
  -4   2  -9 15.8120 2.92860   1
  -4   2  -9 12.6630 2.79852   6
  -5   2   9 3.53146 2.14716   1
   5   2  -9 9.10367 2.41355   7
   5  -2   9 11.1204 2.92262   7
  -5  -2  -9 10.3341 2.55476   1
   5  -2  -9 3.30651 2.07931   7
  -5   2  -9 4.59180 2.21122   1
   5   2   9 5.25048 2.42339   7
  -5  -2   9 3.45626 2.33737   1
   6   2  -9 48.1441 4.06881   2
   6   2  -9 45.3577 3.53023   7
  -6   2   9 41.0381 3.44231   1
  -6  -2  -9 41.4550 3.63272   1
   6  -2   9 40.4863 3.72392   7
   6  -2  -9 41.1757 4.00254   2
   6  -2  -9 38.9010 3.34063   7
  -6   2  -9 45.0349 3.59584   1
   6   2   9 47.3380 3.72103   7
  -6  -2   9 42.9575 3.63333   1
   7  -2   9 6.88843 2.52535   7
   7   2  -9 9.93662 2.38883   7
  -7   2   9 9.03881 3.24348   6
   7   2  -9 9.27891 2.79818   2
  -7  -2  -9 6.24847 2.47991   1
  -7   2   9 5.17789 2.25288   1
  -7   2  -9 5.57996 2.29627   1
   7   2   9 6.02701 2.40700   7
  -7  -2   9 11.3920 2.70889   1
   7  -2  -9 9.14912 2.19432   7
   7  -2  -9 6.33039 2.59259   2
   8   2  -9 11.2796 2.97309   2
   8  -2   9 9.22260 3.13591   2
   8   2  -9 11.1195 2.42200   7
   8  -2   9 6.78625 2.46390   7
  -8   2   9 10.4716 2.61646   1
  -8  -2  -9 8.55240 2.45356   1
  -8   2  -9 11.7228 2.61920   1
   8   2   9 15.1140 3.71008   2
   8   2   9 12.4018 2.72297   7
   8  -2  -9 8.73348 2.95789   2
  -8  -2   9 14.3452 2.85088   1
   8  -2  -9 8.84614 2.27686   7
   9   2  -9 4.23308 2.30645   2
  -9  -2  -9 4.64181 2.14010   1
   9  -2   9 3.58791 2.66869   2
  -9   2  -9 -0.7498 1.92222   1
   9   2   9 0.91048 2.45661   2
   9  -2  -9 1.24028 2.25259   2
  10  -2   9 25.5129 3.69920   2
  10   2  -9 28.0114 3.35302   2
  10  -2  -9 26.4566 3.61351   2
  10   2   9 30.5305 3.79882   2
   0  -3  -9 103.209 5.58298   1
   0  -3   9 105.111 5.84083   7
   0   3  -9 103.207 6.00250   6
   0  -3  -9 102.405 5.59723   7
   0   3   9 100.208 5.60596   1
   0   3  -9 102.499 5.43846   1
   0  -3   9 100.868 5.62819   1
   0   3  -9 99.7485 5.43811   7
   0   3   9 109.568 5.89268   7
   1  -3   9 2.13512 2.19981   1
   1   3  -9 2.88091 1.84202   7
  -1   3   9 1.87647 1.95236   1
   1   3  -9 2.06057 1.90018   1
   1  -3   9 5.05624 2.58731   7
  -1  -3  -9 1.51109 1.88396   7
  -1   3   9 4.11851 2.32208   7
   1   3  -9 2.93658 2.16995   6
  -1  -3  -9 0.87411 1.91293   1
  -1   3  -9 3.09231 1.94916   7
  -1   3  -9 0.95853 1.75103   1
   1   3   9 0.65992 2.23900   7
   1  -3  -9 4.13851 2.17291   7
  -1  -3   9 2.82081 2.16029   1
   1   3   9 1.69512 2.10368   1
  -1   3  -9 3.10060 2.16609   6
  -1  -3   9 3.49984 2.45561   7
   1  -3  -9 0.38622 1.82481   1
   2  -3   9 167.359 7.52471   7
  -2   3   9 157.004 7.23402   1
   2   3  -9 154.399 7.88502   6
  -2  -3  -9 172.572 7.44788   1
   2  -3   9 170.894 7.38981   1
   2   3  -9 169.275 7.36612   7
  -2  -3  -9 184.756 7.65081   7
   2   3  -9 168.254 7.41326   1
  -2  -3   9 148.918 7.15052   1
   2   3   9 171.794 7.72612   7
  -2   3  -9 178.225 7.52874   7
   2  -3  -9 168.269 7.47527   7
   2   3   9 181.469 7.53282   1
  -2   3  -9 163.882 7.23168   1
  -2   3  -9 157.887 7.62111   6
  -3   3   9 -0.3575 1.94595   1
  -3  -3  -9 3.21754 2.10648   1
   3  -3   9 3.92725 2.42438   7
   3   3  -9 3.54530 2.34937   6
   3   3  -9 2.40985 1.94579   7
  -3  -3   9 3.51646 2.35537   1
  -3   3  -9 2.55819 1.93618   6
   3  -3  -9 2.17020 2.06903   7
  -3   3  -9 3.64641 1.95380   1
   3   3   9 1.16705 2.13019   7
  -4  -3  -9 86.3881 4.92134   1
   4  -3   9 85.0060 5.14595   7
   4   3  -9 81.9179 4.81140   7
   4   3  -9 80.4829 5.56061   6
  -4   3   9 80.9321 4.84118   1
   4   3   9 89.8802 5.10742   7
   4  -3  -9 80.4634 4.80998   7
  -4   3  -9 82.7050 4.84678   1
  -4   3  -9 83.4795 5.04860   6
  -4  -3   9 88.4232 5.02483   1
   5   3  -9 1.25691 1.81437   7
   5  -3   9 0.08853 2.15225   7
  -5  -3  -9 2.70868 2.20300   1
  -5   3   9 0.11087 1.97514   1
   5   3   9 -2.5452 1.87568   7
  -5   3  -9 2.76901 1.98747   1
   5  -3  -9 -0.0185 1.77636   7
  -5  -3   9 -1.3925 1.97638   1
  -6   3   9 91.2764 5.02796   1
  -6   3   9 92.1282 6.16268   6
  -6  -3  -9 93.6804 5.21697   1
   6  -3   9 82.2512 5.03315   7
   6   3  -9 94.0352 4.93695   7
   6  -3  -9 83.9686 4.73467   7
   6  -3  -9 93.0058 6.12827   2
  -6   3  -9 86.0606 4.97533   1
   6   3   9 84.1415 4.95419   7
  -6  -3   9 84.0053 4.98050   1
  -7   3   9 0.32989 1.88443   1
   7  -3   9 3.76970 2.38699   7
  -7   3   9 7.69022 3.32181   6
  -7  -3  -9 2.98563 2.12279   1
   7   3  -9 4.18254 2.02761   7
   7   3  -9 4.02850 2.34577   2
  -7   3  -9 2.85195 1.97069   1
   7  -3  -9 2.28851 1.87795   7
   7  -3  -9 0.70399 2.12246   2
  -7  -3   9 2.17653 2.03469   1
   7   3   9 4.46988 2.19873   7
   8  -3   9 46.7721 3.78775   7
   8   3  -9 53.2411 4.24160   2
  -8  -3  -9 46.6396 3.60897   1
   8   3  -9 51.1350 3.41984   7
  -8   3   9 49.6637 3.67481   1
  -8   3   9 50.0795 5.02813   6
  -8  -3   9 55.7552 3.87103   1
   8   3   9 54.2674 3.88948   7
   8  -3  -9 43.9225 4.19950   2
   8  -3  -9 44.9137 3.32607   7
  -8   3  -9 53.0027 3.82350   1
  -9  -3  -9 3.87639 2.16326   1
   9   3  -9 0.46506 1.89896   2
   9  -3   9 1.56660 2.73792   2
   9  -3  -9 -2.0548 2.06414   2
  -9   3  -9 -0.7634 1.83929   1
  10  -3   9 40.5044 4.30246   2
  10   3  -9 42.9404 3.91994   2
  10   3   9 40.3955 4.60028   2
  10  -3  -9 42.7835 4.24374   2
   0  -4   9 80.0169 5.06366   7
   0   4   9 83.2162 5.08179   7
   0   4  -9 83.5519 4.89359   7
   0   4  -9 83.4939 5.29142   6
   0   4  -9 75.0735 4.66609   1
   0  -4   9 78.2177 4.85131   1
   0   4   9 72.0438 4.70281   1
   0  -4  -9 86.0760 4.90377   1
   0  -4  -9 78.1044 4.86273   7
  -1   4   9 3.09665 2.20134   1
   1  -4   9 -1.9964 1.83497   1
   1   4  -9 -0.8784 1.55108   1
  -1  -4  -9 -1.0742 1.74712   7
   1   4  -9 0.36917 1.75176   7
  -1  -4  -9 0.63849 1.86160   1
   1   4  -9 0.51711 2.17608   6
  -1   4   9 2.66509 2.20493   7
   1  -4   9 1.45047 2.36082   7
  -1   4  -9 1.95603 1.80861   7
   1  -4  -9 -3.2440 1.59282   7
  -1  -4   9 -0.0404 2.01348   1
   1   4   9 -0.5398 2.07999   7
  -1   4  -9 -0.2021 1.83703   6
   1  -4  -9 0.24327 1.74359   1
  -1  -4   9 0.61214 2.26017   7
  -1   4  -9 1.06238 1.72112   1
   1   4   9 0.01488 2.06074   1
   2   4  -9 900.254 27.0236   7
  -2  -4  -9 906.287 27.4060   7
  -2   4   9 902.120 27.2278   1
   2   4  -9 891.398 28.0591   6
   2  -4   9 899.113 27.1942   1
  -2  -4  -9 894.340 27.0893   1
   2  -4   9 902.276 27.2748   7
   2  -4  -9 902.699 27.0752   7
  -2   4  -9 889.833 27.6453   6
  -2   4  -9 907.876 26.9287   1
   2   4   9 923.186 27.2078   1
   2   4   9 894.180 27.3001   7
  -2  -4   9 887.071 26.9845   1
   3   4  -9 -1.8729 1.78656   6
  -3   4   9 1.67027 2.16588   1
  -3  -4  -9 0.82148 2.00095   1
   3   4  -9 -0.3620 1.67685   7
   3  -4   9 1.82661 2.24131   7
  -3   4  -9 0.93280 1.71186   1
   3  -4  -9 0.17407 1.86719   7
   3  -4  -9 1.45821 1.98213   4
  -3   4  -9 0.12798 1.81663   6
   3   4   9 1.86730 2.22224   7
  -3  -4   9 -0.4900 2.04718   1
  -4   4   9 73.3458 4.52171   1
   4  -4   9 67.4107 4.30672   5
  -4  -4  -9 65.5034 4.41191   1
   4  -4   9 71.3901 4.59366   7
   4   4  -9 73.9804 4.48747   7
   4   4  -9 68.4071 5.19566   6
  -4   4  -9 74.1322 4.78686   6
  -4   4  -9 71.2317 4.44694   1
   4  -4  -9 77.6154 4.60287   7
  -4  -4   9 71.9588 4.64245   1
   4   4   9 68.9383 4.59469   7
   5   4  -9 0.90789 1.73631   7
   5  -4   9 -0.8526 2.02212   7
  -5   4   9 5.46430 2.82056   6
  -5   4   9 0.88951 1.91321   1
   5  -4   9 0.16865 2.14169   5
  -5  -4  -9 0.21152 1.84328   1
   5   4  -9 -0.1347 2.32382   6
  -5   4  -9 0.00112 1.86448   6
   5  -4  -9 2.21891 2.05032   7
  -5  -4   9 0.62740 2.13824   1
  -5   4  -9 1.00124 1.90695   1
   5   4   9 0.69228 2.09379   7
   6  -4   9 539.049 17.4395   7
   6  -4   9 537.684 17.5776   5
   6   4  -9 537.954 16.8864   7
  -6   4   9 530.303 18.8436   6
  -6  -4  -9 520.453 16.9410   1
  -6   4   9 547.553 17.2641   1
  -6   4  -9 523.699 16.9804   1
   6   4   9 535.928 17.3731   7
  -6  -4   9 530.944 17.1892   1
   6  -4  -9 523.346 16.7594   7
   7  -4   9 -2.0261 1.92915   7
   7   4  -9 1.02300 1.76717   7
  -7   4   9 -2.1989 1.77611   1
  -7   4   9 -3.3687 2.37576   6
   7  -4   9 5.62364 2.89756   5
  -7  -4  -9 -1.6222 1.87384   1
   7  -4  -9 0.48255 1.77129   7
   7   4   9 -0.0237 2.03056   7
   7  -4  -9 3.57880 3.35258   2
  -7  -4   9 3.07921 2.28860   1
  -7   4  -9 -1.8309 1.56590   1
   8  -4   9 47.7321 3.82720   7
   8   4  -9 42.9304 3.32361   7
  -8   4   9 56.8875 5.26717   6
  -8   4   9 44.5443 3.55326   1
   8   4  -9 47.2205 4.09249   2
  -8  -4  -9 41.9411 3.64123   1
   8   4   9 45.8887 3.70936   7
   8  -4  -9 52.9411 4.56449   2
   8  -4  -9 47.2309 3.37155   7
  -8   4  -9 46.7158 3.71398   1
  -8  -4   9 51.4086 3.93270   1
   9   4  -9 -1.0399 1.92419   2
  -9  -4  -9 1.76782 2.03919   1
  -9   4  -9 -0.6456 1.85447   1
   9  -4  -9 0.95988 2.45687   2
  10   4  -9 236.322 9.98014   2
  10  -4  -9 252.562 10.2217   2
   0   5  -9 473.902 16.8119   6
   0  -5   9 478.695 16.0329   7
   0  -5   9 455.243 15.8983   1
   0   5   9 499.244 16.3455   7
   0  -5  -9 491.207 16.2228   7
   0   5  -9 505.735 16.2690   7
   0   5   9 490.663 16.1124   1
   0   5  -9 487.219 16.0456   1
   0  -5  -9 480.405 16.0858   1
  -1  -5  -9 -0.7640 1.86317   1
  -1  -5  -9 -0.2738 1.90274   7
   1   5  -9 4.46865 1.96885   7
   1  -5   9 0.60296 2.07812   1
   1   5  -9 0.81357 1.74372   1
  -1   5   9 3.46291 2.45161   7
   1  -5   9 0.54368 2.23095   7
  -1   5   9 3.61606 2.32237   1
   1   5  -9 1.20370 2.21784   6
  -1   5  -9 2.90715 2.16867   6
  -1   5  -9 3.64390 2.05062   7
   1   5   9 4.27473 2.33698   7
   1  -5  -9 2.49037 1.96956   7
   1  -5  -9 2.15321 1.98096   1
  -1  -5   9 5.64774 2.59350   7
  -1  -5   9 2.85587 2.34378   1
  -1   5  -9 0.38817 1.75745   1
   1   5   9 4.85207 2.43299   1
  -2   5   9 1390.38 39.4501   1
   2   5  -9 1301.15 38.0185   7
   2  -5   9 1339.00 39.5207   7
  -2  -5  -9 1342.13 38.1074   1
   2  -5   9 1385.11 39.4915   1
   2   5  -9 1286.16 39.0864   6
  -2   5  -9 1339.18 38.0947   1
   2  -5  -9 1305.08 38.0500   7
   2   5   9 1310.27 39.5200   7
   2   5   9 1377.89 39.4608   1
  -2   5  -9 1310.57 38.7846   6
  -2  -5   9 1375.58 39.3649   1
  -3   5   9 4.25033 2.51292   6
   3   5  -9 4.95302 2.16709   7
   3   5  -9 4.07602 2.45840   6
   3  -5   9 9.45996 2.80696   7
  -3   5   9 9.85526 2.62499   1
  -3  -5  -9 6.06927 2.22379   1
  -3   5  -9 6.28048 2.24076   1
  -3   5  -9 6.29840 2.30056   6
  -3  -5   9 6.49746 2.45243   1
   3   5   9 4.14248 2.33663   7
   3  -5  -9 6.61855 2.31974   7
  -4   5   9 391.294 13.4924   1
  -4  -5  -9 379.000 13.2531   1
  -4   5   9 387.041 14.6593   6
   4  -5   9 399.420 13.7727   7
   4   5  -9 384.966 13.2404   7
   4  -5   9 398.483 13.1149   5
   4   5  -9 377.531 14.3814   6
  -4   5  -9 384.644 13.2581   1
   4   5   9 392.565 13.7335   7
  -4  -5   9 375.282 13.3739   1
   4  -5  -9 380.734 13.2356   7
   4  -5  -9 376.020 14.7494   4
  -4   5  -9 394.752 13.8835   6
   5  -5   9 -0.8144 2.10544   5
  -5   5   9 0.99604 2.69346   6
  -5  -5  -9 1.06895 1.99814   1
   5   5  -9 0.50933 2.35530   6
  -5   5   9 -0.1725 1.90994   1
   5  -5   9 5.54130 2.70373   7
   5   5  -9 0.85707 1.84439   7
  -5   5  -9 0.20505 1.68104   1
   5   5   9 0.36911 2.03606   7
   5  -5  -9 3.18882 2.37836   4
   5  -5  -9 3.89029 2.15538   7
  -5  -5   9 1.06565 2.25754   1
  -5   5  -9 0.81721 1.86924   6
   6  -5   9 834.066 25.0803   5
  -6   5   9 824.793 26.5914   6
  -6   5   9 799.763 24.6550   1
   6  -5   9 835.432 25.1014   7
   6   5  -9 780.872 23.8947   7
  -6  -5  -9 776.648 23.9911   1
   6  -5  -9 796.265 26.0773   4
  -6   5  -9 800.428 24.0295   1
  -6  -5   9 795.852 24.6525   1
   6   5   9 824.642 24.9647   7
   6  -5  -9 790.250 23.7769   7
  -7   5   9 6.34351 2.33375   1
   7   5  -9 6.43786 2.14163   7
  -7   5   9 5.50807 3.06185   6
  -7  -5  -9 4.98480 2.21499   1
   7  -5   9 6.30158 2.50648   7
   7  -5   9 8.22943 3.03935   5
  -7  -5   9 6.66579 2.53324   1
  -7   5  -9 6.20061 2.31221   1
   7  -5  -9 6.19018 2.28568   7
   7   5   9 7.62827 2.52767   7
   8   5  -9 224.192 8.42337   7
   8  -5   9 228.684 8.99838   7
  -8  -5  -9 216.464 8.73767   1
  -8   5   9 222.124 8.77051   1
  -8   5   9 231.801 10.6586   6
   8  -5   9 223.333 9.71942   5
   8  -5  -9 220.771 8.28911   7
   8   5   9 227.288 8.79380   7
   8  -5  -9 221.850 8.27784   7
  -8  -5   9 229.065 8.94329   1
  -8   5  -9 223.509 8.76508   1
  -9  -5  -9 1.23297 2.02047   1
   9   5   9 1.78412 3.08338   7
   9  -5  -9 -0.3261 2.43511   2
  -9   5  -9 -1.3681 1.85862   1
  10   5  -9 366.782 14.1403   2
  10  -5  -9 378.956 13.9255   2
   0   6  -9 16.6609 2.95698   6
   0   6   9 19.4071 3.30147   1
   0  -6   9 17.3537 3.34413   1
   0  -6  -9 21.3802 3.40424   1
   0  -6  -9 16.6465 3.22513   7
   0   6   9 15.5957 3.33491   7
   0  -6   9 14.1323 3.33309   7
   0   6  -9 20.2401 2.80556   7
   0   6  -9 17.6605 2.68131   1
   0   6   9 15.9963 3.47358   6
  -1   6   9 9.51772 2.84951   7
  -1   6   9 8.40750 2.66350   1
  -1  -6  -9 12.4056 3.00067   7
  -1  -6  -9 8.32210 2.58296   1
   1   6  -9 5.75398 2.15576   7
   1  -6   9 11.0042 3.03980   7
   1  -6   9 13.9635 3.13621   1
   1   6  -9 9.95509 2.43729   1
   1   6  -9 10.8292 2.99569   6
  -1   6   9 9.19847 2.84851   6
  -1   6  -9 16.1655 2.60832   7
   1  -6  -9 14.7906 2.91663   7
   1   6   9 9.45411 2.81124   7
  -1  -6   9 10.9316 3.09858   7
  -1  -6   9 9.42139 2.74473   1
   1  -6  -9 9.56815 2.63986   1
  -1   6  -9 10.4010 2.88392   6
   1   6   9 13.9729 2.95523   1
  -1   6  -9 7.92377 2.44903   1
   1   6   9 9.55192 2.77492   6
  -2   6   9 140.840 6.86718   1
   2  -6   9 157.127 7.24952   7
  -2  -6  -9 141.122 6.72874   1
  -2   6   9 147.692 7.61810   6
   2   6  -9 143.826 7.55923   6
   2   6  -9 133.794 6.67491   7
   2   6   9 156.313 7.02993   6
   2  -6  -9 142.004 6.76055   7
   2   6   9 136.501 6.99540   7
  -2  -6   9 153.465 7.11257   1
  -2   6  -9 150.204 6.86551   1
  -2   6  -9 143.341 7.24745   6
   2   6   9 142.529 6.90625   1
  -3  -6  -9 13.4182 2.94049   1
  -3   6   9 11.2508 3.14401   6
   3  -6   9 14.4317 3.02862   7
   3   6  -9 18.0485 3.22389   6
  -3   6   9 13.7850 2.92823   1
   3   6  -9 13.2686 2.71563   7
   3  -6  -9 10.9740 2.69135   7
  -3   6  -9 14.2560 2.86722   1
   3   6   9 8.88147 2.72094   7
  -3  -6   9 14.1481 3.03892   1
  -3   6  -9 10.2261 2.79217   6
  -4   6   9 10.5134 3.49536   6
   4   6  -9 7.61356 2.38802   7
  -4  -6  -9 7.03742 2.55563   1
   4   6  -9 11.6826 3.33743   6
  -4   6   9 9.60145 2.71074   1
   4  -6   9 10.9305 2.95062   7
   4  -6  -9 10.0622 3.63380   4
  -4   6  -9 8.08815 2.45243   1
   4   6   9 11.7812 2.91227   7
   4  -6  -9 10.1961 2.66615   7
  -4   6  -9 8.79341 2.77521   6
  -4  -6   9 14.5671 3.11546   1
  -5  -6  -9 6.76672 2.46561   1
   5  -6   9 7.20984 2.76145   7
   5  -6   9 12.9071 2.85048   5
   5   6  -9 4.80489 2.64817   6
  -5   6   9 7.93898 3.05943   6
   5   6  -9 5.95666 2.27546   7
  -5   6   9 5.70899 2.37973   1
  -5   6  -9 7.70687 2.76363   6
   5  -6  -9 2.79545 2.53297   4
  -5   6  -9 9.89224 2.53700   1
  -5  -6   9 7.00651 2.63450   1
   5   6   9 5.50794 2.40306   7
   5  -6  -9 9.52896 2.66256   7
  -6  -6  -9 86.5449 5.15677   1
   6  -6   9 89.4644 5.49353   7
  -6   6   9 82.9135 6.15606   6
   6   6  -9 92.9097 5.15257   7
   6  -6   9 92.3146 5.64921   5
  -6   6   9 93.2697 5.29271   1
  -6  -6   9 87.1864 5.25336   1
   6   6   9 101.916 5.59236   7
   6  -6  -9 86.8970 6.71223   4
  -6   6  -9 99.8723 5.32708   1
   6  -6  -9 83.2663 5.08930   7
  -7  -6  -9 7.47171 2.45745   1
   7  -6   9 12.9199 3.11196   7
   7  -6   9 12.7473 3.26409   5
  -7   6   9 16.1291 4.01477   6
  -7   6   9 7.09043 2.36854   1
   7   6  -9 8.83712 2.40147   7
   7   6   9 11.0262 2.79047   7
   7  -6  -9 11.1487 3.76277   4
   7  -6  -9 10.7394 2.47661   7
  -7   6  -9 10.8731 2.51265   1
  -7  -6   9 13.0618 2.97201   1
  -8   6   9 3.82782 2.17827   1
  -8  -6  -9 2.44195 2.29166   1
   8  -6   9 5.04880 2.48146   7
  -8   6   9 4.68851 4.63322   6
   8  -6   9 2.33098 2.78219   5
   8   6  -9 4.87151 2.08298   7
  -8   6  -9 4.21341 2.25029   1
  -8  -6   9 2.83560 2.44979   1
   8  -6  -9 5.55506 2.26368   7
   8   6   9 -1.0831 1.91037   7
   8  -6  -9 5.51391 3.77393   4
   8  -6  -9 3.76941 2.02196   7
  -9  -6  -9 4.51765 2.45702   1
   9  -6   9 6.69911 3.15876   5
  -9  -6   9 4.31806 2.55452   1
  -9   6  -9 0.84238 1.94172   1
   9   6   9 5.54477 2.25033   7
   0  -7  -9 119.477 6.16805   1
   0   7   9 108.968 6.07427   1
   0   7   9 122.156 6.64871   6
   0   7   9 118.932 6.33382   7
   0  -7   9 123.696 6.38320   1
   0   7  -9 123.088 6.19231   7
   0   7  -9 113.620 6.56018   6
   0  -7   9 124.996 6.49933   7
   0  -7  -9 123.112 6.33020   7
   0   7  -9 107.009 5.89419   1
  -1  -7  -9 11.4429 2.71523   1
   1  -7   9 14.5633 3.29991   1
   1  -7   9 23.7997 3.37226   7
  -1   7   9 13.8391 3.06820   7
  -1  -7  -9 22.6114 3.12592   7
  -1   7   9 18.5652 2.99489   1
   1   7  -9 11.6104 2.63633   1
   1   7  -9 13.1340 3.21097   6
   1   7  -9 20.1446 2.86942   7
  -1   7   9 16.0839 3.52694   6
  -1  -7   9 25.3805 3.45165   1
   1  -7  -9 19.0713 3.43024   7
  -1  -7   9 17.5276 3.71139   7
  -1   7  -9 18.8075 2.81648   1
   1   7   9 16.3025 3.18924   7
   1   7   9 14.6282 3.24572   6
   1   7   9 13.9817 3.02085   1
  -1   7  -9 11.9746 3.07172   6
   1  -7  -9 16.4617 3.07303   1
  -1   7  -9 12.0640 2.69689   7
   2  -7   9 10.2606 3.04332   7
   2   7  -9 4.87442 2.39710   7
  -2   7   9 3.20975 2.42547   1
  -2  -7  -9 5.57945 2.54882   1
   2   7  -9 7.13664 2.99130   6
  -2   7   9 5.16725 2.86589   6
  -2   7  -9 7.09785 2.46663   1
  -2   7  -9 4.90453 2.51693   6
   2  -7  -9 4.68802 2.48194   7
   2   7   9 3.73921 2.42436   7
  -2  -7   9 6.23375 2.72392   1
  -3   7   9 16.0753 3.71719   6
   3  -7   9 9.51300 3.04250   7
   3   7  -9 16.8199 3.59271   6
  -3  -7  -9 14.0078 3.08793   1
  -3   7   9 13.1776 2.99992   1
   3   7  -9 9.64926 2.59837   7
   3   7   9 9.82625 2.91966   7
   3  -7  -9 15.2345 3.04394   7
  -3   7  -9 13.2001 2.83813   1
  -3   7  -9 13.4479 3.15809   6
  -3  -7   9 10.7677 3.16347   1
  -4   7   9 88.9207 5.30733   1
   4  -7   9 91.1266 5.29777   7
  -4  -7  -9 86.5974 5.17914   1
   4   7  -9 90.5416 5.91366   6
   4   7  -9 84.5590 4.98468   7
  -4   7   9 88.0131 5.95441   6
  -4   7  -9 81.5846 5.42274   6
  -4   7  -9 83.1096 5.03675   1
  -4  -7   9 85.3830 5.24846   1
   4   7   9 92.8566 5.44617   7
   4  -7  -9 83.2093 6.71824   4
   4  -7  -9 77.7423 5.00614   7
  -5  -7  -9 12.7301 2.81842   1
  -5   7   9 11.5117 3.52061   6
   5  -7   9 9.81192 2.77767   5
   5   7  -9 10.2932 2.47668   7
  -5   7   9 11.3204 2.82500   1
   5  -7   9 10.6709 3.06149   7
   5   7  -9 14.6388 3.49215   6
  -5  -7   9 12.4505 2.92170   1
   5   7   9 14.2329 3.09679   7
  -5   7  -9 10.3601 2.82676   6
   5  -7  -9 19.0543 3.00032   7
  -5   7  -9 10.1304 2.58213   1
   5  -7  -9 10.0917 3.47574   4
   6  -7   9 2.50654 2.67358   5
   6   7  -9 1.61068 2.04702   7
  -6   7   9 3.25632 2.24465   1
  -6   7   9 2.89428 2.69260   6
  -6  -7  -9 1.98518 2.17482   1
   6  -7   9 2.34742 2.57534   7
  -6   7  -9 2.03091 2.78081   6
  -6  -7   9 1.74575 2.50602   1
   6   7   9 2.11968 2.20960   7
   6  -7  -9 1.44984 1.99348   7
  -6   7  -9 2.97758 2.02856   1
   6  -7  -9 4.10211 3.23108   4
  -7   7   9 9.91831 2.79209   1
   7  -7   9 6.96634 2.99735   5
  -7   7   9 7.71145 3.22702   6
  -7  -7  -9 7.27331 2.64437   1
   7  -7   9 10.5698 3.04764   7
   7   7  -9 5.26638 2.28795   7
  -7   7  -9 6.34338 2.23906   1
   7  -7  -9 9.79232 3.72650   4
  -7  -7   9 11.2173 2.82521   1
   7  -7  -9 10.3458 2.56854   7
   7  -7  -9 7.65109 2.35991   7
   7   7   9 12.2406 2.69418   7
   8   7  -9 48.0403 3.69165   7
  -8  -7  -9 46.5859 3.90899   1
   8  -7   9 52.0702 4.25353   7
   8  -7   9 41.0813 4.51149   5
  -8   7   9 52.6629 3.93992   1
   8  -7  -9 46.4481 3.60623   7
   8   7   9 45.6765 3.76989   7
   8  -7  -9 43.8625 5.45060   4
  -8  -7   9 41.1511 3.89173   1
  -8   7  -9 43.1731 3.68045   1
   9  -7   9 10.6794 3.50468   5
  -9  -7  -9 11.0321 2.73251   1
  -9   7   9 11.5946 2.89280   1
   9   7   9 7.26465 2.60193   7
  -9   7  -9 7.30914 2.40011   1
  -9  -7   9 12.2598 3.03409   1
  10  -7   9 0.08744 3.06567   5
   0   8  -9 50.5248 4.07287   1
   0   8  -9 56.7637 4.31400   7
   0   8   9 53.9634 4.50444   6
   0   8   9 55.0249 4.42380   1
   0  -8  -9 45.1521 4.07542   7
   0  -8   9 52.8378 4.48755   7
   0  -8   9 51.7265 4.44660   1
   0   8   9 66.4634 4.66536   7
   0   8  -9 49.7457 4.50218   6
   0  -8  -9 56.8187 4.24385   1
   1  -8   9 18.4687 3.49217   1
  -1  -8  -9 12.6862 3.01961   7
  -1   8   9 18.4735 3.41369   1
   1   8  -9 15.7637 3.51288   6
   1  -8   9 20.0816 3.29196   7
  -1   8   9 16.3162 3.63360   6
   1   8  -9 14.3138 3.08696   1
   1   8  -9 22.0295 2.93893   7
  -1  -8  -9 19.4622 3.02592   1
   1   8   9 11.5306 3.15035   6
  -1  -8   9 16.5001 3.37942   1
   1   8   9 22.6845 3.46130   7
   1   8   9 19.4680 3.06631   1
  -1  -8   9 22.9578 5.56507   7
  -1   8  -9 19.8364 3.27689   6
  -1   8  -9 17.7496 2.84044   7
   1  -8  -9 16.4974 3.16639   1
  -1   8  -9 13.2838 2.80866   1
   1  -8  -9 13.7694 2.97199   7
  -2   8   9 28.1843 3.97102   6
   2   8  -9 27.6600 3.12817   7
  -2  -8  -9 27.1833 3.25927   1
   2   8  -9 23.8943 3.49263   6
   2  -8   9 24.2239 3.40099   7
  -2   8   9 27.1493 3.51830   1
   2  -8  -9 19.5430 3.04680   7
  -2  -8   9 25.6613 3.60744   1
   2   8   9 25.3735 3.55951   7
  -2   8  -9 31.1903 3.58735   6
  -2   8  -9 25.1388 3.24275   1
  -3   8   9 13.5548 3.14211   1
  -3  -8  -9 11.8747 2.91487   1
   3  -8   9 16.3728 3.46117   7
   3   8  -9 9.46504 2.53239   7
   3   8  -9 10.1958 3.20522   6
  -3   8   9 13.7510 3.51949   6
   3   8   9 16.9044 3.37197   7
  -3  -8   9 13.2133 3.27922   1
   3  -8  -9 11.4054 2.84955   7
  -3   8  -9 13.1270 3.17709   6
  -3   8  -9 10.7372 2.69625   1
  -4   8   9 41.6043 4.35718   6
   4  -8   9 40.7642 4.00988   7
   4   8  -9 33.6059 3.48054   7
  -4  -8  -9 34.2635 3.52005   1
   4   8  -9 33.8156 3.97286   6
  -4   8   9 42.1794 3.84537   1
   4  -8  -9 40.6221 5.34993   4
   4  -8  -9 47.1541 3.94595   7
  -4   8  -9 32.6999 3.47215   1
  -4  -8   9 35.5778 3.75783   1
  -4   8  -9 38.0724 3.93446   6
   4   8   9 38.0285 3.91781   7
  -5  -8  -9 13.6650 3.08486   1
   5  -8   9 22.8130 3.32030   5
  -5   8   9 28.5469 3.40325   1
   5  -8   9 15.3170 3.17243   7
   5   8  -9 17.1437 2.80227   7
  -5   8   9 13.1537 3.57396   6
   5  -8  -9 20.6858 3.13554   7
  -5   8  -9 9.61955 2.83612   6
  -5   8  -9 22.0341 2.96096   1
   5   8   9 18.2241 2.82278   7
   5  -8  -9 20.8558 4.70294   4
  -5  -8   9 17.2320 3.43771   1
   6   8  -9 16.3587 3.12735   7
   6  -8   9 19.4818 3.67940   7
  -6  -8  -9 18.8563 3.32962   1
  -6   8   9 22.0899 4.54297   6
  -6   8   9 18.0091 3.31270   1
   6  -8   9 20.5818 3.67088   5
   6  -8  -9 19.4587 3.33312   7
   6  -8  -9 16.4350 3.16226   7
  -6   8  -9 17.2515 3.19922   1
  -6  -8   9 17.1565 3.37967   1
   6   8   9 20.3113 3.41559   7
  -6   8  -9 17.1969 3.64752   6
   6  -8  -9 23.4660 5.14401   4
   7  -8   9 11.2563 3.21685   5
  -7   8   9 7.31039 2.46317   1
  -7  -8  -9 11.3073 2.85268   1
   7  -8   9 3.06125 2.62956   7
   7   8  -9 13.9470 2.78396   7
  -7   8  -9 4.83968 2.30215   1
   7  -8  -9 6.08081 3.71533   4
   7  -8  -9 5.67248 2.28770   7
   7   8   9 12.0261 2.86093   7
   7  -8  -9 9.94097 2.66397   7
  -7  -8   9 5.76541 2.58692   1
   8   8  -9 17.5780 2.71560   7
   8  -8   9 25.5415 3.90977   7
   8  -8   9 22.5493 4.02575   5
  -8  -8  -9 20.7486 3.54228   1
  -8   8   9 23.2286 3.12527   1
  -8   8  -9 21.9949 2.90897   1
   8   8   9 23.0058 3.14083   7
  -8  -8   9 21.7785 3.62002   1
   8  -8  -9 21.3836 5.01136   4
   8  -8  -9 18.4353 2.95680   7
  -9   8   9 11.2786 2.68146   1
  -9  -8  -9 12.3511 3.12541   1
   9  -8   9 14.1810 3.77727   5
  -9  -8   9 11.6387 2.95041   1
  -9   8  -9 8.43590 2.55057   1
  10  -8   9 13.8643 3.98680   5
   0   9   9 135.495 7.19439   6
   0  -9   9 131.108 6.95074   1
   0   9  -9 128.163 7.19599   6
   0  -9  -9 145.358 6.99622   1
   0   9  -9 127.848 6.53902   1
   0   9   9 145.141 7.16432   7
   0   9   9 128.386 6.96384   1
   0  -9   9 136.027 7.25497   7
   0  -9  -9 139.624 7.06296   7
   0   9  -9 125.497 6.66460   7
   1   9  -9 16.2328 3.51515   6
  -1  -9  -9 16.7010 3.39262   7
   1   9  -9 15.6876 3.00845   7
  -1   9   9 12.3101 3.11916   1
  -1  -9  -9 17.1234 3.34286   1
   1  -9   9 16.5702 3.60876   7
  -1   9   9 10.2456 3.03502   6
   1  -9   9 24.1379 3.59595   1
   1   9  -9 13.9648 2.89134   1
  -1   9  -9 14.1813 3.43908   6
   1  -9  -9 13.3678 3.09018   7
   1   9   9 16.9948 3.34143   1
  -1   9  -9 12.6859 2.80112   1
   1   9   9 16.1459 3.32699   7
  -1  -9   9 17.6715 3.54628   1
   1   9   9 18.7912 3.24526   6
  -2   9   9 81.1036 5.39749   1
  -2   9   9 81.4061 5.78787   6
   2   9  -9 82.2198 5.74313   6
   2   9  -9 84.4946 5.11724   7
   2  -9   9 83.8424 5.50716   7
  -2  -9  -9 88.6569 5.49782   1
  -2   9  -9 78.4891 5.01994   1
   2   9   9 82.3218 5.30753   7
  -2  -9   9 80.0623 5.48563   1
  -2   9  -9 79.3988 5.43693   6
   2  -9  -9 71.8006 4.99609   7
  -3   9   9 14.4313 3.67552   6
  -3  -9  -9 10.4361 2.98136   1
   3  -9   9 10.5420 3.06146   7
  -3   9   9 15.8192 3.33118   1
   3   9  -9 15.4471 3.00215   7
   3   9  -9 13.3400 3.41388   6
   3  -9  -9 13.1084 2.82037   7
  -3  -9   9 12.8071 3.24806   1
   3   9   9 14.4137 3.14101   7
  -3   9  -9 10.8693 2.66983   1
  -3   9  -9 12.3054 3.10683   6
  -4   9   9 91.6174 5.72620   1
  -4   9   9 98.4158 6.47500   6
   4  -9   9 109.222 6.03607   7
   4   9  -9 99.2467 6.24334   6
  -4  -9  -9 87.4843 5.52783   1
   4   9  -9 99.9235 5.47776   7
   4  -9  -9 93.1387 5.51386   7
   4  -9  -9 87.1829 7.93599   4
  -4   9  -9 90.7636 5.92505   6
  -4   9  -9 92.4272 5.34584   1
  -4  -9   9 110.787 6.14595   1
   4   9   9 110.245 6.07819   7
   5   9  -9 15.0060 2.93321   7
  -5   9   9 11.8665 3.55413   6
  -5   9   9 11.1245 2.84518   1
  -5  -9  -9 10.4288 2.83895   1
   5  -9   9 12.9641 3.11358   7
  -5  -9   9 10.6924 3.04913   1
   5  -9  -9 16.5689 3.27237   7
   5   9   9 13.6668 3.08667   7
  -5   9  -9 11.3963 2.96556   6
   5  -9  -9 18.5284 5.19351   4
   5  -9  -9 15.6288 3.20922   7
  -5   9  -9 19.2372 2.92905   1
  -6  -9  -9 50.4460 4.15177   1
   6   9  -9 49.4810 4.01090   7
  -6   9   9 45.6499 3.91593   1
   6  -9   9 52.8846 4.43950   7
   6  -9   9 50.5654 4.37651   5
  -6   9  -9 43.9128 3.71851   1
  -6  -9   9 48.6735 4.28530   1
   6  -9  -9 45.1666 6.17418   4
   6   9   9 41.3220 4.00288   7
  -6   9  -9 46.2345 4.32122   6
   6  -9  -9 45.2937 4.02808   7
   6  -9  -9 56.4971 4.26548   7
   7  -9   9 9.43517 3.04644   7
  -7   9   9 8.70666 2.60522   1
   7  -9   9 5.24331 2.85762   5
   7   9  -9 8.91592 2.52635   7
  -7  -9  -9 10.9382 2.98461   1
   7  -9  -9 6.41988 2.44545   7
  -7  -9   9 10.8860 2.86912   1
   7  -9  -9 8.36316 4.21295   4
   7   9   9 5.99237 2.58620   7
  -7   9  -9 7.67682 2.45433   1
  -8  -9  -9 48.6178 4.12817   1
  -8   9   9 49.2762 4.07075   1
   8  -9   9 55.9934 4.88822   5
  -8  -9   9 52.7918 4.37107   1
  -8   9  -9 50.6504 3.99016   1
   9  -9   9 10.0383 3.56275   5
  -9  -9  -9 11.7426 3.06209   1
  -9   9   9 13.1169 2.90225   1
  -9  -9   9 15.3911 3.31339   1
  -9   9  -9 6.36471 2.42502   1
   0  10  -9 420.436 14.5322   7
   0 -10  -9 398.802 14.3638   7
   0  10   9 439.250 15.5004   6
   0  10  -9 397.554 15.1513   6
   0 -10   9 418.554 14.9619   1
   0  10  -9 407.531 14.2784   1
   0 -10  -9 396.280 14.3963   1
   0  10   9 404.492 14.8253   1
   0 -10   9 439.562 15.2310   7
   0  10   9 410.422 14.9467   7
  -1  10   9 8.48152 2.95403   1
   1  10  -9 7.78120 3.03866   6
   1  10  -9 7.70511 2.60536   7
   1 -10   9 16.1934 3.74789   7
  -1  10   9 14.8049 3.73530   6
   1 -10   9 11.6448 3.31726   1
  -1 -10  -9 8.18488 2.90484   1
   1 -10  -9 9.21026 2.95543   7
   1  10   9 11.0766 3.14757   1
  -1  10  -9 4.06033 2.59947   6
   1  10   9 11.3692 2.99438   7
  -1 -10   9 8.52480 3.07364   1
  -1  10  -9 9.52223 2.72858   1
  -2 -10  -9 248.447 10.1256   1
   2  10  -9 261.831 11.0148   6
  -2  10   9 257.002 11.1685   6
   2  10  -9 241.036 10.0249   7
   2 -10   9 262.858 10.6998   7
  -2  10   9 254.172 10.4135   1
  -2  10  -9 256.613 10.0793   1
   2 -10  -9 241.778 10.0898   7
  -2  10  -9 246.216 10.7390   6
  -2 -10   9 262.227 10.5658   1
   2  10   9 248.805 10.4572   7
   3  10  -9 8.16491 2.50979   7
  -3  10   9 6.66150 2.72505   1
  -3  10   9 10.6187 3.52731   6
  -3 -10  -9 5.13376 2.69039   1
   3 -10   9 5.08753 2.92316   7
   3  10  -9 11.5984 3.30749   6
  -3 -10   9 6.84739 3.04392   1
  -3  10  -9 7.62738 2.64282   1
  -3  10  -9 8.95381 3.04954   6
   3 -10  -9 11.0787 2.94545   7
   3 -10  -9 7.78370 2.88394   7
   3  10   9 7.10446 2.74581   7
  -4 -10  -9 321.613 12.0695   1
  -4  10   9 330.306 12.2293   1
  -4  10   9 335.212 13.4255   6
   4  10  -9 311.172 12.8662   6
   4  10  -9 312.790 11.8979   7
   4 -10   9 331.866 12.4366   7
  -4  10  -9 320.162 11.9567   1
   4 -10  -9 326.693 12.1677   7
   4  10   9 326.071 12.4851   7
  -4  10  -9 330.860 12.8366   6
   4 -10  -9 320.671 12.1340   7
  -4 -10   9 312.619 12.2103   1
   4 -10  -9 332.269 16.3961   4
   5 -10   9 7.96369 3.05769   7
  -5  10   9 1.84520 2.27020   1
  -5 -10  -9 6.86656 2.82897   1
   5  10  -9 5.35318 2.46241   7
   5 -10  -9 11.4095 3.03948   7
   5 -10  -9 4.72389 2.59650   7
  -5  10  -9 7.42022 2.42080   1
   5 -10  -9 -1.0350 3.18259   4
  -5  10  -9 3.66270 2.53547   6
  -5 -10   9 5.39313 2.87415   1
   5  10   9 6.40459 2.60063   7
   6 -10   9 168.278 8.06175   5
   6 -10   9 178.041 7.98246   7
  -6  10   9 194.991 8.17221   1
   6  10  -9 179.434 7.82630   7
  -6 -10  -9 155.470 7.69972   1
  -6  10  -9 178.033 7.69818   1
  -6 -10   9 153.266 7.73003   1
   6 -10  -9 166.627 7.65386   7
   6 -10  -9 154.501 10.7636   4
   6  10   9 178.106 8.09390   7
  -7  10   9 6.34058 2.44556   1
  -7 -10  -9 9.85090 2.90700   1
   7 -10   9 4.35534 2.91874   5
  -7  10  -9 5.52147 2.36293   1
   7 -10  -9 0.23006 3.78079   4
   7 -10  -9 3.77130 3.76740   7
  -7 -10   9 3.58268 2.75110   1
  -8  10   9 188.845 8.23813   1
   8 -10   9 192.741 8.89038   5
  -8 -10  -9 183.367 8.09227   1
  -8 -10   9 193.466 8.38520   1
  -8  10  -9 179.270 7.88966   1
   9 -10   9 4.15267 3.26811   5
   0  11  -9 307.364 11.9247   1
   0 -11  -9 332.583 12.2601   1
   0  11   9 340.206 12.9971   6
   0  11  -9 313.488 12.0504   7
   0 -11  -9 319.692 12.1984   7
   0 -11   9 328.978 12.7162   7
   0  11   9 320.274 12.5689   1
   0 -11  -9 298.034 11.9938   7
   0 -11   9 331.541 12.7034   1
   0  11   9 338.653 15.0070   7
   0  11  -9 333.402 13.0503   6
  -1  11   9 -2.5383 2.14188   1
  -1 -11  -9 0.14966 2.41126   1
  -1  11   9 -0.6941 2.36976   6
   1  11  -9 0.33197 2.09789   7
   1  11  -9 -0.3673 2.29454   6
   1 -11   9 -5.6415 2.56272   7
   1 -11  -9 3.90147 2.68888   7
   1  11   9 1.11515 2.61842   1
   1 -11  -9 0.59624 2.46994   7
   1  11   9 1.01338 2.56613   7
  -1 -11   9 0.15844 2.73836   1
  -1  11  -9 -2.2693 1.91325   6
  -1  11  -9 1.39367 2.18823   1
   2 -11   9 193.655 8.83002   7
  -2  11   9 192.328 9.31737   6
  -2  11   9 194.050 8.72497   1
   2  11  -9 186.578 8.95054   6
  -2 -11  -9 182.805 8.36448   1
   2  11  -9 172.776 8.13021   7
  -2  11  -9 186.992 9.02702   6
   2  11   9 185.326 8.82003   7
  -2  11  -9 184.949 8.21016   1
   2 -11  -9 175.868 8.40594   7
   2 -11  -9 175.961 8.44412   7
  -2 -11   9 193.304 8.77462   1
  -3  11   9 5.21055 2.72224   1
   3  11  -9 2.60031 2.52280   6
   3  11  -9 2.85750 2.24687   7
  -3  11   9 -0.8447 2.44301   6
   3 -11   9 -1.1019 2.56169   7
  -3 -11  -9 1.97459 2.59800   1
  -3  11  -9 1.50403 2.50506   6
   3 -11  -9 2.08958 2.46938   7
  -3 -11   9 3.18223 2.92888   1
   3  11   9 -1.3881 2.46313   7
  -3  11  -9 -0.7095 2.14043   1
   3 -11  -9 3.50631 2.62907   7
   4  11  -9 251.072 10.1483   7
  -4  11   9 260.466 10.6091   1
   4 -11   9 275.160 10.8497   7
  -4 -11  -9 248.600 10.3166   1
   4 -11  -9 285.141 15.2837   4
  -4 -11   9 267.849 10.8054   1
  -4  11  -9 253.436 10.1935   1
   4 -11  -9 254.753 10.3495   7
   4  11   9 266.508 10.8912   7
   4 -11  -9 246.792 10.2507   7
   5 -11   9 1.22515 2.70071   7
  -5  11   9 -1.3691 2.01590   1
  -5 -11  -9 -2.7226 2.08739   1
   5  11  -9 0.33835 1.91985   7
  -5  11  -9 0.91185 2.12759   1
   5 -11  -9 1.43414 4.04409   4
  -5 -11   9 1.49079 2.57395   1
   5 -11  -9 -0.4702 2.27955   7
   5  11   9 0.00430 2.09151   7
  -6  11   9 135.146 6.76933   1
   6  11  -9 142.198 9.08122   7
  -6 -11  -9 125.656 6.69140   1
   6 -11  -9 122.838 10.2448   4
  -6  11  -9 130.904 6.48388   1
  -6 -11   9 124.140 6.69201   1
   6 -11  -9 128.541 8.14287   7
  -7  11   9 3.12267 2.40051   1
   7 -11   9 2.16831 2.77862   5
  -7 -11  -9 1.73849 2.59221   1
  -7 -11   9 -0.0638 2.73037   1
  -7  11  -9 -0.1661 2.00282   1
  -8  11   9 172.784 8.62493   1
   8 -11   9 170.569 8.37703   5
  -8 -11   9 180.325 9.79161   1
  -8  11  -9 182.845 11.0180   1
   0 -12  -9 117.220 6.92026   7
   0 -12   9 126.782 7.08803   1
   0  12  -9 133.785 6.83320   7
   0  12   9 126.074 6.91945   1
   0 -12  -9 137.223 7.09682   7
   0  12  -9 133.577 6.91525   1
   0  12  -9 137.221 7.70804   6
   0 -12  -9 107.935 6.57251   1
   1  12  -9 -2.0571 1.84652   7
  -1 -12  -9 1.79534 2.77697   1
   1  12  -9 0.12127 2.33902   6
   1 -12   9 3.51752 3.23116   7
  -1  12   9 1.91181 2.74017   6
  -1  12   9 -1.0157 2.30957   1
   1 -12  -9 -0.8261 2.38609   7
   1 -12  -9 3.22829 2.64836   7
  -1 -12   9 -2.4078 2.55482   1
  -1  12  -9 2.09331 2.36589   1
   1  12   9 -0.1122 2.21498   7
  -2  12   9 304.341 12.8616   6
  -2 -12  -9 284.888 11.5109   1
  -2  12   9 313.616 12.0963   1
   2  12  -9 291.891 11.3459   7
   2 -12   9 303.975 12.0942   7
   2  12  -9 307.231 12.2507   6
   2 -12  -9 289.222 11.4981   7
   2  12   9 303.041 12.1235   7
  -2 -12   9 306.063 12.0825   1
  -2  12  -9 273.768 11.0748   1
   2 -12  -9 278.213 11.4035   7
  -3  12   9 0.02947 2.28574   1
   3  12  -9 -0.1068 2.18254   7
   3 -12   9 -0.0940 2.86968   7
  -3 -12  -9 -0.9333 2.63174   1
   3  12  -9 0.49015 2.47115   6
   3  12   9 2.39677 2.49080   7
  -3 -12   9 -1.4182 2.54525   1
   3 -12  -9 -1.5246 2.33560   7
  -3  12  -9 -1.4769 2.07006   1
   4 -12   9 104.009 6.40307   7
  -4 -12  -9 103.594 6.22341   1
   4  12  -9 104.875 6.03198   7
  -4  12   9 107.439 6.24244   1
   4 -12  -9 98.9127 9.05685   4
  -4  12  -9 107.905 6.02681   1
  -4 -12   9 101.816 6.17787   1
   4  12   9 106.957 6.21868   7
   4 -12  -9 110.770 6.24485   7
  -5 -12  -9 -1.4140 2.48445   1
  -5  12   9 0.04334 2.24936   1
  -5 -12   9 -0.5927 2.73226   1
   5 -12  -9 -2.2486 3.89652   4
  -5  12  -9 0.70902 2.01619   1
  -6  12   9 202.593 8.84317   1
  -6 -12  -9 190.491 8.53377   1
  -6 -12   9 198.498 8.87237   1
  -6  12  -9 185.948 8.34175   1
  -7  12   9 -0.6921 2.21030   1
  -7 -12  -9 -0.9550 2.76511   1
  -7  12  -9 2.16985 2.45197   1
  -7 -12   9 0.17461 2.61759   1
   8 -12   9 56.4701 5.33878   5
   0 -13  -9 8.05113 3.39871   7
   0 -13   9 6.56673 3.41745   1
   0  13  -9 5.92031 2.94211   1
   0  13   9 9.21602 3.08150   1
  -1 -13  -9 -0.1022 2.68114   1
   1 -13   9 -1.5533 2.84957   7
   1  13  -9 1.76731 2.28434   7
  -1  13   9 -0.5528 2.34152   1
  -1  13  -9 0.64176 2.20926   1
   1 -13  -9 6.28864 3.02488   7
  -1 -13   9 -0.3440 2.95761   1
   1  13   9 1.70605 2.60865   7
   2 -13   9 3.95739 3.18799   7
  -2 -13  -9 2.02880 2.83228   1
  -2  13   9 -1.8305 2.36858   1
   2  13  -9 2.62740 2.28259   7
   2 -13  -9 -0.2607 2.43529   7
  -2 -13   9 -1.9198 2.71294   1
  -2  13  -9 0.82315 2.26420   1
   2  13   9 0.52316 2.61791   7
  -3  13   9 -0.9118 2.39380   1
   3 -13   9 2.68038 2.93430   7
  -3 -13  -9 0.25204 2.66323   1
   3  13  -9 -0.7526 2.15494   7
   3 -13  -9 4.67633 2.88444   7
  -3  13  -9 -1.1499 2.10078   1
   3  13   9 0.53883 2.36784   7
  -3 -13   9 2.65243 3.13356   1
  -4  13   9 14.4266 3.27620   1
  -4 -13  -9 10.8459 3.34017   1
  -4 -13   9 14.9850 3.85854   1
  -4  13  -9 7.71884 2.90780   1
  -5 -13  -9 -1.3349 2.49063   1
  -5  13   9 -0.3525 2.35384   1
  -5 -13   9 6.78965 3.22573   1
  -5  13  -9 3.25803 2.25191   1
  -6  13   9 2.63990 2.76157   1
  -6 -13  -9 -1.1921 3.10472   1
  -6  13  -9 -2.3232 2.28244   1
  -6 -13   9 -1.1210 3.14160   1
   0  14   9 37.8778 4.12893   1
   1 -14   9 1.90824 3.22706   7
  -1  14   9 8.84422 3.26645   1
  -1 -14  -9 7.35262 3.19132   1
   1  14  -9 3.31061 2.66612   7
  -1 -14   9 5.16301 3.45484   1
   1 -14  -9 7.44140 3.17159   7
   1  14   9 7.02445 3.94923   7
  -1  14  -9 3.86435 2.58512   1
  -2 -14  -9 25.8575 4.50407   1
   2 -14   9 18.9490 5.61576   3
   2 -14   9 28.5357 5.95959   7
  -2  14   9 24.0983 4.19868   1
  -2  14  -9 21.3133 3.25786   1
   2  14   9 22.6709 4.43682   7
  -2 -14   9 15.7043 4.17536   1
  -3  14   9 6.73413 2.81194   1
  -3 -14  -9 5.98854 3.21714   1
  -3  14  -9 2.84561 2.51206   1
  -3 -14   9 4.21712 3.26204   1
  -4 -14  -9 32.8851 4.32385   1
  -4  14   9 39.6125 4.01118   1
  -4  14  -9 39.0985 3.99490   1
  -4 -14   9 28.2893 4.09429   1
  -1  15   9 8.74793 3.40214   1
  -1  15  -9 3.99850 2.49842   1
  -1 -15   9 6.46824 3.56989   1
   2 -15   9 78.7755 7.15348   3
  -2  15   9 89.7583 6.05598   1
  -2 -15  -9 74.0372 5.66254   1
  -2  15  -9 86.6891 5.53326   1
  -2 -15   9 88.9844 6.27562   1
  -3  15   9 4.16896 3.19427   1
  -3 -15  -9 1.11086 2.78045   1
  -3  15  -9 6.61705 3.12180   1
  -3 -15   9 10.4278 4.34892   1
   2 -16   9 71.6241 6.63279   3
   0   0 -10 384.062 14.2650   6
   0   0  10 374.941 13.6178   1
   0   0 -10 386.949 13.6223   1
   0   0  10 410.860 13.9795   7
   0   0 -10 407.637 13.8468   7
  -1   0 -10 1.07501 2.05666   6
  -1   0 -10 -1.0201 1.77789   7
  -1   0  10 -0.4343 2.11544   7
  -1   0 -10 -1.7693 1.71716   1
   1   0 -10 0.22532 2.01394   6
  -1   0  10 0.52098 2.03064   1
   1   0 -10 -0.2551 1.84021   7
   1   0  10 0.30254 2.38819   7
   1   0  10 2.25252 2.10850   1
   1   0 -10 -1.1844 1.64670   1
  -2   0  10 15.1909 3.12782   1
  -2   0 -10 10.2453 2.67650   1
   2   0 -10 9.49589 2.60721   7
   2   0  10 11.8036 2.90798   1
  -2   0 -10 11.1672 2.86639   6
   2   0  10 14.5747 3.35744   7
  -3   0 -10 -0.8173 1.68405   1
  -3   0 -10 1.18413 1.93633   6
   3   0  10 0.12617 2.18365   7
  -3   0  10 -0.4516 2.04721   1
   3   0 -10 1.02889 1.88047   7
   4   0 -10 289.415 10.9746   7
   4   0  10 320.143 11.7406   7
  -4   0  10 320.706 11.6749   1
  -4   0 -10 311.055 11.1402   1
   5   0 -10 -1.5030 1.61268   7
   5   0  10 2.40275 2.43808   7
  -5   0  10 0.93029 1.97726   1
  -5   0 -10 -1.1392 1.59973   1
   6   0 -10 12.6659 2.70189   7
  -6   0 -10 10.0760 2.64189   1
  -6   0  10 7.12344 2.54247   1
   6   0  10 6.60456 2.54195   7
  -7   0  10 -1.2199 1.86539   1
   7   0 -10 -0.9014 1.84557   7
   7   0  10 1.51866 2.12881   7
  -7   0 -10 2.56041 2.06087   1
  -8   0 -10 187.702 7.91688   1
   8   0 -10 194.916 7.53534   7
   8   0 -10 187.154 10.3772   2
  -8   0  10 185.459 7.77272   1
   8   0  10 191.860 7.86487   7
   9   0 -10 0.48412 2.33271   2
  -9   0 -10 4.15084 2.06001   1
  10   0 -10 3.22303 2.68931   2
   0  -1  10 203.125 8.66849   1
   0  -1 -10 213.972 8.62570   1
   0   1 -10 223.953 8.79687   7
   0   1  10 217.487 8.92597   7
   0   1 -10 200.573 8.52024   1
   0   1 -10 199.791 9.08382   6
   0  -1  10 218.204 8.93652   7
   0   1  10 195.780 8.59944   1
   0  -1 -10 205.908 8.63178   7
   1   1 -10 -0.0482 2.04638   6
   1   1 -10 0.77014 1.74287   7
   1  -1  10 -0.0565 2.01894   1
  -1   1  10 -2.0807 1.86383   1
  -1  -1 -10 -0.2419 1.78071   1
  -1  -1 -10 1.84036 2.03765   6
  -1   1  10 -0.3818 2.01478   7
   1   1 -10 2.83727 2.05522   1
   1  -1  10 2.67908 2.39823   7
  -1  -1 -10 -0.3424 1.86669   7
  -1   1 -10 -2.5230 1.70098   6
   1   1  10 -0.7498 2.07617   7
  -1   1 -10 -0.0583 1.68949   7
   1  -1 -10 0.64144 1.83820   1
  -1   1 -10 -1.2099 1.67510   1
   1  -1 -10 0.61168 1.82100   7
  -1  -1  10 1.83882 2.20010   1
  -1  -1  10 0.37941 2.10351   7
   1   1  10 2.46934 2.06313   1
   2   1 -10 1432.21 42.9108   6
  -2  -1 -10 1499.80 41.9071   1
   2  -1  10 1494.47 42.2638   1
   2  -1  10 1478.63 42.3873   7
  -2   1  10 1464.02 42.1059   1
  -2  -1 -10 1478.76 42.2406   6
   2   1 -10 1450.02 41.8610   7
  -2   1 -10 1464.01 41.9270   1
  -2   1 -10 1452.27 42.3251   6
   2   1  10 1354.06 42.1115   7
  -2  -1  10 1494.92 42.2493   1
   2   1  10 1515.70 42.2849   1
   2  -1 -10 1418.54 41.8480   7
  -3  -1 -10 0.30021 1.82937   1
   3   1 -10 -0.2154 2.10585   6
  -3  -1 -10 -0.2669 1.80169   6
   3   1 -10 2.16300 2.07341   7
  -3   1  10 1.02896 2.09399   1
   3  -1  10 3.01111 2.42439   7
  -3   1 -10 1.97365 1.92556   6
  -3   1 -10 0.87870 1.78613   1
   3  -1 -10 -0.3704 1.72006   7
  -3  -1  10 4.36620 2.34389   1
   3   1  10 1.48478 2.49385   7
  -4   1  10 156.944 7.35676   1
   4   1 -10 152.592 7.04113   7
  -4  -1 -10 163.215 7.09862   1
   4  -1  10 162.723 7.51119   7
   4   1  10 179.385 7.72021   7
   4  -1 -10 150.857 7.00171   7
  -4  -1  10 170.068 7.44731   1
  -4   1 -10 145.285 6.94911   1
  -4   1 -10 150.655 7.02473   6
   5   1 -10 -0.1713 1.91788   7
  -5  -1 -10 1.63500 2.00877   1
  -5   1  10 3.30925 2.19408   1
   5  -1  10 1.99738 2.45203   7
  -5  -1  10 1.12774 2.10279   1
   5   1  10 0.04521 2.16653   7
  -5   1 -10 -2.2417 1.74264   1
   5  -1 -10 1.30273 1.91570   7
   6   1 -10 865.676 26.1099   7
   6  -1  10 859.575 26.5232   7
  -6   1  10 878.697 26.3887   1
  -6  -1 -10 859.144 26.2952   1
  -6   1 -10 870.874 26.3340   1
   6  -1 -10 904.155 26.3279   7
   6   1  10 899.776 26.6669   7
  -6  -1  10 877.711 26.3959   1
  -7  -1 -10 2.11133 2.04056   1
   7   1 -10 2.36489 2.02595   7
   7  -1  10 1.58503 2.10863   7
  -7   1  10 3.08616 2.21660   1
  -7  -1  10 -1.2138 1.94743   1
   7  -1 -10 -0.4899 1.75517   7
  -7   1 -10 2.76346 2.04385   1
   7   1  10 0.84163 2.05956   7
   8   1 -10 88.4298 4.72050   7
  -8   1  10 76.1260 4.71808   1
   8  -1  10 79.1251 4.92132   7
  -8  -1 -10 72.5887 4.78707   1
   8  -1 -10 85.3287 4.53273   7
  -8  -1  10 89.1970 4.94325   1
   8   1  10 87.0926 4.93063   7
  -8   1 -10 81.5431 4.84088   1
  -9  -1 -10 1.20176 2.11923   1
   9   1 -10 -2.9305 1.89940   2
   9  -1 -10 1.63657 2.39497   2
  -9   1 -10 3.96715 2.13197   1
  10   1 -10 405.676 14.6110   2
  10  -1 -10 405.277 14.6466   2
   0  -2  10 24.8979 3.15234   1
   0  -2  10 26.6948 3.60994   7
   0   2 -10 19.4166 2.86811   7
   0   2 -10 26.8524 3.42398   6
   0  -2 -10 24.1436 3.04266   7
   0   2  10 29.2991 3.24479   1
   0   2  10 26.9545 3.45012   7
   0   2 -10 28.8467 3.13089   1
   0  -2 -10 27.7018 3.11166   1
   1   2 -10 3.64353 2.34982   6
  -1   2  10 5.25581 2.43932   1
   1  -2  10 10.3881 2.91074   1
  -1  -2 -10 5.79951 2.32567   1
  -1  -2 -10 6.81874 2.41528   7
   1   2 -10 6.00088 2.25578   1
   1  -2  10 7.83109 2.86067   7
   1   2 -10 4.50879 2.20733   7
  -1   2  10 9.60424 2.76163   7
  -1  -2  10 2.49027 2.26425   1
  -1   2 -10 4.38604 2.24139   6
   1   2  10 4.78152 2.48292   7
  -1   2 -10 4.15114 2.08858   7
  -1   2 -10 7.94067 2.31293   1
   1  -2 -10 4.77256 2.13400   1
  -1  -2  10 6.31583 2.75651   7
   1   2  10 3.43113 2.24859   1
   1  -2 -10 4.91650 2.30451   7
  -2  -2 -10 228.496 9.12318   1
  -2   2  10 221.052 9.25056   1
   2  -2  10 242.360 9.72577   7
   2   2 -10 236.583 9.20225   7
   2   2 -10 223.800 9.94003   6
   2  -2  10 240.735 9.52316   1
   2   2  10 219.645 9.43766   7
   2  -2 -10 225.571 9.26007   7
  -2  -2  10 255.129 9.62338   1
   2   2  10 239.332 9.42596   1
  -2   2 -10 217.648 9.38780   6
  -2   2 -10 232.094 9.18364   1
  -3  -2 -10 3.32538 2.06657   1
   3  -2  10 1.52748 2.33479   7
   3   2 -10 7.06461 2.79361   6
  -3   2  10 1.24894 2.24052   1
   3   2 -10 2.66647 1.99011   7
  -3   2 -10 5.88820 2.22867   6
   3   2  10 5.40927 2.56732   7
   3  -2 -10 1.22703 1.98001   7
  -3   2 -10 5.42798 2.12458   1
  -3  -2  10 4.08120 2.47326   1
   4  -2  10 19.9277 3.60743   7
   4   2 -10 18.0290 3.12628   7
  -4  -2 -10 18.2948 2.80484   1
  -4   2  10 18.8794 2.97000   1
  -4   2 -10 18.3299 2.82012   1
  -4  -2  10 19.0229 3.34218   1
   4  -2 -10 18.8072 3.23238   7
   4   2  10 19.6936 3.16488   7
  -4   2 -10 18.9856 2.78014   6
   5  -2  10 8.05647 2.78752   7
  -5  -2 -10 8.92152 2.46820   1
  -5   2  10 7.56777 2.47806   1
   5   2 -10 1.86018 2.06078   7
   5  -2 -10 4.40429 2.37616   7
  -5  -2  10 7.14618 2.60295   1
  -5   2 -10 6.34819 2.50923   1
   5   2  10 4.08920 2.58710   7
   6  -2  10 155.602 7.20389   7
  -6   2  10 165.615 7.14391   1
  -6  -2 -10 160.879 7.12612   1
   6   2 -10 147.091 6.78852   7
   6  -2 -10 159.086 6.90180   7
  -6   2 -10 151.317 6.95539   1
  -6  -2  10 156.432 7.09118   1
   6   2  10 155.499 7.22683   7
  -7  -2 -10 0.17800 2.10665   1
  -7   2  10 -0.2620 1.99429   1
   7  -2  10 1.54877 2.21300   7
   7   2 -10 1.12366 1.88857   7
  -7   2  10 7.14073 3.24067   6
  -7   2 -10 2.71893 2.17646   1
  -7  -2  10 1.60841 2.30919   1
   7   2  10 1.06922 2.24031   7
   7  -2 -10 0.49114 1.88523   7
  -8   2  10 6.80271 2.57531   1
  -8  -2 -10 4.75184 2.20881   1
   8   2 -10 6.51843 2.24152   7
   8  -2  10 2.50845 2.38583   7
   8   2  10 10.7204 2.71133   7
  -8   2 -10 6.39799 2.43322   1
   8  -2 -10 2.20148 1.91871   7
  -8  -2  10 4.60883 2.65591   1
   9   2 -10 3.52457 3.31695   2
  -9  -2 -10 2.56052 2.17120   1
  -9   2 -10 3.54833 2.29597   1
   9  -2 -10 2.89438 2.61389   2
  10   2 -10 83.1426 5.45094   2
  10  -2 -10 83.4465 5.68375   2
   0   3 -10 73.4677 4.64468   1
   0  -3  10 79.6249 5.08542   1
   0   3 -10 80.7058 4.84021   7
   0  -3 -10 72.8101 4.75096   7
   0   3 -10 67.4312 5.01481   6
   0   3  10 83.1676 5.29211   7
   0  -3 -10 77.5554 4.90082   1
   0   3  10 84.4977 5.12104   1
   0  -3  10 79.5014 5.25946   7
   1   3 -10 14.5085 2.88422   7
  -1  -3 -10 11.4327 2.77647   1
  -1   3  10 10.9031 2.84083   1
  -1  -3 -10 15.8247 3.16918   7
   1   3 -10 6.79067 2.38829   1
   1  -3  10 12.8806 3.29037   7
   1  -3  10 13.3252 3.05432   1
  -1   3  10 6.59469 2.75552   7
   1   3 -10 20.1535 3.13638   6
   1  -3 -10 12.8308 2.93617   1
  -1  -3  10 13.4357 3.23630   7
  -1  -3  10 14.6898 3.17628   1
  -1   3 -10 9.60699 2.56148   7
  -1   3 -10 8.97854 2.66258   6
   1  -3 -10 13.0356 2.88588   7
  -1   3 -10 9.60566 2.48439   1
   1   3  10 14.1841 3.17050   7
   1   3  10 15.5776 3.31610   1
   2  -3  10 347.382 12.7178   7
   2   3 -10 336.740 12.1715   7
  -2  -3 -10 331.489 12.1482   1
   2  -3  10 353.829 12.5233   1
  -2   3  10 345.931 12.4946   1
   2   3 -10 337.755 13.0933   6
   2   3  10 356.513 12.6801   1
   2   3  10 323.035 12.6093   7
  -2   3 -10 333.838 12.6802   6
  -2   3 -10 339.519 12.1006   1
   2  -3 -10 330.168 12.2022   7
  -2  -3  10 346.441 12.4983   1
  -3  -3 -10 7.97929 2.63460   1
   3  -3  10 9.43438 2.87815   7
  -3   3  10 7.90873 2.60157   1
   3   3 -10 9.05203 3.01798   6
   3   3 -10 7.26950 2.52094   7
  -3   3 -10 10.5566 2.61121   1
   3   3  10 11.0116 3.09721   7
  -3  -3  10 7.50118 2.77264   1
  -3   3 -10 9.33474 2.69130   6
   3  -3 -10 5.00206 2.42144   7
  -4  -3 -10 52.5741 4.02955   1
   4  -3  10 62.7288 4.47462   7
   4   3 -10 59.7538 4.84458   6
  -4   3  10 58.0855 4.18815   1
   4   3 -10 58.7193 4.03590   7
  -4  -3  10 52.8765 4.31725   1
  -4   3 -10 53.1185 4.08374   1
  -4   3 -10 56.8946 4.25845   6
   4   3  10 62.8323 4.57037   7
   4  -3 -10 56.7826 4.20793   7
   5  -3  10 15.7115 3.21517   7
   5   3 -10 11.5142 2.69440   7
  -5  -3 -10 12.6123 2.92958   1
  -5   3  10 11.0975 2.73978   1
  -5   3 -10 12.4009 2.83581   1
   5  -3 -10 14.1084 2.91930   7
  -5  -3  10 15.7125 3.19548   1
   5   3  10 10.4980 2.95469   7
   6   3 -10 182.278 7.78161   7
   6  -3  10 202.905 8.51767   7
  -6   3  10 195.873 8.28275   1
  -6   3  10 205.708 9.75547   6
  -6  -3 -10 195.891 8.18862   1
  -6   3 -10 190.557 7.98838   1
   6  -3 -10 182.221 7.71042   7
   6   3  10 191.448 8.35608   7
  -6  -3  10 198.355 8.25757   1
   7  -3  10 5.00964 2.41977   7
  -7  -3 -10 9.17068 2.51973   1
  -7   3  10 3.23104 3.17433   6
  -7   3  10 3.63445 2.28470   1
   7   3 -10 6.33805 2.29406   7
   7   3  10 3.26079 2.28267   7
  -7  -3  10 1.74570 2.19360   1
   7  -3 -10 4.99693 2.17698   7
  -7   3 -10 7.83410 2.46762   1
  -8   3  10 23.6599 3.05647   1
  -8   3  10 32.5504 5.41414   6
  -8  -3 -10 26.3453 3.13524   1
   8  -3  10 27.7015 3.39546   7
   8   3 -10 22.8985 2.69933   7
   8  -3 -10 24.7578 2.80757   7
  -8   3 -10 20.7354 2.99049   1
  -8  -3  10 29.2106 3.28673   1
   8   3  10 29.0465 3.19459   7
  -9  -3 -10 8.34511 2.53708   1
   9   3  10 7.23575 3.14082   7
  -9   3 -10 6.99208 2.44858   1
  10  -3 -10 91.8055 6.36917   2
   0  -4  10 25.6101 4.04082   7
   0   4  10 21.3394 3.14828   1
   0   4 -10 22.2808 3.28134   6
   0   4 -10 26.0741 3.09579   7
   0   4  10 27.0213 4.17969   7
   0   4 -10 17.7719 2.88400   1
   0  -4 -10 25.4938 3.11730   1
   0  -4  10 23.7278 3.25554   1
   0  -4 -10 20.2988 2.99996   7
   1  -4  10 5.26370 2.50135   1
   1  -4  10 3.97233 2.72041   7
  -1   4  10 11.1226 3.08114   7
   1   4 -10 10.6041 2.61979   1
  -1  -4 -10 11.0007 2.87667   7
   1   4 -10 10.0813 3.02722   6
   1   4 -10 9.11938 2.62268   7
  -1  -4 -10 2.50965 2.18892   1
  -1   4  10 9.79453 2.84655   1
   1   4  10 6.08934 2.68479   7
  -1   4 -10 8.32756 2.80139   6
  -1  -4  10 12.9174 3.20363   7
   1  -4 -10 5.56919 2.44112   7
  -1   4 -10 7.36416 2.40558   7
  -1  -4  10 9.83239 2.99959   1
  -1   4 -10 7.95037 2.45527   1
   1  -4 -10 8.00229 2.63626   1
   1   4  10 6.35311 2.70009   1
  -2   4  10 330.473 12.4160   1
   2   4 -10 313.905 11.6669   7
   2   4 -10 318.145 12.6372   6
  -2  -4 -10 319.697 11.8605   1
   2  -4  10 344.570 12.6479   7
   2  -4  10 351.137 15.3935   1
   2   4  10 329.601 12.3728   1
  -2  -4  10 339.079 12.3441   1
  -2   4 -10 309.239 12.2821   6
   2  -4 -10 337.902 11.9596   7
   2   4  10 346.222 12.6169   7
  -2   4 -10 327.768 11.8064   1
   3   4 -10 7.54760 2.78741   6
   3  -4  10 5.98914 2.83965   7
  -3   4  10 8.67652 2.71290   1
  -3  -4 -10 6.58010 2.65595   1
   3   4 -10 8.59916 2.55966   7
  -3   4 -10 7.91552 2.50898   1
   3  -4 -10 9.26764 2.74945   7
  -3  -4  10 7.64478 2.78532   1
   3   4  10 6.68489 2.70514   7
  -3   4 -10 11.1917 2.73440   6
   4  -4  10 23.8287 3.80166   7
   4   4 -10 21.2076 2.90203   7
  -4  -4 -10 20.4027 3.51986   1
  -4   4  10 20.4527 3.47358   1
   4   4 -10 25.7553 4.47253   6
   4   4  10 21.5434 3.28558   7
   4  -4 -10 18.7467 2.86822   7
  -4   4 -10 20.0267 3.46549   1
  -4  -4  10 21.1041 3.12437   1
  -4   4 -10 17.4755 2.85492   6
  -5  -4 -10 12.1835 2.76693   1
  -5   4  10 4.96818 3.13518   6
  -5   4  10 7.35318 2.53300   1
   5   4 -10 12.7792 2.72373   7
   5  -4  10 10.0969 2.92242   7
   5   4 -10 9.95611 3.34116   6
   5  -4 -10 10.8286 2.59696   7
  -5  -4  10 7.99505 2.82962   1
   5   4  10 6.59672 2.57170   7
  -5   4 -10 8.67211 4.02540   6
  -5   4 -10 8.12135 2.48404   1
   6   4 -10 203.805 8.17482   7
  -6   4  10 197.242 9.69647   6
   6  -4  10 196.996 8.52334   7
  -6   4  10 189.946 8.22397   1
  -6  -4 -10 186.707 8.17793   1
  -6  -4  10 206.860 8.41527   1
  -6   4 -10 204.946 8.32439   1
   6  -4 -10 192.061 8.01781   7
   6   4  10 199.547 8.50534   7
  -7  -4 -10 5.66585 2.37433   1
   7  -4  10 5.04616 2.72768   7
   7   4 -10 5.16803 2.35742   7
  -7   4  10 8.52754 2.54799   1
  -7   4  10 12.3355 3.81032   6
   7   4  10 7.46623 2.58628   7
  -7  -4  10 6.76797 2.70818   1
   7  -4 -10 7.06264 2.29399   7
  -7   4 -10 3.89461 2.18295   1
   8  -4  10 14.7393 3.18985   7
  -8   4  10 14.3311 3.01641   1
  -8  -4 -10 14.3022 2.98331   1
  -8   4  10 13.4652 4.04363   6
   8   4 -10 10.5901 2.55838   7
   8   4  10 13.0824 2.96815   7
  -8   4 -10 9.89746 2.77082   1
  -8  -4  10 8.72550 2.88182   1
   8  -4 -10 14.7312 2.69995   7
  -9  -4 -10 5.24166 2.49672   1
   9   4  10 5.42790 2.15724   7
  -9   4 -10 4.56489 2.35738   1
  -9  -4  10 8.23643 2.88855   1
   0   5 -10 60.3567 4.34873   1
   0  -5  10 55.5944 4.54999   1
   0  -5 -10 58.0024 4.27766   1
   0   5  10 62.1270 4.55462   7
   0   5  10 60.1950 4.46844   1
   0  -5  10 49.6652 4.40514   7
   0   5 -10 55.2459 4.18962   7
   0  -5 -10 59.7774 4.37751   7
   0   5 -10 49.5704 4.38638   6
   1  -5  10 7.21416 2.76526   1
  -1  -5 -10 0.80592 2.09643   7
   1  -5  10 -0.8214 2.42881   7
  -1  -5 -10 5.37946 2.51341   1
   1   5 -10 5.23593 2.67804   6
   1   5 -10 2.16841 1.98556   1
  -1   5  10 3.60914 2.41351   1
  -1   5  10 4.00205 2.49278   7
   1   5 -10 5.00225 2.29588   7
   1  -5 -10 3.20691 2.18781   1
   1   5  10 6.22968 2.65286   1
   1  -5 -10 4.20539 2.30185   7
   1   5  10 3.69148 2.51559   7
  -1  -5  10 4.42142 2.48862   1
  -1   5 -10 1.58435 1.98108   7
  -1  -5  10 2.48159 2.58182   7
  -1   5 -10 2.70128 2.16648   6
  -1   5 -10 4.05270 2.22987   1
  -2  -5 -10 292.254 10.8227   1
  -2   5  10 296.974 11.2974   1
   2   5 -10 276.666 10.7034   7
   2   5 -10 277.632 11.6099   6
   2  -5  10 295.040 11.3861   7
   2  -5 -10 295.968 10.8364   7
  -2   5 -10 277.758 11.2587   6
  -2   5 -10 265.413 10.4972   1
   2   5  10 289.622 11.5139   7
  -2  -5  10 321.083 11.4593   1
  -3  -5 -10 7.49342 2.54406   1
  -3   5  10 2.73754 2.55559   6
   3   5 -10 1.78456 1.93973   7
  -3   5  10 2.38543 2.23147   1
   3  -5  10 2.99371 2.70531   7
   3   5 -10 8.96763 3.11776   6
   3   5  10 3.85860 2.46947   7
  -3   5 -10 6.64390 2.33071   1
  -3  -5  10 4.33460 2.67313   1
   3  -5 -10 5.16467 2.40570   7
  -3   5 -10 3.92879 2.35167   6
   4   5 -10 43.4204 4.43241   6
  -4   5  10 41.4063 4.56512   6
   4   5 -10 41.8508 3.67787   7
   4  -5  10 43.3615 4.14904   7
  -4  -5 -10 37.9751 3.77846   1
  -4   5  10 50.0933 4.02406   1
  -4   5 -10 45.0504 4.06945   6
  -4   5 -10 40.9189 3.81838   1
  -4  -5  10 40.7013 3.95678   1
   4  -5 -10 46.8508 3.89200   7
   4   5  10 48.8331 4.19261   7
   5  -5  10 2.71492 2.73125   7
  -5  -5 -10 2.96042 2.33602   1
  -5   5  10 2.96525 2.25289   1
  -5   5  10 1.09675 2.91106   6
   5   5 -10 0.86701 1.96611   7
   5   5 -10 1.92601 2.89087   6
   5  -5 -10 1.48968 2.04661   7
  -5   5 -10 2.88382 2.26379   6
  -5   5 -10 0.51232 1.91206   1
   5   5  10 0.62569 2.23208   7
  -5  -5  10 1.35435 2.41062   1
   6   5 -10 176.887 7.66150   7
  -6  -5 -10 177.468 7.75426   1
   6  -5  10 182.944 8.05442   5
  -6   5  10 179.304 9.11965   6
  -6   5  10 178.425 7.82331   1
   6  -5  10 184.302 8.19458   7
  -6   5 -10 168.786 7.59179   1
  -6  -5  10 178.697 7.88007   1
   6  -5 -10 175.412 7.53277   7
   6   5  10 188.582 8.06583   7
   7   5 -10 2.44743 2.02228   7
   7  -5  10 3.66425 2.51405   7
   7  -5  10 4.68766 2.86502   5
  -7   5  10 10.7111 3.67848   6
  -7   5  10 5.43163 2.35176   1
  -7  -5 -10 4.40642 2.28985   1
   7  -5 -10 5.97706 2.36757   7
   7   5  10 2.19418 2.23522   7
  -7  -5  10 4.83348 2.55580   1
  -7   5 -10 5.69854 2.20449   1
   8  -5  10 19.5813 3.21358   7
   8   5 -10 20.5209 2.86772   7
  -8  -5 -10 18.6564 3.02392   1
  -8   5  10 22.7439 3.04181   1
  -8   5 -10 22.3031 2.92327   1
   8  -5 -10 19.1550 2.79752   7
   8   5  10 22.0880 2.97401   7
  -8  -5  10 20.1348 3.20861   1
  -9  -5 -10 1.58622 2.16607   1
  -9   5  10 -0.6708 2.95378   1
  -9  -5  10 0.05343 2.35870   1
  -9   5 -10 1.72958 2.18913   1
   9   5  10 0.10162 2.03050   7
   0   6 -10 413.207 15.6401   6
   0  -6  10 456.146 15.3868   7
   0   6  10 440.905 15.5867   6
   0   6 -10 431.167 14.9001   1
   0   6 -10 456.345 15.1670   7
   0  -6 -10 438.451 15.0085   1
   0   6  10 420.676 15.1923   7
   0  -6 -10 454.554 15.2270   7
   0   6  10 431.708 15.1821   1
   0  -6  10 446.928 15.1930   1
   1   6 -10 -0.9256 1.85018   1
   1  -6  10 4.97304 2.84311   7
  -1   6  10 0.89023 2.27889   6
   1  -6  10 1.02289 2.25305   1
  -1  -6 -10 4.99509 2.51009   7
   1   6 -10 2.84786 2.14817   7
  -1  -6 -10 1.14600 2.27118   1
  -1   6  10 4.25156 2.56770   1
   1   6 -10 1.20121 2.36273   6
  -1   6 -10 2.55884 2.06827   7
  -1  -6  10 2.80136 2.60608   1
   1  -6 -10 -0.4450 2.13640   7
  -1   6 -10 1.56401 1.91922   1
   1   6  10 6.20142 2.63678   6
  -1  -6  10 1.97038 2.49349   7
   1   6  10 5.06568 2.50680   1
   1   6  10 1.43200 2.45833   7
  -1   6 -10 3.34235 2.33712   6
   1  -6 -10 3.14931 2.34245   1
   2   6 -10 33.4570 3.93443   6
   2   6 -10 31.5583 3.30923   7
  -2   6  10 28.0780 3.45007   1
   2  -6  10 34.2339 3.90837   7
  -2  -6 -10 35.7737 3.68666   1
  -2   6  10 28.5451 3.92812   6
  -2   6 -10 31.1421 3.64653   6
   2  -6 -10 27.8180 3.41856   7
   2   6  10 41.7701 5.78767   6
  -2   6 -10 22.0072 3.19132   1
   2   6  10 33.1996 3.82254   7
  -2  -6  10 26.2263 3.60656   1
   3  -6  10 3.88209 2.82279   7
  -3   6  10 -0.1082 2.13329   1
  -3   6  10 2.69978 2.55314   6
   3   6 -10 6.12019 2.89689   6
   3   6 -10 5.92637 2.24211   7
  -3  -6 -10 0.65898 2.16034   1
  -3   6 -10 6.71138 2.57705   6
  -3   6 -10 0.63223 1.90512   1
   3   6  10 0.93331 2.21960   7
   3  -6 -10 3.94689 2.31785   7
  -3  -6  10 5.09098 2.84179   1
  -4   6  10 352.662 12.5679   1
   4   6 -10 330.518 13.2294   6
  -4  -6 -10 320.482 12.0543   1
   4   6 -10 335.877 12.1285   7
   4  -6  10 329.425 12.5872   7
  -4   6  10 349.801 13.6460   6
   4  -6 -10 331.190 12.0683   7
  -4   6 -10 333.591 12.1275   1
   4   6  10 340.251 12.6855   7
  -4   6 -10 336.865 12.7430   6
  -4  -6  10 354.236 12.5662   1
   5  -6  10 -1.0663 2.53898   7
  -5   6  10 2.59633 2.26062   1
  -5   6  10 2.05219 2.63893   6
  -5  -6 -10 0.25474 2.12169   1
   5   6 -10 2.57312 2.03029   7
   5   6 -10 -1.2208 2.32480   6
   5   6  10 -0.1006 2.25949   7
  -5   6 -10 -2.7036 1.78569   6
  -5  -6  10 1.85795 2.28486   1
  -5   6 -10 1.11994 2.00495   1
   5  -6 -10 3.83245 2.34887   7
   6  -6  10 17.3080 3.64898   7
  -6   6  10 23.0054 4.60696   6
   6  -6  10 25.9442 3.89484   5
   6   6 -10 25.6155 3.69986   7
  -6   6  10 25.5117 3.78699   1
  -6  -6 -10 22.6219 3.59752   1
   6   6  10 19.4356 3.55339   7
   6  -6 -10 22.4573 3.49338   7
  -6   6 -10 19.2816 2.86721   1
  -6  -6  10 23.8393 3.87319   1
   7  -6  10 2.03156 2.46230   7
  -7   6  10 1.71772 2.06559   1
   7   6 -10 3.29238 2.17933   7
   7  -6  10 4.12821 2.81062   5
  -7   6  10 2.61522 3.58729   6
  -7  -6 -10 3.54027 2.42433   1
  -7  -6  10 3.11283 2.50038   1
   7  -6 -10 7.03091 2.28623   7
   7   6  10 3.00278 2.27553   7
  -7   6 -10 3.48661 2.20711   1
   8  -6  10 209.372 8.67600   7
  -8   6  10 217.474 8.56014   1
   8   6 -10 198.653 8.02686   7
   8  -6  10 196.996 9.07059   5
  -8  -6 -10 208.300 8.40462   1
   8  -6 -10 198.892 8.00425   7
  -8  -6  10 201.538 8.48184   1
  -8   6 -10 197.146 8.30052   1
   8  -6 -10 199.104 7.98312   7
   8   6  10 198.952 8.44130   7
  -9  -6 -10 4.14160 2.36380   1
  -9   6  10 -2.3226 1.94379   1
  -9  -6  10 2.19995 2.45316   1
  -9   6 -10 2.24009 2.14590   1
   0  -7  10 146.392 7.33927   7
   0   7  10 146.038 7.25126   7
   0   7 -10 143.040 7.13463   7
   0   7  10 145.985 7.51605   6
   0   7 -10 151.626 7.19196   1
   0  -7  10 159.150 7.51977   1
   0  -7 -10 159.055 7.41203   7
   0   7 -10 149.845 7.81777   6
   0  -7 -10 147.518 7.20702   1
   0   7  10 138.651 7.02199   1
  -1  -7 -10 3.20733 2.50383   7
   1   7 -10 1.65347 1.99603   1
   1   7 -10 1.77698 2.08016   7
  -1   7  10 1.41897 2.44534   1
   1   7 -10 -0.4881 2.23190   6
   1  -7  10 1.79142 2.80996   7
  -1   7  10 3.82431 2.77585   6
  -1  -7 -10 2.39799 2.24761   1
   1  -7  10 -1.3161 2.30793   1
  -1  -7  10 2.18983 2.69832   1
   1   7  10 4.99326 2.69999   7
   1   7  10 1.97924 2.40408   6
   1  -7 -10 2.35885 2.25580   7
  -1   7 -10 0.68440 2.01091   6
   1   7  10 3.54408 2.34034   1
   1  -7 -10 2.89895 2.27350   1
  -1   7 -10 1.16580 2.06734   7
  -1   7 -10 1.34242 2.19133   1
   2   7 -10 316.384 11.7598   7
   2   7 -10 317.385 12.7204   6
  -2   7  10 323.486 12.9440   6
   2  -7  10 346.126 12.4841   7
  -2  -7 -10 310.445 11.7211   1
  -2   7  10 329.164 12.3475   1
   2   7  10 335.061 12.5110   7
  -2   7 -10 315.878 11.7182   1
   2  -7 -10 305.355 11.6707   7
  -2  -7  10 326.580 12.4204   1
  -2   7 -10 307.685 12.3298   6
   3   7 -10 2.69006 2.57414   6
  -3   7  10 6.49763 2.66586   1
   3   7 -10 2.25861 2.02079   7
  -3   7  10 4.99400 2.74732   6
  -3  -7 -10 1.96221 2.30457   1
   3  -7  10 2.41230 2.69432   7
  -3   7 -10 3.99015 2.32454   1
  -3   7 -10 2.53335 2.21785   6
   3  -7 -10 1.22184 2.03752   7
  -3  -7  10 0.96040 2.51941   1
   3   7  10 0.48539 2.23228   7
   4   7 -10 114.528 6.07543   7
  -4   7  10 108.257 6.96708   6
   4   7 -10 118.728 7.00121   6
   4  -7  10 119.860 6.50442   7
  -4   7  10 113.495 6.20033   1
  -4  -7 -10 108.920 6.17844   1
   4   7  10 125.184 6.48582   7
   4  -7 -10 127.398 6.34135   7
  -4   7 -10 125.598 6.79512   6
   4  -7 -10 122.090 7.70083   4
  -4  -7  10 118.785 6.47952   1
  -4   7 -10 118.310 6.20461   1
  -5  -7 -10 1.22207 2.25310   1
   5   7 -10 0.51182 1.98269   7
   5  -7  10 -1.4978 2.47672   7
  -5   7  10 -1.6389 1.93018   1
   5   7 -10 -0.0080 2.29148   6
  -5   7  10 -1.4569 2.40314   6
  -5   7 -10 1.43073 2.07741   1
   5  -7 -10 5.50011 2.58329   7
   5  -7 -10 -0.2537 2.59350   4
   5   7  10 -0.8763 2.06014   7
  -5   7 -10 3.01306 2.24495   6
  -5  -7  10 6.23672 2.69555   1
  -6   7  10 217.931 9.08165   1
  -6  -7 -10 206.497 8.64850   1
  -6   7  10 229.037 10.6168   6
   6   7 -10 221.154 8.77582   7
   6  -7  10 221.162 9.37426   7
  -6  -7  10 226.607 9.23951   1
   6   7  10 227.199 9.37186   7
  -6   7 -10 201.039 8.52982   1
   6  -7 -10 204.363 8.51435   7
   7  -7  10 2.17587 2.70038   5
  -7   7  10 3.58149 2.25107   1
   7  -7  10 0.71908 2.37893   7
  -7  -7 -10 0.19432 2.12860   1
   7   7 -10 -0.1090 1.85230   7
   7  -7 -10 1.88622 2.07105   7
  -7   7 -10 0.09645 1.85171   1
   7   7  10 1.54797 2.08605   7
  -7  -7  10 -0.3527 2.30892   1
  -8  -7 -10 66.2309 4.66876   1
   8   7 -10 71.6854 4.43528   7
  -8   7  10 77.1021 4.86591   1
   8  -7  10 79.9518 5.58240   5
   8  -7  10 80.7527 5.13572   7
   8   7  10 73.8784 4.91407   7
   8  -7 -10 67.8107 4.40088   7
  -8   7 -10 70.5276 4.60909   1
  -8  -7  10 76.1255 5.03042   1
   8  -7 -10 70.6995 4.48823   7
  -9   7  10 1.41363 2.09438   1
  -9  -7 -10 -0.3612 2.09453   1
   9  -7  10 3.98002 3.25910   5
  -9   7 -10 0.45575 2.06181   1
  -9  -7  10 2.16815 2.50389   1
   0   8 -10 390.540 13.5765   7
   0  -8  10 377.628 13.7937   7
   0  -8 -10 351.045 13.2124   1
   0  -8 -10 383.544 13.5632   7
   0   8  10 389.407 13.8415   7
   0  -8  10 381.254 13.7668   1
   0   8  10 358.686 13.4968   1
   0   8 -10 351.801 14.0046   6
   0   8  10 366.838 13.9215   6
   0   8 -10 366.377 13.2195   1
  -1  -8 -10 -0.2662 2.41106   7
   1  -8  10 -1.4844 2.32808   1
  -1   8  10 -1.1917 2.15813   1
   1   8 -10 0.94968 2.11065   1
   1  -8  10 2.66918 2.77806   7
   1   8 -10 -0.8199 1.76760   7
  -1  -8 -10 2.45301 2.30823   1
   1   8 -10 -0.5115 2.04730   6
  -1   8  10 -2.2827 2.37995   6
  -1   8 -10 0.67242 2.05753   6
  -1  -8  10 -1.2669 2.59195   1
   1  -8 -10 0.71582 2.22798   7
   1   8  10 3.99717 2.56776   7
   1   8  10 0.67242 2.23826   1
  -1   8 -10 1.99742 2.20144   1
   1   8  10 0.37325 2.45759   6
  -2   8  10 543.464 19.2500   6
   2   8 -10 545.892 19.0270   6
  -2   8  10 579.945 18.7253   1
   2  -8  10 541.748 18.6236   7
   2   8 -10 529.202 17.9558   7
  -2  -8 -10 539.406 18.0152   1
   2   8  10 561.093 18.8669   7
  -2   8 -10 550.493 18.7950   6
   2  -8 -10 544.161 18.0317   7
  -2  -8  10 593.835 18.8447   1
  -2   8 -10 550.812 18.0823   1
  -3  -8 -10 -1.3234 2.03986   1
   3   8 -10 0.61734 1.93529   7
   3   8 -10 -1.7559 1.86407   6
   3  -8  10 1.72160 2.75387   7
  -3   8  10 0.45815 2.56706   6
  -3   8  10 -1.5897 2.30664   1
  -3   8 -10 0.10225 2.13056   6
   3   8  10 2.18121 2.43869   7
  -3  -8  10 -1.7553 2.35910   1
  -3   8 -10 1.29635 2.24498   1
   3  -8 -10 -0.9279 2.11682   7
  -4   8  10 270.407 10.8444   1
   4   8 -10 279.357 11.8739   6
  -4   8  10 290.872 12.1710   6
   4   8 -10 282.394 10.8286   7
  -4  -8 -10 279.725 10.9397   1
   4  -8  10 284.441 11.1379   7
  -4  -8  10 287.985 11.1345   1
   4  -8 -10 273.058 12.9105   4
  -4   8 -10 291.968 11.0175   1
   4  -8 -10 274.353 10.8857   7
   4   8  10 289.226 11.3016   7
  -4   8 -10 296.970 11.7618   6
  -5   8  10 -1.6972 2.54676   6
  -5   8  10 2.86038 2.52974   1
   5   8 -10 -1.7643 1.79610   7
   5  -8  10 -2.6565 2.27541   7
  -5  -8 -10 2.48969 2.29809   1
   5   8 -10 -3.3529 2.29057   6
  -5   8 -10 2.59836 2.48949   6
  -5  -8  10 -0.6959 2.28793   1
   5  -8 -10 -1.6443 2.67691   4
   5   8  10 1.94153 2.18800   7
   5  -8 -10 1.69263 2.32289   7
  -5   8 -10 0.14958 1.84794   1
  -6  -8 -10 344.350 12.5222   1
  -6   8  10 357.198 12.8261   1
   6   8 -10 361.881 12.5812   7
   6  -8  10 355.501 13.0385   7
  -6  -8  10 357.018 12.9488   1
  -6   8 -10 331.036 12.4006   1
   6  -8 -10 334.606 12.2438   7
   6  -8 -10 343.239 14.9575   4
   6   8  10 357.374 12.9675   7
   7  -8  10 2.85365 2.84595   5
   7  -8  10 -2.2965 2.36937   7
  -7   8  10 0.82780 2.20640   1
  -7  -8 -10 0.09718 2.17598   1
   7   8 -10 0.18703 1.99078   7
   7  -8 -10 -0.9426 2.02656   7
  -7   8 -10 0.40249 1.92942   1
   7  -8 -10 -4.1787 1.87095   7
  -7  -8  10 0.56410 2.41048   1
   7   8  10 0.62958 2.24287   7
  -8   8  10 158.826 7.30526   1
  -8  -8 -10 159.549 7.25561   1
   8  -8  10 157.640 7.86481   5
  -8  -8  10 169.686 7.53491   1
  -8   8 -10 144.604 7.02136   1
  -9   8  10 1.08932 2.16614   1
   9  -8  10 1.61098 2.99698   5
  -9  -8 -10 2.58157 2.42996   1
  -9  -8  10 1.38127 2.52356   1
  -9   8 -10 -1.9971 1.97357   1
   0  -9  10 26.5938 4.45845   7
   0   9  10 23.7805 3.98637   1
   0   9  10 21.1294 3.87952   7
   0   9 -10 18.8150 3.89189   6
   0   9 -10 21.1153 3.69489   1
   0  -9 -10 22.2095 3.36953   1
   0   9 -10 22.5122 3.26783   7
   0   9  10 20.0646 3.51957   6
   0  -9 -10 20.9868 3.83242   7
   0  -9  10 27.2591 4.22532   1
   1  -9  10 2.59287 2.93418   7
  -1   9  10 6.86645 3.04315   6
   1   9 -10 5.26443 2.59732   7
   1  -9  10 2.80411 2.87806   1
  -1   9  10 5.94897 2.74060   1
  -1  -9 -10 6.30306 2.81167   1
   1   9 -10 3.97003 2.52479   6
   1   9  10 3.61296 2.60740   7
   1   9  10 2.65685 2.47929   1
   1  -9 -10 6.04884 2.62686   7
  -1  -9  10 -0.5979 2.80489   1
  -1   9 -10 7.46864 2.77275   6
  -1   9 -10 1.31695 2.21594   1
  -2   9  10 312.562 12.4612   6
   2   9 -10 289.796 12.1265   6
   2  -9  10 288.680 11.7428   7
   2   9 -10 286.378 11.2164   7
  -2  -9 -10 297.113 11.2697   1
  -2   9  10 308.316 11.7643   1
  -2   9 -10 294.000 12.0185   6
  -2  -9  10 302.428 11.8152   1
  -2   9 -10 286.184 11.1556   1
   2  -9 -10 285.566 11.2464   7
   2   9  10 309.134 12.0175   7
   3   9 -10 3.85753 2.88281   6
  -3   9  10 7.14354 3.21570   6
  -3  -9 -10 1.88095 2.51597   1
   3   9 -10 5.54123 2.54072   7
   3  -9  10 6.95014 3.10917   7
  -3   9  10 3.44516 2.52012   1
  -3   9 -10 3.69863 2.25824   1
  -3  -9  10 5.07764 3.08477   1
   3  -9 -10 5.68243 2.76632   7
   3   9  10 7.81802 2.82998   7
  -3   9 -10 1.05717 2.31984   6
   4  -9  10 11.5741 3.24390   7
  -4   9  10 15.1484 3.48807   1
  -4   9  10 17.4639 4.22863   6
   4   9 -10 25.5310 4.47643   6
   4   9 -10 20.2233 3.61022   7
  -4  -9 -10 19.3239 3.70371   1
   4  -9 -10 21.6799 3.63697   7
   4   9  10 22.3514 3.79842   7
  -4   9 -10 18.7333 3.57737   1
  -4  -9  10 14.8576 3.56610   1
   4  -9 -10 16.7280 4.56341   4
  -4   9 -10 20.8425 4.10633   6
  -5  -9 -10 4.45533 2.56574   1
  -5   9  10 7.00401 2.60276   1
   5   9 -10 3.72324 2.16833   7
   5  -9  10 0.66114 2.59049   7
   5  -9 -10 6.86729 2.56035   7
  -5   9 -10 4.85214 2.36720   1
   5   9  10 4.96007 2.54043   7
  -5   9 -10 2.01802 2.23253   6
   5  -9 -10 4.78360 3.32921   4
  -5  -9  10 10.4035 2.96089   1
  -6  -9 -10 215.052 8.86733   1
   6   9 -10 209.177 8.76881   7
   6  -9  10 195.242 8.70883   7
  -6   9  10 204.393 8.63078   1
  -6  -9  10 199.866 8.74319   1
  -6   9 -10 206.369 8.74806   1
   6  -9 -10 198.807 8.63692   7
   6   9  10 191.838 8.67229   7
   6  -9 -10 202.494 11.3002   4
   6  -9 -10 203.040 8.71449   7
  -7  -9 -10 4.22863 2.57253   1
  -7   9  10 2.55566 2.18779   1
   7  -9 -10 -1.5752 3.01162   4
  -7   9 -10 2.25851 2.10175   1
  -7  -9  10 0.81994 2.68235   1
   8  -9  10 10.6912 3.42575   5
  -8   9  10 11.2606 2.93626   1
  -8  -9 -10 13.3732 3.37252   1
  -8  -9  10 16.5923 3.55667   1
  -8   9 -10 12.7673 2.97087   1
   9  -9  10 2.79440 3.01955   5
   0  10  10 140.930 7.42097   6
   0  10  10 124.874 8.99524   7
   0 -10  10 132.736 7.17897   7
   0  10 -10 123.084 6.48991   7
   0  10 -10 113.984 6.93643   6
   0  10 -10 129.247 6.63070   1
   0  10  10 124.331 6.81455   1
   0 -10 -10 123.383 6.59501   7
   0 -10  10 134.558 7.17912   1
   0 -10 -10 107.861 6.42338   1
  -1  10  10 5.74354 2.94899   6
  -1  10  10 6.49740 2.83620   1
  -1 -10 -10 6.84805 2.94412   1
   1  10 -10 6.59561 2.52797   7
   1  10 -10 2.97847 2.58848   6
   1 -10  10 3.89120 3.06499   7
   1  10  10 4.30392 2.51939   7
   1  10  10 4.24144 2.62446   1
  -1  10 -10 7.51026 2.76195   6
   1 -10 -10 3.30933 2.60562   7
  -1 -10  10 9.04401 3.39255   1
  -1  10 -10 11.0421 2.88138   1
  -2  10  10 123.600 7.24063   6
  -2 -10 -10 123.802 6.59160   1
  -2  10  10 121.054 6.76520   1
   2 -10  10 125.006 6.91903   7
   2  10 -10 120.248 6.39543   7
   2  10 -10 121.665 7.07968   6
   2  10  10 124.244 6.73305   7
  -2 -10  10 129.756 6.98646   1
   2 -10 -10 123.000 6.60739   7
  -2  10 -10 119.626 6.36056   1
  -2  10 -10 120.999 6.99816   6
   3 -10  10 2.40584 2.88815   7
  -3 -10 -10 4.50267 2.57745   1
   3  10 -10 5.72094 2.43555   7
   3  10 -10 5.47271 3.00843   6
  -3  10  10 6.98793 3.21825   6
  -3  10  10 9.46529 3.01816   1
   3  10  10 2.34100 2.54025   7
  -3  10 -10 5.72422 2.87107   6
   3 -10 -10 4.74250 2.74141   7
  -3 -10  10 5.96227 3.22603   1
  -3  10 -10 6.53021 2.61899   1
   4  10 -10 95.6524 6.43309   6
  -4  10  10 103.339 6.01581   1
  -4 -10 -10 103.285 6.12019   1
   4  10 -10 116.027 6.15381   7
   4 -10  10 102.295 6.19686   7
   4  10  10 106.197 6.15341   7
  -4 -10  10 101.935 6.26358   1
  -4  10 -10 105.071 5.99457   1
   4 -10 -10 106.801 6.11134   7
   4 -10 -10 108.587 6.10646   7
   4 -10 -10 110.710 8.38669   4
  -5  10  10 9.50155 2.87658   1
  -5 -10 -10 5.95931 2.77793   1
   5  10 -10 1.90774 2.21789   7
   5 -10  10 4.54913 2.65426   7
   5 -10 -10 6.58537 2.65959   7
  -5  10 -10 5.09854 2.38178   1
  -5 -10  10 1.87200 2.75736   1
   5  10  10 3.16386 2.63190   7
   5 -10 -10 -0.3063 3.35714   4
   5 -10 -10 2.24902 2.48626   7
   6  10 -10 80.7787 6.34918   7
  -6  10  10 72.4658 5.00742   1
   6 -10  10 72.4552 6.48175   7
  -6 -10 -10 68.6201 5.00395   1
   6  10  10 68.3326 7.16892   7
  -6 -10  10 83.9085 5.34948   1
   6 -10 -10 71.1553 5.65640   7
  -6  10 -10 70.8568 4.86561   1
   6 -10 -10 78.9410 6.57477   7
   6 -10 -10 72.6485 7.27034   4
  -7  10  10 6.06829 2.67052   1
  -7 -10 -10 1.47790 2.53966   1
  -7 -10  10 1.33458 2.69338   1
  -7  10 -10 2.76213 2.19421   1
   8 -10  10 55.0855 6.20424   5
  -8  10  10 57.0011 4.91784   1
  -8  10 -10 72.9091 6.69887   1
  -8 -10  10 66.4552 5.58367   1
   0  11 -10 56.0555 4.35695   1
   0  11  10 62.8810 4.92644   1
   0  11  10 60.2875 5.17369   6
   0  11 -10 54.6170 4.50951   7
   0  11 -10 47.7692 4.58525   6
   0 -11 -10 52.9189 4.53884   1
   0 -11  10 68.0429 5.31430   1
   0 -11 -10 50.9557 4.64212   7
  -1  11  10 2.52123 2.77388   6
  -1  11  10 3.53904 2.72246   1
  -1 -11 -10 -2.4735 2.26687   1
   1  11 -10 3.84668 2.29962   7
   1 -11  10 1.79113 3.02434   7
   1  11 -10 7.55960 3.01932   6
  -1  11 -10 1.62519 2.15306   1
   1 -11 -10 -0.2380 2.48349   7
  -1  11 -10 3.06550 3.02713   6
   1  11  10 2.99625 2.52098   7
  -1 -11  10 3.03003 2.95609   1
  -2  11  10 61.8844 4.89316   1
   2  11 -10 72.2392 4.92752   7
   2 -11  10 73.0972 5.46675   7
   2  11 -10 61.2287 5.14670   6
  -2  11  10 75.0354 5.70983   6
  -2 -11 -10 59.1732 4.94548   1
  -2  11 -10 63.2530 4.64022   1
   2 -11 -10 66.5730 4.95489   7
   2 -11 -10 68.9921 5.03747   7
  -2 -11  10 58.3173 5.07918   1
   2  11  10 60.4245 5.06315   7
  -3 -11 -10 1.00673 2.82763   1
   3 -11  10 3.65196 3.05815   7
  -3  11  10 6.25914 2.89747   1
   3  11 -10 3.38953 2.14880   7
   3  11 -10 1.83873 2.73649   6
   3  11  10 5.63289 2.82149   7
  -3 -11  10 2.73243 3.06544   1
  -3  11 -10 2.20359 2.18530   1
   3 -11 -10 3.53075 2.62013   7
   3 -11 -10 2.63041 2.44374   7
  -4 -11 -10 52.2619 4.63471   1
  -4  11  10 43.3114 4.26988   1
   4  11 -10 44.3028 4.08998   7
   4 -11  10 45.9995 4.50010   7
  -4 -11  10 46.4396 4.60595   1
  -4  11 -10 46.5142 4.07013   1
   4  11  10 36.4567 4.01638   7
   4 -11 -10 32.3920 3.92025   7
   4 -11 -10 40.6317 4.22145   7
   4 -11 -10 42.7292 6.05776   4
   5 -11  10 1.92023 3.44884   7
  -5  11  10 3.28888 2.52872   1
   5  11 -10 3.60155 2.83918   7
  -5 -11 -10 2.00572 2.61999   1
   5  11  10 5.43458 3.08340   7
   5 -11 -10 2.64864 3.82502   4
  -5 -11  10 4.61326 3.00165   1
   5 -11 -10 2.32995 3.65889   7
  -5  11 -10 -0.9448 1.94544   1
   5 -11 -10 0.76536 2.98427   7
  -6  11  10 41.3632 4.00316   1
  -6 -11 -10 38.8580 4.00447   1
  -6 -11  10 45.2543 4.46345   1
  -6  11 -10 33.6820 3.70589   1
  -7 -11 -10 3.71818 2.67995   1
  -7  11  10 3.91100 2.52149   1
  -7  11 -10 3.63733 2.38320   1
  -7 -11  10 10.4923 3.30598   1
   0 -12  10 218.045 9.71401   1
   0  12  10 215.861 9.66410   1
   0 -12 -10 202.285 9.21191   7
   0  12 -10 200.782 8.98448   1
   0 -12 -10 219.661 9.49535   7
  -1  12  10 5.91622 2.92537   1
   1  12 -10 8.69942 2.74952   7
  -1 -12 -10 5.74315 2.87811   1
   1 -12  10 7.69357 3.42701   7
  -1 -12  10 9.79401 3.40055   1
   1 -12 -10 8.63065 3.23599   7
   1  12  10 10.4938 3.06557   7
  -1  12 -10 9.20166 2.82080   1
   1 -12 -10 3.45473 2.78159   7
   2  12 -10 7.85060 2.80372   7
  -2 -12 -10 11.3923 3.48238   1
  -2  12  10 9.56738 3.30968   1
   2 -12  10 13.6332 3.63083   7
   2  12  10 10.5080 3.34713   7
  -2 -12  10 13.8326 3.90693   1
   2 -12 -10 6.26258 3.07328   7
  -2  12 -10 8.01319 2.86195   1
   2 -12 -10 7.65005 2.88839   7
  -3  12  10 6.39272 2.73426   1
   3 -12  10 13.9241 3.69806   7
   3  12 -10 13.6889 3.13640   7
  -3 -12 -10 10.8320 3.27448   1
  -3 -12  10 11.8707 3.56615   1
   3  12  10 12.2347 3.25080   7
   3 -12 -10 14.3971 3.39359   7
  -3  12 -10 5.87418 2.53172   1
   3 -12 -10 6.89894 2.88358   7
  -4 -12 -10 162.406 7.86014   1
  -4  12  10 170.045 8.03749   1
   4 -12 -10 168.781 10.8593   4
  -4 -12  10 170.836 8.29937   1
  -4  12 -10 162.848 7.75666   1
  -5  12  10 1.85217 2.44982   1
  -5 -12 -10 7.22270 3.09274   1
  -5  12 -10 6.20548 2.51268   1
  -5 -12  10 2.59196 3.05192   1
  -6 -12 -10 9.31287 3.24816   1
  -6  12  10 4.66105 2.81846   1
  -6 -12  10 5.42788 3.29068   1
  -6  12 -10 7.96400 2.74379   1
   0  13  10 132.345 7.25995   1
   1  13 -10 7.15698 2.70875   7
   1 -13  10 6.58659 3.49025   7
  -1  13  10 9.19893 3.26187   1
  -1 -13 -10 2.71909 2.87725   1
   1 -13 -10 4.93171 3.01717   7
  -1 -13  10 6.18454 3.31040   1
   1  13  10 4.48852 2.74366   7
  -1  13 -10 5.81611 2.63479   1
  -2  13  10 1.96785 2.89590   1
  -2 -13 -10 6.26400 3.11259   1
   2 -13  10 -3.8721 2.99184   7
   2  13 -10 1.95102 2.21114   7
   2  13  10 -0.8467 2.40500   7
  -2  13 -10 0.55561 2.36843   1
  -2 -13  10 -2.4616 2.67929   1
   2 -13 -10 -0.7093 2.78071   7
  -3  13  10 2.82376 2.57174   1
  -3 -13 -10 6.04379 3.02110   1
  -3 -13  10 8.77692 3.60326   1
  -3  13 -10 6.06214 2.54262   1
  -4 -13 -10 91.5211 5.83423   1
  -4  13  10 98.8680 6.16263   1
  -4  13 -10 94.4764 5.74395   1
  -4 -13  10 105.519 6.32102   1
  -5  13  10 6.64133 3.05817   1
  -5 -13 -10 2.43052 3.00937   1
  -5 -13  10 5.16888 3.55952   1
  -5  13 -10 2.54679 2.62463   1
  -1  14  10 3.91427 2.76584   1
  -1 -14 -10 2.58447 3.06392   1
  -1 -14  10 0.95489 3.18469   1
  -1  14 -10 1.00047 2.23994   1
  -2  14  10 231.343 10.1955   1
  -2 -14 -10 207.548 9.54169   1
  -2  14 -10 217.159 9.41250   1
  -2 -14  10 249.667 10.4983   1
  -3  14  10 1.80720 2.62733   1
  -3 -14 -10 0.11069 2.89813   1
  -3 -14  10 1.05908 3.18245   1
  -3  14 -10 -0.1160 2.21505   1
  -1  15  10 -1.6636 2.65294   1
  -1  15 -10 0.17694 3.05631   1
  -1 -15  10 -1.4415 2.91984   1
   0   0 -11 1.28700 2.08556   1
   0   0 -11 0.98197 2.07513   7
   0   0  11 2.99513 2.41595   1
   0   0  11 -5.4610 1.96892   7
   0   0 -11 -0.8345 2.00358   6
  -1   0  11 13.9779 3.39143   7
  -1   0 -11 9.74798 2.79254   1
  -1   0 -11 15.6632 3.37416   6
  -1   0  11 10.9609 3.22929   1
   1   0 -11 12.1781 3.19979   6
   1   0  11 12.7919 3.38946   7
  -1   0 -11 9.36606 2.88542   7
   1   0  11 18.9232 3.55394   1
   1   0 -11 12.6250 3.01610   1
   1   0 -11 13.0948 2.97814   7
  -2   0 -11 -2.1279 1.80551   6
   2   0  11 -1.4523 2.32658   7
  -2   0  11 -1.9509 2.26802   1
  -2   0 -11 -0.5606 1.88491   1
   2   0 -11 1.30593 2.21541   7
   3   0 -11 13.7650 3.11365   7
   3   0  11 9.60445 3.23467   7
  -3   0  11 13.3483 3.40818   1
  -3   0 -11 14.1761 3.01621   1
  -3   0 -11 12.4062 2.91862   6
  -4   0 -11 0.38593 2.01920   1
  -4   0  11 4.41126 2.70388   1
   4   0  11 0.97499 2.30048   7
   4   0 -11 -0.2115 1.81634   7
  -5   0  11 3.89778 2.46852   1
   5   0 -11 9.50889 2.63884   7
   5   0  11 8.36893 2.88856   7
  -5   0 -11 4.76368 2.53412   1
  -6   0 -11 0.85252 1.95636   1
   6   0  11 -0.8417 2.16519   7
   6   0 -11 0.20663 2.00478   7
  -6   0  11 -2.2139 2.06917   1
   7   0  11 11.4566 2.89573   7
  -7   0  11 7.83978 2.78195   1
  -7   0 -11 12.5974 2.90757   1
   7   0 -11 9.75716 2.73221   7
  -8   0  11 -0.7123 2.08669   1
   8   0  11 3.78797 2.47430   7
   8   0 -11 0.25296 1.97238   7
  -8   0 -11 3.00196 2.05176   1
   9   0  11 4.44892 2.47948   7
  -9   0 -11 6.81081 2.52113   1
  -9   0  11 -1.0726 2.66828   1
   0  -1  11 0.36185 2.25914   1
   0   1  11 2.79680 2.31126   7
   0  -1 -11 0.83080 2.08912   1
   0  -1  11 0.62148 2.33560   7
   0   1 -11 4.59776 2.27539   7
   0  -1 -11 -0.0802 1.92404   7
   0   1 -11 -2.3664 1.94851   6
   0   1  11 -1.4202 2.09269   1
   0   1 -11 2.24786 2.09617   1
   1   1 -11 7.62681 2.68659   1
  -1   1  11 17.8062 3.54817   7
  -1  -1 -11 7.90846 2.64209   6
  -1  -1 -11 8.08445 2.64060   1
   1   1 -11 8.51899 2.66650   7
   1   1 -11 7.59521 2.92014   6
  -1   1  11 9.91696 3.07191   1
   1  -1  11 11.8660 3.24275   7
  -1  -1 -11 5.61810 2.54499   7
   1  -1  11 5.16208 2.66733   1
  -1  -1  11 10.1275 3.04683   7
   1   1  11 4.04644 2.66536   7
  -1   1 -11 12.5576 2.99041   1
   1   1  11 5.13802 2.63876   1
  -1   1 -11 13.8084 3.16803   6
  -1   1 -11 7.47941 2.65474   7
   1  -1 -11 9.40973 2.83611   1
   1  -1 -11 8.69534 2.69038   7
  -1  -1  11 12.5378 3.15922   1
   2  -1  11 76.3959 5.19950   7
  -2  -1 -11 80.5206 5.06026   1
  -2   1  11 80.9588 5.17850   1
  -2  -1 -11 85.8632 5.32067   6
   2   1 -11 73.6381 5.46637   6
   2   1 -11 83.1829 5.07127   7
  -2   1 -11 84.1521 5.12119   1
   2  -1 -11 75.3250 4.94321   7
  -2  -1  11 81.2773 5.17632   1
   2   1  11 72.1008 5.16002   7
  -2   1 -11 79.9837 5.19320   6
   3   1 -11 7.74714 2.73402   7
   3  -1  11 3.70850 2.94145   7
  -3  -1 -11 9.16529 2.70702   6
  -3   1  11 11.4987 3.16894   1
  -3  -1 -11 12.7636 2.91108   1
  -3   1 -11 8.46366 2.79721   1
  -3  -1  11 7.87283 2.94878   1
   3  -1 -11 12.0139 2.74990   7
  -3   1 -11 11.0274 2.76307   6
   3   1  11 13.2621 3.30234   7
   4  -1  11 2.74033 2.58584   7
  -4   1  11 2.87109 2.28921   1
  -4  -1 -11 -1.4033 1.86366   1
   4   1 -11 -2.7428 1.69434   7
  -4   1 -11 5.25416 2.33914   1
   4   1  11 2.33470 2.40546   7
  -4  -1  11 0.50451 2.18345   1
   4  -1 -11 -0.2187 1.89972   7
  -5  -1 -11 3.76352 2.39498   1
   5   1 -11 6.49169 2.51872   7
   5  -1  11 7.01710 2.71611   7
  -5   1  11 3.61498 2.57990   1
  -5   1 -11 6.78588 2.56376   1
  -5  -1  11 3.45209 2.60100   1
   5   1  11 5.52039 2.69968   7
   5  -1 -11 8.10606 2.57596   7
  -6   1  11 48.1925 4.05032   1
  -6  -1 -11 48.2681 3.97191   1
   6   1 -11 49.6494 3.82391   7
   6  -1  11 46.4962 4.24857   7
   6  -1 -11 54.8145 4.04607   7
  -6   1 -11 43.2146 3.77489   1
  -6  -1  11 49.7456 4.11657   1
   6   1  11 56.3126 4.27692   7
   7  -1  11 7.02948 2.73459   7
  -7  -1 -11 7.26750 2.68097   1
   7   1 -11 9.07610 2.54415   7
  -7   1  11 8.83506 2.72413   1
  -7  -1  11 10.5902 2.96893   1
  -7   1 -11 3.99989 2.59055   1
   7  -1 -11 4.23075 2.36559   7
   7   1  11 7.24461 2.79761   7
  -8   1  11 2.53695 2.29315   1
   8   1 -11 0.38157 2.01314   7
  -8  -1 -11 7.68552 2.49973   1
   8  -1  11 1.00352 2.30172   7
  -8  -1  11 4.16693 2.47814   1
   8  -1 -11 1.59566 1.89954   7
  -8   1 -11 4.16598 2.14517   1
   8   1  11 3.02178 2.41389   7
  -9  -1 -11 4.13026 2.34652   1
   9  -1  11 5.39985 2.61450   7
  -9   1  11 4.71181 3.15967   1
  -9   1 -11 5.67501 2.35735   1
   9   1  11 1.99960 2.24057   7
  -9  -1  11 0.00582 2.51732   1
   0  -2  11 274.355 10.6429   7
   0   2 -11 283.871 10.6786   7
   0  -2 -11 256.748 10.5206   7
   0  -2 -11 276.705 10.5750   1
   0   2 -11 273.218 10.5496   1
   0   2  11 237.364 10.2790   7
   0  -2  11 266.232 10.5457   1
   0   2 -11 270.408 11.2149   6
   0   2  11 282.876 10.5403   1
  -1  -2 -11 3.12151 2.24592   1
   1   2 -11 4.76068 2.55449   6
  -1   2  11 2.96892 2.48103   7
  -1   2  11 3.75803 2.47203   1
   1   2 -11 7.60885 2.69886   1
   1   2 -11 4.96253 2.42157   7
   1  -2  11 5.80558 2.74031   7
   1  -2  11 2.25960 2.42595   1
  -1  -2 -11 1.52608 2.32013   7
   1  -2 -11 3.83682 2.29209   1
  -1   2 -11 2.85859 2.39860   6
   1   2  11 3.13482 2.69819   7
  -1  -2  11 5.49322 2.87882   7
  -1   2 -11 3.54248 2.30367   1
  -1  -2  11 4.53435 2.59845   1
   1   2  11 1.18928 2.19716   1
   1  -2 -11 6.19635 2.59498   7
  -1   2 -11 1.34157 2.04611   7
   2   2 -11 188.391 8.86456   6
  -2  -2 -11 173.747 7.84316   1
  -2   2  11 175.735 7.96894   1
   2   2 -11 163.218 7.68912   7
   2  -2  11 187.280 8.34283   7
   2   2  11 172.753 8.12044   7
   2  -2 -11 187.788 8.05575   7
  -2  -2  11 175.550 7.96413   1
  -2   2 -11 178.017 7.94215   1
  -2   2 -11 172.734 8.17709   6
  -3   2  11 1.33608 2.36966   1
   3   2 -11 4.31085 2.26725   7
   3  -2  11 3.06219 2.79817   7
  -3  -2 -11 5.88242 2.36036   1
   3   2 -11 3.18500 2.72162   6
  -3   2 -11 5.89783 2.49940   1
  -3   2 -11 2.28156 2.03259   6
   3   2  11 4.71583 2.55787   7
  -3  -2  11 8.93814 2.89742   1
   3  -2 -11 2.26509 2.16893   7
   4   2 -11 206.428 8.56102   7
   4  -2  11 196.303 8.75386   7
  -4   2  11 210.015 8.65176   1
  -4  -2 -11 200.915 8.56528   1
  -4   2 -11 208.859 8.72608   1
  -4  -2  11 208.806 8.62173   1
   4  -2 -11 198.650 8.53816   7
   4   2  11 188.409 8.58040   7
  -4   2 -11 200.158 8.77209   6
  -5   2  11 3.30040 2.30164   1
   5   2 -11 3.18600 2.28289   7
   5  -2  11 4.44234 2.75874   7
  -5  -2 -11 4.35096 2.35640   1
   5  -2 -11 3.97212 2.33441   7
   5   2  11 2.25903 2.52519   7
  -5  -2  11 4.44196 2.53612   1
  -5   2 -11 2.64056 2.26880   1
   6  -2  11 132.007 6.65545   7
  -6  -2 -11 131.655 6.47116   1
  -6   2  11 132.507 6.45490   1
   6   2 -11 129.718 6.27629   7
  -6  -2  11 122.492 6.42162   1
   6   2  11 129.724 6.68509   7
   6  -2 -11 122.255 6.26716   7
  -6   2 -11 117.579 6.26678   1
  -7   2  11 3.32957 2.25335   1
  -7  -2 -11 5.15937 2.40672   1
  -7   2  11 5.61499 3.47378   6
   7  -2  11 5.05655 2.79374   7
   7   2 -11 2.82241 1.94269   7
  -7  -2  11 6.14011 2.70216   1
  -7   2 -11 3.90760 2.26207   1
   7  -2 -11 1.83483 2.08492   7
   7   2  11 3.89338 2.58646   7
  -8  -2 -11 116.444 6.03672   1
   8   2 -11 115.709 5.63305   7
   8  -2  11 117.448 6.11259   7
  -8   2  11 114.857 5.96820   1
   8  -2 -11 115.454 5.69850   7
  -8   2 -11 113.098 6.02016   1
  -8  -2  11 124.186 6.23149   1
   8   2  11 115.873 6.02967   7
   9  -2  11 1.30284 2.34672   7
  -9  -2 -11 1.42311 2.22575   1
  -9   2  11 4.34795 2.81123   1
  -9   2 -11 1.32765 2.15666   1
  -9  -2  11 0.27844 2.47401   1
   9   2  11 -0.2531 2.15962   7
   0  -3  11 2336.66 65.3820   1
   0  -3 -11 2241.90 63.0425   7
   0  -3  11 2309.49 65.5275   7
   0   3 -11 2329.83 62.9946   1
   0  -3 -11 2204.11 62.9326   1
   0   3 -11 2167.31 63.7055   6
   0   3  11 2337.95 65.3690   1
   0   3  11 2350.86 65.5928   7
   0   3 -11 2283.08 63.1593   7
  -1  -3 -11 4.29816 2.47404   7
   1  -3  11 4.76530 2.54299   1
  -1   3  11 6.66371 2.97299   7
  -1  -3 -11 1.38382 2.02484   1
   1   3 -11 3.43490 2.18248   7
   1   3 -11 2.57553 2.37395   6
  -1   3  11 1.49783 2.32837   1
   1  -3  11 -0.8226 2.42329   7
   1   3 -11 2.28810 2.20889   1
  -1  -3  11 3.65665 2.67993   7
   1   3  11 3.28667 2.64812   7
  -1   3 -11 3.24262 2.28757   7
  -1  -3  11 1.36540 2.38574   1
   1   3  11 0.43463 2.43840   1
  -1   3 -11 -0.0492 2.02802   6
   1  -3 -11 2.58907 2.29006   1
  -1   3 -11 5.85146 2.40706   1
   1  -3 -11 1.78077 2.14859   7
  -2   3  11 53.5029 4.30172   1
   2   3 -11 44.8556 3.82462   7
   2  -3  11 50.7469 4.31786   7
   2   3 -11 45.4124 4.38902   6
  -2  -3 -11 42.0787 3.93516   1
  -2   3 -11 46.0523 3.86765   1
   2   3  11 47.7316 4.27509   7
  -2  -3  11 44.0542 4.18649   1
  -2   3 -11 45.1923 4.08257   6
   2  -3 -11 45.2562 4.02394   7
   3  -3  11 -2.4025 2.14638   7
   3   3 -11 1.58257 2.09073   7
  -3   3  11 3.03621 2.44628   1
  -3  -3 -11 1.00540 2.09042   1
   3   3 -11 2.38225 2.57434   6
  -3  -3  11 1.99107 2.56063   1
   3  -3 -11 1.39122 2.08489   7
  -3   3 -11 2.29325 2.11615   6
   3   3  11 0.49073 2.28010   7
  -3   3 -11 3.07806 2.27167   1
   4   3 -11 1787.91 50.0812   7
  -4   3  11 1771.84 50.9484   1
   4  -3  11 1807.03 51.3032   7
  -4  -3 -11 1724.51 50.0512   1
   4   3 -11 1762.21 51.5882   6
   4   3  11 1804.05 51.3397   7
  -4   3 -11 1763.17 50.5112   6
   4  -3 -11 1820.21 50.2034   7
  -4   3 -11 1702.25 50.0063   1
  -4  -3  11 1809.12 51.0721   1
  -5  -3 -11 5.03645 2.31327   1
  -5   3  11 5.55907 2.40613   1
   5  -3  11 6.05650 2.71816   7
   5   3 -11 4.19018 2.32683   7
  -5  -3  11 4.33634 2.65131   1
  -5   3 -11 1.97161 2.16782   1
   5  -3 -11 5.45026 2.43965   7
   5   3  11 4.34623 2.58445   7
   6  -3  11 28.8727 3.75245   7
  -6   3  11 38.5719 4.80728   6
   6   3 -11 39.7764 3.60002   7
  -6  -3 -11 31.6029 3.58423   1
  -6   3  11 42.4349 3.88164   1
   6  -3 -11 36.2424 3.59439   7
  -6   3 -11 33.3724 3.54059   1
   6   3  11 43.9295 4.06669   7
  -6  -3  11 40.2990 3.83901   1
  -7   3  11 0.06448 2.96582   6
   7   3 -11 0.06958 1.86258   7
   7  -3  11 -2.1621 2.21201   7
  -7  -3 -11 3.42415 2.33408   1
  -7   3  11 -0.0987 2.27805   1
  -7   3 -11 1.01967 2.00777   1
   7   3  11 -1.1401 2.16773   7
  -7  -3  11 0.76606 2.31564   1
   7  -3 -11 -1.2755 1.89264   7
   8  -3  11 950.127 28.7046   7
  -8  -3 -11 985.684 28.6329   1
  -8   3  11 999.472 28.8666   1
   8   3 -11 921.770 27.9710   7
  -8  -3  11 977.192 28.7530   1
  -8   3 -11 975.414 28.6231   1
   8  -3 -11 925.591 27.8736   7
   8   3  11 921.924 28.5543   7
  -9   3  11 -1.3966 2.18867   1
  -9  -3 -11 1.51712 2.30124   1
  -9  -3  11 7.55597 2.78668   1
  -9   3 -11 -0.2514 2.09932   1
   0   4  11 1039.84 31.0603   7
   0  -4  11 1018.50 30.8423   1
   0   4 -11 1025.78 30.8461   7
   0  -4 -11 1078.00 30.9518   1
   0  -4 -11 1017.40 30.9076   7
   0  -4  11 969.369 30.7160   7
   0   4 -11 1036.58 30.7516   1
   0   4  11 1069.88 30.9540   1
   0   4 -11 974.513 31.4602   6
   1   4 -11 0.77117 1.93590   1
  -1   4  11 5.35030 2.77751   1
   1  -4  11 1.96385 2.40758   7
   1   4 -11 0.57458 2.10691   6
  -1  -4 -11 2.42953 2.25447   1
   1   4 -11 -1.0552 1.65298   7
   1  -4  11 -2.6827 2.11168   1
  -1  -4 -11 -2.3665 1.89177   7
  -1   4 -11 -0.1266 1.82545   7
  -1  -4  11 -0.0018 2.42910   1
  -1  -4  11 5.24178 3.83610   7
  -1   4 -11 0.28443 1.88205   1
  -1   4 -11 -0.7375 1.96285   6
   1  -4 -11 0.86159 2.02530   1
   1   4  11 2.29097 2.70126   7
   1  -4 -11 -3.2700 1.84629   7
   1   4  11 -1.3350 2.22343   1
   2   4 -11 353.116 12.4832   7
  -2  -4 -11 342.038 12.4572   1
   2   4 -11 324.467 13.1837   6
  -2   4  11 315.450 12.3033   1
   2  -4  11 342.560 12.6311   7
  -2   4 -11 318.034 12.8026   6
   2  -4 -11 343.779 12.4756   7
  -2  -4  11 341.542 12.4937   1
   2   4  11 330.732 12.5982   7
  -2   4 -11 334.237 12.2835   1
   3   4 -11 -2.5189 2.28352   6
  -3   4  11 3.20235 2.57523   1
  -3  -4 -11 1.04375 2.25418   1
   3  -4  11 1.36044 2.55457   7
   3   4 -11 -1.6698 1.68315   7
  -3   4 -11 0.42555 1.99122   6
  -3  -4  11 2.35357 2.62445   1
  -3   4 -11 1.00292 2.04310   1
   3  -4 -11 0.93379 2.15955   7
   3   4  11 -0.5331 2.26265   7
  -4   4  11 752.299 24.1971   1
   4   4 -11 786.432 25.8631   6
  -4  -4 -11 813.930 24.5896   1
   4   4 -11 792.585 24.4171   7
   4  -4  11 780.948 24.5380   7
  -4   4 -11 758.573 24.2877   1
   4   4  11 815.014 24.7083   7
  -4  -4  11 790.489 24.3502   1
  -4   4 -11 776.324 24.8484   6
   4  -4 -11 803.436 24.4937   7
   5   4 -11 -1.9680 1.66768   7
  -5   4  11 2.57455 2.89283   6
   5  -4  11 1.05131 2.55203   7
  -5   4  11 2.59488 2.41121   1
  -5  -4 -11 2.23035 2.15601   1
   5   4 -11 -1.3320 2.59235   6
  -5   4 -11 1.70082 2.03320   1
  -5  -4  11 -0.6005 2.27125   1
   5  -4 -11 2.13924 2.03711   7
   5   4  11 -1.3503 2.23431   7
   6  -4  11 240.488 9.65008   7
  -6   4  11 220.429 9.27350   1
   6   4 -11 232.449 9.20150   7
  -6  -4 -11 222.292 9.23572   1
  -6   4  11 240.279 10.8944   6
   6  -4 -11 228.573 9.13729   7
   6   4  11 224.925 9.43578   7
  -6   4 -11 226.317 9.23898   1
  -6  -4  11 225.247 9.32807   1
  -7   4  11 3.28465 2.25570   1
  -7  -4 -11 4.57740 2.40559   1
  -7   4  11 -0.7285 3.06339   6
   7  -4  11 -1.5355 2.42217   7
   7   4 -11 1.03201 2.08658   7
   7  -4 -11 5.36355 2.36937   7
  -7  -4  11 3.46535 2.53008   1
  -7   4 -11 0.48838 2.04184   1
   7   4  11 3.23092 2.38600   7
  -8  -4 -11 413.422 14.1060   1
   8   4 -11 393.112 13.5203   7
  -8   4  11 415.322 13.9733   1
   8  -4  11 399.068 13.9772   7
   8  -4 -11 393.599 13.4082   7
  -8   4 -11 418.441 14.1184   1
   8   4  11 387.661 13.7794   7
  -8  -4  11 406.337 13.9529   1
  -9  -4 -11 -0.1007 2.13489   1
  -9   4  11 0.05603 2.18182   1
  -9  -4  11 1.85551 2.51227   1
  -9   4 -11 0.94807 2.02146   1
   0   5  11 122.507 6.61727   7
   0   5  11 116.383 6.46889   1
   0   5 -11 110.735 6.66142   6
   0  -5 -11 123.331 6.48411   1
   0  -5  11 124.334 6.67686   7
   0  -5 -11 126.073 6.50326   7
   0  -5  11 120.824 6.65317   1
   0   5 -11 110.813 6.19750   7
   0   5 -11 116.460 6.27220   1
  -1   5  11 -1.6559 2.21062   1
  -1  -5 -11 0.23508 2.13484   1
  -1  -5 -11 3.99802 2.31584   7
   1   5 -11 2.83537 2.14281   7
   1   5 -11 1.46021 2.30228   6
   1  -5  11 3.15859 2.72000   1
   1  -5  11 -0.4362 2.68532   7
   1   5 -11 5.93440 2.50094   1
  -1  -5  11 3.41527 2.80383   1
   1   5  11 2.52815 2.58794   7
   1  -5 -11 3.26319 2.40530   7
   1  -5 -11 6.33119 2.48432   1
  -1   5 -11 -0.4522 1.97466   6
  -1   5 -11 2.99443 2.19825   1
   1   5  11 -0.9090 2.26221   1
  -1   5 -11 6.44851 2.42751   7
   2   5 -11 32.5752 3.36105   7
   2   5 -11 27.0133 3.77142   6
   2  -5  11 28.7744 4.48567   7
  -2   5  11 30.0301 3.83688   1
  -2  -5 -11 22.5868 3.17765   1
  -2   5 -11 24.8462 3.19394   1
   2   5  11 27.1047 3.64643   7
  -2  -5  11 32.5422 4.01806   1
  -2   5 -11 23.1865 3.34798   6
   2  -5 -11 23.9759 3.18715   7
  -3   5  11 3.90776 2.46276   1
   3   5 -11 4.43082 2.69918   6
   3   5 -11 2.90236 2.18399   7
   3  -5  11 3.99707 2.53490   7
  -3   5  11 4.69612 2.93065   6
  -3  -5 -11 2.29194 2.47671   1
  -3   5 -11 2.44913 2.38868   6
   3  -5 -11 5.53878 2.47272   7
   3   5  11 4.73007 2.75068   7
  -3  -5  11 2.01042 2.55175   1
  -3   5 -11 4.79527 2.42483   1
  -4  -5 -11 101.474 5.70945   1
  -4   5  11 89.6795 6.42128   6
   4  -5  11 96.4804 5.85633   7
   4   5 -11 94.7325 6.37509   6
   4   5 -11 106.332 5.72140   7
  -4   5  11 103.785 5.75624   1
  -4   5 -11 102.692 5.69933   1
   4  -5 -11 92.5335 5.57677   7
   4   5  11 99.5049 5.90010   7
  -4   5 -11 98.4284 5.91484   6
  -4  -5  11 95.9565 5.69535   1
   5  -5  11 2.49500 2.67401   7
   5   5 -11 4.61371 3.06450   6
  -5   5  11 3.83936 3.11494   6
  -5  -5 -11 1.99542 2.23006   1
   5   5 -11 0.86480 2.09257   7
  -5   5  11 -0.4125 2.30973   1
  -5   5 -11 -0.8226 1.87833   1
   5   5  11 5.41604 2.72943   7
  -5  -5  11 6.04508 2.80312   1
   5  -5 -11 1.01827 2.25400   7
   6  -5  11 23.6828 3.47937   7
  -6  -5 -11 20.1754 3.16445   1
   6   5 -11 21.5946 2.99570   7
  -6   5  11 24.5846 4.22188   6
  -6   5  11 23.6199 3.24605   1
   6   5  11 19.2293 3.65019   7
  -6   5 -11 18.2154 2.98150   1
   6  -5 -11 22.5484 3.17255   7
  -6  -5  11 22.0571 3.37779   1
  -7  -5 -11 1.50384 2.33611   1
   7   5 -11 5.70688 2.36017   7
   7  -5  11 3.62174 2.69162   7
  -7   5  11 4.81403 2.33421   1
  -7  -5  11 3.87615 2.52754   1
   7  -5 -11 2.60661 2.23318   7
   7   5  11 1.57819 2.31592   7
  -7   5 -11 3.03120 2.18586   1
   8  -5  11 55.7714 4.43105   7
   8   5 -11 52.1177 4.01239   7
  -8  -5 -11 60.3851 4.49225   1
  -8   5  11 53.8768 4.24861   1
   8  -5 -11 61.5584 4.07930   7
  -8  -5  11 54.6480 4.38399   1
  -8   5 -11 60.7560 4.30900   1
   8   5  11 55.2992 4.24599   7
  -9  -5 -11 1.40516 2.25398   1
  -9   5  11 4.13874 2.39889   1
  -9  -5  11 -2.4083 2.25946   1
  -9   5 -11 4.38954 2.31013   1
   0   6  11 212.606 9.01079   1
   0  -6 -11 200.851 8.64986   1
   0   6 -11 187.799 9.12590   6
   0   6 -11 187.381 8.53383   7
   0  -6  11 193.170 8.93269   7
   0   6 -11 216.394 8.78060   1
   0  -6 -11 201.968 8.72655   7
   0  -6  11 202.143 8.89428   1
   0   6  11 214.607 9.16931   7
   0   6  11 192.885 9.10147   6
   1   6 -11 6.58829 2.46374   7
  -1  -6 -11 8.10408 2.74383   7
  -1   6  11 3.20567 2.60490   1
   1   6 -11 8.56314 2.65810   1
   1   6 -11 6.78729 2.70725   6
  -1   6  11 10.3337 3.06038   6
  -1  -6 -11 7.06027 2.78936   1
   1  -6  11 8.09549 2.99953   1
   1  -6  11 6.98214 3.09376   7
   1   6  11 7.02264 2.85591   6
   1   6  11 10.3029 3.08648   1
   1  -6 -11 7.98321 2.78717   7
  -1  -6  11 4.00556 2.92275   1
  -1   6 -11 7.51487 2.72988   7
  -1   6 -11 8.31868 2.87063   6
   1   6  11 3.92017 2.75869   7
  -1   6 -11 6.41441 2.55292   1
   1  -6 -11 2.21354 3.75769   1
   2  -6  11 381.986 13.9594   7
  -2   6  11 387.142 14.6027   6
   2   6 -11 379.120 14.4791   6
   2   6 -11 353.614 13.2819   7
  -2   6  11 378.346 13.7778   1
  -2  -6 -11 376.618 13.5116   1
  -2   6 -11 378.054 14.1360   6
  -2  -6  11 389.233 13.8531   1
   2   6  11 379.478 13.9907   7
   2  -6 -11 378.051 13.5447   7
  -2   6 -11 378.476 13.5264   1
  -3  -6 -11 8.27360 2.70727   1
  -3   6  11 4.47987 2.98564   6
   3  -6  11 3.41233 2.77366   7
   3   6 -11 6.95486 2.30735   7
   3   6 -11 8.00874 3.07087   6
  -3   6  11 10.6320 3.14497   1
  -3   6 -11 5.46335 2.59784   6
  -3  -6  11 9.60510 3.10138   1
  -3   6 -11 5.15092 2.30146   1
   3   6  11 4.36374 2.75212   7
   3  -6 -11 4.00275 2.38849   7
   4   6 -11 163.320 8.47778   6
  -4  -6 -11 161.635 7.59646   1
  -4   6  11 152.614 8.33136   6
   4  -6  11 163.459 7.78101   7
  -4   6  11 147.594 7.29223   1
   4   6 -11 158.722 7.41465   7
  -4   6 -11 156.198 7.89048   6
  -4  -6  11 163.843 7.55057   1
   4  -6 -11 150.439 7.31298   7
  -4   6 -11 158.320 7.43022   1
   4   6  11 151.795 7.58021   7
  -5   6  11 10.5389 2.88592   1
   5  -6  11 1.99404 2.67142   7
  -5  -6 -11 4.30915 2.34524   1
   5   6 -11 5.66729 3.16887   6
  -5   6  11 5.40846 3.33130   6
   5   6 -11 5.64616 2.33690   7
  -5  -6  11 0.76843 2.42707   1
  -5   6 -11 8.42563 2.85099   6
   5  -6 -11 9.39700 2.71131   7
  -5   6 -11 7.67005 2.56621   1
   5   6  11 5.65428 2.63414   7
  -6   6  11 250.160 9.98926   1
   6  -6  11 262.691 10.4202   7
  -6  -6 -11 232.597 9.64064   1
   6   6 -11 247.999 9.73074   7
  -6  -6  11 248.360 10.0656   1
   6  -6 -11 242.754 9.51130   7
  -6   6 -11 232.191 9.55646   1
   6   6  11 252.430 10.2278   7
  -7  -6 -11 6.49424 2.61128   1
   7  -6  11 0.63258 2.66570   7
  -7   6  11 5.29330 2.66546   1
   7   6 -11 6.35736 2.36400   7
  -7   6 -11 3.45374 2.27383   1
   7   6  11 6.35091 2.65920   7
   7  -6 -11 2.62904 2.32615   7
  -7  -6  11 3.00930 2.53260   1
  -8  -6 -11 97.0318 5.48323   1
  -8   6  11 97.1337 5.45092   1
  -8  -6  11 89.4118 5.54324   1
   8  -6 -11 94.9999 6.97523   7
  -8   6 -11 87.1002 5.33314   1
  -9  -6 -11 2.38340 2.41291   1
  -9   6  11 3.71159 2.33804   1
  -9  -6  11 6.27503 2.74171   1
  -9   6 -11 2.96371 2.28691   1
   0  -7 -11 341.823 12.8261   7
   0   7 -11 352.562 12.6478   1
   0  -7  11 342.092 13.0569   7
   0   7  11 340.890 12.8176   1
   0   7 -11 353.723 12.8762   7
   0   7 -11 343.655 13.6318   6
   0   7  11 338.938 13.1742   6
   0  -7  11 340.449 12.8372   1
   0  -7 -11 332.435 12.6012   1
   0   7  11 357.982 13.0592   7
   1   7 -11 7.70368 3.02713   6
  -1  -7 -11 9.80347 2.95966   1
  -1   7  11 11.9344 3.52392   6
   1  -7  11 13.0118 3.41391   1
   1   7 -11 7.57224 2.73368   7
  -1  -7 -11 6.53743 3.23862   7
  -1   7  11 9.36405 3.04757   1
   1  -7  11 9.03455 3.22261   7
   1   7  11 10.1795 2.99560   7
   1  -7 -11 12.0919 3.10043   7
   1   7  11 8.58777 2.91000   1
  -1  -7  11 8.49479 3.13472   1
  -1   7 -11 7.06970 2.51291   1
  -1   7 -11 8.31973 2.89933   6
   1   7  11 8.60767 3.01811   6
   2   7 -11 -1.4918 1.95416   7
  -2   7  11 3.00320 2.88825   6
  -2  -7 -11 6.09502 2.67249   1
  -2   7  11 0.40586 2.49345   1
   2   7 -11 2.49867 2.24405   6
   2  -7  11 3.39001 2.76332   7
   2   7  11 5.89485 2.77065   7
  -2  -7  11 1.54098 2.71234   1
  -2   7 -11 1.84509 2.26656   6
   2  -7 -11 3.31312 2.46633   7
  -2   7 -11 1.05304 2.13205   1
  -3  -7 -11 10.2582 2.97644   1
   3   7 -11 10.1999 3.27460   6
  -3   7  11 5.87154 3.14869   6
   3   7 -11 3.62536 2.29810   7
   3  -7  11 7.62948 3.21908   7
  -3   7  11 5.03543 2.67827   1
   3   7  11 8.09590 2.98650   7
  -3   7 -11 9.95705 2.82907   1
   3  -7 -11 9.63090 2.94082   7
  -3  -7  11 10.2049 3.38437   1
  -3   7 -11 8.15775 2.82761   6
   4  -7  11 251.682 10.4852   7
  -4   7  11 260.513 10.4710   1
   4   7 -11 267.393 10.5953   7
  -4  -7 -11 276.535 10.7706   1
   4   7 -11 272.882 11.7375   6
  -4   7  11 276.585 11.7174   6
  -4   7 -11 268.232 10.5514   1
  -4   7 -11 262.152 11.1371   6
  -4  -7  11 279.294 10.6832   1
   4   7  11 252.660 10.6135   7
   4  -7 -11 277.168 10.7315   7
  -5   7  11 5.87587 2.64634   1
   5  -7  11 3.07181 2.84470   7
   5   7 -11 4.23828 2.26313   7
   5   7 -11 12.2895 3.63242   6
  -5   7  11 7.81494 3.42227   6
  -5  -7 -11 5.87908 2.67690   1
   5  -7 -11 6.94622 2.68358   7
  -5   7 -11 7.74504 2.70953   6
  -5   7 -11 6.47150 2.51479   1
   5   7  11 5.82026 2.82065   7
  -5  -7  11 8.72572 3.16094   1
   6  -7  11 0.43034 2.65822   7
   6   7 -11 2.45793 2.15443   7
  -6  -7 -11 0.78846 2.22289   1
  -6   7  11 2.68358 2.44702   1
   6   7  11 6.52075 2.85364   7
  -6  -7  11 -1.8489 2.43752   1
   6  -7 -11 5.97524 2.57329   7
  -6   7 -11 4.13811 2.37060   1
  -7   7  11 4.11656 2.54282   1
   7  -7  11 2.72034 2.78206   7
  -7  -7 -11 8.81226 2.80134   1
   7   7 -11 7.95914 2.62110   7
   7   7  11 3.30017 2.38186   7
  -7  -7  11 5.88092 2.82538   1
   7  -7 -11 6.47072 2.47531   7
  -7   7 -11 7.83934 2.55718   1
  -8   7  11 170.527 7.74863   1
  -8  -7 -11 146.824 7.17193   1
  -8  -7  11 181.359 8.04264   1
  -8   7 -11 157.166 7.22488   1
  -9   7  11 1.28049 2.09224   1
  -9  -7 -11 1.19101 3.70210   1
  -9   7 -11 3.84654 2.88723   1
  -9  -7  11 0.70799 2.59848   1
   0  -8  11 39.1535 4.29493   7
   0   8 -11 34.5629 3.75632   7
   0   8 -11 29.0896 3.74592   6
   0   8  11 30.5959 3.97751   6
   0  -8  11 36.0853 4.30554   1
   0   8 -11 33.0019 3.59388   1
   0  -8 -11 34.6251 3.86139   1
   0  -8 -11 35.6224 3.84769   7
   0   8  11 34.8150 3.87794   1
   0   8  11 33.3831 4.05012   7
  -1   8  11 13.0045 3.62729   6
   1  -8  11 12.8963 3.43202   7
   1   8 -11 8.23452 2.66974   7
  -1   8  11 10.0753 3.05456   1
   1   8 -11 9.24789 2.98236   6
  -1  -8 -11 9.23100 2.95950   1
   1  -8  11 12.2246 3.41688   1
   1   8  11 11.8931 3.83696   6
  -1   8 -11 11.8658 2.93537   1
   1   8  11 7.05979 2.97865   7
   1   8  11 11.5209 3.20469   1
  -1   8 -11 10.6386 3.04759   6
  -1  -8  11 10.9511 3.56870   1
   1  -8 -11 17.2052 3.46427   7
  -2  -8 -11 24.0683 3.34446   1
  -2   8  11 22.7476 3.94314   6
   2   8 -11 19.4240 3.43116   6
  -2   8  11 24.8052 3.42444   1
   2   8 -11 24.4208 3.16287   7
   2  -8  11 22.6192 3.70061   7
  -2  -8  11 24.5193 3.73170   1
   2  -8 -11 21.8334 3.21946   7
  -2   8 -11 24.3262 3.25465   1
   2   8  11 21.0851 3.45227   7
  -2   8 -11 26.1721 3.55562   6
  -3  -8 -11 11.8282 3.06510   1
  -3   8  11 6.08394 3.33086   6
   3  -8  11 10.5131 3.32237   7
   3   8 -11 11.9138 3.53210   6
   3   8 -11 4.54340 2.46661   7
  -3   8  11 5.98738 2.86568   1
   3  -8 -11 13.5271 3.19353   7
  -3   8 -11 9.96444 3.07729   6
   3   8  11 8.20100 2.93131   7
  -3  -8  11 10.4124 3.33667   1
  -3   8 -11 6.22264 2.45825   1
   4   8 -11 30.5341 3.48471   7
   4  -8  11 28.5929 4.43537   7
   4   8 -11 22.7529 3.76219   6
  -4   8  11 28.8992 3.52633   1
  -4  -8 -11 24.6340 3.35570   1
  -4   8  11 21.6762 3.90357   6
  -4   8 -11 22.1395 3.18278   1
   4   8  11 28.2182 3.71774   7
  -4   8 -11 20.8957 3.39994   6
  -4  -8  11 25.7988 3.62858   1
   4  -8 -11 29.2464 3.63633   7
   5   8 -11 12.5177 2.90675   7
   5   8 -11 12.4656 3.59046   6
  -5   8  11 6.28376 2.72739   1
  -5  -8 -11 8.58939 2.90965   1
   5  -8  11 6.42064 3.00435   7
   5   8  11 10.0367 3.01315   7
  -5   8 -11 8.53610 2.88822   6
  -5   8 -11 6.90148 2.53909   1
   5  -8 -11 10.7198 2.95735   7
  -5  -8  11 11.5423 3.20202   1
   6   8 -11 23.1211 3.17210   7
  -6  -8 -11 21.8545 3.91901   1
  -6   8  11 24.3917 3.84822   1
   6  -8  11 24.2312 4.06936   7
  -6   8 -11 22.6085 3.63848   1
   6  -8 -11 18.8399 3.10730   7
   6   8  11 22.4486 3.30948   7
  -6  -8  11 24.1970 4.10362   1
  -7  -8 -11 3.86699 2.55209   1
  -7   8  11 2.58064 2.45445   1
  -7   8 -11 4.70828 2.32611   1
  -7  -8  11 8.44077 2.98219   1
  -8  -8 -11 19.8433 3.59210   1
  -8   8  11 12.1686 3.00105   1
  -8   8 -11 16.8005 3.40026   1
  -8  -8  11 15.1096 3.61664   1
   0  -9 -11 343.348 12.7635   7
   0   9  11 353.078 13.5639   6
   0  -9 -11 336.882 12.6283   1
   0  -9  11 365.981 13.5202   7
   0   9 -11 332.312 13.4714   6
   0   9 -11 319.943 12.5080   1
   0   9 -11 346.459 12.8120   7
   0  -9  11 363.050 13.2973   1
   0   9  11 328.818 12.9808   1
  -1  -9 -11 12.9022 3.16675   1
   1   9 -11 8.45895 3.11894   6
   1  -9  11 8.52256 3.16356   7
  -1   9  11 9.60373 3.52688   6
  -1   9  11 10.4520 3.18037   1
   1   9 -11 7.92351 2.82791   7
  -1  -9  11 6.57899 3.26329   1
  -1   9 -11 5.92756 2.47622   1
  -1   9 -11 7.05004 2.98822   6
   1  -9 -11 2.48612 2.51112   7
   1   9  11 9.36514 3.12506   7
   1   9  11 11.5617 3.53309   1
   2  -9  11 313.860 12.1731   7
  -2  -9 -11 290.027 11.5505   1
  -2   9  11 287.842 11.7641   1
  -2   9  11 313.019 12.7340   6
   2   9 -11 303.568 11.7609   7
   2   9 -11 319.448 12.7704   6
   2  -9 -11 314.841 11.8768   7
  -2   9 -11 309.960 12.5005   6
  -2  -9  11 303.145 12.1337   1
  -2   9 -11 290.492 11.5589   1
   2   9  11 330.901 12.4065   7
   3   9 -11 5.85767 2.52737   7
   3   9 -11 2.07185 2.55745   6
  -3  -9 -11 2.44487 2.65015   1
  -3   9  11 4.40406 3.11003   6
  -3   9  11 5.43144 2.81790   1
   3  -9  11 5.42939 2.87370   7
  -3   9 -11 9.73059 2.99272   6
   3  -9 -11 8.46900 3.00032   7
   3   9  11 6.82461 2.90914   7
  -3   9 -11 4.92285 2.48039   1
  -3  -9  11 4.69885 2.95830   1
   4   9 -11 274.448 11.7227   6
  -4   9  11 271.154 10.7995   1
   4   9 -11 267.349 10.6560   7
  -4  -9 -11 270.429 10.7970   1
   4  -9  11 271.684 10.9556   7
  -4  -9  11 265.609 10.9821   1
  -4   9 -11 268.227 10.8009   1
   4   9  11 284.115 11.0971   7
   4  -9 -11 274.244 10.7650   7
   5  -9  11 10.0274 3.16631   7
  -5   9  11 7.30053 2.81197   1
   5   9 -11 6.23932 2.53800   7
  -5  -9 -11 8.72367 2.84161   1
   5  -9 -11 7.58719 2.82142   7
   5   9  11 8.14221 2.74362   7
  -5   9 -11 8.60294 2.78839   1
  -5  -9  11 9.12025 3.31581   1
  -6  -9 -11 176.512 8.23001   1
  -6   9  11 194.512 8.55115   1
  -6   9 -11 192.890 8.32284   1
  -6  -9  11 192.704 8.68297   1
  -7  -9 -11 0.43477 2.43075   1
  -7   9  11 3.70242 2.29906   1
  -7   9 -11 0.38674 1.99641   1
  -7  -9  11 4.80861 2.82966   1
   0  10  11 10.9662 3.24967   1
   0  10 -11 20.1028 4.69245   6
   0  10 -11 16.4321 3.50247   1
   0  10  11 13.1112 3.68212   6
   0 -10  11 16.3625 4.07276   1
   0  10 -11 18.1597 3.48671   7
   0 -10 -11 15.4660 3.54630   7
   0 -10 -11 13.6668 3.60505   1
   1  10 -11 6.72162 2.55679   7
  -1  10  11 2.19177 2.61761   1
   1 -10  11 6.11570 3.47053   7
  -1  10  11 2.06711 2.72804   6
  -1 -10 -11 2.55925 2.81569   1
   1  10 -11 5.54045 2.86843   6
   1 -10 -11 1.09224 2.51158   7
   1  10  11 3.43278 2.59706   7
  -1  10 -11 3.93156 2.52234   1
  -1 -10  11 0.42004 2.97102   1
   2  10 -11 217.427 12.3112   6
   2 -10  11 217.486 9.73627   7
  -2  10  11 228.899 9.74925   1
  -2 -10 -11 212.270 9.25087   1
   2  10 -11 213.522 9.34696   7
  -2  10  11 232.653 11.0141   6
  -2  10 -11 213.481 9.23307   1
   2  10  11 225.973 9.84924   7
  -2 -10  11 211.510 9.71030   1
   2 -10 -11 222.029 9.38212   7
  -3 -10 -11 0.82029 2.34216   1
   3  10 -11 8.01672 2.69965   7
  -3  10  11 1.92054 2.50800   1
   3 -10  11 2.49454 3.01935   7
   3 -10 -11 1.32446 2.35582   7
  -3 -10  11 -0.1240 2.75603   1
  -3  10 -11 4.83826 2.54365   1
   3  10  11 3.02101 2.34182   7
  -4  10  11 19.4450 3.79717   1
   4  10 -11 10.6712 2.96892   7
  -4 -10 -11 19.8101 3.71712   1
   4 -10  11 8.35709 3.33193   7
  -4 -10  11 9.14935 3.44618   1
   4  10  11 14.2755 3.45186   7
  -4  10 -11 14.4330 3.25311   1
   4 -10 -11 12.3967 3.95519   4
   4 -10 -11 12.0798 3.22231   7
  -5 -10 -11 3.88795 2.59584   1
  -5  10  11 5.40864 2.60151   1
  -5  10 -11 5.04014 2.46337   1
  -5 -10  11 6.77185 3.20422   1
  -6  10  11 155.272 7.38005   1
  -6 -10 -11 144.324 7.23479   1
  -6  10 -11 148.483 7.24062   1
  -6 -10  11 142.933 7.43808   1
  -7  10  11 -0.5556 2.17580   1
  -7 -10 -11 -0.2779 2.74539   1
  -7 -10  11 2.92608 2.91507   1
  -7  10 -11 0.82610 2.12005   1
   0 -11 -11 12.9702 3.47213   7
   0  11  11 13.3600 3.42496   1
   0 -11  11 17.4817 4.11897   1
   0  11 -11 16.9720 3.75608   1
   1  11 -11 -0.8169 2.05404   7
  -1  11  11 -0.1061 2.53314   1
  -1 -11 -11 1.62795 2.62245   1
   1 -11  11 3.42212 3.04146   7
   1  11  11 -1.9927 2.25403   7
  -1 -11  11 1.50559 3.10669   1
  -1  11 -11 0.26949 2.23473   1
   1 -11 -11 0.34219 2.44221   7
   2 -11  11 189.282 9.02105   7
  -2 -11 -11 192.994 8.80627   1
  -2  11  11 201.159 8.88059   1
   2  11 -11 189.990 8.66914   7
   2  11  11 192.993 8.84583   7
  -2 -11  11 176.413 8.66258   1
   2 -11 -11 187.081 8.74412   7
  -2  11 -11 199.316 8.78853   1
   3 -11  11 4.16402 3.20251   7
  -3  11  11 3.86812 2.56090   1
   3  11 -11 1.57377 2.09036   7
  -3 -11 -11 2.67166 2.73565   1
  -3 -11  11 4.06248 3.19807   1
   3 -11 -11 3.34133 2.72608   7
   3 -11 -11 1.91151 2.70249   7
   3  11  11 0.03734 2.24975   7
  -3  11 -11 -1.3933 2.03756   1
  -4  11  11 16.1979 3.63775   1
  -4 -11 -11 16.3512 3.57574   1
   4 -11 -11 17.2333 4.79061   4
  -4 -11  11 17.3039 3.82529   1
  -4  11 -11 16.0613 3.58564   1
  -5  11  11 3.59452 2.70061   1
  -5 -11 -11 -1.3087 2.48499   1
  -5 -11  11 0.20471 2.65751   1
  -5  11 -11 2.25147 2.27878   1
  -6 -11 -11 124.673 6.80207   1
  -6  11  11 139.299 7.14863   1
  -6 -11  11 141.308 7.37691   1
  -6  11 -11 131.406 6.67234   1
   0  12  11 136.839 7.41034   1
   1 -12  11 1.28760 3.09419   7
   1  12 -11 1.20864 2.28342   7
  -1 -12 -11 1.56580 2.81279   1
  -1  12  11 1.53002 2.60320   1
   1 -12 -11 -0.1372 2.50100   7
  -1 -12  11 -1.3788 2.86301   1
  -1  12 -11 -0.8962 2.10635   1
   1  12  11 -0.5184 2.54882   7
   1 -12 -11 1.70678 2.74807   7
   2 -12  11 579.641 19.8079   7
   2  12 -11 535.552 18.7960   7
  -2  12  11 557.392 19.4280   1
  -2 -12 -11 599.520 19.1095   1
  -2 -12  11 593.578 19.6949   1
   2  12  11 604.638 19.9388   7
  -2  12 -11 561.901 18.8802   1
   2 -12 -11 570.349 19.0536   7
   2 -12 -11 553.131 19.0269   7
  -3 -12 -11 0.19712 2.48751   1
  -3  12  11 -0.0698 2.43471   1
  -3 -12  11 -0.3455 3.14100   1
  -3  12 -11 -1.1001 2.01761   1
  -4 -12 -11 118.877 6.75438   1
  -4  12  11 112.856 6.40570   1
  -4  12 -11 127.095 6.80368   1
  -4 -12  11 113.850 6.59500   1
  -5  12  11 0.07999 2.45426   1
  -5 -12 -11 -2.8257 2.28596   1
  -5 -12  11 0.24570 2.86063   1
  -5  12 -11 1.75300 2.21871   1
  -1 -13 -11 1.95995 3.02236   1
  -1  13  11 0.10720 2.65862   1
  -1 -13  11 0.66495 3.04373   1
  -1  13 -11 5.19423 2.78876   1
  -2 -13 -11 83.2695 5.92381   1
  -2  13  11 95.4235 6.09815   1
  -2 -13  11 80.8755 5.94983   1
  -2  13 -11 86.7162 5.65463   1
  -3 -13 -11 5.78736 3.19165   1
  -3  13  11 5.06691 2.87679   1
  -3  13 -11 -0.6055 2.07763   1
  -3 -13  11 2.87143 3.38690   1
  -4 -13 -11 330.603 15.8928   1
  -1  14  11 1.50586 2.46352   1
  -1  14 -11 3.36047 2.64799   1
  -1 -14  11 1.12258 3.26108   1
  -2 -14 -11 27.1024 4.63942   1
  -2  14  11 20.8180 4.42328   1
  -2  14 -11 17.8417 3.63353   1
  -2 -14  11 19.1047 4.64365   1
   0   0  12 650.491 21.5704   7
   0   0 -12 656.829 22.0716   6
   0   0 -12 669.650 21.4380   7
   0   0 -12 653.031 21.1993   1
   0   0  12 670.245 21.5298   1
  -1   0  12 -2.3781 2.15946   1
   1   0  12 3.77622 2.69238   7
   1   0  12 -2.1082 2.45992   1
  -1   0 -12 0.42773 2.16132   6
  -1   0 -12 0.09623 1.98542   1
  -1   0 -12 -0.2958 2.15780   7
   1   0 -12 -2.1735 1.80304   1
   1   0 -12 0.12620 2.10891   7
   2   0 -12 1987.04 56.0225   7
   2   0  12 1920.09 53.6086   7
  -2   0  12 1824.77 53.2000   1
  -2   0 -12 1996.66 56.5315   6
  -2   0 -12 1935.77 55.8689   1
  -3   0 -12 -0.9457 2.10994   1
   3   0  12 -1.0031 2.34389   7
  -3   0 -12 0.89101 2.19598   6
   3   0 -12 -4.0002 1.88123   7
  -3   0  12 -2.6273 2.17182   1
   4   0  12 525.607 17.5928   7
  -4   0 -12 502.663 16.5922   1
   4   0 -12 476.105 16.4069   7
  -4   0  12 505.145 17.1263   1
   5   0  12 -3.7366 2.06634   7
   5   0 -12 -2.4218 1.97014   7
  -5   0  12 -1.1670 2.45710   1
  -5   0 -12 0.46515 2.03042   1
   6   0 -12 1184.86 34.4445   7
  -6   0 -12 1162.63 34.6328   1
  -6   0  12 1236.72 36.2204   1
   6   0  12 1229.12 36.2927   7
   7   0 -12 -3.7065 1.91919   7
   7   0  12 -3.5077 2.01270   7
  -7   0 -12 -1.8976 1.91181   1
  -7   0  12 1.83769 2.43166   1
   8   0  12 294.760 11.0954   7
   8   0 -12 300.978 10.9189   7
  -8   0  12 295.291 11.0332   1
  -8   0 -12 303.974 11.3893   1
  -9   0  12 1.52322 2.49036   1
  -9   0 -12 3.76791 2.46491   1
   0   1  12 151.984 7.39189   1
   0  -1 -12 130.113 6.74565   1
   0   1 -12 147.332 7.11376   7
   0   1 -12 143.801 7.00839   1
   0  -1  12 148.077 7.34964   1
   0   1  12 137.547 7.38215   7
   0  -1 -12 117.157 6.66392   7
   0  -1  12 150.092 7.52204   7
   0   1 -12 147.788 7.65368   6
   1  -1  12 7.77406 3.03639   1
  -1  -1 -12 2.77578 2.38106   7
   1   1 -12 4.86764 2.46575   1
   1  -1  12 9.74762 3.25399   7
  -1   1  12 3.62128 2.70689   1
   1   1 -12 2.32218 2.39467   6
  -1  -1 -12 3.62187 2.43649   1
   1   1 -12 2.51545 2.26823   7
  -1   1 -12 5.45113 2.41153   1
   1  -1 -12 3.09493 2.34965   7
   1  -1 -12 7.57048 2.71988   1
   1   1  12 8.32909 3.06387   1
  -1   1 -12 4.35121 2.51522   6
   1   1  12 6.33198 2.99150   7
  -1   1 -12 4.53451 2.46238   7
  -1  -1  12 9.66321 3.09354   1
   2  -1  12 159.466 7.74750   7
   2   1 -12 142.715 7.21271   7
  -2  -1 -12 142.934 7.11208   1
  -2   1  12 155.511 7.63663   1
   2   1 -12 139.586 7.62324   6
  -2   1 -12 154.218 7.18205   1
  -2   1 -12 143.592 7.41641   6
   2   1  12 147.378 7.55666   7
  -2  -1  12 145.597 7.46882   1
   2  -1 -12 137.713 6.94764   7
   3  -1  12 9.82657 3.14257   7
  -3   1  12 2.18092 2.76668   1
   3   1 -12 1.75943 2.15628   7
  -3  -1 -12 4.77282 4.16360   6
  -3  -1 -12 5.27462 2.63906   1
   3  -1 -12 3.54062 2.34573   7
   3   1  12 5.69866 2.93069   7
  -3   1 -12 2.57625 2.31760   1
  -3   1 -12 7.44818 2.68844   6
  -3  -1  12 5.60131 3.03380   1
  -4   1  12 116.468 6.41949   1
   4   1 -12 127.305 6.39243   7
  -4  -1 -12 110.055 6.18984   1
   4  -1  12 120.064 6.51968   7
  -4   1 -12 111.996 6.14931   1
   4   1  12 118.500 6.42803   7
  -4  -1  12 120.089 6.54619   1
   4  -1 -12 117.361 6.14901   7
   5  -1  12 2.48773 2.64027   7
  -5   1  12 4.02164 2.71432   1
   5   1 -12 7.79827 2.69584   7
  -5  -1 -12 1.68702 2.27918   1
  -5  -1  12 5.13175 2.75925   1
   5   1  12 3.33335 2.76311   7
   5  -1 -12 7.38597 2.63270   7
  -5   1 -12 3.59148 2.36156   1
  -6  -1 -12 98.6246 5.68685   1
  -6   1  12 96.8259 5.69521   1
   6  -1  12 92.4194 5.80526   7
   6   1 -12 104.415 5.68552   7
   6   1  12 96.9022 5.76268   7
   6  -1 -12 99.5947 5.59618   7
  -6  -1  12 106.433 5.90960   1
  -6   1 -12 93.4339 5.64852   1
   7  -1  12 -1.2221 2.42849   7
  -7   1  12 2.72055 2.41461   1
  -7  -1 -12 1.67329 2.28391   1
   7   1 -12 7.05589 2.52727   7
  -7  -1  12 -0.2548 2.27304   1
   7  -1 -12 1.65618 2.26368   7
  -7   1 -12 3.07123 2.30556   1
   7   1  12 4.35021 2.54732   7
   8   1 -12 69.8923 4.48082   7
  -8  -1 -12 68.2352 4.81441   1
   8  -1  12 69.6073 4.81163   7
  -8   1  12 69.5703 4.78121   1
  -8  -1  12 70.8130 4.77515   1
   8   1  12 73.0729 5.03363   7
  -8   1 -12 71.1420 4.76750   1
   8  -1 -12 71.6588 4.51120   7
  -9  -1 -12 2.03427 2.24501   1
  -9   1  12 3.80932 2.63652   1
  -9   1 -12 3.16566 2.33043   1
  -9  -1  12 -2.4961 2.19321   1
   0   2  12 298.627 11.4942   1
   0   2  12 296.429 11.6353   7
   0  -2 -12 283.530 11.2701   7
   0  -2  12 299.193 11.6079   1
   0  -2  12 302.599 11.7693   7
   0   2 -12 295.686 11.1958   1
   0   2 -12 282.032 11.1562   7
   0  -2 -12 281.541 11.0342   1
   0   2 -12 287.242 11.8140   6
   1  -2  12 8.32736 3.17298   7
  -1  -2 -12 3.58176 2.54374   1
   1   2 -12 9.69346 2.96358   1
   1   2 -12 7.87990 2.49486   7
   1   2 -12 4.92361 2.77730   6
  -1   2  12 8.06031 2.99108   1
  -1  -2 -12 8.30405 2.95714   7
   1  -2  12 4.59603 2.83679   1
   1   2  12 6.04524 2.78461   7
  -1  -2  12 10.5784 3.33473   1
  -1   2 -12 7.77149 2.81728   6
   1  -2 -12 9.50018 2.90317   7
   1   2  12 2.56080 2.48431   1
  -1   2 -12 11.0189 2.93617   7
   1  -2 -12 5.10964 2.50401   1
  -1   2 -12 7.50923 2.69574   1
  -2   2  12 11.1334 3.19098   1
   2  -2  12 15.2202 3.60929   7
   2   2 -12 19.4446 3.50458   7
   2   2 -12 7.33711 3.10251   6
  -2  -2 -12 11.9537 3.02171   1
  -2   2 -12 16.4407 3.59072   6
  -2  -2  12 18.5878 3.73746   1
  -2   2 -12 9.87511 2.97662   1
   2  -2 -12 8.92716 2.86254   7
   2   2  12 15.1484 3.54954   7
   3  -2  12 10.9544 3.28143   7
   3   2 -12 8.74242 2.71962   7
   3   2 -12 6.10336 3.10587   6
  -3  -2 -12 5.29051 2.61968   1
  -3   2  12 8.30537 3.01771   1
   3  -2 -12 8.69145 2.71331   7
  -3   2 -12 5.95341 2.59321   1
   3   2  12 9.58509 3.05681   7
  -3   2 -12 10.2143 2.87042   6
  -3  -2  12 11.8146 3.29080   1
  -4  -2 -12 215.599 9.15969   1
   4   2 -12 224.777 9.26132   7
   4  -2  12 220.215 9.58534   7
  -4   2  12 235.193 9.45048   1
   4  -2 -12 213.833 9.12420   7
  -4   2 -12 221.374 9.25720   1
  -4  -2  12 227.858 9.45180   1
   4   2  12 209.388 9.43257   7
  -5   2  12 10.4208 2.93016   1
   5  -2  12 9.83648 3.09755   7
  -5  -2 -12 6.05726 2.53042   1
   5   2 -12 4.20654 2.52460   7
   5  -2 -12 8.98485 2.72971   7
  -5  -2  12 8.65316 2.92818   1
  -5   2 -12 9.85863 2.84994   1
   5   2  12 7.95871 2.88888   7
   6  -2  12 7.72215 3.03803   7
  -6  -2 -12 9.00163 2.77732   1
   6   2 -12 9.57156 2.79281   7
  -6   2  12 7.83059 2.90195   1
   6   2  12 10.1894 3.15095   7
  -6  -2  12 5.74666 2.84882   1
   6  -2 -12 8.61033 2.80847   7
  -6   2 -12 9.29617 2.80422   1
  -7  -2 -12 4.22310 2.47943   1
   7   2 -12 6.10438 2.40189   7
   7  -2  12 5.29662 2.77521   7
  -7   2  12 5.30712 2.65161   1
   7  -2 -12 4.37527 2.52892   7
  -7   2 -12 2.96034 2.39587   1
   7   2  12 3.71001 2.67880   7
  -7  -2  12 6.98846 2.74791   1
  -8   2  12 115.167 6.04406   1
   8  -2  12 114.967 6.65903   7
   8   2 -12 113.251 5.74954   7
  -8  -2 -12 111.718 6.11015   1
   8  -2 -12 121.532 5.91199   7
   8   2  12 112.177 6.73713   7
  -8  -2  12 119.264 6.09608   1
  -8   2 -12 117.623 6.20387   1
  -9  -2 -12 2.36158 2.26323   1
  -9   2  12 6.70113 2.70368   1
  -9   2 -12 6.04600 2.57729   1
  -9  -2  12 1.56097 2.51712   1
   0  -3 -12 115.683 6.27713   7
   0  -3 -12 105.687 6.09662   1
   0   3 -12 113.363 6.17871   7
   0   3  12 114.474 6.67049   7
   0   3 -12 109.185 6.11012   1
   0  -3  12 123.556 6.70170   7
   0   3  12 110.855 6.36143   1
   0   3 -12 113.607 6.73818   6
   0  -3  12 112.604 6.43117   1
   1  -3  12 14.9827 3.65482   7
  -1  -3 -12 12.1038 3.02820   7
   1  -3  12 14.9842 3.46552   1
   1   3 -12 17.6389 3.35681   1
  -1   3  12 10.0761 3.10345   1
   1   3 -12 21.0268 3.52266   6
  -1  -3 -12 9.93194 2.88952   1
   1   3 -12 16.8411 3.21388   7
  -1   3 -12 13.3815 3.01655   7
   1  -3 -12 14.3209 3.50229   1
   1   3  12 14.0315 3.60826   7
   1   3  12 15.0886 3.42723   1
  -1  -3  12 21.1877 3.85947   1
  -1   3 -12 11.1691 2.94730   1
  -1   3 -12 11.9681 3.11328   6
   1  -3 -12 19.6744 3.16861   7
   2  -3  12 36.6437 3.97393   7
  -2  -3 -12 39.6434 4.01589   1
   2   3 -12 37.6353 4.22553   6
   2   3 -12 43.1923 3.85654   7
  -2   3  12 33.7954 3.88703   1
  -2  -3  12 38.2348 4.09582   1
  -2   3 -12 40.8709 3.88232   6
   2  -3 -12 38.0649 3.76258   7
   2   3  12 42.0834 4.08535   7
  -2   3 -12 42.4161 3.93751   1
   3  -3  12 12.6601 3.53437   7
  -3  -3 -12 12.4950 3.08437   1
   3   3 -12 7.49569 3.06561   6
   3   3 -12 8.02714 2.60081   7
  -3   3  12 8.88462 2.95185   1
  -3   3 -12 10.4359 3.00010   1
   3   3  12 11.6281 3.23279   7
  -3   3 -12 13.9266 3.16357   6
  -3  -3  12 4.25914 2.92921   1
   3  -3 -12 11.2537 2.95954   7
   4   3 -12 88.6815 6.20432   6
  -4   3  12 92.8897 5.52326   1
   4  -3  12 85.0986 5.57198   7
  -4  -3 -12 82.7218 5.28460   1
   4   3 -12 85.2354 5.21203   7
  -4  -3  12 92.3186 5.68313   1
  -4   3 -12 89.1026 5.57655   6
   4   3  12 91.8393 5.67695   7
  -4   3 -12 94.0158 5.61497   1
   4  -3 -12 85.4638 5.35079   7
   5   3 -12 13.0860 2.93666   7
  -5  -3 -12 14.3437 3.24295   1
   5  -3  12 12.3768 3.41598   7
  -5   3  12 12.5816 3.19828   1
   5  -3 -12 21.9765 3.26758   7
  -5  -3  12 17.4229 3.51757   1
  -5   3 -12 11.9778 3.04520   1
   5   3  12 11.7653 3.29874   7
  -6   3  12 21.7048 3.29568   1
  -6  -3 -12 18.4702 3.14920   1
   6   3 -12 20.7272 3.59662   7
   6  -3  12 27.1963 3.75567   7
  -6   3  12 23.9416 5.07029   6
  -6  -3  12 23.0297 3.97313   1
   6  -3 -12 22.0815 3.68495   7
   6   3  12 20.1169 3.46340   7
  -6   3 -12 18.2336 2.98578   1
   7   3 -12 3.79262 2.40971   7
  -7   3  12 5.23933 2.58224   1
  -7  -3 -12 5.99637 2.48550   1
   7  -3  12 3.85965 2.75351   7
   7  -3 -12 5.50633 2.53592   7
   7   3  12 6.26388 2.74628   7
  -7   3 -12 3.67801 2.41981   1
  -7  -3  12 1.69503 2.51551   1
  -8   3  12 48.5247 4.10815   1
   8   3 -12 47.5872 4.18298   7
  -8  -3 -12 45.8550 4.03130   1
  -8  -3  12 47.7875 4.25333   1
  -8   3 -12 43.3118 4.03799   1
   8  -3 -12 48.0918 3.92805   7
  -9   3  12 13.2743 3.19212   1
  -9  -3 -12 7.67106 2.75563   1
  -9   3 -12 15.2920 3.15590   1
  -9  -3  12 13.8201 3.08937   1
   0  -4 -12 160.354 7.55018   1
   0   4  12 146.487 7.66772   7
   0   4  12 155.447 7.57234   1
   0  -4  12 162.241 7.77586   1
   0   4 -12 143.671 7.48392   7
   0  -4  12 161.962 7.81537   7
   0   4 -12 177.670 7.72933   1
   0  -4 -12 155.941 7.57532   7
   0   4 -12 159.204 8.09935   6
  -1  -4 -12 18.9809 3.45213   1
  -1  -4 -12 17.6802 3.57822   7
   1   4 -12 20.8621 3.36156   7
   1   4 -12 25.1303 3.82777   1
   1   4 -12 25.4162 3.68898   6
  -1   4  12 18.8061 3.87131   1
   1  -4  12 29.3222 3.77101   1
   1  -4  12 26.5600 3.78685   7
   1   4  12 24.2859 3.95241   7
  -1   4 -12 17.1484 3.52712   7
  -1  -4  12 23.5292 3.73433   1
  -1   4 -12 15.5976 3.29293   1
   1   4  12 21.7172 3.94020   1
   1  -4 -12 24.6600 3.34796   7
  -1   4 -12 22.7104 3.42616   6
   2   4 -12 115.418 6.28302   7
   2  -4  12 122.552 6.86579   7
  -2   4  12 125.551 6.74246   1
  -2  -4 -12 125.246 6.55847   1
   2   4 -12 111.551 6.84808   6
   2  -4 -12 110.271 6.20468   7
  -2   4 -12 114.795 6.22172   1
  -2   4 -12 116.971 6.59194   6
  -2  -4  12 120.873 6.85794   1
   2   4  12 129.487 6.95373   7
   3   4 -12 16.6231 3.98396   6
   3  -4  12 14.4291 3.45393   7
   3   4 -12 19.0746 3.01077   7
  -3   4  12 11.7146 3.27967   1
  -3  -4 -12 14.5586 3.32789   1
   3   4  12 18.4833 3.61141   7
   3  -4 -12 14.8596 3.13196   7
  -3  -4  12 19.2457 3.74364   1
  -3   4 -12 12.7529 3.17407   6
  -3   4 -12 15.6357 3.22602   1
   4  -4  12 116.862 6.55247   7
   4   4 -12 112.974 7.04444   6
  -4  -4 -12 113.099 6.19040   1
   4   4 -12 121.290 6.21664   7
  -4   4  12 113.197 6.38608   1
   4   4  12 121.786 6.64153   7
  -4   4 -12 108.390 6.11258   1
  -4  -4  12 121.211 6.50536   1
  -4   4 -12 119.472 6.58797   6
   4  -4 -12 112.882 6.22470   7
   5  -4  12 22.5209 3.60677   7
  -5  -4 -12 20.3063 3.21636   1
  -5   4  12 22.1464 3.42246   1
  -5   4  12 24.2546 4.15300   6
   5   4 -12 22.2003 3.22123   7
   5   4  12 18.3926 3.60161   7
  -5   4 -12 26.4467 3.43680   1
   5  -4 -12 23.3377 3.45255   7
  -5  -4  12 17.4945 3.61533   1
  -6  -4 -12 73.5115 4.97277   1
  -6   4  12 79.0485 5.23367   1
   6   4 -12 88.8121 5.24699   7
   6  -4  12 81.1624 5.58341   7
  -6  -4  12 84.9730 5.37495   1
   6   4  12 83.1471 5.43127   7
   6  -4 -12 77.2540 4.98430   7
  -6   4 -12 73.2558 5.00788   1
  -7  -4 -12 6.60310 2.56953   1
   7   4 -12 5.10419 2.39775   7
  -7   4  12 4.58634 2.64835   1
   7  -4  12 12.6641 3.35777   7
  -7  -4  12 3.55234 2.69684   1
   7  -4 -12 6.38660 2.50460   7
   7   4  12 10.0695 3.04273   7
  -7   4 -12 8.53236 2.65176   1
  -8  -4 -12 65.4098 4.70002   1
  -8   4  12 63.0023 4.61229   1
  -8  -4  12 55.6281 4.58221   1
  -8   4 -12 54.8539 4.34963   1
  -9  -4 -12 22.9097 3.32873   1
  -9   4  12 15.8049 3.21747   1
  -9   4 -12 9.64046 2.87764   1
  -9  -4  12 12.8442 3.31641   1
   0  -5 -12 161.632 7.87816   7
   0   5 -12 166.452 7.69031   1
   0  -5 -12 168.837 7.85260   1
   0  -5  12 172.145 8.13443   7
   0   5 -12 171.997 7.89609   7
   0   5  12 163.434 7.99997   7
   0   5  12 165.911 8.09935   1
   0  -5  12 170.101 8.09257   1
   0   5 -12 155.081 8.16424   6
   1   5 -12 15.5153 3.19154   7
   1  -5  12 27.8094 3.94608   7
  -1  -5 -12 21.8799 3.49795   1
  -1   5  12 22.8287 3.55978   1
   1   5 -12 22.8326 3.50717   6
  -1  -5 -12 23.0223 4.71213   7
   1  -5  12 14.0889 3.49888   1
   1   5  12 16.1195 3.62077   7
  -1   5 -12 13.0669 3.05215   1
  -1   5 -12 18.4040 3.12234   6
  -1  -5  12 19.4165 4.03176   1
   1  -5 -12 21.3738 3.36228   7
   1   5  12 21.4320 3.87296   1
  -2   5  12 169.761 7.96115   1
   2   5 -12 176.064 7.86079   7
   2  -5  12 175.417 8.18614   7
   2   5 -12 163.387 8.52006   6
  -2  -5 -12 162.713 7.81709   1
  -2   5 -12 169.066 8.33128   6
  -2   5 -12 168.056 7.85177   1
  -2  -5  12 166.097 7.98605   1
   2  -5 -12 164.861 7.85850   7
   2   5  12 158.666 8.00916   7
   3   5 -12 20.9310 3.71496   6
   3   5 -12 18.4691 2.92509   7
  -3   5  12 16.4679 3.54290   1
  -3   5  12 27.9509 4.18215   6
   3  -5  12 12.5257 3.52131   7
  -3  -5 -12 15.0983 3.27398   1
  -3   5 -12 12.3550 3.01218   1
   3   5  12 21.0185 3.86508   7
  -3  -5  12 19.8674 3.81070   1
  -3   5 -12 21.6786 3.40924   6
   3  -5 -12 15.0985 3.27626   7
  -4  -5 -12 125.117 6.68018   1
  -4   5  12 143.978 8.06633   6
   4   5 -12 131.894 6.68543   7
  -4   5  12 125.123 6.79050   1
   4  -5  12 141.756 7.16517   7
   4   5 -12 132.145 7.81418   6
  -4  -5  12 133.866 7.07724   1
   4   5  12 127.215 6.90846   7
  -4   5 -12 137.293 7.26613   6
   4  -5 -12 144.703 7.00176   7
  -4   5 -12 134.379 6.77948   1
  -5   5  12 14.8482 4.14966   6
  -5  -5 -12 11.8135 3.09179   1
  -5   5  12 17.5648 3.43617   1
   5   5 -12 22.9343 3.18004   7
   5  -5  12 15.5215 3.41710   7
   5   5 -12 28.0103 4.11745   6
  -5  -5  12 18.7370 3.64213   1
   5   5  12 17.9558 3.57728   7
   5  -5 -12 9.90369 2.88826   7
  -5   5 -12 16.4860 3.20494   1
   6   5 -12 115.187 6.08799   7
  -6  -5 -12 107.638 6.16298   1
   6  -5  12 110.689 6.40171   7
  -6   5  12 119.806 6.29253   1
   6   5  12 106.448 6.29333   7
  -6   5 -12 119.000 6.24392   1
   6  -5 -12 114.507 6.05561   7
  -6  -5  12 104.877 6.12644   1
   7   5 -12 12.1732 2.80741   7
  -7  -5 -12 12.2371 3.08144   1
  -7   5  12 10.4322 3.07026   1
   7  -5  12 16.5802 3.61032   7
  -7   5 -12 10.9370 2.86307   1
   7  -5 -12 7.97002 2.66537   7
   7   5  12 12.9057 3.25057   7
  -7  -5  12 9.87236 3.27941   1
  -8   5  12 70.2328 4.91371   1
  -8  -5 -12 70.9858 5.02957   1
  -8  -5  12 75.0582 5.10390   1
  -8   5 -12 76.9060 4.92799   1
  -9   5  12 10.3471 2.94857   1
  -9  -5 -12 15.2062 4.92037   1
  -9   5 -12 6.05046 3.30086   1
  -9  -5  12 12.2930 3.11195   1
   0   6  12 260.134 11.2402   7
   0   6  12 285.741 11.8714   6
   0  -6 -12 279.547 11.0374   1
   0   6 -12 268.963 10.8127   1
   0  -6  12 275.141 11.4660   7
   0   6 -12 251.503 10.6832   7
   0  -6  12 288.089 11.4944   1
   0  -6 -12 264.130 10.8481   7
   0   6  12 292.195 11.4632   1
   0   6 -12 268.548 11.5184   6
   1  -6  12 5.75685 3.02429   1
  -1   6  12 4.71250 2.76615   1
  -1   6  12 6.78337 3.14643   6
   1   6 -12 7.98239 3.09444   6
   1   6 -12 6.21896 2.49173   7
   1  -6  12 2.46915 2.97236   7
  -1  -6 -12 3.53922 2.65533   1
  -1   6 -12 4.14888 2.65672   6
   1   6  12 8.51924 3.04650   7
  -1  -6  12 7.67943 3.32860   1
   1  -6 -12 5.14345 2.56308   7
   1   6  12 11.4641 3.42963   6
   1   6  12 5.92371 2.89628   1
  -1   6 -12 5.89883 2.53266   1
   2   6 -12 523.672 17.9090   7
  -2   6  12 557.093 19.2977   6
  -2   6  12 565.562 18.5361   1
   2   6 -12 563.459 19.2782   6
  -2  -6 -12 543.524 18.0715   1
   2  -6  12 553.121 18.7089   7
   2   6  12 541.467 18.5975   7
  -2  -6  12 522.914 18.2649   1
  -2   6 -12 524.331 18.6394   6
   2  -6 -12 539.974 18.1052   7
  -2   6 -12 526.068 17.9397   1
  -3   6  12 7.55151 3.21950   6
  -3  -6 -12 7.76972 2.78628   1
   3   6 -12 9.70146 3.31387   6
   3   6 -12 12.1654 2.96034   7
  -3   6  12 10.6183 3.28304   1
   3  -6  12 10.3436 3.29868   7
  -3   6 -12 4.54764 2.52361   1
   3  -6 -12 7.33731 2.82587   7
   3   6  12 11.3762 3.25511   7
  -3  -6  12 12.0369 3.38147   1
  -3   6 -12 11.1071 3.06302   6
  -4  -6 -12 228.777 9.61760   1
  -4   6  12 223.501 9.57948   1
   4  -6  12 211.333 9.62464   7
   4   6 -12 235.345 9.51638   7
   4   6 -12 233.194 10.6673   6
  -4   6  12 225.973 10.5289   6
  -4  -6  12 230.708 9.68594   1
  -4   6 -12 222.932 10.0105   6
   4   6  12 228.856 9.77846   7
   4  -6 -12 215.222 9.42235   7
  -4   6 -12 214.320 9.34160   1
   5   6 -12 0.94942 2.82964   6
  -5   6  12 7.83517 2.90689   1
   5  -6  12 3.73923 2.82189   7
  -5  -6 -12 3.15392 2.51125   1
   5   6 -12 1.35526 2.22789   7
  -5  -6  12 7.22463 2.96581   1
   5   6  12 3.21070 2.60955   7
  -5   6 -12 2.03488 2.24568   1
   5  -6 -12 3.15187 2.52761   7
   6  -6  12 395.550 13.9321   7
   6   6 -12 357.749 13.0741   7
  -6  -6 -12 361.809 13.2363   1
  -6   6  12 385.715 13.6658   1
   6  -6 -12 358.217 12.9093   7
  -6   6 -12 364.324 13.1287   1
   6   6  12 365.624 13.6654   7
  -6  -6  12 361.357 13.5451   1
  -7  -6 -12 12.4103 3.07781   1
  -7   6  12 7.98704 2.74464   1
  -7   6 -12 10.1054 2.67528   1
  -7  -6  12 10.3879 3.29603   1
  -8  -6 -12 138.037 6.77879   1
  -8   6  12 145.472 6.93838   1
  -8  -6  12 130.377 6.86723   1
  -8   6 -12 116.616 6.37801   1
   0  -7 -12 166.502 7.94913   1
   0  -7  12 159.941 8.07262   1
   0   7 -12 161.855 8.44703   6
   0   7  12 148.332 8.27400   7
   0   7 -12 156.268 7.70001   1
   0  -7 -12 158.760 7.80979   7
   0   7 -12 174.168 8.01274   7
   0   7  12 176.802 8.59459   6
   0  -7  12 189.762 8.61839   7
   0   7  12 170.920 8.25439   1
  -1  -7 -12 -2.1933 2.26493   1
   1  -7  12 1.87874 2.69407   7
   1   7 -12 2.42319 2.32985   7
  -1   7  12 0.16689 2.66636   6
   1   7 -12 -0.6075 2.28473   6
  -1   7  12 -1.0018 2.46690   1
  -1  -7  12 2.23704 2.92065   1
   1   7  12 4.21421 2.67496   7
   1   7  12 0.17015 2.54071   1
   1   7  12 0.10444 2.48086   6
  -1   7 -12 1.87899 2.20918   1
   1  -7 -12 1.40158 2.45210   7
  -1   7 -12 0.02253 2.13164   6
  -2   7  12 220.142 10.0986   6
  -2   7  12 215.631 9.48937   1
   2  -7  12 203.460 9.40414   7
   2   7 -12 204.650 10.0092   6
  -2  -7 -12 227.306 9.50884   1
   2   7 -12 216.272 9.30151   7
   2   7  12 203.647 9.40269   7
  -2   7 -12 210.773 9.23960   1
  -2  -7  12 221.795 9.60180   1
   2  -7 -12 216.272 9.32742   7
  -2   7 -12 210.584 9.81643   6
  -3  -7 -12 4.06958 2.59725   1
   3   7 -12 1.36090 2.12260   7
  -3   7  12 5.22940 2.90832   1
   3   7 -12 0.88651 2.43966   6
   3  -7  12 0.23044 2.66980   7
  -3   7  12 2.38919 2.75769   6
  -3   7 -12 1.19673 2.31871   1
   3   7  12 1.78775 2.50367   7
  -3   7 -12 1.27731 2.32815   6
   3  -7 -12 3.54671 2.56953   7
  -3  -7  12 0.53517 2.59377   1
   4   7 -12 137.564 7.84480   6
   4   7 -12 126.514 6.72101   7
  -4   7  12 142.801 7.23355   1
   4  -7  12 137.639 7.17312   7
  -4  -7 -12 126.225 6.89513   1
  -4   7 -12 128.345 6.73392   1
   4  -7 -12 132.404 6.79707   7
   4   7  12 145.667 7.46215   7
  -4  -7  12 143.265 7.35950   1
  -4   7 -12 137.977 7.34842   6
  -5  -7 -12 0.35723 2.38677   1
  -5   7  12 -0.5972 2.15843   1
   5  -7  12 2.13102 2.92912   7
   5   7 -12 -1.1969 1.90247   7
  -5   7 -12 -1.4084 2.11065   6
   5  -7 -12 -1.5485 2.06805   7
  -5   7 -12 -0.5287 1.93854   1
  -5  -7  12 3.11262 2.68594   1
   5   7  12 -3.3482 2.20241   7
   6  -7  12 142.893 7.45574   7
  -6   7  12 152.731 7.34040   1
  -6  -7 -12 130.931 6.84621   1
   6   7 -12 142.204 6.98161   7
  -6   7 -12 144.019 6.97155   1
   6   7  12 145.614 7.50005   7
  -6  -7  12 152.981 7.48064   1
   6  -7 -12 137.428 6.93202   7
  -7   7  12 3.03016 2.46340   1
  -7  -7 -12 2.25311 2.38061   1
  -7  -7  12 3.56808 2.80536   1
  -7   7 -12 2.61193 2.20923   1
  -8  -7 -12 80.3483 5.40094   1
  -8   7  12 82.5810 5.30328   1
  -8   7 -12 78.5121 5.26218   1
  -8  -7  12 84.9514 5.50402   1
   0  -8  12 164.625 10.5080   7
   0  -8 -12 162.249 7.91224   7
   0   8 -12 164.937 7.82534   1
   0   8 -12 167.622 7.96245   7
   0   8  12 165.875 8.00361   1
   0  -8 -12 158.894 7.83412   1
   0   8  12 156.941 8.22348   6
   0   8 -12 156.444 8.43764   6
   0  -8  12 165.985 8.12089   1
  -1   8  12 1.80841 2.56061   1
   1   8 -12 -0.7772 2.00852   7
  -1   8  12 -1.7309 2.44542   6
   1   8 -12 1.02916 2.38816   6
   1  -8  12 -0.9693 2.59257   7
  -1  -8 -12 0.11024 2.49681   1
  -1   8 -12 1.10685 2.39976   6
   1   8  12 -1.2439 2.51729   7
  -1   8 -12 -0.6226 2.19677   1
  -1  -8  12 0.60597 2.99332   1
   1  -8 -12 -1.6624 2.23486   7
  -2   8  12 82.6580 5.91703   6
   2   8 -12 77.1122 5.81957   6
   2   8 -12 83.3221 5.39494   7
   2  -8  12 69.3802 5.57563   7
  -2  -8 -12 62.9425 4.90384   1
  -2   8  12 82.8183 5.57167   1
  -2   8 -12 78.9523 5.15956   1
   2   8  12 81.7731 5.62678   7
   2  -8 -12 76.5140 5.27462   7
  -2   8 -12 86.1083 5.89020   6
  -2  -8  12 75.2379 5.51851   1
  -3   8  12 0.97898 2.53735   1
  -3  -8 -12 0.16047 2.35131   1
   3   8 -12 0.83054 2.52938   6
   3  -8  12 -1.5257 2.69890   7
   3   8 -12 -1.1980 1.89086   7
   3   8  12 -3.5883 2.35509   7
  -3  -8  12 -2.5988 2.69012   1
   3  -8 -12 -1.9025 2.11704   7
  -3   8 -12 -1.6007 2.05104   1
  -3   8 -12 -0.2553 2.17475   6
  -4   8  12 122.109 6.72114   1
   4   8 -12 119.853 6.59107   7
   4  -8  12 134.503 7.17263   7
  -4  -8 -12 132.850 6.84903   1
   4  -8 -12 131.547 6.81876   7
  -4  -8  12 133.005 7.01394   1
  -4   8 -12 118.565 6.63303   1
   4   8  12 137.341 7.22510   7
   5  -8  12 -1.1356 2.62482   7
   5   8 -12 -2.7857 1.88581   7
  -5   8  12 -1.0260 2.24956   1
  -5  -8 -12 3.77118 2.61410   1
   5   8  12 -4.2898 2.04382   7
  -5  -8  12 -0.1415 2.58834   1
   5  -8 -12 -0.9972 2.20291   7
  -5   8 -12 2.26447 2.42309   1
  -6  -8 -12 58.1905 4.61294   1
  -6   8  12 59.8956 4.63619   1
  -6   8 -12 55.8741 4.43452   1
  -6  -8  12 55.7598 4.70814   1
  -7  -8 -12 -2.6696 2.23619   1
  -7   8  12 0.18063 2.23147   1
  -7  -8  12 -0.5823 2.70909   1
  -7   8 -12 1.02954 2.12964   1
   0  -9  12 327.652 12.5784   1
   0  -9 -12 305.924 13.0421   1
   0   9 -12 298.060 11.6083   1
   0   9 -12 296.427 11.7781   7
   0  -9 -12 308.252 11.8919   7
   0   9  12 312.683 12.7463   6
   0   9  12 320.071 12.4726   1
  -1  -9 -12 1.38448 2.37762   1
  -1   9  12 -0.5499 2.69699   6
  -1   9  12 -0.2395 2.61765   1
   1  -9  12 1.69253 3.13361   7
   1   9 -12 2.38089 2.22641   7
   1  -9 -12 -1.5277 2.42656   7
   1   9  12 3.11598 2.74009   7
  -1   9 -12 1.32264 2.23606   1
  -1  -9  12 2.01340 2.98375   1
  -2   9  12 45.0083 4.41951   1
   2   9 -12 43.1024 4.24379   7
  -2  -9 -12 42.4408 4.20216   1
   2  -9  12 53.1106 4.71221   7
  -2  -9  12 48.3531 4.92460   1
   2   9  12 59.4888 4.77285   7
  -2   9 -12 47.5161 4.35665   1
   2  -9 -12 48.8379 4.37651   7
  -3   9  12 7.73430 3.10427   1
   3  -9  12 2.46396 2.99051   7
  -3  -9 -12 3.55390 2.78204   1
   3   9 -12 2.02867 2.26159   7
  -3  -9  12 0.87077 3.08023   1
  -3   9 -12 1.90995 2.28306   1
   3  -9 -12 3.91660 2.88423   7
   3   9  12 -1.1726 2.51834   7
   4   9 -12 253.396 10.4217   7
  -4   9  12 248.798 10.4499   1
  -4  -9 -12 263.135 10.5642   1
   4  -9  12 256.690 10.7050   7
  -4  -9  12 260.017 10.7363   1
  -4   9 -12 248.597 10.2760   1
   4  -9 -12 259.588 10.5000   7
   4   9  12 258.331 10.6614   7
  -5   9  12 1.58259 2.40198   1
  -5  -9 -12 -2.9162 2.28933   1
  -5   9 -12 0.01892 2.05248   1
  -5  -9  12 0.96007 2.83772   1
  -6   9  12 38.8109 3.98724   1
  -6  -9 -12 37.3508 4.01776   1
  -6   9 -12 38.3913 3.89823   1
  -6  -9  12 37.9519 4.22452   1
  -7   9  12 0.09025 3.14327   1
   0 -10  12 420.660 15.1984   1
   0  10  12 415.150 15.1783   1
   0 -10 -12 412.744 14.9214   7
   1  10 -12 8.33548 2.81137   7
  -1  10  12 6.59313 3.06921   1
   1 -10  12 6.67328 3.18863   7
  -1 -10 -12 4.12596 2.72871   1
  -1  10 -12 8.27325 2.88875   1
   1  10  12 8.34172 3.02091   7
   1 -10 -12 4.03602 2.88028   7
  -1 -10  12 10.0720 3.65080   1
   2 -10  12 245.847 10.4444   7
  -2 -10 -12 225.540 9.76546   1
  -2  10  12 241.746 10.2275   1
   2  10 -12 235.216 9.89653   7
   2 -10 -12 233.230 9.93672   7
  -2  10 -12 243.356 9.94295   1
   2  10  12 241.633 10.3267   7
  -2 -10  12 230.921 10.2135   1
   3  10 -12 4.82898 2.46562   7
  -3 -10 -12 8.24482 3.06049   1
  -3  10  12 5.07633 2.92732   1
   3 -10  12 8.79985 3.46473   7
   3  10  12 9.67829 2.95573   7
  -3 -10  12 6.68801 3.26355   1
  -3  10 -12 5.59559 2.81345   1
   3 -10 -12 5.84941 2.69042   7
  -4  10  12 324.242 12.3336   1
  -4 -10 -12 342.745 12.6588   1
  -4  10 -12 321.003 12.4552   1
  -4 -10  12 312.222 12.3062   1
  -5  10  12 6.59218 2.74418   1
  -5 -10 -12 2.50280 2.69218   1
  -5 -10  12 2.93072 2.97955   1
  -5  10 -12 2.91494 2.31326   1
  -6  10  12 165.683 8.07476   1
  -6 -10 -12 150.300 8.32067   1
  -6  10 -12 174.254 8.48828   1
  -6 -10  12 174.571 8.87081   1
   0 -11  12 -1.8301 4.65541   1
   0  11  12 3.77807 2.88429   1
   1  11 -12 13.7867 3.30839   7
   1 -11  12 14.2944 3.92744   7
  -1 -11 -12 13.8325 3.60059   1
  -1  11  12 14.9831 3.40870   1
   1  11  12 14.2492 3.42966   7
  -1 -11  12 18.0051 3.98952   1
   1 -11 -12 13.9209 3.32148   7
  -1  11 -12 13.8323 3.27872   1
  -2 -11 -12 54.5792 4.85817   1
  -2  11  12 51.5897 4.61065   1
   2 -11  12 60.7640 5.17075   7
   2  11 -12 60.1504 4.68567   7
   2 -11 -12 56.5795 4.71249   7
   2  11  12 57.3970 4.87990   7
  -2  11 -12 59.6340 4.82935   1
  -2 -11  12 61.4856 5.15020   1
  -3 -11 -12 12.8198 3.27448   1
  -3  11  12 16.9616 3.65485   1
  -3  11 -12 12.7864 3.16426   1
  -3 -11  12 18.1083 4.16096   1
  -4 -11 -12 2.48552 2.64590   1
  -4  11  12 3.83573 2.85180   1
  -4 -11  12 -1.0731 2.74811   1
  -4  11 -12 2.45201 2.38787   1
  -5  11  12 11.9873 3.60513   1
  -5 -11 -12 17.9721 3.66454   1
  -5 -11  12 9.14784 3.55507   1
  -5  11 -12 7.88192 2.70880   1
  -1  12  12 14.8181 3.65731   1
  -1 -12 -12 10.6210 3.32445   1
  -1 -12  12 8.86725 3.74392   1
  -1  12 -12 7.55853 2.80425   1
  -2  12  12 29.9167 3.82198   1
  -2 -12 -12 30.4283 4.07605   1
  -2  12 -12 28.1352 3.78536   1
  -2 -12  12 32.3779 4.58577   1
  -3  12  12 7.63012 3.15957   1
  -3 -12 -12 11.5754 3.23482   1
  -3 -12  12 12.8052 3.92048   1
  -3  12 -12 10.1679 2.88545   1
  -4 -12 -12 16.2627 5.30208   1
  -1  13  12 6.92927 3.02719   1
  -1 -13  12 10.7698 4.07501   1
  -1  13 -12 5.51830 2.58665   1
  -2 -13 -12 43.1434 4.66010   1
  -2  13  12 41.0292 4.32338   1
  -2 -13  12 42.6436 4.86506   1
  -2  13 -12 42.2129 4.11553   1
   0   0  13 1.43769 2.73688   1
   0   0 -13 1.49434 2.16441   7
   0   0  13 -2.9691 2.45630   7
   0   0 -13 -0.3233 2.07229   1
   1   0 -13 2.52065 2.69326   7
   1   0  13 11.0596 3.37433   1
  -1   0 -13 3.56554 2.83243   6
   1   0  13 10.6896 3.31366   7
  -1   0 -13 9.14701 2.96732   1
  -1   0  13 4.17186 3.20697   1
  -2   0 -13 2.26720 2.23656   6
  -2   0  13 2.87398 3.00874   1
   2   0  13 1.24916 2.66105   7
   2   0 -13 2.42587 2.22069   7
  -2   0 -13 3.22672 2.41077   1
  -3   0  13 13.1844 3.69981   1
  -3   0 -13 9.34667 3.65209   6
   3   0 -13 12.0621 3.21301   7
  -3   0 -13 11.4809 3.15797   1
   3   0  13 11.9117 3.52851   7
  -4   0 -13 -0.9337 1.97934   1
   4   0 -13 -1.0043 1.94854   7
  -4   0  13 2.27522 2.71935   1
   4   0  13 2.02110 2.76428   7
  -5   0  13 3.36333 2.71562   1
   5   0  13 -2.1346 2.41972   7
   5   0 -13 3.40148 2.44785   7
  -5   0 -13 1.22451 2.22535   1
  -6   0 -13 0.38359 2.13248   1
  -6   0  13 6.50280 3.00579   1
   6   0 -13 2.03138 2.31844   7
   6   0  13 0.15469 2.48657   7
   7   0 -13 5.66573 2.63187   7
   7   0  13 4.60935 2.91343   7
  -7   0  13 10.8120 3.30975   1
  -7   0 -13 13.8395 3.05199   1
  -8   0 -13 1.52207 2.17412   1
  -8   0  13 -0.1666 2.38338   1
  -9   0  13 -1.3812 2.34283   1
   0   1  13 121.847 6.86285   1
   0   1 -13 129.238 7.26350   6
   0   1 -13 119.145 6.56726   1
   0   1 -13 125.762 6.82119   7
   0  -1  13 112.765 7.00532   7
   0  -1 -13 128.884 6.64991   7
   0   1  13 135.779 7.23754   7
   0  -1  13 147.877 7.29049   1
   0  -1 -13 124.652 6.61599   1
   1   1 -13 10.4473 3.25684   6
  -1   1  13 8.44481 3.36315   1
   1   1 -13 12.1908 3.28959   7
  -1  -1 -13 7.56002 2.85741   1
   1  -1  13 8.87627 3.25585   7
   1  -1  13 6.16786 3.21463   1
   1   1  13 9.88025 3.30630   7
  -1  -1  13 7.05372 3.36120   1
  -1   1 -13 9.29296 3.20351   6
  -1   1 -13 9.01733 2.99421   1
   1   1  13 12.4412 3.33256   1
   1  -1 -13 7.59347 2.96151   7
  -2  -1 -13 18.5291 3.59949   1
  -2   1  13 9.78977 3.44328   1
   2  -1  13 17.0278 3.81402   7
   2   1 -13 13.1552 3.14120   7
   2   1  13 6.58963 3.00809   7
   2  -1 -13 20.4295 3.56600   7
  -2  -1  13 16.6786 3.92884   1
  -2   1 -13 15.9934 3.47806   1
  -2   1 -13 12.3581 3.26052   6
   3   1 -13 7.78024 2.96430   7
   3  -1  13 7.71390 3.36550   7
  -3  -1 -13 12.6217 3.14991   1
  -3   1  13 12.2323 3.56162   1
  -3   1 -13 7.42534 2.82718   1
  -3  -1  13 11.8651 3.61294   1
  -3   1 -13 8.65119 3.01412   6
   3   1  13 13.0360 3.47760   7
   3  -1 -13 12.5203 3.26165   7
   4  -1  13 106.423 6.35692   7
  -4  -1 -13 93.6880 5.75325   1
  -4   1  13 106.913 6.28785   1
   4   1 -13 106.907 6.01110   7
   4  -1 -13 99.9622 5.89687   7
   4   1  13 115.597 6.45140   7
  -4   1 -13 103.174 5.92218   1
  -4  -1  13 96.5101 6.07247   1
   5  -1  13 3.63696 2.98652   7
   5   1 -13 5.58419 2.46172   7
  -5  -1 -13 4.88697 2.53449   1
  -5   1  13 5.87168 2.97765   1
  -5   1 -13 2.69496 2.46884   1
   5   1  13 3.01283 2.71005   7
  -5  -1  13 6.16736 2.97348   1
   5  -1 -13 2.82720 2.38627   7
  -6  -1 -13 3.71492 2.55340   1
  -6   1  13 14.9264 3.45001   1
   6   1 -13 7.38446 2.69930   7
   6  -1  13 4.62991 2.89631   7
  -6   1 -13 11.9824 3.09380   1
  -6  -1  13 14.2863 3.50935   1
   6  -1 -13 11.3280 3.03636   7
   6   1  13 12.2290 3.31722   7
  -7  -1 -13 11.1786 3.04791   1
  -7   1  13 6.98403 2.83450   1
   7  -1  13 9.79352 3.57410   7
   7   1 -13 6.82749 2.70377   7
  -7   1 -13 7.62502 2.75248   1
   7  -1 -13 8.34195 2.74884   7
  -7  -1  13 8.32119 3.08352   1
   7   1  13 15.2964 3.66484   7
  -8   1  13 69.5611 4.80252   1
  -8  -1 -13 68.9686 4.83151   1
  -8   1 -13 68.5731 4.75704   1
  -8  -1  13 71.4812 5.00142   1
  -9   1  13 7.08176 3.23936   1
  -9  -1  13 6.05690 3.04490   1
   0   2 -13 133.768 7.56013   6
   0  -2 -13 142.132 7.18464   7
   0   2 -13 146.508 7.21493   1
   0  -2 -13 134.834 7.03174   1
   0   2 -13 139.429 7.21272   7
   0   2  13 145.586 7.48091   7
   0  -2  13 130.732 7.29068   1
   0  -2  13 136.014 7.35322   7
   0   2  13 150.866 7.42422   1
   1  -2  13 8.37293 3.31002   7
  -1  -2 -13 7.37694 2.82184   1
   1   2 -13 5.79003 2.64165   7
   1  -2  13 9.18250 3.29987   1
  -1   2  13 9.85085 3.28087   1
   1   2 -13 8.67190 2.95738   6
   1   2  13 14.1050 3.51084   7
  -1   2 -13 7.97761 2.77974   1
   1  -2 -13 6.50043 2.85084   7
  -1   2 -13 13.8205 3.58047   6
  -1  -2  13 12.4883 3.46558   1
   1   2  13 11.0531 3.21147   1
   2  -2  13 140.737 7.39623   7
  -2   2  13 127.191 7.13144   1
  -2  -2 -13 139.811 6.98952   1
   2   2 -13 129.847 6.85951   7
   2   2 -13 129.214 7.53807   6
  -2  -2  13 141.721 7.34064   1
  -2   2 -13 139.681 7.36992   6
  -2   2 -13 126.526 6.79359   1
   2   2  13 140.650 7.33831   7
   2  -2 -13 129.448 6.89001   7
  -3   2  13 3.64667 2.89381   1
   3   2 -13 6.69038 2.77319   7
  -3  -2 -13 7.53731 2.75575   1
   3  -2  13 7.61876 3.34746   7
  -3   2 -13 5.86395 2.72086   1
   3  -2 -13 8.14955 2.76966   7
   3   2  13 4.81166 2.97678   7
  -3  -2  13 7.87149 3.29468   1
  -3   2 -13 9.23115 3.03729   6
  -4  -2 -13 105.245 6.07519   1
  -4   2  13 115.649 6.48894   1
   4  -2  13 118.704 6.68084   7
   4   2 -13 121.104 6.31366   7
  -4   2 -13 107.435 6.09651   1
   4   2  13 121.593 6.60947   7
  -4  -2  13 103.289 6.37498   1
   4  -2 -13 103.986 6.07914   7
   5  -2  13 7.18641 3.22544   7
   5   2 -13 7.78417 2.73859   7
  -5  -2 -13 7.17623 2.94999   1
  -5   2  13 8.23140 3.11237   1
   5  -2 -13 6.69120 2.61181   7
   5   2  13 2.05067 2.66322   7
  -5  -2  13 11.5577 3.35183   1
  -5   2 -13 11.1129 3.00296   1
  -6   2  13 88.0847 5.53129   1
   6  -2  13 88.7613 5.80022   7
   6   2 -13 86.5799 5.33005   7
  -6  -2 -13 86.5360 5.44831   1
   6  -2 -13 88.5056 5.32265   7
  -6   2 -13 89.1132 5.55844   1
  -6  -2  13 83.1171 5.50104   1
   6   2  13 103.463 5.98869   7
  -7   2  13 6.02216 2.82358   1
  -7  -2 -13 9.42450 2.82722   1
   7   2 -13 5.71163 2.69999   7
  -7  -2  13 8.23193 2.97686   1
  -7   2 -13 5.40980 2.69101   1
   7  -2 -13 3.85502 2.72311   7
  -8  -2 -13 60.0039 4.52381   1
  -8   2  13 68.3824 4.68561   1
  -8  -2  13 62.1062 4.79176   1
  -8   2 -13 66.7727 4.70414   1
   0  -3 -13 58.6019 4.61766   7
   0  -3  13 53.5309 4.93927   1
   0   3 -13 60.6859 4.95476   6
   0   3 -13 55.1236 4.46640   7
   0  -3  13 56.3323 4.95977   7
   0   3 -13 57.0571 4.57146   1
   0  -3 -13 60.5540 4.67340   1
   0   3  13 54.7651 4.90867   7
   0   3  13 44.2580 4.42608   1
  -1  -3 -13 2.35459 2.51556   1
   1  -3  13 2.03736 2.80852   7
   1   3 -13 0.31197 2.06674   7
   1  -3  13 2.15559 2.74516   1
   1   3 -13 -0.4041 2.35874   6
  -1   3  13 2.79204 2.79462   1
   1  -3 -13 3.05370 2.35989   7
   1   3  13 -0.0181 2.47923   7
   1   3  13 3.57176 2.78713   1
  -1   3 -13 0.29717 2.30324   6
  -1   3 -13 3.28859 2.38151   1
  -1  -3  13 0.84355 2.75704   1
   2  -3  13 582.353 19.7100   7
   2   3 -13 563.184 19.0807   7
   2   3 -13 583.452 20.4302   6
  -2  -3 -13 572.828 19.2069   1
  -2   3  13 591.517 19.5600   1
  -2   3 -13 582.659 19.7410   6
   2   3  13 596.021 19.7619   7
  -2   3 -13 571.381 19.1717   1
  -2  -3  13 581.243 19.4867   1
   2  -3 -13 597.254 19.3721   7
   3   3 -13 -1.4560 2.32053   6
   3  -3  13 -0.5049 2.75567   7
  -3   3  13 2.12677 2.63938   1
  -3  -3 -13 2.43699 2.56235   1
   3   3 -13 -0.5061 2.08318   7
  -3  -3  13 -1.5147 2.48967   1
  -3   3 -13 1.87302 2.38941   6
   3   3  13 5.31524 3.04834   7
  -3   3 -13 1.41961 2.26446   1
   3  -3 -13 3.56700 2.50686   7
   4  -3  13 41.0177 4.39234   7
  -4   3  13 38.3805 4.18162   1
   4   3 -13 50.9064 4.12209   7
  -4  -3 -13 42.5882 4.20144   1
  -4  -3  13 44.0645 4.27373   1
   4   3  13 38.7845 4.25324   7
   4  -3 -13 44.5658 4.10591   7
  -4   3 -13 38.7941 4.01074   1
  -5   3  13 0.15532 2.46367   1
   5  -3  13 -0.0337 2.65191   7
  -5  -3 -13 -0.1234 2.29268   1
   5   3 -13 4.86730 2.58542   7
  -5  -3  13 3.31374 2.90590   1
   5  -3 -13 0.32288 2.23192   7
   5   3  13 -0.0741 2.33912   7
  -5   3 -13 3.22728 2.39296   1
   6  -3  13 399.117 14.3924   7
  -6   3  13 389.823 14.0706   1
  -6  -3 -13 400.401 14.2627   1
   6   3 -13 398.092 14.1458   7
  -6   3 -13 397.926 14.2553   1
  -6  -3  13 402.736 14.1776   1
   6   3  13 389.658 14.2670   7
   6  -3 -13 401.283 14.0347   7
  -7  -3 -13 0.88756 2.12696   1
  -7   3  13 -1.5398 2.28711   1
  -7   3 -13 -3.4543 1.76797   1
  -7  -3  13 0.13313 2.75910   1
  -8   3  13 23.7604 3.23360   1
  -8  -3 -13 25.5172 3.47373   1
  -8  -3  13 21.8508 3.54519   1
  -8   3 -13 29.7672 3.69271   1
   0  -4  13 77.8197 5.54299   7
   0   4 -13 71.6076 4.97922   7
   0   4  13 77.3469 5.62721   7
   0  -4  13 74.7427 5.38336   1
   0  -4 -13 73.0765 5.06502   7
   0   4  13 72.3202 5.23856   1
   0  -4 -13 68.0998 4.90620   1
   0   4 -13 73.5389 5.50251   6
   0   4 -13 65.4460 4.84586   1
   1   4 -13 0.03529 2.23309   6
  -1   4  13 -2.7926 2.34068   1
   1  -4  13 -1.9015 2.72516   7
  -1  -4 -13 -1.2491 2.07288   1
   1  -4  13 2.73162 2.67893   1
   1   4 -13 -1.0975 1.89371   7
  -1   4 -13 0.40710 2.39501   6
   1   4  13 1.43808 2.64755   1
   1  -4 -13 0.81783 2.14368   7
  -1   4 -13 1.06705 2.27528   1
  -1  -4  13 -3.7046 2.23136   1
   1   4  13 -1.0293 2.53620   7
   2  -4  13 125.396 6.98207   7
  -2   4  13 131.656 6.99111   1
   2   4 -13 137.162 6.95176   7
  -2  -4 -13 143.092 7.08440   1
   2   4 -13 137.363 7.81284   6
  -2  -4  13 137.756 7.14873   1
  -2   4 -13 132.370 6.93391   1
   2   4  13 128.520 7.13922   7
  -2   4 -13 128.903 7.20424   6
   2  -4 -13 138.308 7.13863   7
   3  -4  13 -1.2782 2.37601   7
   3   4 -13 0.13284 2.29244   6
  -3  -4 -13 1.32886 2.40941   1
   3   4 -13 -0.7685 1.93021   7
  -3   4  13 3.21210 2.76219   1
   3   4  13 2.91911 2.58049   7
   3  -4 -13 -0.9489 2.15082   7
  -3   4 -13 3.16665 2.47957   6
  -3   4 -13 0.15062 2.20254   1
  -3  -4  13 0.19611 2.78076   1
  -4   4  13 61.6678 4.66498   1
   4   4 -13 68.3100 5.65643   6
  -4  -4 -13 56.8264 4.63630   1
   4  -4  13 56.8369 4.79534   7
   4   4 -13 58.2473 4.43955   7
   4  -4 -13 56.7336 4.58988   7
  -4  -4  13 58.0594 4.70273   1
  -4   4 -13 65.2627 4.77694   1
   4   4  13 60.8926 4.87418   7
  -4   4 -13 64.4065 4.92818   6
   5   4 -13 3.66799 2.46763   7
   5  -4  13 5.05685 2.96962   7
  -5   4  13 2.53449 2.40045   1
  -5  -4 -13 1.78124 2.34064   1
  -5  -4  13 0.60964 2.58309   1
   5   4  13 0.86866 2.66338   7
  -5   4 -13 -1.8790 1.92617   1
   5  -4 -13 2.31154 2.29773   7
   6  -4  13 95.9827 6.19608   7
  -6  -4 -13 94.9326 5.72880   1
   6   4 -13 106.744 5.98720   7
  -6   4  13 96.7052 5.80445   1
   6  -4 -13 105.301 5.96386   7
  -6  -4  13 98.7877 5.97801   1
   6   4  13 97.9438 6.02610   7
  -6   4 -13 92.5348 5.71787   1
  -7   4  13 -1.5213 2.35465   1
  -7  -4 -13 -0.6857 2.19911   1
  -7  -4  13 1.99416 2.69801   1
  -7   4 -13 -1.2276 2.07799   1
  -8   4  13 41.3279 4.03579   1
  -8  -4 -13 37.3358 3.97464   1
  -8  -4  13 33.9367 4.16670   1
  -8   4 -13 42.7474 3.95799   1
   0   5  13 275.615 13.5671   7
   0  -5 -13 257.491 10.7776   7
   0   5  13 279.386 10.9965   1
   0  -5  13 273.219 11.0991   7
   0  -5 -13 272.271 10.8138   1
   0  -5  13 242.556 10.6462   1
   0   5 -13 267.029 10.9405   7
   0   5 -13 269.146 10.7472   1
   0   5 -13 268.454 11.5022   6
   1   5 -13 2.72928 2.58848   6
   1  -5  13 0.12248 2.60799   7
  -1  -5 -13 -1.1698 2.22560   1
   1   5 -13 3.97054 2.57093   7
  -1   5  13 3.02238 2.87676   1
   1  -5  13 7.05579 5.15530   1
   1  -5 -13 -0.4228 2.17764   7
  -1  -5  13 1.62403 2.74800   1
   1   5  13 3.10732 2.67476   1
  -1   5 -13 1.31733 2.26637   1
   1   5  13 3.75264 2.85436   7
  -1   5 -13 1.84878 2.42307   6
   2   5 -13 119.586 6.59945   7
   2  -5  13 119.980 6.85141   7
  -2  -5 -13 115.812 6.49278   1
   2   5 -13 132.553 7.61992   6
  -2   5  13 130.121 6.87991   1
   2   5  13 119.610 6.86948   7
  -2  -5  13 124.321 6.92536   1
   2  -5 -13 123.276 6.67123   7
  -2   5 -13 116.002 6.79902   6
  -2   5 -13 126.430 6.71068   1
   3   5 -13 3.38655 2.15196   7
  -3   5  13 3.12806 2.68402   1
  -3  -5 -13 5.05681 2.53910   1
  -3   5  13 -1.3804 2.56792   6
   3  -5  13 0.95715 2.65010   7
   3   5 -13 1.88173 2.74341   6
   3  -5 -13 -1.6388 2.10800   7
  -3  -5  13 0.56868 2.76033   1
  -3   5 -13 -0.5848 2.12338   1
   3   5  13 0.72381 2.64992   7
  -3   5 -13 0.46042 2.13283   6
   4   5 -13 217.646 9.24512   7
   4   5 -13 204.691 12.4864   6
  -4   5  13 220.230 9.46174   1
   4  -5  13 221.238 9.60942   7
  -4  -5 -13 219.128 9.38875   1
   4  -5 -13 214.993 9.22808   7
  -4  -5  13 211.088 9.52769   1
   4   5  13 237.293 9.88954   7
  -4   5 -13 227.617 9.85944   6
  -4   5 -13 207.433 9.25325   1
  -5   5  13 1.34239 2.48496   1
   5   5 -13 -1.8945 1.93760   7
   5  -5  13 5.86725 3.06251   7
  -5  -5 -13 -2.5094 2.12253   1
  -5  -5  13 3.71321 2.80953   1
  -5   5 -13 1.59556 2.21636   1
   5  -5 -13 0.31795 2.42751   7
   5   5  13 -0.1394 2.61265   7
  -6  -5 -13 70.9386 4.93011   1
  -6   5  13 72.8729 5.14718   1
   6   5 -13 81.3433 5.68889   7
   6  -5  13 79.5928 6.40775   7
  -6  -5  13 81.1138 5.42889   1
  -6   5 -13 80.1889 5.21963   1
   6  -5 -13 69.6632 5.09560   7
   6   5  13 75.9887 6.14803   7
  -7  -5 -13 2.15546 2.49870   1
  -7   5  13 2.43665 2.47294   1
  -7  -5  13 4.00223 2.79838   1
  -7   5 -13 3.43757 2.38728   1
  -8  -5 -13 133.922 8.49371   1
  -8   5  13 133.147 6.89478   1
  -8   5 -13 144.709 9.52230   1
  -8  -5  13 127.619 7.01613   1
   0   6 -13 6.18693 2.64655   1
   0   6  13 3.04977 2.84857   1
   0  -6  13 6.26211 3.19969   1
   0  -6 -13 5.85244 2.75341   1
   0   6 -13 4.06493 2.49234   7
   0   6 -13 7.75744 3.11361   6
   0  -6 -13 8.74509 3.04125   7
   0   6  13 10.0819 3.53830   6
  -1   6  13 3.79464 2.85220   1
   1   6 -13 2.15578 2.71188   6
  -1  -6 -13 5.04381 2.66210   1
  -1   6  13 6.42376 3.07330   6
   1  -6  13 6.29323 3.02511   7
   1   6 -13 1.61725 2.08395   7
   1   6  13 6.02134 2.92029   6
   1  -6 -13 1.21043 2.33046   7
  -1  -6  13 1.37005 2.88541   1
   1   6  13 5.38518 2.74435   7
  -1   6 -13 -0.5654 2.01454   6
  -1   6 -13 2.88949 2.37770   1
   2  -6  13 187.166 9.04611   7
  -2  -6 -13 205.201 8.95922   1
  -2   6  13 197.935 9.61736   6
   2   6 -13 194.077 8.78739   7
  -2   6  13 195.981 8.86789   1
   2   6 -13 201.380 9.77814   6
  -2   6 -13 198.970 9.36892   6
  -2   6 -13 194.439 8.76083   1
   2  -6 -13 196.146 8.87133   7
   2   6  13 196.847 9.10979   7
  -2  -6  13 188.921 8.89363   1
   3  -6  13 5.22289 3.22037   7
  -3  -6 -13 3.47221 2.53151   1
  -3   6  13 0.85365 2.56350   1
   3   6 -13 2.79545 3.45619   6
   3   6 -13 1.77742 2.11851   7
  -3   6 -13 1.03289 2.39832   6
   3  -6 -13 0.21426 2.48350   7
  -3  -6  13 7.28084 3.51988   1
   3   6  13 6.48078 2.98118   7
  -3   6 -13 0.67326 2.23782   1
   4   6 -13 3.33120 2.39478   7
  -4  -6 -13 2.90924 2.71201   1
   4  -6  13 7.16642 3.22866   7
  -4   6  13 3.19624 2.76651   1
  -4   6 -13 3.83514 2.64757   6
   4  -6 -13 3.84105 2.71283   7
   4   6  13 13.5297 3.48965   7
  -4   6 -13 6.01189 2.63435   1
  -4  -6  13 2.42686 2.96213   1
   5   6 -13 5.36136 2.46766   7
  -5   6  13 3.36382 2.55189   1
   5  -6  13 1.01974 2.77987   7
  -5  -6 -13 0.07451 2.41663   1
   5  -6 -13 0.95902 2.42291   7
  -5   6 -13 0.99572 2.20120   1
  -5  -6  13 1.52806 2.72670   1
   5   6  13 -2.6767 2.40714   7
  -6  -6 -13 131.761 6.88570   1
  -6   6  13 128.319 6.86326   1
  -6  -6  13 131.292 6.96975   1
  -6   6 -13 128.487 6.78484   1
  -7   6  13 0.40203 2.55502   1
  -7  -6 -13 5.62774 2.80039   1
  -7   6 -13 7.63643 2.70414   1
  -7  -6  13 -0.1035 2.70472   1
   0  -7 -13 207.388 9.17715   7
   0   7  13 229.925 9.81377   1
   0   7 -13 206.496 10.9597   6
   0   7  13 209.933 9.94259   6
   0  -7 -13 193.337 9.01532   1
   0   7 -13 193.351 8.87125   7
   0  -7  13 208.615 9.53215   1
   0   7 -13 197.490 8.82067   1
  -1   7  13 11.1396 3.65824   6
  -1  -7 -13 15.8491 3.49893   1
  -1   7  13 13.1860 3.49617   1
   1  -7  13 14.7850 3.99388   7
   1   7 -13 11.2402 2.83378   7
   1   7  13 11.2949 3.33981   7
  -1   7 -13 9.07861 3.75937   6
  -1   7 -13 7.56964 2.82425   1
   1  -7 -13 8.89496 2.93118   7
  -1  -7  13 9.06076 3.60015   1
  -2   7  13 381.271 14.4185   1
  -2  -7 -13 398.934 14.6103   1
   2  -7  13 397.552 14.5812   7
   2   7 -13 404.517 14.6367   7
   2   7  13 404.955 14.7475   7
  -2   7 -13 410.694 14.6625   1
  -2  -7  13 391.828 14.5157   1
   2  -7 -13 401.170 14.7484   7
   3  -7  13 9.25489 3.34461   7
  -3   7  13 7.80523 3.05495   1
  -3  -7 -13 11.1759 3.19375   1
   3   7 -13 10.5459 2.71124   7
  -3   7 -13 7.93809 2.82236   1
  -3  -7  13 11.7751 3.56889   1
   3  -7 -13 15.2901 3.35997   7
   3   7  13 12.2205 3.43744   7
   4   7 -13 141.039 7.32141   7
  -4   7  13 161.440 7.91802   1
   4  -7  13 166.253 8.13254   7
  -4  -7 -13 146.897 7.57559   1
   4  -7 -13 163.461 7.75805   7
  -4  -7  13 156.895 8.02203   1
   4   7  13 159.657 8.06350   7
  -4   7 -13 156.279 7.60708   1
  -5   7  13 4.45615 2.86567   1
  -5  -7 -13 13.3163 3.29243   1
   5   7  13 3.00907 4.29315   7
  -5   7 -13 6.06736 2.72731   1
  -5  -7  13 10.8887 3.44314   1
  -6  -7 -13 258.314 10.5347   1
  -6   7  13 267.947 10.8031   1
  -6   7 -13 258.257 10.4197   1
  -6  -7  13 268.228 10.8521   1
  -7  -7 -13 2.38235 2.84000   1
  -7   7  13 13.2866 3.24007   1
  -7  -7  13 12.6861 3.51712   1
  -7   7 -13 8.56064 3.12159   1
   0  -8 -13 170.928 8.39477   7
   0   8  13 191.993 9.00817   1
   0  -8  13 185.762 8.90711   1
   0   8 -13 179.217 8.66560   1
   0   8 -13 179.135 8.64139   7
   0   8  13 195.940 9.32422   6
   1   8 -13 15.3930 3.33212   7
  -1   8  13 15.2873 3.53077   1
  -1  -8 -13 21.4610 3.80837   1
   1  -8  13 21.0142 4.16510   7
  -1   8 -13 14.2875 3.29449   1
   1  -8 -13 20.5598 3.89700   7
  -1  -8  13 19.3154 4.09300   1
   1   8  13 16.0554 3.66679   7
   2   8 -13 13.0699 3.32832   7
  -2   8  13 9.88558 3.12144   1
   2  -8  13 18.1367 3.98339   7
  -2  -8 -13 12.5650 3.33378   1
   2  -8 -13 11.7081 3.39667   7
  -2   8 -13 13.4411 3.35461   1
  -2  -8  13 13.7747 3.92006   1
   2   8  13 9.57894 3.24825   7
   3  -8  13 13.4641 3.73072   7
  -3  -8 -13 18.3200 3.77123   1
  -3   8  13 18.9796 3.77956   1
   3   8 -13 15.6060 3.17239   7
   3  -8 -13 22.6694 3.54209   7
   3   8  13 16.2205 3.68935   7
  -3  -8  13 16.3499 3.91671   1
  -3   8 -13 15.6006 3.35030   1
  -4  -8 -13 142.996 7.37169   1
  -4   8  13 142.709 7.47885   1
   4  -8  13 144.867 7.55955   7
   4   8 -13 134.819 7.26967   7
  -4  -8  13 141.294 7.53486   1
   4   8  13 158.824 7.78964   7
   4  -8 -13 141.180 7.45213   7
  -4   8 -13 142.875 7.28288   1
  -5   8  13 14.1315 3.34773   1
  -5  -8 -13 11.9447 3.27587   1
  -5   8 -13 11.6595 2.98256   1
  -5  -8  13 15.4070 3.77380   1
  -6   8  13 7.12774 2.93485   1
  -6  -8 -13 6.97347 2.83205   1
  -6   8 -13 12.8965 3.16148   1
  -6  -8  13 3.34416 3.02430   1
   0   9  13 -3.4946 2.32174   1
   0  -9 -13 -0.6852 2.82918   7
   0  -9  13 0.77341 3.07408   1
  -1  -9 -13 2.19328 2.64755   1
  -1   9  13 7.68634 3.11098   1
   1  -9  13 4.34550 3.28948   7
   1   9 -13 3.20065 2.44890   7
  -1  -9  13 5.75885 3.18736   1
   1  -9 -13 6.67664 2.90290   7
   1   9  13 4.42625 2.87124   7
  -1   9 -13 6.82356 2.80378   1
  -2  -9 -13 79.9710 5.52204   1
   2  -9  13 81.0363 5.87788   7
  -2   9  13 74.7247 5.44003   1
   2   9 -13 80.9871 5.46947   7
   2  -9 -13 87.4264 5.73883   7
  -2   9 -13 72.4760 5.42855   1
  -2  -9  13 78.5906 5.73228   1
   2   9  13 77.7482 5.67918   7
  -3   9  13 9.30097 3.31931   1
  -3  -9 -13 11.4281 3.38042   1
   3   9 -13 2.35244 2.39065   7
   3  -9  13 3.90054 3.15039   7
   3  -9 -13 6.44937 3.12652   7
  -3   9 -13 4.99842 2.58458   1
   3   9  13 1.03817 2.81584   7
  -3  -9  13 9.04744 3.50562   1
  -4   9  13 -0.3259 2.60875   1
  -4  -9 -13 1.86634 2.82430   1
  -4   9 -13 0.48242 2.31398   1
  -4  -9  13 2.16011 3.11600   1
  -5  -9 -13 4.61102 2.91455   1
  -5   9  13 3.63332 2.78022   1
  -5   9 -13 4.98496 2.63000   1
  -5  -9  13 5.33139 3.20508   1
   0  10  13 102.798 6.37765   1
  -1  10  13 1.08592 2.68255   1
   1 -10  13 0.23150 3.08341   7
  -1 -10 -13 4.18215 2.83026   1
   1  10 -13 1.86797 2.54956   7
  -1 -10  13 0.32873 3.14176   1
   1  10  13 0.40611 4.13859   7
  -1  10 -13 0.99945 2.55077   1
   1 -10 -13 3.72610 2.87393   7
  -2 -10 -13 161.719 8.02157   1
   2  10 -13 159.752 9.73228   7
   2 -10  13 161.759 8.48707   7
  -2  10  13 163.270 8.19926   1
   2  10  13 170.413 8.36406   7
  -2  10 -13 153.463 7.78810   1
  -2 -10  13 164.610 8.36210   1
  -3  10  13 0.31198 2.51825   1
  -3 -10 -13 6.96741 3.00919   1
  -3 -10  13 1.32682 2.93402   1
  -3  10 -13 2.76177 2.52570   1
  -4  10  13 80.1247 5.51347   1
  -4 -10 -13 81.3696 5.46085   1
  -4  10 -13 79.0284 5.48769   1
  -4 -10  13 87.9546 6.00943   1
  -1  11  13 2.00369 2.79900   1
  -1 -11 -13 1.00540 2.53743   1
  -1  11 -13 3.85890 2.64491   1
  -1 -11  13 -1.1934 2.97756   1
  -2  11  13 27.6838 4.47263   1
  -2 -11 -13 19.7551 4.02764   1
  -2  11 -13 28.4517 4.32110   1
  -2 -11  13 26.4958 4.29759   1
  -3  11  13 1.26746 2.78084   1
  -3 -11 -13 3.22690 2.80951   1
  -3  11 -13 0.11716 2.35179   1
  -3 -11  13 1.24760 3.02790   1
  -1  12  13 1.73918 2.63168   1
  -1 -12  13 -0.7748 2.87987   1
  -1  12 -13 -0.3333 2.67070   1
  -2  12  13 28.4018 4.44267   1
  -2 -12 -13 34.1100 4.21878   1
  -2 -12  13 29.7988 4.28193   1
  -2  12 -13 27.0446 3.78718   1
   0   0  14 47.2629 4.65970   1
   0   0 -14 38.8727 4.17835   7
   0   0 -14 45.0734 4.18643   1
  -1   0  14 -2.5312 2.46707   1
  -1   0 -14 -0.8220 2.25376   1
   1   0 -14 -2.1800 2.20482   7
   1   0  14 -1.2190 3.73435   1
   1   0  14 2.00020 2.94874   7
   2   0 -14 64.2378 4.86043   7
   2   0  14 65.6524 5.45413   7
  -2   0  14 66.9475 5.42433   1
  -2   0 -14 66.0805 4.90735   1
  -3   0  14 -0.0497 2.87265   1
   3   0 -14 1.53704 2.19149   7
   3   0  14 2.37395 2.91573   7
  -3   0 -14 1.99254 2.33784   1
   4   0  14 31.1095 3.95497   7
  -4   0  14 26.1601 3.75089   1
  -4   0 -14 29.2135 3.64810   1
   4   0 -14 30.9025 3.73534   7
  -5   0 -14 3.40702 2.49407   1
  -5   0  14 -0.8955 2.58669   1
   5   0  14 -1.8020 2.41687   7
   5   0 -14 -2.1186 1.96371   7
  -6   0 -14 44.2906 4.14993   1
  -6   0  14 50.7333 4.57491   1
  -7   0  14 1.16684 2.46390   1
  -7   0 -14 3.42776 2.50887   1
   0  -1 -14 197.950 9.03501   7
   0   1 -14 204.757 9.10813   7
   0   1 -14 197.080 9.53226   6
   0  -1  14 201.323 9.27414   1
   0  -1 -14 198.751 8.93252   1
   0   1 -14 188.714 8.70588   1
   0   1  14 195.083 9.00103   1
   1  -1  14 3.80743 3.19316   7
   1   1 -14 -0.6542 2.29245   7
  -1   1  14 3.10746 3.00057   1
  -1  -1 -14 -0.4805 2.35023   1
  -1   1 -14 0.01737 2.23533   1
   1  -1 -14 4.15390 2.61654   7
  -1   1 -14 2.68038 2.50950   6
  -1  -1  14 2.66818 2.81053   1
   1   1  14 2.42118 2.86571   7
   1   1  14 4.57557 3.88876   1
  -2   1  14 608.451 20.8648   1
   2  -1  14 611.780 21.0648   7
   2   1 -14 622.218 20.5108   7
  -2  -1 -14 614.978 20.4519   1
   2   1  14 669.063 21.3883   7
  -2  -1  14 661.933 21.0879   1
   2  -1 -14 596.848 20.4468   7
  -2   1 -14 621.479 20.9894   6
  -2   1 -14 646.131 20.5633   1
  -3  -1 -14 1.63519 2.40236   1
   3  -1  14 0.60694 2.82534   7
   3   1 -14 -0.1603 2.06418   7
  -3   1  14 1.65745 2.73662   1
   3   1  14 3.85813 3.10479   7
  -3  -1  14 3.74906 2.88267   1
   3  -1 -14 1.04365 2.25505   7
  -3   1 -14 2.71940 2.51099   1
   4  -1  14 169.962 8.23785   7
  -4   1  14 155.042 7.88446   1
  -4  -1 -14 150.149 7.69645   1
   4   1 -14 167.031 7.86996   7
  -4  -1  14 166.537 7.90444   1
   4   1  14 157.864 7.96692   7
   4  -1 -14 162.771 7.74448   7
  -4   1 -14 153.117 7.60056   1
   5  -1  14 3.64927 2.85157   7
  -5   1  14 -1.2953 2.42789   1
   5   1 -14 1.96151 2.45203   7
  -5  -1 -14 2.63975 2.37865   1
   5  -1 -14 -0.7640 2.19535   7
   5   1  14 6.82699 2.99077   7
  -5   1 -14 -0.2299 2.05871   1
  -5  -1  14 2.70878 2.90878   1
  -6   1  14 411.698 14.6707   1
  -6  -1 -14 407.295 14.4734   1
  -6  -1  14 412.748 14.7564   1
  -6   1 -14 396.833 14.3988   1
  -7  -1 -14 -0.4253 2.37787   1
  -7   1  14 2.37197 2.67232   1
  -7  -1  14 0.78691 2.63860   1
  -7   1 -14 -0.0616 2.16872   1
   0  -2 -14 347.792 13.1114   7
   0   2  14 376.811 13.6903   1
   0   2 -14 342.215 13.7491   6
   0  -2 -14 344.951 12.9713   1
   0   2 -14 353.985 13.0669   1
   0   2 -14 323.675 12.9340   7
   0  -2  14 348.424 13.6175   1
   1   2 -14 2.78200 2.40295   7
   1   2 -14 2.38754 2.60078   6
   1  -2  14 4.71227 3.17675   7
  -1   2  14 6.36291 3.25149   1
  -1  -2 -14 2.58448 2.53701   1
  -1   2 -14 1.93448 2.45871   6
   1  -2 -14 1.99445 2.30245   7
  -1   2 -14 -1.3606 2.22130   1
  -1  -2  14 1.83584 2.92822   1
   1   2  14 -0.4259 2.76450   7
  -2   2  14 131.888 7.23533   1
  -2  -2 -14 130.985 7.16415   1
   2  -2  14 141.052 7.54930   7
   2   2 -14 136.490 7.22255   7
  -2  -2  14 141.982 7.45123   1
  -2   2 -14 138.264 7.63133   6
  -2   2 -14 142.613 7.27172   1
   2  -2 -14 147.271 7.30561   7
   2   2  14 131.593 7.41650   7
  -3  -2 -14 2.07286 2.51212   1
  -3   2  14 -1.8046 2.44126   1
   3  -2  14 3.54887 2.96160   7
   3   2 -14 1.71953 2.25900   7
  -3   2 -14 0.50613 2.27388   1
   3  -2 -14 0.52733 2.09419   7
  -3  -2  14 2.79292 3.07241   1
   3   2  14 2.67533 2.77962   7
  -3   2 -14 3.84274 2.64721   6
   4   2 -14 286.495 11.1749   7
  -4   2  14 258.354 10.8596   1
   4  -2  14 272.638 11.2154   7
  -4  -2 -14 287.380 11.2248   1
  -4   2 -14 265.048 11.0051   1
   4  -2 -14 269.751 11.0133   7
   4   2  14 263.832 11.0437   7
  -4  -2  14 280.686 11.1202   1
   5  -2  14 0.94811 2.80237   7
  -5   2  14 3.29330 2.87039   1
   5   2 -14 2.54531 2.39193   7
  -5  -2 -14 2.81469 2.54438   1
  -5   2 -14 -0.2992 2.25526   1
  -5  -2  14 3.03387 2.95178   1
   5  -2 -14 1.59974 2.47371   7
   5   2  14 -1.1829 2.40402   7
  -6  -2 -14 94.8339 5.84252   1
  -6   2  14 92.4626 5.78963   1
  -6   2 -14 95.8758 5.81748   1
  -6  -2  14 86.4293 5.61528   1
  -7  -2 -14 -2.2041 2.11992   1
  -7   2  14 4.86481 2.78094   1
  -7   2 -14 0.10780 2.22312   1
  -7  -2  14 1.30641 2.74911   1
   0  -3 -14 26.8480 3.68281   1
   0   3  14 36.7870 4.27940   1
   0   3 -14 42.2654 4.58926   6
   0  -3 -14 43.5261 4.38921   7
   0  -3  14 38.4961 4.42014   1
   0   3 -14 44.2983 4.22001   1
   0   3 -14 33.2465 3.94843   7
   1   3 -14 7.33236 3.15977   6
  -1  -3 -14 7.65231 3.05556   1
  -1   3  14 3.85343 3.23032   1
   1  -3  14 7.31247 3.16566   7
   1   3 -14 0.79399 2.29552   7
   1   3  14 6.19775 3.10706   7
  -1   3 -14 2.60239 2.40766   1
  -1  -3  14 4.46707 3.29704   1
   1  -3 -14 4.68928 2.64774   7
  -1   3 -14 2.77291 2.74204   6
   2   3 -14 40.5921 4.11521   7
  -2  -3 -14 37.4366 4.23512   1
  -2   3  14 39.7647 4.37121   1
   2   3 -14 36.6845 4.40101   6
   2  -3  14 36.9536 4.47274   7
   2   3  14 39.3212 4.26432   7
   2  -3 -14 38.9811 3.95252   7
  -2   3 -14 39.0821 4.12874   1
  -2  -3  14 38.4733 4.59206   1
  -2   3 -14 36.3220 4.05713   6
   3  -3  14 6.06440 3.18479   7
  -3  -3 -14 5.44577 2.77105   1
  -3   3  14 4.61334 3.01896   1
   3   3 -14 0.22875 2.00952   7
  -3   3 -14 1.31195 2.32814   6
   3  -3 -14 5.19029 2.61432   7
   3   3  14 2.49857 2.86691   7
  -3   3 -14 5.12312 2.72286   1
  -3  -3  14 4.41717 3.07204   1
  -4   3  14 26.4412 3.78576   1
  -4  -3 -14 27.0100 3.60222   1
   4  -3  14 28.5909 4.15326   7
   4   3 -14 31.4246 3.72899   7
  -4   3 -14 31.6208 3.82445   1
   4   3  14 35.7489 3.97598   7
   4  -3 -14 33.0258 3.81440   7
  -4  -3  14 27.4410 3.87273   1
  -5  -3 -14 1.36051 2.42542   1
   5   3 -14 6.58668 2.69114   7
   5  -3  14 3.77026 3.02349   7
  -5   3  14 4.86932 2.97127   1
   5  -3 -14 1.72127 2.41325   7
   5   3  14 -0.5243 2.41183   7
  -5  -3  14 1.78464 2.76480   1
  -5   3 -14 2.29166 2.38497   1
  -6  -3 -14 25.0581 3.45806   1
  -6   3  14 23.9459 3.64777   1
  -6   3 -14 31.6802 3.67698   1
  -6  -3  14 29.0893 4.53958   1
  -7  -3 -14 0.61649 2.37799   1
  -7   3  14 1.53559 2.65249   1
  -7   3 -14 -0.1829 2.38748   1
  -7  -3  14 -2.0447 2.67752   1
   0   4 -14 198.864 9.55548   6
   0   4 -14 187.375 8.78443   7
   0  -4 -14 187.499 8.82678   7
   0   4  14 209.083 9.28988   1
   0   4 -14 204.584 8.91935   1
   0  -4  14 194.973 9.17808   1
   0  -4 -14 187.311 8.61986   1
   1  -4  14 9.27765 3.40815   7
  -1   4  14 5.43696 3.15596   1
   1   4 -14 5.82975 2.95106   6
   1   4 -14 3.24112 2.53944   7
  -1  -4 -14 -0.0808 2.51644   1
  -1   4 -14 8.32295 3.13918   6
   1  -4 -14 1.95902 2.29524   7
   1   4  14 6.07587 2.97869   7
  -1   4 -14 8.53714 2.95224   1
  -1  -4  14 5.51043 3.13625   1
  -2   4  14 114.709 6.60213   1
  -2  -4 -14 106.472 6.41487   1
   2   4 -14 122.691 6.57325   7
   2  -4  14 117.561 6.93252   7
   2  -4 -14 120.089 6.56111   7
  -2   4 -14 115.197 6.89380   6
  -2   4 -14 109.516 6.42378   1
  -2  -4  14 118.633 6.91183   1
   2   4  14 110.025 6.56157   7
   3   4 -14 6.53515 2.54885   7
   3  -4  14 2.03263 3.14375   7
  -3   4  14 1.15300 2.68551   1
  -3  -4 -14 4.87505 2.68664   1
  -3   4 -14 5.01049 2.45337   1
   3   4  14 10.8589 3.45339   7
   3  -4 -14 1.41219 2.44770   7
  -3   4 -14 5.68045 2.82558   6
  -3  -4  14 5.96396 3.38201   1
   4   4 -14 163.423 7.81634   7
  -4  -4 -14 148.748 7.59105   1
  -4   4  14 158.774 7.78976   1
   4  -4  14 156.633 8.08080   7
   4   4  14 150.837 7.88334   7
   4  -4 -14 155.624 7.62567   7
  -4  -4  14 172.528 8.05791   1
  -4   4 -14 168.508 7.94116   1
   5   4 -14 1.99114 2.42036   7
   5  -4  14 7.50118 3.30923   7
  -5   4  14 2.09825 2.61296   1
  -5  -4 -14 5.28025 2.75871   1
  -5  -4  14 3.17819 2.97356   1
   5   4  14 0.34668 2.59038   7
  -5   4 -14 3.14461 2.67108   1
   5  -4 -14 8.69886 2.94257   7
  -6  -4 -14 74.2749 5.10353   1
  -6   4  14 71.9458 5.13476   1
  -6  -4  14 74.1224 5.26467   1
  -6   4 -14 75.1722 5.16719   1
  -7   4  14 5.28801 2.82223   1
  -7  -4 -14 2.92212 2.46074   1
  -7   4 -14 3.28297 2.51296   1
  -7  -4  14 0.12713 2.84997   1
   0  -5  14 7.01147 3.45640   1
   0  -5 -14 1.65692 2.43074   7
   0   5 -14 3.31099 2.60799   7
   0   5 -14 8.22370 3.04702   1
   0  -5 -14 4.39962 3.28253   1
   0   5  14 9.64582 3.30759   1
   1   5 -14 4.73939 2.49871   7
  -1  -5 -14 4.91799 2.91996   1
   1  -5  14 4.54544 3.26729   7
  -1   5  14 1.42576 2.67744   1
   1   5  14 1.26535 2.63607   7
  -1   5 -14 0.75941 2.38417   1
   1  -5 -14 2.67245 2.47141   7
  -1  -5  14 5.52038 3.16650   1
  -2  -5 -14 1.87938 2.73084   1
   2  -5  14 -1.2819 2.88598   7
  -2   5  14 1.35410 2.71144   1
   2   5 -14 -0.7665 1.99184   7
  -2   5 -14 0.38675 2.31516   1
   2  -5 -14 -1.9953 2.23818   7
   2   5  14 4.74952 3.00755   7
  -2  -5  14 0.76889 2.90916   1
   3   5 -14 4.26665 2.55601   7
  -3   5  14 8.15164 3.21371   1
   3  -5  14 3.55285 3.17829   7
  -3  -5 -14 5.80611 2.90433   1
   3   5  14 3.05540 3.08438   7
   3  -5 -14 6.22714 2.72351   7
  -3  -5  14 4.29908 3.23899   1
  -3   5 -14 4.13799 2.56301   1
  -4  -5 -14 0.92331 2.47215   1
   4  -5  14 4.66009 3.18399   7
   4   5 -14 1.86546 2.25567   7
  -4   5  14 4.60224 2.91931   1
  -4   5 -14 1.60632 2.36511   1
  -4  -5  14 2.73568 2.94616   1
   4  -5 -14 5.29886 2.75365   7
   4   5  14 6.51020 3.13083   7
  -5  -5 -14 3.41863 2.62450   1
  -5   5  14 3.90180 2.64226   1
  -5   5 -14 1.59567 2.44514   1
  -5  -5  14 -1.0817 2.57670   1
  -6  -5 -14 1.83114 2.30360   1
  -6   5  14 -0.5727 2.54185   1
  -6   5 -14 -0.7206 2.05025   1
  -6  -5  14 4.30800 3.07180   1
  -7   5  14 1.74340 4.14554   1
   0   6  14 28.8200 4.58536   1
   0  -6  14 17.0501 4.16801   1
   0  -6 -14 19.2968 3.74774   7
   0   6 -14 19.0098 3.90895   7
   0   6  14 17.1877 4.17481   6
  -1  -6 -14 1.92678 2.74463   1
   1   6 -14 1.47305 2.18761   7
   1  -6  14 5.47487 3.36143   7
  -1   6  14 3.69603 2.92769   1
  -1  -6  14 -2.4216 2.82017   1
   1   6  14 0.96180 2.70060   7
   1  -6 -14 3.89304 2.67161   7
  -1   6 -14 2.40774 2.30745   1
  -2  -6 -14 114.697 6.71535   1
   2  -6  14 126.868 7.23387   7
   2   6 -14 127.810 6.75404   7
  -2   6  14 126.412 7.12170   1
  -2   6 -14 126.032 6.80848   1
  -2  -6  14 122.039 7.13679   1
   2   6  14 129.107 7.22005   7
   2  -6 -14 115.010 6.59794   7
  -3   6  14 1.21013 2.85059   1
   3   6 -14 1.38721 2.23302   7
   3  -6  14 5.73798 3.28619   7
  -3  -6 -14 1.84544 2.68814   1
  -3  -6  14 3.82279 3.35426   1
   3   6  14 2.00203 2.75247   7
   3  -6 -14 1.28253 2.39567   7
  -3   6 -14 4.53651 2.68929   1
   4  -6  14 19.6854 4.04301   7
  -4  -6 -14 19.6670 3.90890   1
  -4   6  14 13.9362 3.68655   1
   4   6 -14 10.7547 3.37012   7
  -4  -6  14 12.9476 3.61712   1
  -4   6 -14 17.3918 3.56235   1
   4  -6 -14 24.7799 4.81984   7
   4   6  14 13.8399 3.66514   7
  -5  -6 -14 0.04131 2.36231   1
  -5   6  14 -0.0921 2.42808   1
  -5   6 -14 0.93472 2.36643   1
  -5  -6  14 3.91558 2.98335   1
  -6   6  14 81.1560 5.44416   1
  -6  -6 -14 85.5058 5.55649   1
  -6   6 -14 82.5314 5.51313   1
  -6  -6  14 83.6794 5.65670   1
   0  -7 -14 207.077 9.46037   7
   0   7  14 211.215 9.62060   1
   0  -7  14 222.355 9.89925   1
   1  -7  14 -1.0882 2.97441   7
   1   7 -14 1.90971 2.16284   7
  -1   7  14 -1.1016 2.55905   1
  -1  -7 -14 -1.4729 2.54324   1
  -1   7 -14 0.04449 2.25475   1
   1  -7 -14 -0.8499 2.44965   7
  -1  -7  14 0.74015 3.18290   1
   1   7  14 1.91468 2.72227   7
  -2   7  14 323.831 12.5402   1
  -2  -7 -14 304.584 12.0424   1
   2   7 -14 308.041 12.0518   7
   2  -7  14 323.296 12.6972   7
  -2  -7  14 311.709 12.4926   1
   2   7  14 304.161 12.4740   7
  -2   7 -14 312.882 12.1016   1
   2  -7 -14 299.985 12.0474   7
   3   7 -14 1.23330 2.25499   7
  -3  -7 -14 0.44820 2.42680   1
   3  -7  14 0.11231 2.83048   7
  -3   7  14 1.81632 2.92175   1
   3  -7 -14 -0.2768 2.22008   7
   3   7  14 2.20659 2.80095   7
  -3  -7  14 1.96412 3.24582   1
  -3   7 -14 -0.4359 2.28409   1
  -4  -7 -14 166.057 8.12188   1
  -4   7  14 161.904 8.15433   1
  -4   7 -14 166.018 7.98933   1
  -4  -7  14 173.805 8.35548   1
  -5   7  14 -1.7856 2.50677   1
  -5  -7 -14 -2.4012 2.36822   1
  -5   7 -14 -1.2082 2.16056   1
  -5  -7  14 0.52536 2.83147   1
   0  -8  14 366.256 13.8777   1
   0   8  14 364.141 13.8554   1
  -1   8  14 -2.7240 2.61171   1
  -1  -8 -14 0.99268 2.63993   1
   1  -8  14 -0.0969 2.82422   7
   1   8 -14 2.22676 2.48629   7
   1  -8 -14 0.03063 2.58787   7
   1   8  14 2.80398 2.90889   7
  -1  -8  14 0.35987 3.23411   1
  -1   8 -14 -0.9668 2.19170   1
   2  -8  14 77.5765 5.69695   7
  -2   8  14 86.3087 5.71973   1
  -2  -8 -14 73.1670 5.26560   1
   2   8 -14 80.6635 5.38110   7
  -2   8 -14 79.6480 5.49621   1
   2  -8 -14 79.6193 5.74886   7
   2   8  14 85.8877 6.09948   7
  -2  -8  14 78.4008 5.96981   1
  -3   8  14 -1.0536 2.68870   1
  -3  -8 -14 0.87491 2.45213   1
  -3  -8  14 -3.3022 2.90950   1
  -3   8 -14 2.16850 2.40120   1
  -4  -8 -14 281.725 11.2868   1
  -4   8  14 291.636 11.7915   1
  -4   8 -14 288.583 11.4324   1
  -4  -8  14 305.437 12.0813   1
  -5  -8 -14 2.70521 2.54088   1
  -5   8  14 2.73513 2.81760   1
  -5  -8  14 4.05973 3.26075   1
  -5   8 -14 2.49714 2.44064   1
   0   9  14 163.884 8.63416   1
  -1  -9 -14 0.12009 2.61644   1
  -1   9  14 0.88912 2.68832   1
   1   9 -14 7.64869 2.96829   7
   1  -9  14 4.52310 3.74866   7
   1  -9 -14 0.45754 2.85527   7
  -1   9 -14 0.21804 2.40974   1
  -1  -9  14 -1.3567 3.23140   1
  -2   9  14 131.849 7.36072   1
  -2  -9 -14 108.678 6.61245   1
  -2   9 -14 111.765 6.57170   1
  -2  -9  14 126.931 7.43045   1
  -3  -9 -14 2.77256 2.87945   1
  -3   9  14 2.01078 2.87988   1
  -3  -9  14 -3.0986 3.06749   1
  -3   9 -14 4.63518 2.71105   1
  -4  -9 -14 130.261 7.24750   1
  -4   9  14 139.438 7.36518   1
  -4   9 -14 138.092 7.23537   1
  -4  -9  14 140.092 7.66252   1
  -1  10  14 2.50141 2.87950   1
  -1 -10  14 8.73491 3.77334   1
  -1  10 -14 4.34896 2.70339   1
  -2  10  14 1.22352 2.80595   1
  -2 -10 -14 1.69239 2.59647   1
  -2  10 -14 -1.7499 2.16973   1
  -2 -10  14 0.85886 3.32234   1
  -3 -10 -14 8.63134 3.44959   1
  -3  10  14 6.36025 3.36998   1
  -3 -10  14 2.01328 3.21584   1
  -3  10 -14 4.02975 2.67320   1
  -1  11  14 5.18526 3.13277   1
  -1 -11  14 7.29186 3.50174   1
  -2 -11 -14 72.5146 7.26548   1
   0   0  15 1.33917 2.88895   1
   0   0 -15 -1.5624 2.17599   7
  -1   0 -15 12.7377 3.37672   1
   1   0 -15 12.4472 3.21452   7
  -1   0  15 9.50325 3.67145   1
   1   0  15 25.2900 4.06656   7
  -2   0  15 1.03920 2.83759   1
   2   0 -15 4.15695 2.58559   7
  -2   0 -15 -1.3591 2.37694   1
   2   0  15 1.32558 2.96515   7
   3   0 -15 7.70418 2.94887   7
   3   0  15 10.2324 3.77661   7
  -3   0  15 11.0436 3.74011   1
  -3   0 -15 9.64227 3.21124   1
  -4   0  15 0.50899 2.95325   1
   4   0 -15 1.26572 2.43969   7
  -4   0 -15 2.09586 2.48913   1
   4   0  15 4.21431 2.93018   7
  -5   0 -15 15.7873 3.42077   1
  -5   0  15 11.1578 3.42448   1
  -6   0 -15 3.49997 2.71741   1
  -6   0  15 -1.1043 2.63876   1
   0   1 -15 48.1647 4.46452   7
   0   1  15 43.7004 4.83743   1
   0  -1  15 63.3128 5.23271   1
   0  -1 -15 47.3812 4.48157   7
  -1  -1 -15 8.62317 2.99857   1
   1  -1  15 2.02350 3.03581   7
  -1   1  15 9.97673 3.63026   1
   1   1 -15 8.18641 3.05002   7
  -1  -1  15 10.0805 3.77060   1
  -1   1 -15 6.33433 2.95047   1
   1  -1 -15 13.0575 3.23281   7
   1   1  15 11.9131 3.65309   7
  -1   1 -15 15.8405 5.78364   6
  -2   1  15 102.301 6.48073   1
   2  -1  15 116.752 6.74299   7
  -2  -1 -15 96.6148 5.98205   1
   2   1 -15 100.460 6.18574   7
  -2   1 -15 92.7186 6.97462   6
   2   1  15 93.9040 6.37899   7
  -2  -1  15 95.2903 6.50545   1
   2  -1 -15 101.352 6.10507   7
  -2   1 -15 91.2573 6.00424   1
  -3  -1 -15 4.49342 2.78773   1
  -3   1  15 10.7839 3.60387   1
   3   1 -15 3.98671 2.63470   7
   3  -1  15 4.94589 3.42055   7
   3  -1 -15 6.31816 2.84144   7
  -3  -1  15 0.92751 3.28506   1
   3   1  15 0.26701 2.89103   7
  -3   1 -15 3.80249 2.92350   1
   4  -1  15 39.0171 4.35080   7
  -4   1  15 41.0477 4.29189   1
   4   1 -15 49.3719 4.37951   7
  -4  -1 -15 37.3337 4.18675   1
  -4   1 -15 41.7134 4.31319   1
   4  -1 -15 34.3089 4.03524   7
  -4  -1  15 33.4058 4.40081   1
   4   1  15 48.2828 4.75684   7
  -5   1  15 9.47130 3.46034   1
  -5  -1 -15 9.10472 3.00446   1
  -5   1 -15 8.16907 3.13150   1
  -5  -1  15 3.78998 3.07908   1
  -6  -1 -15 64.9256 4.98761   1
  -6   1  15 75.8089 5.42843   1
  -6   1 -15 69.2986 5.03186   1
  -6  -1  15 70.3574 5.37525   1
   0   2 -15 463.255 16.4311   7
   0   2  15 469.296 16.9127   1
   0  -2 -15 452.452 16.3030   7
   0  -2  15 495.750 17.1015   1
   1  -2  15 3.43373 3.33054   7
  -1  -2 -15 1.80549 2.42393   1
  -1   2  15 1.60724 2.83803   1
   1   2 -15 -0.4734 2.31907   7
  -1  -2  15 -0.8840 2.76095   1
  -1   2 -15 -0.7027 2.26624   1
   1  -2 -15 0.06863 2.24160   7
   1   2  15 -0.9201 2.81699   7
   2  -2  15 86.8976 6.15709   7
  -2  -2 -15 85.0919 5.61007   1
  -2   2  15 90.6757 5.95047   1
   2   2 -15 85.0475 5.64375   7
  -2   2 -15 68.3742 5.22257   1
   2   2  15 76.7192 5.79363   7
  -2  -2  15 83.4078 5.83129   1
   2  -2 -15 84.0843 5.56940   7
  -3   2  15 2.29284 3.06147   1
   3   2 -15 3.91959 2.66630   7
   3  -2  15 2.02456 3.03197   7
  -3  -2 -15 3.90441 2.82762   1
  -3  -2  15 8.17358 3.39992   1
   3   2  15 -1.0771 2.73503   7
  -3   2 -15 5.89120 2.80867   1
   3  -2 -15 0.93869 2.50138   7
  -4  -2 -15 347.663 13.6805   1
   4   2 -15 378.959 14.0394   7
   4  -2  15 364.240 13.8815   7
  -4   2  15 365.176 13.6483   1
   4   2  15 359.953 13.7584   7
  -4  -2  15 356.592 13.5533   1
   4  -2 -15 379.165 14.0942   7
  -4   2 -15 378.247 13.8570   1
  -5   2  15 -1.3342 2.58536   1
  -5  -2 -15 1.90374 2.70528   1
  -5   2 -15 0.49033 2.38008   1
  -5  -2  15 2.10392 2.85385   1
  -6  -2 -15 66.5988 4.99583   1
  -6   2  15 58.2301 4.87765   1
  -6  -2  15 50.0295 4.80652   1
  -6   2 -15 59.6302 4.80850   1
   0  -3 -15 223.066 9.85377   7
   0   3 -15 222.445 9.86156   7
   0   3  15 229.978 10.1661   1
   0  -3  15 218.197 10.0611   1
  -1  -3 -15 -0.0082 2.36349   1
   1  -3  15 3.77463 3.25534   7
  -1   3  15 3.37819 2.99843   1
   1   3 -15 -0.9457 2.10261   7
  -1   3 -15 -0.3144 2.29599   1
   1   3  15 -1.9247 2.89249   7
  -1  -3  15 3.87080 3.12961   1
   1  -3 -15 1.01390 2.32908   7
   2   3 -15 2.54213 2.54501   7
  -2   3  15 3.11866 3.14274   1
   2  -3  15 1.80503 3.20946   7
  -2  -3 -15 0.16506 2.45083   1
  -2   3 -15 -0.7843 2.08853   1
  -2  -3  15 -1.8895 2.90571   1
   2   3  15 1.80368 2.91803   7
   2  -3 -15 1.25824 2.34285   7
   3  -3  15 -0.9983 2.80516   7
   3   3 -15 -1.0139 2.12256   7
  -3  -3 -15 1.51992 2.59743   1
  -3   3  15 1.72076 2.95682   1
  -3  -3  15 -1.1829 2.85151   1
   3  -3 -15 0.38241 2.29203   7
   3   3  15 0.47941 2.81461   7
  -3   3 -15 0.76811 2.36888   1
  -4  -3 -15 180.556 8.58273   1
  -4   3  15 179.827 8.73149   1
  -4  -3  15 183.173 8.77483   1
   4   3  15 192.501 11.0446   7
  -4   3 -15 176.051 8.37928   1
  -5   3  15 4.82228 2.84016   1
  -5  -3 -15 1.19173 2.47550   1
  -5   3 -15 0.57322 2.46767   1
  -5  -3  15 -0.0904 2.77608   1
  -6   3  15 4.23087 2.88902   1
  -6  -3 -15 -2.6572 2.15020   1
  -6  -3  15 -2.0333 2.71139   1
  -6   3 -15 0.46595 2.52850   1
   0   4  15 433.199 15.9044   1
   0  -4 -15 431.374 15.5311   7
   0   4 -15 420.965 19.5082   7
   0  -4  15 454.628 16.1368   1
  -1  -4 -15 0.15245 2.35627   1
   1   4 -15 0.88968 2.33261   7
  -1   4  15 1.55117 3.13541   1
   1  -4  15 -2.8225 2.88341   7
   1  -4 -15 -6.1831 1.96943   7
  -1  -4  15 4.37130 3.17246   1
  -1   4 -15 -0.0484 2.40649   1
   1   4  15 -2.0745 2.57792   7
  -2  -4 -15 105.655 6.36364   1
  -2   4  15 97.0299 6.31296   1
   2   4 -15 101.075 6.20833   7
   2  -4  15 103.877 6.64969   7
   2  -4 -15 108.031 6.41483   7
  -2  -4  15 112.876 6.60544   1
  -2   4 -15 105.264 6.24452   1
   2   4  15 102.609 6.58706   7
  -3  -4 -15 2.41164 2.46803   1
   3   4 -15 -0.4439 2.22259   7
   3  -4  15 -0.5057 2.95867   7
  -3   4  15 -0.7041 2.71360   1
   3  -4 -15 -0.0634 2.36637   7
  -3   4 -15 -3.2316 1.90850   1
   3   4  15 -1.5974 2.57562   7
  -3  -4  15 2.64523 2.86375   1
  -4  -4 -15 351.874 13.3965   1
  -4   4  15 380.927 14.0983   1
  -4   4 -15 370.928 13.6287   1
  -4  -4  15 382.284 14.2167   1
  -5   4  15 2.36445 2.77411   1
  -5  -4 -15 0.12277 2.25340   1
  -5   4 -15 3.74163 2.44915   1
  -5  -4  15 -1.5368 2.85972   1
  -6   4  15 94.5144 7.96831   1
  -6  -4  15 77.4486 8.03524   1
   0  -5  15 268.454 11.4338   1
   0   5  15 289.285 11.5257   1
   1  -5  15 7.83655 3.36113   7
   1   5 -15 4.22912 2.41973   7
  -1   5  15 6.30565 3.14107   1
  -1  -5 -15 1.81280 2.72894   1
  -1   5 -15 1.37792 2.45058   1
   1   5  15 -1.3944 2.73833   7
  -1  -5  15 5.57474 3.32127   1
   1  -5 -15 4.47515 2.70000   7
  -2  -5 -15 391.920 14.5664   1
  -2   5  15 420.978 15.1407   1
   2  -5  15 400.138 15.1241   7
   2   5 -15 401.295 14.6002   7
   2  -5 -15 391.808 14.5710   7
  -2   5 -15 411.488 14.7075   1
  -2  -5  15 397.533 15.0194   1
   2   5  15 428.351 15.3818   7
   3   5 -15 2.31180 3.17858   7
  -3   5  15 4.34931 3.08555   1
  -3  -5 -15 0.98556 2.68019   1
   3  -5  15 -1.7189 3.24563   7
  -3  -5  15 1.05319 3.00527   1
   3   5  15 1.63357 2.88199   7
  -3   5 -15 1.58375 2.40083   1
  -4  -5 -15 222.240 9.57595   1
  -4   5  15 226.352 9.84810   1
  -4  -5  15 227.413 9.90534   1
  -4   5 -15 212.482 9.54756   1
  -5   5  15 -1.3845 2.46197   1
  -5  -5 -15 0.83887 2.33448   1
  -5   5 -15 0.58947 2.35027   1
  -5  -5  15 2.50322 3.18472   1
   0  -6  15 190.013 9.15579   1
   0   6  15 185.058 8.80445   1
  -1   6  15 11.0295 3.46357   1
   1  -6  15 3.83798 3.56796   7
  -1  -6 -15 15.8680 3.56625   1
   1   6 -15 9.62168 3.01763   7
  -1  -6  15 15.0544 3.90094   1
  -1   6 -15 7.56009 3.06858   1
   1   6  15 13.5663 3.91007   7
   1  -6 -15 10.2998 3.15421   7
   2   6 -15 37.3054 3.89367   7
  -2   6  15 35.3155 4.39944   1
  -2  -6 -15 28.7775 3.76289   1
   2  -6  15 40.2075 4.64881   7
   2  -6 -15 33.4215 4.02845   7
  -2  -6  15 38.6451 4.40212   1
   2   6  15 31.6321 4.39928   7
  -2   6 -15 28.7551 3.75958   1
  -3   6  15 6.24540 3.00754   1
  -3  -6 -15 4.28858 2.93012   1
  -3   6 -15 6.81201 3.02130   1
  -3  -6  15 12.7224 3.68006   1
  -4   6  15 155.761 7.72176   1
  -4  -6 -15 159.887 7.76133   1
  -4   6 -15 149.218 7.77777   1
  -4  -6  15 147.138 7.86119   1
  -5  -6 -15 8.90714 3.37373   1
  -5   6  15 6.27714 3.56411   1
  -5  -6  15 6.36376 3.92504   1
  -5   6 -15 6.47372 3.20812   1
   0   7  15 33.6747 5.01904   1
   1   7 -15 4.88817 2.75598   7
   1  -7  15 2.29273 3.77528   7
  -1  -7 -15 7.02240 3.19852   1
  -1   7  15 8.99847 3.49932   1
  -1  -7  15 4.32902 3.48405   1
   1  -7 -15 10.5592 3.29632   7
  -1   7 -15 8.98534 2.94847   1
  -2   7  15 70.0519 5.43310   1
  -2  -7 -15 68.9007 5.26443   1
  -2   7 -15 60.5347 4.97469   1
  -2  -7  15 71.9306 5.79739   1
  -3  -7 -15 6.65860 3.03791   1
  -3   7  15 7.01915 3.36999   1
  -3   7 -15 4.85967 2.69343   1
  -3  -7  15 9.21705 3.64609   1
  -4  -7 -15 25.9065 3.84151   1
  -4   7  15 25.5665 4.35890   1
  -4  -7  15 18.5603 4.25294   1
  -4   7 -15 21.6631 3.51215   1
  -1   8  15 1.66303 2.95705   1
  -1  -8 -15 7.69936 3.79176   1
  -1   8 -15 3.76587 2.76236   1
  -1  -8  15 2.93723 3.38145   1
  -2  -8 -15 14.3376 3.69689   1
  -2   8  15 19.2235 4.08631   1
  -2   8 -15 10.9777 3.35019   1
  -2  -8  15 11.5430 3.79698   1
  -3  -8 -15 5.30453 2.87817   1
  -3   8  15 3.48777 3.09611   1
  -3  -8  15 -1.1438 3.28345   1
  -3   8 -15 2.55459 2.46151   1
  -1   9  15 7.11521 3.40207   1
  -1  -9  15 6.88785 3.70819   1
  -2  -9 -15 -1.4021 2.64254   1
  -2   9  15 4.59510 3.25413   1
  -2   9 -15 4.03150 2.57493   1
  -2  -9  15 1.52947 3.24372   1
   0   0  16 635.484 21.1739   1
  -1   0 -16 0.93602 2.61619   1
   1   0  16 -0.9336 2.77469   7
   1   0 -16 -3.1697 2.26886   7
  -1   0  16 3.29122 3.04620   1
  -2   0  16 238.749 10.6088   1
  -2   0 -16 222.482 9.66226   1
   2   0 -16 205.050 9.61313   7
   2   0  16 259.194 10.9873   7
  -3   0  16 5.10312 3.30260   1
  -3   0 -16 -0.6864 2.40244   1
  -4   0 -16 520.294 18.0116   1
  -4   0  16 497.622 17.3393   1
  -5   0 -16 -1.4307 2.44555   1
  -5   0  16 -0.1963 2.97955   1
   0   1  16 101.379 6.55213   1
   0  -1  16 105.936 6.67366   1
   1   1 -16 -1.4512 2.18198   7
  -1   1  16 2.70721 3.18216   1
   1  -1  16 -1.2041 2.84631   7
  -1  -1 -16 0.84716 2.64457   1
  -1   1 -16 0.06894 2.54763   1
   1  -1 -16 -3.2496 2.13328   7
  -1  -1  16 1.03165 3.15687   1
   1   1  16 -2.0213 2.85381   7
  -2  -1 -16 5.92277 2.81040   1
  -2   1  16 4.73299 3.35058   1
   2   1 -16 0.40112 2.26554   7
   2  -1  16 2.51877 3.49921   7
   2  -1 -16 7.67647 2.93034   7
   2   1  16 8.78983 3.86953   7
  -2   1 -16 6.89078 2.82036   1
  -2  -1  16 5.22519 3.43598   1
  -3  -1 -16 0.34536 2.55254   1
  -3   1  16 1.92738 2.97004   1
  -3   1 -16 0.02861 2.44349   1
  -3  -1  16 1.28367 3.02741   1
  -4  -1 -16 79.6203 5.70731   1
  -4   1  16 93.1142 6.32041   1
  -4  -1  16 101.435 6.52265   1
  -4   1 -16 86.2236 5.77148   1
  -5  -1 -16 -0.6834 2.64726   1
  -5   1  16 -2.4268 2.70307   1
  -5  -1  16 1.19689 3.14274   1
  -5   1 -16 0.15779 2.60798   1
   0  -2  16 2.52448 3.30835   1
   0   2  16 -0.8769 2.84875   1
   1   2 -16 9.85859 3.16696   7
   1  -2  16 3.63053 3.46815   7
  -1   2  16 5.20923 3.33464   1
  -1  -2 -16 9.20685 3.38116   1
  -1   2 -16 6.09361 3.02945   1
   1  -2 -16 0.37099 2.69587   7
   1   2  16 8.47886 3.66308   7
  -1  -2  16 8.05623 3.83900   1
  -2   2  16 438.801 15.8228   1
   2   2 -16 438.661 16.0028   7
   2  -2  16 434.424 15.9440   7
  -2  -2 -16 437.517 15.7261   1
  -2   2 -16 440.169 15.5940   1
  -2  -2  16 419.621 15.7527   1
   2  -2 -16 415.272 16.4039   7
   2   2  16 440.747 16.0602   7
  -3   2  16 4.98518 3.39841   1
  -3  -2 -16 4.67509 2.88529   1
  -3  -2  16 8.95007 3.63880   1
  -3   2 -16 5.34359 2.72959   1
  -4  -2 -16 7.04202 3.22224   1
  -4   2  16 2.43430 2.94240   1
  -4   2 -16 2.32438 2.62865   1
  -4  -2  16 7.60294 3.51846   1
  -5   2  16 4.14692 4.78233   1
  -5  -2 -16 10.3435 4.25302   1
  -5   2 -16 6.06080 3.95009   1
  -5  -2  16 4.19944 4.33400   1
   0   3  16 7.02883 3.33880   1
   0  -3  16 2.20874 3.14923   1
  -1  -3 -16 11.4436 3.27327   1
   1  -3  16 20.0004 4.61038   7
  -1   3  16 17.8889 4.05917   1
   1   3 -16 16.1574 3.56389   7
   1  -3 -16 18.0865 3.81397   7
  -1  -3  16 17.9975 4.02622   1
  -1   3 -16 16.5411 3.68054   1
  -2  -3 -16 3.75148 2.59809   1
  -2   3  16 0.88830 3.10596   1
   2  -3  16 1.39620 3.50478   7
   2   3  16 1.31444 3.07127   7
  -2   3 -16 0.42634 2.43473   1
  -2  -3  16 5.67938 3.34317   1
  -3  -3 -16 9.99225 3.25942   1
  -3   3  16 12.0533 3.87405   1
  -3  -3  16 11.8946 3.73281   1
  -3   3 -16 14.2838 3.35822   1
  -4  -3 -16 5.70383 3.02397   1
  -4   3  16 5.61667 3.29274   1
  -4  -3  16 -0.5628 2.98750   1
  -4   3 -16 3.15970 2.86790   1
   0   4  16 89.0457 6.49901   1
   1   4 -16 9.39708 3.18560   7
  -1  -4 -16 16.1602 3.64544   1
  -1   4  16 19.3521 4.14837   1
  -1   4 -16 8.39921 3.09510   1
  -1  -4  16 8.55608 3.55096   1
   1  -4 -16 12.3312 3.53694   7
  -2  -4 -16 45.0099 4.35339   1
  -2   4  16 44.0152 4.67059   1
  -2  -4  16 41.3934 4.87083   1
  -2   4 -16 50.0916 4.61175   1
  -3   4  16 12.5360 3.84625   1
  -3  -4 -16 12.1355 3.42521   1
  -3  -4  16 6.53229 3.46434   1
  -3   4 -16 12.3308 3.28752   1
  -4  -4 -16 62.0472 4.89167   1
  -4   4  16 66.4262 5.37263   1
  -4   4 -16 59.7006 4.86373   1
  -4  -4  16 60.2243 5.35957   1
  -1   5  16 7.89702 3.39616   1
  -1  -5 -16 6.15161 3.01328   1
  -1   5 -16 7.44070 2.85974   1
  -1  -5  16 1.52938 3.14300   1
  -2   5  16 69.5942 5.37127   1
  -2  -5 -16 67.9990 5.34544   1
  -2   5 -16 66.7245 5.19760   1
  -2  -5  16 66.0533 5.58255   1
  -3  -5 -16 9.11548 3.27779   1
  -3   5  16 4.17015 3.01673   1
  -3   5 -16 7.85463 3.12209   1
  -3  -5  16 11.3309 3.89503   1
  -4   5 -16 3.49954 3.94742   1
  -1   6  16 4.46181 2.99718   1
  -1   6 -16 5.46326 2.84514   1
  -1  -6  16 6.60137 3.48775   1
  -2  -6 -16 99.6359 6.06431   1
  -2   6  16 84.0933 6.06966   1
  -2   6 -16 91.6998 6.08458   1
  -2  -6  16 97.4618 6.48959   1
  -3   6  16 6.04804 3.19360   1
  -3  -6 -16 9.65618 2.98748   1
  -3   6 -16 6.14052 2.98674   1
  -3  -6  16 2.82702 3.25134   1
  -1   7  16 4.55929 3.18333   1
  -1  -7  16 2.24631 3.19622   1
  -2   7  16 28.8409 4.25636   1
  -2  -7 -16 27.5631 3.81605   1
  -2   7 -16 23.0165 3.61173   1
  -2  -7  16 31.2279 4.35209   1
  -1   8  16 -2.4096 3.53085   1
  -1  -8  16 2.14543 3.82768   1
  -1   0  17 5.51257 3.50255   1
  -1   0 -17 9.93865 5.12575   1
  -2   0  17 -1.0130 2.94923   1
  -2   0 -17 -1.2392 2.46329   1
  -3   0 -17 9.56900 3.21403   1
  -3   0  17 2.49272 3.14912   1
  -1   1  17 -0.5683 3.08877   1
  -1  -1  17 6.29340 3.60162   1
  -1   1 -17 1.17091 4.07677   1
  -2  -1 -17 1.35631 2.72759   1
  -2   1  17 6.08685 3.39517   1
  -2  -1  17 -1.5543 2.81639   1
  -2   1 -17 5.96673 3.03215   1
  -3  -1 -17 5.86414 3.08002   1
  -3   1  17 6.60131 3.47195   1
  -3   1 -17 3.24184 2.71983   1
  -3  -1  17 4.09884 3.26210   1
  -1   2  17 0.72792 3.00627   1
  -1  -2  17 4.23659 3.46903   1
  -2   2  17 64.7602 5.64006   1
  -2  -2 -17 57.9305 4.95263   1
  -2   2 -17 57.2486 4.86403   1
  -2  -2  17 59.1184 5.32518   1
  -3  -2 -17 3.46125 2.80000   1
  -3   2 -17 -0.2304 2.49625   1
  -3  -2  17 -4.0724 3.62499   1
  -1   3  17 1.67862 3.27669   1
  -1  -3  17 -0.2172 3.18569   1
  -2   3  17 304.395 12.0491   1
  -2  -3 -17 293.438 11.8410   1
  -2  -3  17 277.092 11.9741   1
  -2   3 -17 297.219 11.8771   1
  -1   4  17 5.36207 3.44424   1
  -1  -4  17 3.95125 3.14960   1
  -2  -4 -17 158.844 8.10039   1
  -2   4  17 140.303 8.60298   1
  -2   4 -17 160.142 8.12071   1
  -2  -4  17 150.632 9.02509   1
  -1   5  17 -0.9019 3.07669   1
  -1  -5  17 5.27387 3.56263   1
   0   0   0    0.00    0.00   0

 _exptl_absorpt_process_details 'SADABS 2014/5'
 _exptl_absorpt_correction_type   numerical
 _exptl_absorpt_correction_T_max  0.0240
 _exptl_absorpt_correction_T_min  0.0014
 _exptl_special_details
)
 The following wavelength and cell were deduced by SADABS from the
 direction cosines etc. They are given here for emergency use only:
 CELL 0.71073    8.220   11.519   11.144   90.005   90.013   90.008
)
;
_shelx_hkl_checksum              64216
_olex2_submission_special_instructions 'No special instructions were received'
loop_
_space_group_symop_operation_xyz
'x, y, z'
'-x+1/2, -y, z+1/2'
'x+1/2, -y, z+1/2'
'-x, y, z'
loop_
_atom_site_label
_atom_site_type_symbol
_atom_site_fract_x
_atom_site_fract_y
_atom_site_fract_z
_atom_site_U_iso_or_equiv
_atom_site_adp_type
_atom_site_occupancy
_atom_site_site_symmetry_order
_atom_site_calc_flag
_atom_site_refinement_flags_posn
_atom_site_refinement_flags_adp
_atom_site_refinement_flags_occupancy
_atom_site_disorder_assembly
_atom_site_disorder_group
Th1 Th 0.000000 0.93452(7) 0.2620(3) 0.0131(2) Uani 0.883(3) 2 d S T P . .
Th2 Th 0.24978(5) 0.56558(7) 0.28066(6) 0.0083(2) Uani 0.679(3) 1 d . . . . .
Th3 Th 0.000000 0.06660(12) 0.7613(6) 0.0255(4) Uani 0.647(4) 2 d S T P . .
Sr1 Sr 0.000000 0.25585(16) 0.0873(2) 0.0128(4) Uani 1 2 d S T P . .
Sr2 Sr 0.24922(10) 0.24423(14) 0.45293(18) 0.0119(4) Uani 1 1 d . . . . .
Sr3 Sr 0.000000 0.74449(16) 0.5899(2) 0.0128(4) Uani 1 2 d S T P . .
Cu1 Cu 0.000000 0.4624(2) 0.5157(3) 0.0152(6) Uani 1 2 d S T P . .
Cu2 Cu 0.000000 0.5393(2) 0.0161(3) 0.0154(6) Uani 1 2 d S T P . .
Cu3 Cu 0.25117(14) 0.03672(19) 0.0264(2) 0.0126(5) Uani 1 1 d . . . . .
S1 S 0.000000 0.0555(4) 0.4895(6) 0.0112(11) Uani 1 2 d S T P . .
S2 S 0.2439(3) 0.8073(4) 0.3874(6) 0.0122(8) Uani 1 1 d . . . . .
S3 S 0.000000 0.6111(4) 0.8186(5) 0.0114(9) Uani 1 2 d S T P . .
S4 S 0.000000 0.3122(5) 0.6588(7) 0.0178(11) Uani 1 2 d S T P . .
S5 S 0.2444(3) 0.1078(4) 0.2193(5) 0.0171(9) Uani 1 1 d . . . . .
S6 S 0.000000 0.3901(4) 0.3183(5) 0.0114(9) Uani 1 2 d S T P . .
S7 S 0.2492(3) 0.4433(4) 0.0459(6) 0.0190(10) Uani 1 1 d . . . . .
S8 S 0.000000 0.9438(4) -0.0001(6) 0.0124(11) Uani 1 2 d S T P . .
S9 S 0.000000 0.6910(5) 0.1598(7) 0.0171(11) Uani 1 2 d S T P . .
loop_
_atom_site_aniso_label
_atom_site_aniso_U_11
_atom_site_aniso_U_22
_atom_site_aniso_U_33
_atom_site_aniso_U_23
_atom_site_aniso_U_13
_atom_site_aniso_U_12
Th1 0.0128(3) 0.0119(3) 0.0145(6) -0.0019(5) 0.000 0.000
Th2 0.0085(3) 0.0086(3) 0.0077(5) 0.0030(3) -0.00003(16) -0.00008(15)
Th3 0.0225(6) 0.0300(6) 0.0239(10) 0.0037(9) 0.000 0.000
Sr1 0.0120(9) 0.0138(8) 0.0126(12) 0.0010(8) 0.000 0.000
Sr2 0.0103(8) 0.0122(7) 0.0131(10) -0.0005(6) 0.0001(3) 0.0002(3)
Sr3 0.0127(9) 0.0143(8) 0.0113(11) -0.0008(8) 0.000 0.000
Cu1 0.0164(14) 0.0142(12) 0.0149(15) -0.0016(11) 0.000 0.000
Cu2 0.0168(14) 0.0138(12) 0.0156(15) 0.0014(11) 0.000 0.000
Cu3 0.0117(11) 0.0143(8) 0.0118(12) 0.0011(9) 0.0004(5) 0.0001(4)
S1 0.010(2) 0.0091(18) 0.014(3) -0.0003(18) 0.000 0.000
S2 0.0167(19) 0.0102(16) 0.0096(18) 0.0002(13) 0.0015(11) -0.0011(8)
S3 0.017(2) 0.0100(18) 0.008(2) 0.0027(17) 0.000 0.000
S4 0.022(2) 0.014(2) 0.018(3) -0.0004(19) 0.000 0.000
S5 0.018(2) 0.0172(19) 0.016(2) 0.0001(17) -0.0009(12) -0.0021(9)
S6 0.016(2) 0.0096(18) 0.008(2) -0.0022(17) 0.000 0.000
S7 0.014(2) 0.019(2) 0.024(3) -0.0003(19) 0.0002(9) 0.0001(10)
S8 0.011(2) 0.0097(18) 0.017(3) -0.0016(19) 0.000 0.000
S9 0.020(2) 0.018(2) 0.014(2) 0.0001(18) 0.000 0.000
loop_
_atom_type_symbol
_atom_type_description
_atom_type_scat_dispersion_real
_atom_type_scat_dispersion_imag
_atom_type_scat_source
Cu Cu 0.3201 1.2651 'International Tables Vol C Tables 4.2.6.8 and 6.1.1.4'
S S 0.1246 0.1234 'International Tables Vol C Tables 4.2.6.8 and 6.1.1.4'
Sr Sr -1.5307 3.2498 'International Tables Vol C Tables 4.2.6.8 and 6.1.1.4'
Th Th -7.2400 8.8979 'International Tables Vol C Tables 4.2.6.8 and 6.1.1.4'
loop_
_geom_angle_atom_site_label_1
_geom_angle_atom_site_label_2
_geom_angle_atom_site_label_3
_geom_angle
_geom_angle_site_symmetry_1
_geom_angle_site_symmetry_3
Cu3 Th1 Th3 124.74(17) 3_465 2_564
Cu3 Th1 Th3 55.51(10) 2_565 2_564
Cu3 Th1 Th3 125.66(16) 4_565 2_564
Cu3 Th1 Th3 54.29(10) 1_565 2_564
Cu3 Th1 Cu3 69.23(9) 2_565 3_465
Cu3 Th1 Cu3 155.08(3) 4_565 2_565
Cu3 Th1 Cu3 104.135(12) 1_565 2_565
Cu3 Th1 Cu3 104.135(12) 4_565 3_465
Cu3 Th1 Cu3 71.37(9) 4_565 1_565
Cu3 Th1 Cu3 155.08(3) 1_565 3_465
S1 Th1 Th3 90.18(12) 1_565 2_564
S1 Th1 Cu3 40.45(7) 1_565 3_465
S1 Th1 Cu3 119.29(9) 1_565 4_565
S1 Th1 Cu3 40.45(7) 1_565 2_565
S1 Th1 Cu3 119.29(9) 1_565 1_565
S1 Th1 S8 149.11(12) 1_565 .
S1 Th1 S9 140.91(19) 1_565 .
S2 Th1 Th3 45.22(11) . 2_564
S2 Th1 Th3 134.67(14) 4 2_564
S2 Th1 Cu3 92.64(15) . 3_465
S2 Th1 Cu3 41.10(12) 4 3_465
S2 Th1 Cu3 92.64(15) 4 2_565
S2 Th1 Cu3 97.11(10) . 1_565
S2 Th1 Cu3 160.88(16) . 4_565
S2 Th1 Cu3 160.88(16) 4 1_565
S2 Th1 Cu3 41.10(12) . 2_565
S2 Th1 Cu3 97.11(10) 4 4_565
S2 Th1 S1 79.51(15) . 1_565
S2 Th1 S1 79.51(15) 4 1_565
S2 Th1 S2 89.46(17) 4 .
S2 Th1 S5 86.91(12) . 1_565
S2 Th1 S5 158.58(19) . 4_565
S2 Th1 S5 86.91(12) 4 4_565
S2 Th1 S5 158.58(19) 4 1_565
S2 Th1 S8 120.58(14) . .
S2 Th1 S8 120.58(14) 4 .
S2 Th1 S9 73.04(10) . .
S2 Th1 S9 73.04(10) 4 .
S5 Th1 Th3 45.75(8) 1_565 2_564
S5 Th1 Th3 134.55(9) 4_565 2_564
S5 Th1 Cu3 117.98(14) 1_565 3_465
S5 Th1 Cu3 93.12(13) 4_565 1_565
S5 Th1 Cu3 70.98(13) 4_565 3_465
S5 Th1 Cu3 40.36(13) 1_565 1_565
S5 Th1 Cu3 40.36(13) 4_565 4_565
S5 Th1 Cu3 70.98(13) 1_565 2_565
S5 Th1 Cu3 117.98(14) 4_565 2_565
S5 Th1 Cu3 93.12(13) 1_565 4_565
S5 Th1 S1 79.07(15) 1_565 1_565
S5 Th1 S1 79.07(15) 4_565 1_565
S5 Th1 S5 88.81(16) 1_565 4_565
S5 Th1 S8 79.00(16) 4_565 .
S5 Th1 S8 79.00(16) 1_565 .
S5 Th1 S9 125.56(14) 1_565 .
S5 Th1 S9 125.56(14) 4_565 .
S8 Th1 Th3 89.90(13) . 2_564
S8 Th1 Cu3 144.48(5) . 2_565
S8 Th1 Cu3 41.17(7) . 1_565
S8 Th1 Cu3 144.48(5) . 3_465
S8 Th1 Cu3 41.17(7) . 4_565
S8 Th1 S9 69.98(18) . .
S9 Th1 Th3 89.79(5) . 2_564
S9 Th1 Cu3 91.67(14) . 4_565
S9 Th1 Cu3 113.14(12) . 3_465
S9 Th1 Cu3 113.14(12) . 2_565
S9 Th1 Cu3 91.67(14) . 1_565
Cu1 Th2 Th2 54.46(3) . 4
Cu1 Th2 Th2 124.73(3) 2_564 4
Cu1 Th2 Cu1 155.03(3) . 2_564
Cu1 Th2 Cu2 104.27(3) . .
Cu1 Th2 Cu2 71.01(6) . 2_565
Cu2 Th2 Th2 55.27(3) . 4
Cu2 Th2 Th2 125.48(3) 2_565 4
Cu2 Th2 Cu1 104.08(3) 2_565 2_564
Cu2 Th2 Cu1 69.45(6) . 2_564
Cu2 Th2 Cu2 155.06(3) 2_565 .
S2 Th2 Th2 89.08(5) . 4
S2 Th2 Cu1 90.50(11) . .
S2 Th2 Cu1 114.34(10) . 2_564
S2 Th2 Cu2 91.84(11) . 2_565
S2 Th2 Cu2 112.90(11) . .
S3 Th2 Th2 134.71(7) 2_564 4
S3 Th2 Cu1 93.89(10) 2_564 .
S3 Th2 Cu1 69.83(11) 2_564 2_564
S3 Th2 Cu2 117.42(11) 2_564 .
S3 Th2 Cu2 41.22(12) 2_564 2_565
S3 Th2 S2 126.47(12) 2_564 .
S3 Th2 S7 78.37(13) 2_564 .
S3 Th2 S7 80.19(14) 2_564 2_565
S4 Th2 Th2 136.46(10) 2_564 4
S4 Th2 Cu1 40.58(14) 2_564 2_564
S4 Th2 Cu1 160.47(16) 2_564 .
S4 Th2 Cu2 93.64(15) 2_564 .
S4 Th2 Cu2 95.86(11) 2_564 2_565
S4 Th2 S2 75.15(12) 2_564 .
S4 Th2 S3 84.50(12) 2_564 2_564
S4 Th2 S6 157.55(18) 2_564 .
S4 Th2 S7 79.33(17) 2_564 .
S4 Th2 S7 119.56(16) 2_564 2_565
S4 Th2 S9 92.58(17) 2_564 .
S6 Th2 Th2 45.14(7) . 4
S6 Th2 Cu1 41.41(12) . .
S6 Th2 Cu1 117.22(12) . 2_564
S6 Th2 Cu2 93.81(10) . 2_565
S6 Th2 Cu2 69.98(12) . .
S6 Th2 S2 124.78(11) . .
S6 Th2 S3 89.57(11) . 2_564
S6 Th2 S7 80.45(14) . 2_565
S6 Th2 S7 78.26(14) . .
S7 Th2 Th2 90.16(5) 2_565 4
S7 Th2 Th2 89.91(5) . 4
S7 Th2 Cu1 41.35(7) 2_565 .
S7 Th2 Cu1 40.46(8) . 2_564
S7 Th2 Cu1 119.49(9) . .
S7 Th2 Cu1 144.28(6) 2_565 2_564
S7 Th2 Cu2 144.66(6) 2_565 .
S7 Th2 Cu2 41.18(7) 2_565 2_565
S7 Th2 Cu2 40.49(8) . .
S7 Th2 Cu2 119.38(9) . 2_565
S7 Th2 S2 68.86(15) 2_565 .
S7 Th2 S2 141.42(16) . .
S7 Th2 S7 149.71(7) 2_565 .
S9 Th2 Th2 43.88(9) . 4
S9 Th2 Cu1 95.84(11) . .
S9 Th2 Cu1 94.00(14) . 2_564
S9 Th2 Cu2 160.16(16) . 2_565
S9 Th2 Cu2 41.02(14) . .
S9 Th2 S2 73.01(12) . .
S9 Th2 S3 158.16(18) . 2_564
S9 Th2 S6 84.93(12) . .
S9 Th2 S7 79.82(17) . .
S9 Th2 S7 119.46(16) . 2_565
Cu3 Th3 Th1 54.58(8) 2 2_565
Cu3 Th3 Th1 124.65(19) 4_556 2_565
Cu3 Th3 Th1 55.09(8) 1_556 2_565
Cu3 Th3 Th1 125.47(18) 3_455 2_565
Cu3 Th3 Cu3 154.66(6) 2 4_556
Cu3 Th3 Cu3 69.57(13) 1_556 4_556
Cu3 Th3 Cu3 70.89(12) 3_455 2
Cu3 Th3 Cu3 154.66(6) 3_455 1_556
Cu3 Th3 Cu3 104.009(18) 2 1_556
Cu3 Th3 Cu3 104.009(18) 3_455 4_556
S1 Th3 Th1 90.10(13) . 2_565
S1 Th3 Cu3 144.20(7) . 4_556
S1 Th3 Cu3 40.97(8) . 3_455
S1 Th3 Cu3 144.20(7) . 1_556
S1 Th3 Cu3 40.97(8) . 2
S1 Th3 S4 70.4(2) . .
S2 Th3 Th1 43.86(9) 2_565 2_565
S2 Th3 Th1 136.25(18) 3_465 2_565
S2 Th3 Cu3 40.78(13) 3_465 4_556
S2 Th3 Cu3 96.10(11) 2_565 2
S2 Th3 Cu3 40.78(13) 2_565 1_556
S2 Th3 Cu3 93.8(2) 2_565 4_556
S2 Th3 Cu3 96.10(11) 3_465 3_455
S2 Th3 Cu3 93.8(2) 3_465 1_556
S2 Th3 Cu3 160.6(2) 3_465 2
S2 Th3 Cu3 160.6(2) 2_565 3_455
S2 Th3 S1 120.13(18) 3_465 .
S2 Th3 S1 120.13(18) 2_565 .
S2 Th3 S2 92.4(2) 2_565 3_465
S2 Th3 S4 73.68(10) 3_465 .
S2 Th3 S4 73.68(10) 2_565 .
S2 Th3 S5 84.30(12) 2_565 2
S2 Th3 S5 158.6(3) 2_565 3_455
S2 Th3 S5 84.30(12) 3_465 3_455
S2 Th3 S5 158.6(3) 3_465 2
S2 Th3 S8 79.0(2) 3_465 1_546
S2 Th3 S8 79.0(2) 2_565 1_546
S4 Th3 Th1 90.21(5) . 2_565
S4 Th3 Cu3 92.01(18) . 3_455
S4 Th3 Cu3 113.18(14) . 4_556
S4 Th3 Cu3 92.01(18) . 2
S4 Th3 Cu3 113.18(14) . 1_556
S5 Th3 Th1 135.39(9) 3_455 2_565
S5 Th3 Th1 44.30(8) 2 2_565
S5 Th3 Cu3 93.79(15) 2 3_455
S5 Th3 Cu3 69.98(13) 3_455 4_556
S5 Th3 Cu3 118.16(17) 3_455 1_556
S5 Th3 Cu3 69.98(13) 2 1_556
S5 Th3 Cu3 93.79(15) 3_455 2
S5 Th3 Cu3 40.37(13) 2 2
S5 Th3 Cu3 118.16(17) 2 4_556
S5 Th3 Cu3 40.37(13) 3_455 3_455
S5 Th3 S1 79.20(17) 2 .
S5 Th3 S1 79.20(17) 3_455 .
S5 Th3 S4 124.96(16) 2 .
S5 Th3 S4 124.96(16) 3_455 .
S5 Th3 S5 91.09(16) 3_455 2
S5 Th3 S8 79.61(14) 3_455 1_546
S5 Th3 S8 79.61(14) 2 1_546
S8 Th3 Th1 89.82(12) 1_546 2_565
S8 Th3 Cu3 119.74(8) 1_546 2
S8 Th3 Cu3 40.11(9) 1_546 1_556
S8 Th3 Cu3 40.11(9) 1_546 4_556
S8 Th3 Cu3 119.74(8) 1_546 3_455
S8 Th3 S1 149.56(14) 1_546 .
S8 Th3 S4 140.0(3) 1_546 .
Sr3 Sr1 Sr3 179.18(5) 2_564 2_464
Cu2 Sr1 Sr3 90.15(2) . 2_464
Cu2 Sr1 Sr3 90.15(2) . 2_564
Cu3 Sr1 Sr3 128.38(5) . 2_464
Cu3 Sr1 Sr3 51.73(4) . 2_564
Cu3 Sr1 Sr3 51.73(4) 4 2_464
Cu3 Sr1 Sr3 128.38(5) 4 2_564
Cu3 Sr1 Cu2 133.48(7) . .
Cu3 Sr1 Cu2 133.48(7) 4 .
Cu3 Sr1 Cu3 76.65(7) 4 .
S2 Sr1 Sr3 48.41(9) 3_464 2_464
S2 Sr1 Sr3 132.33(10) 2_564 2_464
S2 Sr1 Sr3 132.33(10) 3_464 2_564
S2 Sr1 Sr3 48.41(9) 2_564 2_564
S2 Sr1 Cu2 93.30(10) 3_464 .
S2 Sr1 Cu2 93.30(10) 2_564 .
S2 Sr1 Cu3 42.82(9) 3_464 4
S2 Sr1 Cu3 95.49(9) 2_564 4
S2 Sr1 Cu3 95.49(9) 3_464 .
S2 Sr1 Cu3 42.82(9) 2_564 .
S2 Sr1 S2 83.92(18) 3_464 2_564
S5 Sr1 Sr3 47.94(8) 4 2_464
S5 Sr1 Sr3 131.44(9) 4 2_564
S5 Sr1 Sr3 47.94(8) . 2_564
S5 Sr1 Sr3 131.44(9) . 2_464
S5 Sr1 Cu2 131.61(9) 4 .
S5 Sr1 Cu2 131.61(9) . .
S5 Sr1 Cu3 94.82(10) . 4
S5 Sr1 Cu3 42.12(12) 4 4
S5 Sr1 Cu3 42.12(12) . .
S5 Sr1 Cu3 94.82(10) 4 .
S5 Sr1 S2 76.62(15) 4 3_464
S5 Sr1 S2 131.23(14) . 3_464
S5 Sr1 S2 131.23(14) 4 2_564
S5 Sr1 S2 76.62(15) . 2_564
S5 Sr1 S5 83.50(16) . 4
S6 Sr1 Sr3 89.68(3) . 2_464
S6 Sr1 Sr3 89.68(3) . 2_564
S6 Sr1 Cu2 72.67(11) . .
S6 Sr1 Cu3 124.38(9) . 4
S6 Sr1 Cu3 124.38(9) . .
S6 Sr1 S2 136.46(9) . 2_564
S6 Sr1 S2 136.46(9) . 3_464
S6 Sr1 S5 82.72(15) . .
S6 Sr1 S5 82.72(15) . 4
S6 Sr1 S7 76.23(15) . 4
S6 Sr1 S7 76.23(15) . .
S7 Sr1 Sr3 133.01(8) . 2_464
S7 Sr1 Sr3 47.27(8) . 2_564
S7 Sr1 Sr3 133.01(8) 4 2_564
S7 Sr1 Sr3 47.27(8) 4 2_464
S7 Sr1 Cu2 42.90(8) . .
S7 Sr1 Cu2 42.90(8) 4 .
S7 Sr1 Cu3 159.04(16) . 4
S7 Sr1 Cu3 95.16(8) . .
S7 Sr1 Cu3 159.04(16) 4 .
S7 Sr1 Cu3 95.16(8) 4 4
S7 Sr1 S2 120.82(17) . 3_464
S7 Sr1 S2 66.58(13) . 2_564
S7 Sr1 S2 66.58(13) 4 3_464
S7 Sr1 S2 120.82(17) 4 2_564
S7 Sr1 S5 91.51(11) 4 4
S7 Sr1 S5 158.83(19) 4 .
S7 Sr1 S5 91.51(11) . .
S7 Sr1 S5 158.82(19) . 4
S7 Sr1 S7 85.74(15) . 4
Sr2 Sr2 Sr2 180.0 4 4_655
Cu1 Sr2 Sr2 128.15(3) . 4_655
Cu1 Sr2 Sr2 51.85(3) . 4
Cu1 Sr2 Cu3 133.00(8) . 2
Cu2 Sr2 Sr2 51.48(3) 2_565 4_655
Cu2 Sr2 Sr2 128.52(3) 2_565 4
Cu2 Sr2 Cu1 76.68(6) 2_565 .
Cu2 Sr2 Cu3 132.72(8) 2_565 2
Cu3 Sr2 Sr2 90.06(3) 2 4_655
Cu3 Sr2 Sr2 89.95(3) 2 4
S1 Sr2 Sr2 132.83(7) . 4_655
S1 Sr2 Sr2 47.17(7) . 4
S1 Sr2 Cu1 95.60(8) . .
S1 Sr2 Cu2 159.63(15) . 2_565
S1 Sr2 Cu3 42.89(7) . 2
S1 Sr2 S3 157.13(17) . 2_564
S1 Sr2 S4 68.98(13) . .
S1 Sr2 S5 74.59(15) . .
S1 Sr2 S6 90.39(10) . .
S1 Sr2 S8 85.66(11) . 2_565
S1 Sr2 S9 120.78(18) . 2_565
S3 Sr2 Sr2 47.36(7) 2_564 4_655
S3 Sr2 Sr2 132.64(7) 2_564 4
S3 Sr2 Cu1 96.18(9) 2_564 .
S3 Sr2 Cu2 43.16(12) 2_564 2_565
S3 Sr2 Cu3 130.67(9) 2_564 2
S3 Sr2 S4 131.12(14) 2_564 .
S3 Sr2 S6 84.95(12) 2_564 .
S3 Sr2 S9 77.80(15) 2_564 2_565
S4 Sr2 Sr2 130.23(9) . 4_655
S4 Sr2 Sr2 49.78(9) . 4
S4 Sr2 Cu1 42.41(11) . .
S4 Sr2 Cu2 93.61(10) . 2_565
S4 Sr2 Cu3 93.52(12) . 2
S4 Sr2 S9 80.64(17) . 2_565
S5 Sr2 Sr2 90.75(6) . 4_655
S5 Sr2 Sr2 89.25(6) . 4
S5 Sr2 Cu1 124.33(10) . .
S5 Sr2 Cu2 125.39(10) . 2_565
S5 Sr2 Cu3 73.09(10) . 2
S5 Sr2 S3 82.58(15) . 2_564
S5 Sr2 S4 137.53(10) . .
S5 Sr2 S6 81.63(14) . .
S5 Sr2 S9 138.57(11) . 2_565
S6 Sr2 Sr2 132.30(7) . 4_655
S6 Sr2 Sr2 47.70(7) . 4
S6 Sr2 Cu1 43.13(12) . .
S6 Sr2 Cu2 96.23(9) . 2_565
S6 Sr2 Cu3 130.92(9) . 2
S6 Sr2 S4 77.59(15) . .
S6 Sr2 S9 131.60(14) . 2_565
S8 Sr2 Sr2 132.80(7) 2_565 4
S8 Sr2 Sr2 47.20(7) 2_565 4_655
S8 Sr2 Cu1 157.48(15) 2_565 .
S8 Sr2 Cu2 94.43(8) 2_565 2_565
S8 Sr2 Cu3 42.86(7) 2_565 2
S8 Sr2 S3 90.84(10) 2_565 2_564
S8 Sr2 S4 119.36(18) 2_565 .
S8 Sr2 S5 77.75(15) 2_565 .
S8 Sr2 S6 159.32(17) 2_565 .
S8 Sr2 S9 66.54(14) 2_565 2_565
S9 Sr2 Sr2 130.42(9) 2_565 4
S9 Sr2 Sr2 49.59(9) 2_565 4_655
S9 Sr2 Cu1 94.02(10) 2_565 .
S9 Sr2 Cu2 42.77(12) 2_565 2_565
S9 Sr2 Cu3 92.87(12) 2_565 2
Sr1 Sr3 Sr1 179.18(5) 2_465 2_565
Cu1 Sr3 Sr1 89.85(3) . 2_465
Cu1 Sr3 Sr1 89.85(2) . 2_565
Cu3 Sr3 Sr1 127.96(5) 2_565 2_465
Cu3 Sr3 Sr1 51.92(4) 3_465 2_465
Cu3 Sr3 Sr1 51.92(4) 2_565 2_565
Cu3 Sr3 Sr1 127.96(5) 3_465 2_565
Cu3 Sr3 Cu1 133.05(7) 3_465 .
Cu3 Sr3 Cu1 133.05(7) 2_565 .
Cu3 Sr3 Cu3 76.04(7) 2_565 3_465
S2 Sr3 Sr1 129.88(10) 4 2_565
S2 Sr3 Sr1 129.88(10) . 2_465
S2 Sr3 Sr1 49.38(9) 4 2_465
S2 Sr3 Sr1 49.38(9) . 2_565
S2 Sr3 Cu1 92.69(10) 4 .
S2 Sr3 Cu1 92.69(10) . .
S2 Sr3 Cu3 93.81(10) . 3_465
S2 Sr3 Cu3 43.15(9) . 2_565
S2 Sr3 Cu3 43.15(9) 4 3_465
S2 Sr3 Cu3 93.81(10) 4 2_565
S2 Sr3 S2 80.50(18) . 4
S3 Sr3 Sr1 90.32(3) . 2_565
S3 Sr3 Sr1 90.32(3) . 2_465
S3 Sr3 Cu1 73.19(11) . .
S3 Sr3 Cu3 125.02(9) . 2_565
S3 Sr3 Cu3 125.02(9) . 3_465
S3 Sr3 S2 137.97(9) . 4
S3 Sr3 S2 137.97(9) . .
S3 Sr3 S5 83.32(15) . 2_565
S3 Sr3 S5 83.32(15) . 3_465
S3 Sr3 S7 76.69(15) . 2_565
S3 Sr3 S7 76.69(15) . 3_465
S5 Sr3 Sr1 133.62(9) 3_465 2_565
S5 Sr3 Sr1 133.62(9) 2_565 2_465
S5 Sr3 Sr1 46.99(8) 2_565 2_565
S5 Sr3 Sr1 46.99(8) 3_465 2_465
S5 Sr3 Cu1 130.84(9) 3_465 .
S5 Sr3 Cu1 130.84(9) 2_565 .
S5 Sr3 Cu3 95.83(10) 2_565 3_465
S5 Sr3 Cu3 95.83(10) 3_465 2_565
S5 Sr3 Cu3 41.97(12) 2_565 2_565
S5 Sr3 Cu3 41.97(12) 3_465 3_465
S5 Sr3 S2 130.97(14) 3_465 .
S5 Sr3 S2 76.65(15) 2_565 .
S5 Sr3 S2 76.65(15) 3_465 4
S5 Sr3 S2 130.97(14) 2_565 4
S5 Sr3 S5 86.63(16) 2_565 3_465
S7 Sr3 Sr1 132.77(8) 2_565 2_465
S7 Sr3 Sr1 46.94(8) 3_465 2_465
S7 Sr3 Sr1 132.77(8) 3_465 2_565
S7 Sr3 Sr1 46.94(8) 2_565 2_565
S7 Sr3 Cu1 42.94(8) 3_465 .
S7 Sr3 Cu1 42.94(8) 2_565 .
S7 Sr3 Cu3 157.93(16) 2_565 3_465
S7 Sr3 Cu3 95.04(8) 3_465 3_465
S7 Sr3 Cu3 95.04(8) 2_565 2_565
S7 Sr3 Cu3 157.93(16) 3_465 2_565
S7 Sr3 S2 66.99(13) 2_565 .
S7 Sr3 S2 119.27(17) 3_465 .
S7 Sr3 S2 66.99(13) 3_465 4
S7 Sr3 S2 119.27(17) 2_565 4
S7 Sr3 S5 160.00(18) 2_565 3_465
S7 Sr3 S5 90.31(12) 2_565 2_565
S7 Sr3 S5 160.00(18) 3_465 2_565
S7 Sr3 S5 90.31(11) 3_465 3_465
S7 Sr3 S7 85.84(15) 3_465 2_565
Th2 Cu1 Th2 69.45(6) 2_565 3_465
Th2 Cu1 Th2 107.722(16) 4 3_465
Th2 Cu1 Th2 165.15(8) . 3_465
Th2 Cu1 Th2 165.14(8) 4 2_565
Th2 Cu1 Th2 107.723(16) . 2_565
Th2 Cu1 Th2 71.07(6) 4 .
Sr2 Cu1 Th2 74.89(5) . .
Sr2 Cu1 Th2 117.22(9) 4 .
Sr2 Cu1 Th2 117.17(9) . 3_465
Sr2 Cu1 Th2 117.17(9) 4 2_565
Sr2 Cu1 Th2 75.69(5) 4 3_465
Sr2 Cu1 Th2 75.69(5) . 2_565
Sr2 Cu1 Th2 74.89(5) 4 4
Sr2 Cu1 Th2 117.22(9) . 4
Sr2 Cu1 Sr2 76.31(7) 4 .
Sr2 Cu1 Sr3 141.83(3) 4 .
Sr2 Cu1 Sr3 141.83(3) . .
Sr3 Cu1 Th2 83.41(7) . 3_465
Sr3 Cu1 Th2 83.41(7) . 2_565
Sr3 Cu1 Th2 81.77(6) . 4
Sr3 Cu1 Th2 81.77(6) . .
S4 Cu1 Th2 138.53(9) . .
S4 Cu1 Th2 51.74(12) . 2_565
S4 Cu1 Th2 51.74(12) . 3_465
S4 Cu1 Th2 138.53(9) . 4
S4 Cu1 Sr2 65.53(14) . 4
S4 Cu1 Sr2 65.53(14) . .
S4 Cu1 Sr3 123.08(19) . .
S4 Cu1 S6 111.9(2) . .
S4 Cu1 S7 104.02(18) . 2_565
S4 Cu1 S7 104.02(18) . 3_465
S6 Cu1 Th2 54.97(10) . .
S6 Cu1 Th2 54.98(10) . 4
S6 Cu1 Th2 137.09(8) . 2_565
S6 Cu1 Th2 137.09(8) . 3_465
S6 Cu1 Sr2 62.25(10) . 4
S6 Cu1 Sr2 62.25(10) . .
S6 Cu1 Sr3 125.02(16) . .
S6 Cu1 S7 107.27(19) . 3_465
S6 Cu1 S7 107.27(19) . 2_565
S7 Cu1 Th2 117.38(18) 2_565 4
S7 Cu1 Th2 56.07(18) 3_465 4
S7 Cu1 Th2 117.38(18) 3_465 .
S7 Cu1 Th2 115.05(19) 3_465 2_565
S7 Cu1 Th2 54.94(17) 2_565 2_565
S7 Cu1 Th2 56.07(18) 2_565 .
S7 Cu1 Th2 54.94(17) 3_465 3_465
S7 Cu1 Th2 115.05(19) 2_565 3_465
S7 Cu1 Sr2 80.70(12) 2_565 .
S7 Cu1 Sr2 156.99(14) 2_565 4
S7 Cu1 Sr2 80.69(12) 3_465 4
S7 Cu1 Sr2 156.99(14) 3_465 .
S7 Cu1 Sr3 61.18(12) 3_465 .
S7 Cu1 Sr3 61.18(12) 2_565 .
S7 Cu1 S7 122.3(2) 2_565 3_465
Th2 Cu2 Th2 107.619(17) 3_464 4
Th2 Cu2 Th2 70.95(6) 3_464 2_564
Th2 Cu2 Th2 164.57(8) 3_464 .
Th2 Cu2 Th2 164.57(8) 2_564 4
Th2 Cu2 Th2 107.619(16) 2_564 .
Th2 Cu2 Th2 69.46(6) . 4
Sr1 Cu2 Th2 83.60(7) . .
Sr1 Cu2 Th2 83.60(7) . 4
Sr1 Cu2 Th2 81.00(6) . 3_464
Sr1 Cu2 Th2 81.00(6) . 2_564
Sr2 Cu2 Th2 75.86(5) 3_464 4
Sr2 Cu2 Th2 117.73(9) 3_464 .
Sr2 Cu2 Th2 75.86(5) 2_564 .
Sr2 Cu2 Th2 117.73(9) 2_564 4
Sr2 Cu2 Th2 74.81(5) 2_564 2_564
Sr2 Cu2 Th2 117.44(9) 2_564 3_464
Sr2 Cu2 Th2 117.44(9) 3_464 2_564
Sr2 Cu2 Th2 74.81(5) 3_464 3_464
Sr2 Cu2 Sr1 141.43(3) 3_464 .
Sr2 Cu2 Sr1 141.43(3) 2_564 .
Sr2 Cu2 Sr2 77.05(7) 2_564 3_464
S3 Cu2 Th2 137.37(8) 1_554 4
S3 Cu2 Th2 55.08(10) 1_554 3_464
S3 Cu2 Th2 55.08(10) 1_554 2_564
S3 Cu2 Th2 137.37(8) 1_554 .
S3 Cu2 Sr1 124.27(16) 1_554 .
S3 Cu2 Sr2 62.36(10) 1_554 2_564
S3 Cu2 Sr2 62.36(10) 1_554 3_464
S3 Cu2 S7 107.33(19) 1_554 .
S3 Cu2 S7 107.33(19) 1_554 4
S3 Cu2 S9 111.9(2) 1_554 .
S7 Cu2 Th2 55.07(17) . .
S7 Cu2 Th2 55.87(18) . 2_564
S7 Cu2 Th2 55.87(18) 4 3_464
S7 Cu2 Th2 55.07(17) 4 4
S7 Cu2 Th2 116.75(18) 4 2_564
S7 Cu2 Th2 114.84(19) . 4
S7 Cu2 Th2 114.84(19) 4 .
S7 Cu2 Th2 116.76(18) . 3_464
S7 Cu2 Sr1 60.65(12) . .
S7 Cu2 Sr1 60.65(12) 4 .
S7 Cu2 Sr2 157.91(14) 4 2_564
S7 Cu2 Sr2 80.87(11) . 2_564
S7 Cu2 Sr2 157.91(14) . 3_464
S7 Cu2 Sr2 80.87(11) 4 3_464
S7 Cu2 S7 121.2(2) 4 .
S7 Cu2 S9 104.53(18) . .
S7 Cu2 S9 104.53(18) 4 .
S9 Cu2 Th2 138.67(9) . 3_464
S9 Cu2 Th2 52.11(12) . .
S9 Cu2 Th2 52.11(12) . 4
S9 Cu2 Th2 138.67(9) . 2_564
S9 Cu2 Sr1 123.85(19) . .
S9 Cu2 Sr2 65.69(13) . 3_464
S9 Cu2 Sr2 65.69(13) . 2_564
Th1 Cu3 Th1 165.47(8) 1_545 2_564
Th1 Cu3 Th3 107.66(9) 1_545 1_554
Th1 Cu3 Th3 69.40(6) 2_564 1_554
Th3 Cu3 Th1 107.94(10) 2_554 2_564
Th3 Cu3 Th1 71.13(6) 2_554 1_545
Th3 Cu3 Th3 165.44(9) 2_554 1_554
Sr1 Cu3 Th1 74.89(5) . 1_545
Sr1 Cu3 Th1 116.68(7) . 2_564
Sr1 Cu3 Th3 74.95(7) . 1_554
Sr1 Cu3 Th3 117.66(10) . 2_554
Sr1 Cu3 Sr2 141.61(5) . 2_554
Sr2 Cu3 Th1 83.63(6) 2_554 2_564
Sr2 Cu3 Th1 81.90(6) 2_554 1_545
Sr2 Cu3 Th3 83.77(7) 2_554 1_554
Sr2 Cu3 Th3 81.70(7) 2_554 2_554
Sr3 Cu3 Th1 75.79(6) 2_564 2_564
Sr3 Cu3 Th1 116.98(9) 2_564 1_545
Sr3 Cu3 Th3 116.93(8) 2_564 1_554
Sr3 Cu3 Th3 74.97(6) 2_564 2_554
Sr3 Cu3 Sr1 76.35(6) 2_564 .
Sr3 Cu3 Sr2 142.01(5) 2_564 2_554
S1 Cu3 Th1 119.28(17) 2_554 1_545
S1 Cu3 Th1 53.26(15) 2_554 2_564
S1 Cu3 Th3 58.0(2) 2_554 2_554
S1 Cu3 Th3 113.47(17) 2_554 1_554
S1 Cu3 Sr1 157.11(13) 2_554 .
S1 Cu3 Sr2 61.18(11) 2_554 2_554
S1 Cu3 Sr3 80.99(11) 2_554 2_564
S1 Cu3 S2 102.35(18) 2_554 2_564
S1 Cu3 S8 122.7(2) 2_554 1_545
S2 Cu3 Th1 138.21(11) 2_564 1_545
S2 Cu3 Th1 52.16(11) 2_564 2_564
S2 Cu3 Th3 136.85(11) 2_564 2_554
S2 Cu3 Th3 53.50(11) 2_564 1_554
S2 Cu3 Sr1 64.52(12) 2_564 .
S2 Cu3 Sr2 125.02(16) 2_564 2_554
S2 Cu3 Sr3 63.52(12) 2_564 2_564
S5 Cu3 Th1 138.17(11) . 2_564
S5 Cu3 Th1 53.97(11) . 1_545
S5 Cu3 Th3 56.04(12) . 2_554
S5 Cu3 Th3 135.59(11) . 1_554
S5 Cu3 Sr1 61.64(11) . .
S5 Cu3 Sr2 125.05(14) . 2_554
S5 Cu3 Sr3 63.01(11) . 2_564
S5 Cu3 S1 110.29(19) . 2_554
S5 Cu3 S2 109.9(2) . 2_564
S5 Cu3 S8 105.01(18) . 1_545
S8 Cu3 Th1 55.12(16) 1_545 1_545
S8 Cu3 Th1 116.04(19) 1_545 2_564
S8 Cu3 Th3 55.80(18) 1_545 1_554
S8 Cu3 Th3 116.77(16) 1_545 2_554
S8 Cu3 Sr1 79.95(11) 1_545 .
S8 Cu3 Sr2 61.68(11) 1_545 2_554
S8 Cu3 Sr3 156.29(13) 1_545 2_564
S8 Cu3 S2 106.16(18) 1_545 2_564
Th1 S1 Th3 153.61(18) 1_545 .
Th1 S1 Sr2 103.23(17) 1_545 .
Th1 S1 Sr2 103.23(17) 1_545 4
Sr2 S1 Th3 96.01(15) . .
Sr2 S1 Th3 96.01(15) 4 .
Sr2 S1 Sr2 85.65(13) . 4
Cu3 S1 Th1 86.29(16) 2 1_545
Cu3 S1 Th1 86.29(16) 3_455 1_545
Cu3 S1 Th3 81.00(18) 2 .
Cu3 S1 Th3 81.00(18) 3_455 .
Cu3 S1 Sr2 160.85(17) 3_455 .
Cu3 S1 Sr2 75.93(7) 2 .
Cu3 S1 Sr2 75.93(7) 3_455 4
Cu3 S1 Sr2 160.85(17) 2 4
Cu3 S1 Cu3 121.8(2) 3_455 2
Th1 S2 Th2 106.94(17) . .
Th1 S2 Th3 90.92(16) . 2_564
Th1 S2 Sr1 159.4(2) . 2_565
Th1 S2 Sr3 91.23(9) . .
Th2 S2 Sr1 93.12(11) . 2_565
Th2 S2 Sr3 94.67(11) . .
Th3 S2 Th2 104.87(18) 2_564 .
Th3 S2 Sr1 88.43(12) 2_564 2_565
Th3 S2 Sr3 158.8(2) 2_564 .
Sr3 S2 Sr1 82.21(16) . 2_565
Cu3 S2 Th1 86.74(14) 2_565 .
Cu3 S2 Th2 162.3(2) 2_565 .
Cu3 S2 Th3 85.72(15) 2_565 2_564
Cu3 S2 Sr1 72.66(15) 2_565 2_565
Cu3 S2 Sr3 73.33(15) 2_565 .
Th2 S3 Th2 89.42(13) 3_465 2_565
Th2 S3 Sr2 158.2(2) 2_565 3_465
Th2 S3 Sr2 88.58(5) 3_465 3_465
Th2 S3 Sr2 88.58(5) 2_565 2_565
Th2 S3 Sr2 158.2(2) 3_465 2_565
Th2 S3 Sr3 103.62(15) 3_465 .
Th2 S3 Sr3 103.62(15) 2_565 .
Sr2 S3 Sr2 85.29(14) 2_565 3_465
Sr3 S3 Sr2 97.96(13) . 2_565
Sr3 S3 Sr2 97.96(13) . 3_465
Cu2 S3 Th2 83.70(13) 1_556 3_465
Cu2 S3 Th2 83.70(13) 1_556 2_565
Cu2 S3 Sr2 74.48(14) 1_556 3_465
Cu2 S3 Sr2 74.48(14) 1_556 2_565
Cu2 S3 Sr3 169.5(2) 1_556 .
Th2 S4 Th2 92.91(19) 2_565 3_465
Th2 S4 Th3 106.3(2) 2_565 .
Th2 S4 Th3 106.3(2) 3_465 .
Th2 S4 Sr2 159.4(3) 2_565 4
Th2 S4 Sr2 89.99(6) 2_565 .
Th2 S4 Sr2 159.4(3) 3_465 .
Th2 S4 Sr2 89.99(6) 3_465 4
Th3 S4 Sr2 92.39(15) . .
Th3 S4 Sr2 92.39(15) . 4
Sr2 S4 Sr2 80.45(19) . 4
Cu1 S4 Th2 87.68(15) . 3_465
Cu1 S4 Th2 87.68(15) . 2_565
Cu1 S4 Th3 159.3(3) . .
Cu1 S4 Sr2 72.06(18) . 4
Cu1 S4 Sr2 72.06(18) . .
Th1 S5 Th3 89.95(13) 1_545 2_554
Th1 S5 Sr1 90.42(10) 1_545 .
Th1 S5 Sr2 103.09(17) 1_545 .
Th1 S5 Sr3 160.7(2) 1_545 2_564
Th3 S5 Sr1 159.7(3) 2_554 .
Th3 S5 Sr2 101.95(19) 2_554 .
Th3 S5 Sr3 87.92(10) 2_554 2_564
Sr1 S5 Sr2 97.70(14) . .
Sr1 S5 Sr3 85.07(14) . 2_564
Sr2 S5 Sr3 96.13(13) . 2_564
Cu3 S5 Th1 85.66(16) . 1_545
Cu3 S5 Th3 83.58(18) . 2_554
Cu3 S5 Sr1 76.24(16) . .
Cu3 S5 Sr2 169.5(2) . .
Cu3 S5 Sr3 75.02(15) . 2_564
Th2 S6 Th2 89.71(13) . 4
Th2 S6 Sr1 103.54(15) . .
Th2 S6 Sr1 103.54(15) 4 .
Th2 S6 Sr2 158.2(2) 4 .
Th2 S6 Sr2 88.80(5) 4 4
Th2 S6 Sr2 88.80(5) . .
Th2 S6 Sr2 158.2(2) . 4
Sr1 S6 Sr2 97.94(13) . 4
Sr1 S6 Sr2 97.94(13) . .
Sr2 S6 Sr2 84.61(14) 4 .
Cu1 S6 Th2 83.61(14) . .
Cu1 S6 Th2 83.61(13) . 4
Cu1 S6 Sr1 169.7(2) . .
Cu1 S6 Sr2 74.62(14) . .
Cu1 S6 Sr2 74.62(14) . 4
Th2 S7 Th2 153.68(19) 2_564 .
Th2 S7 Sr1 97.46(16) 2_564 .
Th2 S7 Sr1 101.90(18) . .
Th2 S7 Sr3 101.26(18) . 2_564
Th2 S7 Sr3 97.76(16) 2_564 2_564
Sr1 S7 Sr3 85.79(13) . 2_564
Cu1 S7 Th2 82.58(19) 2_564 2_564
Cu1 S7 Th2 84.60(17) 2_564 .
Cu1 S7 Sr1 161.47(19) 2_564 .
Cu1 S7 Sr3 75.88(10) 2_564 2_564
Cu2 S7 Th2 82.95(19) . 2_564
Cu2 S7 Th2 84.44(17) . .
Cu2 S7 Sr1 76.45(10) . .
Cu2 S7 Sr3 162.15(19) . 2_564
Cu2 S7 Cu1 121.7(2) . 2_564
Th1 S8 Th3 154.1(2) . 1_564
Th1 S8 Sr2 98.40(15) . 2_564
Th1 S8 Sr2 98.40(15) . 3_464
Th3 S8 Sr2 100.55(18) 1_564 2_564
Th3 S8 Sr2 100.55(18) 1_564 3_464
Sr2 S8 Sr2 85.59(13) 3_464 2_564
Cu3 S8 Th1 83.71(18) 4_565 .
Cu3 S8 Th1 83.71(18) 1_565 .
Cu3 S8 Th3 84.09(16) 1_565 1_564
Cu3 S8 Th3 84.09(16) 4_565 1_564
Cu3 S8 Sr2 161.03(17) 1_565 3_464
Cu3 S8 Sr2 75.47(7) 1_565 2_564
Cu3 S8 Sr2 161.03(17) 4_565 2_564
Cu3 S8 Sr2 75.47(7) 4_565 3_464
Cu3 S8 Cu3 123.5(2) 1_565 4_565
Th1 S9 Sr2 93.18(14) . 3_464
Th1 S9 Sr2 93.18(14) . 2_564
Th2 S9 Th1 106.98(19) . .
Th2 S9 Th1 106.97(19) 4 .
Th2 S9 Th2 92.24(18) 4 .
Th2 S9 Sr2 89.65(6) . 2_564
Th2 S9 Sr2 89.65(6) 4 3_464
Th2 S9 Sr2 158.2(3) . 3_464
Th2 S9 Sr2 158.2(3) 4 2_564
Sr2 S9 Sr2 80.83(18) 3_464 2_564
Cu2 S9 Th1 159.6(3) . .
Cu2 S9 Th2 86.87(15) . 4
Cu2 S9 Th2 86.87(15) . .
Cu2 S9 Sr2 71.55(17) . 2_564
Cu2 S9 Sr2 71.55(17) . 3_464
loop_
_geom_bond_atom_site_label_1
_geom_bond_atom_site_label_2
_geom_bond_distance
_geom_bond_site_symmetry_2
Th1 Th3 4.11463(15) 2_564
Th1 Cu3 3.543(4) 1_565
Th1 Cu3 3.605(4) 2_565
Th1 Cu3 3.605(4) 3_465
Th1 Cu3 3.543(4) 4_565
Th1 S1 2.895(6) 1_565
Th1 S2 2.851(5) 4
Th1 S2 2.852(5) .
Th1 S5 2.874(4) 4_565
Th1 S5 2.874(4) 1_565
Th1 S8 2.924(7) .
Th1 S9 3.029(6) .
Th2 Th2 4.1109(8) 4
Th2 Cu1 3.615(3) 2_564
Th2 Cu1 3.537(3) .
Th2 Cu2 3.608(3) .
Th2 Cu2 3.548(3) 2_565
Th2 S2 3.030(5) .
Th2 S3 2.927(3) 2_564
Th2 S4 2.841(4) 2_564
Th2 S6 2.914(3) .
Th2 S7 2.972(7) .
Th2 S7 2.959(7) 2_565
Th2 S9 2.852(4) .
Th3 Cu3 3.623(5) 1_556
Th3 Cu3 3.531(5) 3_455
Th3 Cu3 3.531(5) 2
Th3 Cu3 3.623(5) 4_556
Th3 S1 3.033(11) .
Th3 S2 2.921(5) 2_565
Th3 S2 2.921(5) 3_465
Th3 S4 3.053(6) .
Th3 S5 2.947(4) 2
Th3 S5 2.947(4) 3_455
Th3 S8 3.013(10) 1_546
Sr1 Sr3 4.11471(15) 2_564
Sr1 Sr3 4.11471(15) 2_464
Sr1 Cu2 3.362(3) .
Sr1 Cu3 3.333(2) 4
Sr1 Cu3 3.333(2) .
Sr1 S2 3.152(5) 2_564
Sr1 S2 3.152(5) 3_464
Sr1 S5 3.020(4) .
Sr1 S5 3.020(4) 4
Sr1 S6 3.004(6) .
Sr1 S7 3.015(4) .
Sr1 S7 3.015(4) 4
Sr2 Sr2 4.1274(17) 4_655
Sr2 Sr2 4.1018(17) 4
Sr2 Cu1 3.320(2) .
Sr2 Cu2 3.313(2) 2_565
Sr2 Cu3 3.340(3) 2
Sr2 S1 3.017(4) .
Sr2 S3 3.046(4) 2_564
Sr2 S4 3.176(6) .
Sr2 S5 3.043(6) .
Sr2 S6 3.047(4) .
Sr2 S8 3.038(4) 2_565
Sr2 S9 3.183(6) 2_565
Sr3 Cu1 3.354(3) .
Sr3 Cu3 3.324(2) 2_565
Sr3 Cu3 3.324(2) 3_465
Sr3 S2 3.106(5) 4
Sr3 S2 3.106(5) .
Sr3 S3 2.977(6) .
Sr3 S5 3.067(4) 3_465
Sr3 S5 3.067(4) 2_565
Sr3 S7 3.031(4) 3_465
Sr3 S7 3.031(4) 2_565
Cu1 S4 2.353(7) .
Cu1 S6 2.354(6) .
Cu1 S7 2.356(3) 3_465
Cu1 S7 2.356(3) 2_565
Cu2 S3 2.352(6) 1_554
Cu2 S7 2.354(3) .
Cu2 S7 2.354(3) 4
Cu2 S9 2.372(7) .
Cu3 S1 2.344(3) 2_554
Cu3 S2 2.373(6) 2_564
Cu3 S5 2.302(7) .
Cu3 S8 2.347(3) 1_545
loop_
_twin_individual_id
_twin_individual_mass_fraction_refined
1 0.50(3)
2 0.50(3)
