#------------------------------------------------------------------------------
#$Date: 2021-02-18 12:18:04 +0200 (Thu, 18 Feb 2021) $
#$Revision: 262066 $
#$URL: file:///home/coder/svn-repositories/cod/cif/1/56/04/1560471.cif $
#------------------------------------------------------------------------------
#
# This file is available in the Crystallography Open Database (COD),
# http://www.crystallography.net/
#
# All data on this site have been placed in the public domain by the
# contributors.
#
data_1560471
loop_
_publ_author_name
'Iyer, Abishek K.'
'Yin, Wenlong'
'Lee, Emma J.'
'Lin, Xinsong'
'Mar, Arthur'
_publ_section_title
;
 Quaternary rare-earth sulfides RE 3 M 0.5 GeS 7 (RE=La--Nd, Sm; M=Co, Ni)
 and Y 3 Pd 0.5 SiS 7
;
_journal_name_full               'Journal of Solid State Chemistry'
_journal_page_first              14
_journal_page_last               23
_journal_paper_doi               10.1016/j.jssc.2017.03.009
_journal_volume                  250
_journal_year                    2017
_chemical_absolute_configuration ad
_chemical_formula_structural     'Sm3 Ni0.50 Ge S7'
_chemical_formula_sum            'Ge Ni0.5 S7 Sm3'
_chemical_formula_weight         777.42
_chemical_name_common
'samarium nickel germanium sulfide (3/0.5/1/7)'
_chemical_name_systematic
'samarium nickel germanium sulfide (3/0.5/1/7)'
_space_group_crystal_system      hexagonal
_space_group_IT_number           173
_space_group_name_Hall           'P 6c'
_space_group_name_H-M_alt        'P 63'
_atom_sites_solution_hydrogens   .
_audit_creation_method           SHELXL-2014/7
_cell_angle_alpha                90
_cell_angle_beta                 90
_cell_angle_gamma                120
_cell_formula_units_Z            2
_cell_length_a                   9.9642(8)
_cell_length_b                   9.9642(8)
_cell_length_c                   5.7436(5)
_cell_measurement_reflns_used    2179
_cell_measurement_temperature    296(2)
_cell_measurement_theta_max      27.90
_cell_measurement_theta_min      4.26
_cell_volume                     493.86(7)
_computing_cell_refinement       'Bruker SAINT 8.34A (Bruker, 2013)'
_computing_data_collection       'Bruker APEX 2 (Bruker, 2008)'
_computing_data_reduction        'Bruker SAINT 8.34A'
_computing_molecular_graphics    'ATOMS 5.1 (Dowty, 1999)'
_computing_publication_material  'SHELXL-2014/7 (Sheldrick, 2014)'
_computing_structure_refinement  'SHELXL-2014/7 (Sheldrick, 2014)'
_computing_structure_solution    'SHELXS-97 (Sheldrick, 2008)'
_diffrn_ambient_temperature      296(2)
_diffrn_measured_fraction_theta_full 1.000
_diffrn_measured_fraction_theta_max 1.000
_diffrn_measurement_device_type  'Bruker PLATFORM/SMART APEX II CCD'
_diffrn_measurement_method       '\w and \f scans'
_diffrn_radiation_type           MoK\a
_diffrn_radiation_wavelength     0.71073
_diffrn_reflns_av_R_equivalents  0.0600
_diffrn_reflns_av_unetI/netI     0.0387
_diffrn_reflns_Laue_measured_fraction_full 1.000
_diffrn_reflns_Laue_measured_fraction_max 1.000
_diffrn_reflns_limit_h_max       15
_diffrn_reflns_limit_h_min       -15
_diffrn_reflns_limit_k_max       14
_diffrn_reflns_limit_k_min       -15
_diffrn_reflns_limit_l_max       8
_diffrn_reflns_limit_l_min       -8
_diffrn_reflns_number            7111
_diffrn_reflns_point_group_measured_fraction_full 1.000
_diffrn_reflns_point_group_measured_fraction_max 1.000
_diffrn_reflns_theta_full        25.242
_diffrn_reflns_theta_max         33.149
_diffrn_reflns_theta_min         2.360
_diffrn_source                   'fine-focus sealed tube'
_exptl_absorpt_coefficient_mu    22.917
_exptl_absorpt_correction_T_max  0.572
_exptl_absorpt_correction_T_min  0.431
_exptl_absorpt_correction_type   numerical
_exptl_absorpt_process_details   'SHELXL-2014/7 (Sheldrick, 2014)'
_exptl_crystal_colour            grey
_exptl_crystal_density_diffrn    5.228
_exptl_crystal_description       irregular
_exptl_crystal_F_000             688
_exptl_crystal_size_max          0.048
_exptl_crystal_size_mid          0.041
_exptl_crystal_size_min          0.037
_refine_diff_density_max         4.305
_refine_diff_density_min         -1.409
_refine_diff_density_rms         0.336
_refine_ls_abs_structure_details
;
 Refined as an inversion twin.
;
_refine_ls_abs_structure_Flack   -0.01(4)
_refine_ls_extinction_coef       .
_refine_ls_extinction_method     none
_refine_ls_goodness_of_fit_ref   1.137
_refine_ls_hydrogen_treatment    undef
_refine_ls_matrix_type           full
_refine_ls_number_parameters     40
_refine_ls_number_reflns         1263
_refine_ls_number_restraints     1
_refine_ls_restrained_S_all      1.137
_refine_ls_R_factor_all          0.0361
_refine_ls_R_factor_gt           0.0301
_refine_ls_shift/su_max          0.005
_refine_ls_shift/su_mean         0.000
_refine_ls_structure_factor_coef Fsqd
_refine_ls_weighting_details
'w=1/[\s^2^(Fo^2^)+(0.0223P)^2^+0.3401P] where P=(Fo^2^+2Fc^2^)/3'
_refine_ls_weighting_scheme      calc
_refine_ls_wR_factor_gt          0.0581
_refine_ls_wR_factor_ref         0.0599
_reflns_Friedel_coverage         0.843
_reflns_Friedel_fraction_full    1.000
_reflns_Friedel_fraction_max     1.000
_reflns_number_gt                1128
_reflns_number_total             1263
_reflns_threshold_expression     'I > 2\s(I)'
_cod_data_source_file            mmc21.cif
_cod_data_source_block           10
_cod_original_cell_volume        493.86(9)
_cod_original_formula_sum        'Ge Ni0.50 S7 Sm3'
_cod_database_code               1560471
_shelx_shelxl_version_number     2014/7
_shelx_space_group_comment
;
The symmetry employed for this shelxl refinement is uniquely defined
by the following loop, which should always be used as a source of
symmetry information in preference to the above space-group names.
They are only intended as comments.
;
_shelx_estimated_absorpt_t_min   0.406
_shelx_estimated_absorpt_t_max   0.484
_shelx_res_file
;

    p63.res created by SHELXL-2014/7

TITL Sm3Ni0.5GeS7 P6(3) lsf final refinement
CELL 0.71073   9.96420   9.96420   5.74360  90.0000  90.0000 120.0000
ZERR    2.00   0.00080   0.00080   0.00050   0.0000   0.0000   0.0000
LATT -1
SYMM -Y, X-Y, Z
SYMM -X+Y, -X, Z
SYMM -X, -Y, 0.5+Z
SYMM Y, -X+Y, 0.5+Z
SYMM X-Y, X, 0.5+Z
SFAC S NI GE SM
UNIT 14 1 2 6
TEMP 23
SIZE 0.037 0.041 0.048

L.S. 4
ACTA

TWIN

EADP NIA NIB
WGHT    0.022300    0.340100
BASF  -0.00709
FVAR       0.10381   0.94957
SM    4    0.129908    0.355869    0.020964    11.00000    0.01110    0.00935 =
         0.01127    0.00102    0.00060    0.00504
NIA   2    0.000000    0.000000    0.248309    20.16667    0.00969    0.00969 =
         0.01342    0.00000    0.00000    0.00485
NIB   2    0.000000    0.000000    0.028685   -20.16667    0.00969    0.00969 =
         0.01342    0.00000    0.00000    0.00485
GE    3    0.333333    0.666667    0.601936    10.33333    0.01202    0.01202 =
         0.00821    0.00000    0.00000    0.00601
S1    1    0.244220    0.154360    0.000000    11.00000    0.01335    0.01131 =
         0.02235    0.00204    0.00022    0.00747
S2    1    0.519523    0.099998    0.256960    11.00000    0.01111    0.01160 =
         0.01253    0.00012   -0.00092    0.00513
S3    1    0.333333    0.666667    0.224812    10.33333    0.01296    0.01296 =
         0.00852    0.00000    0.00000    0.00648
HKLF 4

REM  Sm3Ni0.5GeS7 P6(3) lsf final refinement
REM R1 =  0.0301 for    1128 Fo > 4sig(Fo)  and  0.0361 for all    1263 data
REM     40 parameters refined using      1 restraints

END

WGHT      0.0223      0.3549

REM Highest difference peak  4.305,  deepest hole -1.409,  1-sigma level  0.336
Q1    1   0.2576  0.7137  0.5202  11.00000  0.05    4.31
Q2    1   0.3333  0.6667  0.4341  10.33333  0.05    2.66
Q3    1   0.3216  0.3810  0.0177  11.00000  0.05    1.84
Q4    1   0.5734  0.0963  0.5182  11.00000  0.05    1.58
Q5    1   0.2864  0.2646  0.0157  11.00000  0.05    1.50
Q6    1   0.4269  0.1824  0.0119  11.00000  0.05    1.48
Q7    1   0.5764  0.0974  0.0234  11.00000  0.05    1.41
Q8    1   0.4820 -0.0997  0.2877  11.00000  0.05    1.41
Q9    1   0.5176  0.1520  0.0142  11.00000  0.05    1.34
Q10   1   0.4651  0.0223  0.5146  11.00000  0.05    1.33
Q11   1   0.4697  0.0140  0.1097  11.00000  0.05    1.31
Q12   1   0.2075  0.3333  0.0979  11.00000  0.05    1.21
Q13   1   0.0956  0.2206  0.0889  11.00000  0.05    1.12
Q14   1  -0.0053  0.3388  0.1003  11.00000  0.05    1.03
Q15   1   0.3144  0.2310  0.1593  11.00000  0.05    1.02
Q16   1   0.0061  0.2220 -0.0232  11.00000  0.05    0.98
Q17   1   0.2127  0.4361 -0.0791  11.00000  0.05    0.97
Q18   1   0.3048  0.1142  0.2026  11.00000  0.05    0.95
Q19   1  -0.0579 -0.0907 -0.0431  11.00000  0.05    0.95
Q20   1   0.2265  0.0864 -0.2426  11.00000  0.05    0.95
;
_shelx_res_checksum              70504
_shelx_hkl_file
;
  -1  -5  -8    1.34    3.25
   0  -5  -8    4.89    3.38
   1  -5  -8    2.03    2.85
   2  -5  -8   10.99    4.82
   3  -5  -8    0.25    2.93
   4  -5  -8   53.70    9.25
  -1  -4  -8   31.58    6.97
   0  -4  -8    5.15    3.34
   1  -4  -8   13.23    4.82
   2  -4  -8   26.27    6.52
   3  -4  -8   90.51   11.99
   4  -4  -8    8.00    3.77
   5  -4  -8    5.95    4.07
  -2  -3  -8   -0.28    2.64
  -1  -3  -8   75.73   10.11
   0  -3  -8   10.45    4.52
   1  -3  -8   -1.85    2.20
   2  -3  -8   57.15    9.23
   3  -3  -8   16.84    5.34
   4  -3  -8   10.43    4.08
   5  -3  -8   10.52    4.42
   6  -3  -8   25.90    9.95
  -3  -2  -8    2.42    2.83
  -2  -2  -8   37.14    7.28
  -1  -2  -8   43.63    7.79
   0  -2  -8   11.12    4.59
   1  -2  -8   46.68    8.33
   2  -2  -8    7.11    3.64
   3  -2  -8    0.18    2.39
   4  -2  -8   42.14    8.20
   5  -2  -8    0.79    2.65
  -4  -1  -8    4.30    3.97
  -3  -1  -8   11.56    3.32
  -2  -1  -8    0.65    2.45
  -1  -1  -8   30.76    6.63
   0  -1  -8    2.83    2.90
   1  -1  -8   -1.49    2.09
   2  -1  -8   31.97    6.91
   3  -1  -8   44.48    8.36
   4  -1  -8   90.64   11.47
   5  -1  -8   30.24    6.95
  -4   0  -8    3.79    2.69
  -3   0  -8    8.57    3.12
  -2   0  -8    5.72    3.16
  -1   0  -8    0.04    2.14
   0   0  -8  192.42   14.03
   1   0  -8    0.39    2.41
   2   0  -8    3.58    2.80
   3   0  -8   16.89    5.19
   4   0  -8    3.12    2.69
   5   0  -8    1.09    2.76
  -5   1  -8   24.66    7.06
  -4   1  -8   92.86    8.40
  -3   1  -8   40.83    5.55
  -2   1  -8   26.93    6.02
  -1   1  -8    2.30    2.63
   0   1  -8   -0.75    2.10
   1   1  -8   45.98    8.08
   2   1  -8   -0.22    2.51
   3   1  -8    6.13    3.60
   4   1  -8    6.95    3.90
  -5   2  -8    0.57    3.19
  -4   2  -8   36.59    5.28
  -3   2  -8    1.94    2.00
  -2   2  -8   10.84    4.35
  -1   2  -8   28.55    6.55
   0   2  -8    4.17    3.20
   1   2  -8   35.27    7.14
   2   2  -8   34.66    7.58
   3   2  -8    7.52    4.02
  -6   3  -8   17.72    6.07
  -5   3  -8   11.59    3.20
  -4   3  -8   14.34    3.47
  -3   3  -8   12.62    3.32
  -2   3  -8   27.24    6.05
  -1   3  -8    5.17    3.37
   0   3  -8   25.23    6.09
   1   3  -8   95.24   11.83
   2   3  -8    2.31    2.92
  -6   4  -8    3.03    3.97
  -5   4  -8    6.26    2.56
  -4   4  -8    7.71    3.04
  -3   4  -8   82.39   10.63
  -2   4  -8   41.16    7.78
  -1   4  -8   11.59    4.59
   0   4  -8    2.00    3.03
   1   4  -8   26.65    6.60
  -6   5  -8   90.35   11.22
  -5   5  -8    0.81    2.81
  -4   5  -8   33.11    7.13
  -3   5  -8   -1.71    2.23
  -2   5  -8   15.75    5.24
  -1   5  -8    4.71    3.46
   0  -8  -7    2.66    2.99
   1  -8  -7   82.17   10.89
   2  -8  -7   17.80    5.35
   3  -8  -7   58.58    9.13
   4  -8  -7   12.80    4.66
   5  -8  -7    2.54    2.93
   6  -8  -7    7.84    4.35
   7  -8  -7    6.50    3.80
   0  -7  -7   10.92    4.15
   1  -7  -7    8.06    3.97
   2  -7  -7    7.50    3.59
   3  -7  -7   15.62    5.06
   4  -7  -7    0.19    2.57
   5  -7  -7    3.02    3.18
   6  -7  -7   84.99   11.42
   7  -7  -7   13.32    4.88
   8  -7  -7   58.59    9.52
  -3  -6  -7   21.37    7.10
  -1  -6  -7   88.43   10.82
   0  -6  -7    7.81    4.03
   1  -6  -7    1.49    2.53
   2  -6  -7   16.89    5.08
   3  -6  -7   74.00    9.73
   4  -6  -7    3.91    2.76
   5  -6  -7   27.39    6.27
   6  -6  -7    8.73    3.60
   7  -6  -7    8.89    3.97
   8  -6  -7   11.52    4.70
   9  -6  -7    1.10    2.84
  -4  -5  -7   65.06   12.66
  -3  -5  -7    1.03    3.31
  -2  -5  -7    2.17    3.09
  -1  -5  -7   23.07    5.56
   0  -5  -7   15.20    4.64
   1  -5  -7   11.63    4.21
   2  -5  -7   50.36    8.13
   3  -5  -7    3.89    2.71
   4  -5  -7   85.56   10.90
   5  -5  -7   19.02    5.16
   6  -5  -7    0.71    2.43
   7  -5  -7    1.83    2.66
   8  -5  -7   89.94   11.69
   9  -5  -7    6.18    3.85
  -4  -4  -7   14.12    5.43
  -3  -4  -7   -0.55    2.57
  -2  -4  -7    3.87    2.22
  -1  -4  -7   74.78    9.37
   0  -4  -7   13.46    4.39
   1  -4  -7  154.18   11.95
   2  -4  -7    0.44    1.97
   3  -4  -7    1.26    2.27
   4  -4  -7   18.83    5.12
   5  -4  -7   15.44    4.73
   6  -4  -7    6.97    3.58
   7  -4  -7   18.94    5.46
   8  -4  -7   10.39    4.09
   9  -4  -7   50.18    8.76
  -5  -3  -7   77.51   11.91
  -4  -3  -7   20.10    5.96
  -3  -3  -7   78.69    7.75
  -2  -3  -7    4.62    2.23
  -1  -3  -7   -0.91    1.23
   0  -3  -7   14.33    4.37
   1  -3  -7    3.99    2.81
   2  -3  -7   -0.58    1.66
   3  -3  -7   13.53    4.37
   4  -3  -7  130.30   11.31
   5  -3  -7   65.50    9.37
   6  -3  -7   52.76    8.48
   7  -3  -7    0.27    2.43
   8  -3  -7   -0.30    2.35
  -6  -2  -7   12.75    5.47
  -5  -2  -7    4.43    3.82
  -4  -2  -7   16.88    5.63
  -3  -2  -7   44.99    5.50
  -2  -2  -7    2.43    1.73
  -1  -2  -7   -0.75    1.16
   0  -2  -7   70.73    9.03
   1  -2  -7   19.91    4.85
   2  -2  -7   63.43    8.95
   3  -2  -7    2.62    2.47
   4  -2  -7   -0.90    1.88
   5  -2  -7    7.01    3.22
   6  -2  -7    6.15    3.55
   7  -2  -7   -0.28    2.39
   8  -2  -7   12.19    4.70
  -7  -1  -7   64.54   13.43
  -6  -1  -7    7.27    3.96
  -5  -1  -7    2.02    2.82
  -4  -1  -7    8.43    2.51
  -3  -1  -7  134.12    8.60
  -2  -1  -7    7.27    2.54
  -1  -1  -7   18.48    3.53
   0  -1  -7   36.17    6.61
   1  -1  -7   27.40    5.97
   2  -1  -7   12.15    4.03
   3  -1  -7   -0.23    1.66
   4  -1  -7   -0.30    1.73
   5  -1  -7   86.82   10.64
   6  -1  -7   21.27    5.54
   7  -1  -7   90.02   10.81
  -7   0  -7   11.21    5.01
  -6   0  -7   15.03    5.27
  -5   0  -7    9.01    4.50
  -4   0  -7   17.62    3.54
  -3   0  -7   17.09    3.44
  -2   0  -7   55.93    6.05
  -1   0  -7   28.70    5.64
   0   0  -7   -1.21    1.49
   1   0  -7   20.49    4.94
   2   0  -7   58.92    8.54
   3   0  -7   10.48    3.71
   4   0  -7   10.04    3.90
   5   0  -7    6.61    3.23
   6   0  -7   12.07    4.00
   7   0  -7    8.08    4.11
  -8   1  -7    2.84    4.39
  -7   1  -7   75.31   11.55
  -6   1  -7   16.84    5.57
  -5   1  -7   78.60    8.69
  -4   1  -7    0.41    1.52
  -3   1  -7   -0.38    1.37
  -2   1  -7   16.87    3.28
  -1   1  -7   36.63    6.69
   0   1  -7   26.27    5.50
   1   1  -7   14.51    4.34
   2   1  -7    4.49    2.94
   3   1  -7  137.28   11.34
   4   1  -7    9.04    4.07
   5   1  -7    4.85    3.43
   6   1  -7   11.14    4.22
  -8   2  -7    9.74    4.58
  -7   2  -7    1.26    3.02
  -6   2  -7    6.03    3.58
  -5   2  -7    6.05    2.30
  -4   2  -7    0.31    1.36
  -3   2  -7    3.49    1.87
  -2   2  -7   70.59    6.57
  -1   2  -7   19.87    4.94
   0   2  -7   71.46    9.21
   1   2  -7    0.94    1.88
   2   2  -7    4.22    2.57
   3   2  -7   53.62    8.17
   4   2  -7   17.25    4.97
   5   2  -7    9.57    3.87
   6   2  -7   12.75    4.84
  -8   3  -7   -0.80    2.56
  -7   3  -7    0.26    2.69
  -6   3  -7   91.15   11.94
  -5   3  -7   53.39    5.82
  -4   3  -7  131.96    7.80
  -3   3  -7   11.49    2.90
  -2   3  -7   -0.18    1.27
  -1   3  -7    5.75    2.81
   0   3  -7   15.14    4.58
   1   3  -7   -1.05    1.69
   2   3  -7    0.89    2.19
   3   3  -7   78.57   10.20
   4   3  -7   14.76    4.68
   5   3  -7   88.72   11.38
  -9   4  -7   70.70   13.11
  -8   4  -7   14.36    5.00
  -7   4  -7   21.14    6.03
  -6   4  -7   10.14    2.87
  -5   4  -7    7.14    2.39
  -4   4  -7   17.45    3.33
  -3   4  -7    0.50    1.49
  -2   4  -7    1.72    2.29
  -1   4  -7  134.51   11.23
   0   4  -7   13.78    4.30
   1   4  -7   84.53   10.48
   2   4  -7    9.30    3.90
   3   4  -7   -0.07    2.36
   4   4  -7   14.31    5.02
   5   4  -7    7.12    3.88
  -9   5  -7    9.31    4.62
  -8   5  -7   93.50   12.65
  -7   5  -7    3.26    3.07
  -6   5  -7    4.92    2.09
  -5   5  -7   20.31    3.70
  -4   5  -7   63.89    8.86
  -3   5  -7    2.24    2.62
  -2   5  -7   49.21    7.71
  -1   5  -7    6.97    3.38
   0   5  -7   13.64    4.32
   1   5  -7   21.69    5.58
   2   5  -7    1.10    2.47
   3   5  -7    2.06    2.88
   4   5  -7   51.00    8.72
  -9   6  -7    0.09    2.91
  -8   6  -7    7.75    4.54
  -7   6  -7    6.25    3.37
  -6   6  -7   10.95    4.12
  -5   6  -7   28.84    6.19
  -4   6  -7    6.47    3.14
  -3   6  -7   67.66    9.30
  -2   6  -7   14.66    4.63
  -1   6  -7    1.31    2.14
   0   6  -7   24.64    5.73
   1   6  -7   91.53   11.56
   2   6  -7   11.35    4.65
   3   6  -7   21.62    6.33
  -7   7  -7    7.81    3.73
  -6   7  -7   92.43   11.00
  -5   7  -7    2.36    2.61
  -4   7  -7    1.67    2.58
  -3   7  -7   15.80    4.98
  -2   7  -7   11.16    4.75
  -1   7  -7    9.45    4.11
   0   7  -7   21.37    5.67
   1   7  -7    3.95    3.28
  -7   8  -7    5.47    3.49
  -6   8  -7    7.00    3.79
  -5   8  -7   -0.62    2.20
  -4   8  -7    7.83    4.11
  -3   8  -7   80.45   11.19
  -2   8  -7   13.83    4.93
  -1   8  -7   74.41   12.19
   1 -10  -6    4.97    3.36
   2 -10  -6   21.67    5.93
   3 -10  -6   46.03    8.20
   4 -10  -6   34.41    7.06
   5 -10  -6   28.92    6.53
   6 -10  -6    0.96    2.81
   7 -10  -6    3.35    3.21
   8 -10  -6   39.67    7.61
   0  -9  -6   12.58    4.58
   1  -9  -6    0.26    2.43
   2  -9  -6    0.08    2.38
   3  -9  -6   36.66    7.01
   4  -9  -6    8.82    4.35
   5  -9  -6   18.73    5.48
   6  -9  -6   44.22    8.11
   7  -9  -6    6.03    3.32
   8  -9  -6   55.99    8.99
   9  -9  -6    8.79    4.13
  10  -9  -6    2.60    3.55
   0  -8  -6   59.25    8.66
   1  -8  -6   15.55    4.97
   2  -8  -6    5.58    3.11
   3  -8  -6   24.50    5.58
   4  -8  -6   19.09    5.11
   5  -8  -6   29.94    6.43
   6  -8  -6    1.08    2.50
   7  -8  -6   37.65    7.23
   8  -8  -6   51.91    8.38
   9  -8  -6    3.73    2.94
  10  -8  -6   23.27    6.49
  -3  -7  -6    5.67    4.73
  -2  -7  -6    7.42    3.96
  -1  -7  -6   31.61    6.35
   0  -7  -6   13.38    4.00
   1  -7  -6   -0.45    1.93
   2  -7  -6   10.16    3.65
   3  -7  -6   13.57    4.32
   4  -7  -6   72.10    9.55
   5  -7  -6   54.90    8.35
   6  -7  -6   16.62    4.70
   7  -7  -6    6.91    3.27
   8  -7  -6   20.07    5.58
   9  -7  -6   -1.98    1.99
  10  -7  -6   71.15   10.36
  -5  -6  -6    1.65    3.59
  -4  -6  -6    4.01    3.85
  -3  -6  -6   44.76    8.55
  -2  -6  -6    1.66    3.16
  -1  -6  -6   21.60    3.96
   0  -6  -6    4.34    2.66
   1  -6  -6  166.75   12.12
   2  -6  -6    6.10    3.20
   3  -6  -6   89.04   10.20
   4  -6  -6    1.39    2.06
   5  -6  -6   56.77    8.11
   6  -6  -6    4.29    2.51
   7  -6  -6    1.54    2.00
   8  -6  -6    3.14    2.70
   9  -6  -6   35.69    7.30
  10  -6  -6   63.30   10.40
  -6  -5  -6   12.16    5.33
  -5  -5  -6   26.82    6.74
  -4  -5  -6    4.39    3.40
  -3  -5  -6   26.04    6.29
  -2  -5  -6   50.15    5.58
  -1  -5  -6   39.90    4.80
   0  -5  -6    6.91    3.14
   1  -5  -6   22.23    5.01
   2  -5  -6   10.09    3.47
   3  -5  -6    5.08    2.49
   4  -5  -6   44.81    7.24
   5  -5  -6    6.02    2.88
   6  -5  -6  184.07   12.82
   7  -5  -6    9.43    3.91
   8  -5  -6   32.93    6.64
   9  -5  -6    3.05    2.70
  -7  -4  -6   30.75    8.65
  -6  -4  -6   38.98    8.25
  -5  -4  -6    1.03    2.74
  -4  -4  -6    7.67    3.81
  -3  -4  -6   64.21    9.55
  -2  -4  -6    6.65    2.23
  -1  -4  -6   45.79    5.24
   0  -4  -6   16.90    4.40
   1  -4  -6   39.34    6.37
   2  -4  -6   43.16    6.90
   3  -4  -6   67.33    8.56
   4  -4  -6   23.60    5.23
   5  -4  -6   26.81    5.72
   6  -4  -6    4.64    2.65
   7  -4  -6   17.59    4.76
   8  -4  -6   10.29    3.78
   9  -4  -6    6.06    3.52
  -7  -3  -6   59.14   10.27
  -6  -3  -6   22.84    6.51
  -5  -3  -6   20.13    5.81
  -4  -3  -6   16.92    5.01
  -3  -3  -6   97.65    6.85
  -2  -3  -6    2.30    1.63
  -1  -3  -6   77.78    6.70
   0  -3  -6   17.36    3.24
   1  -3  -6    1.75    2.00
   2  -3  -6  115.03    9.48
   3  -3  -6   19.49    4.84
   4  -3  -6   40.67    6.78
   5  -3  -6    3.43    2.28
   6  -3  -6   80.11    9.94
   7  -3  -6   64.22    8.94
   8  -3  -6   44.11    7.71
  -8  -2  -6   26.71    7.02
  -7  -2  -6    0.23    2.51
  -6  -2  -6    4.25    3.24
  -5  -2  -6    4.92    3.15
  -4  -2  -6    0.99    2.26
  -3  -2  -6    8.72    2.31
  -2  -2  -6   39.06    4.75
  -1  -2  -6  111.25    6.63
   0  -2  -6   65.27    6.06
   1  -2  -6   80.90    9.03
   2  -2  -6   71.12    8.75
   3  -2  -6    0.74    1.45
   4  -2  -6   31.29    5.62
   5  -2  -6    7.14    2.78
   6  -2  -6    7.77    3.15
   7  -2  -6   31.83    6.15
   8  -2  -6    3.30    2.79
  -8  -1  -6    1.08    3.07
  -7  -1  -6   32.22    7.22
  -6  -1  -6   -1.47    1.59
  -5  -1  -6  186.79   14.04
  -4  -1  -6   25.25    3.86
  -3  -1  -6   43.07    4.84
  -2  -1  -6    1.39    1.17
  -1  -1  -6   64.23    5.87
   0  -1  -6   23.89    4.95
   1  -1  -6   16.74    4.00
   2  -1  -6   85.64    9.42
   3  -1  -6  106.88    9.04
   4  -1  -6   93.32   10.18
   5  -1  -6   49.11    7.40
   6  -1  -6   30.18    6.08
   7  -1  -6   23.01    5.34
  -9   0  -6   11.45    5.05
  -8   0  -6   53.51    9.13
  -7   0  -6   12.93    4.73
  -6   0  -6    4.76    2.81
  -5   0  -6    6.13    3.23
  -4   0  -6   17.54    3.11
  -3   0  -6   23.47    3.66
  -2   0  -6   71.28    6.17
  -1   0  -6   14.46    2.77
   0   0  -6  141.36   10.16
   1   0  -6   14.23    3.86
   2   0  -6   53.46    7.34
   3   0  -6   19.73    4.55
   4   0  -6   13.44    3.87
   5   0  -6   10.06    3.55
   6   0  -6    4.54    2.59
   7   0  -6   11.09    3.66
  -9   1  -6   57.60   10.13
  -8   1  -6   33.08    7.30
  -7   1  -6   27.78    6.51
  -6   1  -6   42.73    7.70
  -5   1  -6   40.12    4.66
  -4   1  -6   67.82    6.04
  -3   1  -6  121.37    6.70
  -2   1  -6   80.25    5.74
  -1   1  -6   15.78    2.82
   0   1  -6    8.06    3.04
   1   1  -6   91.39    9.79
   2   1  -6    3.21    1.88
   3   1  -6   42.95    6.67
   4   1  -6   18.37    4.37
   5   1  -6  183.01   12.44
   6   1  -6   -0.40    1.84
 -10   2  -6   53.53    9.38
  -9   2  -6   14.17    4.83
  -8   2  -6   -0.24    2.21
  -7   2  -6   20.36    5.34
  -6   2  -6   -0.80    1.65
  -5   2  -6    3.73    1.77
  -4   2  -6   45.23    4.83
  -3   2  -6    3.98    1.79
  -2   2  -6   63.93    5.71
  -1   2  -6   91.11    6.15
   0   2  -6   75.93    8.74
   1   2  -6  103.42    8.70
   2   2  -6   37.41    6.09
   3   2  -6    8.11    3.16
   4   2  -6    5.50    2.79
   5   2  -6    9.62    3.48
   6   2  -6    5.79    3.06
 -10   3  -6    6.16    3.87
  -9   3  -6   37.88    7.51
  -8   3  -6   34.80    7.02
  -7   3  -6  101.26   11.72
  -6   3  -6   86.77    6.79
  -5   3  -6    9.53    2.37
  -4   3  -6   42.44    4.81
  -3   3  -6   17.24    3.09
  -2   3  -6  121.69    6.71
  -1   3  -6    3.84    2.07
   0   3  -6   25.27    5.22
   1   3  -6   86.65    9.55
   2   3  -6    4.98    2.68
   3   3  -6   75.52    9.09
   4   3  -6   20.06    4.67
   5   3  -6   16.63    4.49
 -10   4  -6    6.56    3.94
  -9   4  -6   17.87    5.30
  -8   4  -6    8.41    3.74
  -7   4  -6   22.17    5.50
  -6   4  -6    4.62    1.85
  -5   4  -6   29.33    3.98
  -4   4  -6   19.20    3.18
  -3   4  -6   63.97    5.87
  -2   4  -6   40.22    4.69
  -1   4  -6   33.26    6.01
   0   4  -6   16.75    4.24
   1   4  -6   39.64    6.46
   2   4  -6    3.89    2.55
   3   4  -6   81.79    9.90
   4   4  -6   14.50    4.26
   5   4  -6    3.70    2.86
 -10   5  -6   27.95    6.78
  -9   5  -6    3.68    2.69
  -8   5  -6   29.28    6.35
  -7   5  -6    9.22    2.51
  -6   5  -6  193.86    8.79
  -5   5  -6    5.98    2.03
  -4   5  -6   42.87    4.89
  -3   5  -6    7.04    3.03
  -2   5  -6    7.88    3.06
  -1   5  -6   19.50    4.62
   0   5  -6    2.41    2.07
   1   5  -6   51.55    7.95
   2   5  -6   44.98    7.43
   3   5  -6   32.95    6.41
   4   5  -6    7.15    3.45
 -11   6  -6   10.07    4.55
 -10   6  -6   59.01    9.53
  -9   6  -6   20.33    5.48
  -8   6  -6    2.59    2.74
  -7   6  -6    1.77    1.47
  -6   6  -6    4.94    1.91
  -5   6  -6   41.93    6.63
  -4   6  -6    2.93    2.40
  -3   6  -6   75.00    9.11
  -2   6  -6    0.65    1.90
  -1   6  -6  211.96   13.50
   0   6  -6    4.38    2.87
   1   6  -6   11.86    3.99
   2   6  -6    3.49    2.60
   3   6  -6   31.34    6.31
   4   6  -6    4.16    3.19
 -11   7  -6   29.62    6.89
 -10   7  -6   71.09   10.41
  -9   7  -6   -0.67    2.24
  -8   7  -6   20.24    5.15
  -7   7  -6   13.45    3.97
  -6   7  -6   16.61    4.50
  -5   7  -6   44.75    7.44
  -4   7  -6   76.09    9.59
  -3   7  -6   15.51    4.56
  -2   7  -6    6.54    3.34
  -1   7  -6    0.97    2.10
   0   7  -6   12.88    4.11
   1   7  -6   22.57    5.65
   2   7  -6   15.51    5.00
   3   7  -6    2.21    2.61
  -8   8  -6   75.13    9.48
  -7   8  -6   37.17    6.90
  -6   8  -6    4.73    2.85
  -5   8  -6   30.66    6.49
  -4   8  -6   12.38    4.33
  -3   8  -6   27.76    6.09
  -2   8  -6    2.48    2.43
  -1   8  -6   17.19    4.89
   0   8  -6   60.04    9.10
   1   8  -6   55.80    8.65
   2   8  -6   46.22    8.33
  -8   9  -6   69.83    9.45
  -7   9  -6    8.34    3.66
  -6   9  -6   40.76    7.47
  -5   9  -6   22.16    5.61
  -4   9  -6   10.71    4.15
  -3   9  -6   43.89    8.10
  -2   9  -6    1.12    2.47
  -1   9  -6    4.77    3.17
   0   9  -6   11.98    4.54
   1   9  -6   -1.37    2.46
  -9  10  -6    2.30    2.94
  -8  10  -6   44.74    7.96
  -7  10  -6    6.03    3.45
  -6  10  -6    7.08    4.02
  -5  10  -6   16.52    5.10
  -4  10  -6   57.75    9.20
  -3  10  -6   61.06    9.49
  -2  10  -6   26.55    6.54
   6 -12  -5    6.88    3.79
   7 -12  -5   35.84    5.17
   8 -12  -5   15.32    3.98
   9 -12  -5   14.23    4.78
   3 -11  -5    9.31    3.72
   4 -11  -5    7.94    3.81
   5 -11  -5   44.02    5.55
   6 -11  -5   20.65    3.88
   7 -11  -5    1.73    1.94
   8 -11  -5   24.79    4.02
   9 -11  -5   31.87    4.96
  10 -11  -5   14.62    3.51
   1 -10  -5   61.15    8.97
   2 -10  -5   92.84   10.99
   3 -10  -5    8.08    3.91
   4 -10  -5    4.53    2.72
   5 -10  -5   16.64    3.28
   6 -10  -5   38.16    4.92
   7 -10  -5   22.91    3.82
   8 -10  -5   20.80    3.57
   9 -10  -5    6.44    2.45
  10 -10  -5  128.52    8.59
  11 -10  -5   13.37    3.19
   0  -9  -5    0.51    2.05
   1  -9  -5    0.17    2.05
   2  -9  -5    1.00    1.81
   3  -9  -5   -0.71    1.77
   4  -9  -5   15.03    3.25
   5  -9  -5   29.21    4.06
   6  -9  -5   20.38    3.50
   7  -9  -5   59.01    6.03
   8  -9  -5   12.81    2.93
   9  -9  -5   -2.17    1.43
  10  -9  -5   55.51    6.11
  11  -9  -5    2.10    1.84
  12  -9  -5    3.41    3.43
  -1  -8  -5    9.45    3.62
   0  -8  -5    1.15    1.86
   1  -8  -5   83.79    9.67
   2  -8  -5   63.67    8.40
   3  -8  -5  218.91   13.73
   4  -8  -5   26.27    3.68
   5  -8  -5    9.90    2.45
   6  -8  -5   19.15    3.33
   7  -8  -5   14.97    2.90
   8  -8  -5    2.91    1.75
   9  -8  -5   -0.22    1.38
  10  -8  -5   81.33    7.29
  11  -8  -5   11.62    4.06
  12  -8  -5   74.29   10.21
  -3  -7  -5   25.92    5.98
  -2  -7  -5   66.78    9.53
  -1  -7  -5   16.48    3.09
   0  -7  -5   10.20    3.50
   1  -7  -5    4.60    2.34
   2  -7  -5   21.76    4.90
   3  -7  -5   19.22    4.52
   4  -7  -5    6.21    1.98
   5  -7  -5    2.69    1.49
   6  -7  -5  259.31    9.87
   7  -7  -5    4.81    1.63
   8  -7  -5  103.98    6.27
   9  -7  -5    1.15    1.39
  10  -7  -5    8.27    2.43
  11  -7  -5   15.53    4.76
  12  -7  -5    2.69    3.24
  -5  -6  -5   28.95    6.79
  -4  -6  -5   28.32    6.28
  -3  -6  -5   25.01    5.95
  -2  -6  -5   10.58    2.54
  -1  -6  -5  270.70   10.47
   0  -6  -5   11.46    3.33
   1  -6  -5   34.23    5.99
   2  -6  -5   24.05    4.95
   3  -6  -5  131.97    9.75
   4  -6  -5    0.51    1.17
   5  -6  -5   75.85    5.19
   6  -6  -5   11.57    2.39
   7  -6  -5    7.69    2.12
   8  -6  -5   75.41    6.37
   9  -6  -5    1.56    1.37
  10  -6  -5    3.33    1.70
  11  -6  -5   41.85    7.17
  12  -6  -5   14.61    4.77
  -7  -5  -5    8.86    4.46
  -6  -5  -5   35.85    7.22
  -5  -5  -5   19.83    5.51
  -4  -5  -5   31.47    6.83
  -3  -5  -5    2.85    2.75
  -2  -5  -5    3.29    1.58
  -1  -5  -5   71.94    6.11
   0  -5  -5   12.77    2.57
   1  -5  -5   12.54    3.57
   2  -5  -5   91.07    7.89
   3  -5  -5    1.79    1.75
   4  -5  -5  151.89   10.63
   5  -5  -5    8.50    2.03
   6  -5  -5   34.99    3.92
   7  -5  -5   17.86    2.95
   8  -5  -5  210.15    8.70
   9  -5  -5   18.25    3.03
  10  -5  -5   23.72    5.40
  11  -5  -5   34.34    6.45
  12  -5  -5   22.16    5.92
  -8  -4  -5   95.44   12.68
  -7  -4  -5   19.50    5.60
  -6  -4  -5    3.21    2.88
  -5  -4  -5   28.10    6.20
  -4  -4  -5   12.92    4.09
  -3  -4  -5    8.95    2.35
  -2  -4  -5    1.08    1.12
  -1  -4  -5  201.23    8.47
   0  -4  -5    8.33    2.10
   1  -4  -5  341.37   15.55
   2  -4  -5    4.05    2.11
   3  -4  -5   16.15    4.05
   4  -4  -5    8.63    3.12
   5  -4  -5   15.03    2.52
   6  -4  -5   17.69    2.67
   7  -4  -5   18.57    2.90
   8  -4  -5   22.79    3.41
   9  -4  -5   36.91    4.39
  10  -4  -5   27.81    5.81
  11  -4  -5    3.27    2.77
  12  -4  -5   36.34    7.30
  -9  -3  -5    6.98    4.40
  -8  -3  -5   11.74    4.79
  -7  -3  -5    7.78    3.77
  -6  -3  -5    1.27    2.47
  -5  -3  -5  243.57   15.04
  -4  -3  -5   22.90    5.30
  -3  -3  -5  145.51    7.07
  -2  -3  -5    3.20    1.35
  -1  -3  -5   12.43    2.48
   0  -3  -5   48.06    4.68
   1  -3  -5   31.09    5.09
   2  -3  -5   14.49    3.64
   3  -3  -5   46.44    6.35
   4  -3  -5  329.30   15.41
   5  -3  -5   97.68    5.06
   6  -3  -5  141.44    6.46
   7  -3  -5   10.43    2.21
   8  -3  -5    8.24    2.21
   9  -3  -5   15.71    4.34
  10  -3  -5   37.56    6.52
  11  -3  -5   24.24    5.78
  12  -3  -5   12.18    4.51
  -9  -2  -5    3.03    3.08
  -8  -2  -5   84.65   11.14
  -7  -2  -5    0.97    2.09
  -6  -2  -5   92.10   10.52
  -5  -2  -5   15.07    4.49
  -4  -2  -5   22.85    3.23
  -3  -2  -5  100.20    5.75
  -2  -2  -5    1.91    1.19
  -1  -2  -5   24.86    3.22
   0  -2  -5   90.91    5.68
   1  -2  -5   41.09    5.95
   2  -2  -5   94.83    7.50
   3  -2  -5   40.79    6.12
   4  -2  -5    1.60    1.46
   5  -2  -5    4.54    1.57
   6  -2  -5    0.32    0.98
   7  -2  -5    3.22    1.43
   8  -2  -5   14.91    2.79
   9  -2  -5   70.58    8.72
  10  -2  -5   21.39    5.18
  11  -2  -5   22.14    5.40
 -10  -1  -5    8.91    4.23
  -9  -1  -5   60.58    9.65
  -8  -1  -5    1.92    2.27
  -7  -1  -5   99.76   11.25
  -6  -1  -5   11.11    4.03
  -5  -1  -5   27.96    5.71
  -4  -1  -5   17.14    2.82
  -3  -1  -5  315.82   10.58
  -2  -1  -5   26.56    3.41
  -1  -1  -5   45.83    4.53
   0  -1  -5   79.35    5.38
   1  -1  -5   84.16    7.05
   2  -1  -5   32.23    5.35
   3  -1  -5   33.37    5.48
   4  -1  -5    4.94    2.26
   5  -1  -5  182.13   11.15
   6  -1  -5   79.76    5.12
   7  -1  -5  263.01    9.47
   8  -1  -5   16.07    4.13
   9  -1  -5    9.72    3.49
  10  -1  -5    6.88    3.29
  11  -1  -5    4.89    3.58
 -10   0  -5  133.39   14.93
  -9   0  -5    2.62    2.84
  -8   0  -5    2.67    2.62
  -7   0  -5    4.67    2.87
  -6   0  -5   15.80    4.37
  -5   0  -5   11.20    2.35
  -4   0  -5    9.60    2.13
  -3   0  -5   52.00    4.83
  -2   0  -5   94.19    5.36
  -1   0  -5   72.39    4.99
   0   0  -5    0.11    0.87
   1   0  -5   75.98    6.54
   2   0  -5   79.02    6.83
   3   0  -5   53.49    6.67
   4   0  -5    7.17    2.69
   5   0  -5    5.70    2.50
   6   0  -5   13.72    2.42
   7   0  -5    3.97    1.53
   8   0  -5    8.02    2.98
   9   0  -5    3.58    2.66
  10   0  -5  130.00   12.75
 -11   1  -5   11.46    4.94
 -10   1  -5    6.29    3.17
  -9   1  -5   11.91    4.29
  -8   1  -5   13.76    4.35
  -7   1  -5  274.08   15.68
  -6   1  -5   70.81    8.74
  -5   1  -5  194.39    7.87
  -4   1  -5   11.94    2.26
  -3   1  -5   23.56    3.21
  -2   1  -5   46.09    4.40
  -1   1  -5   77.53    5.12
   0   1  -5   80.44    4.85
   1   1  -5   36.27    5.49
   2   1  -5   35.28    5.42
   3   1  -5  325.47   14.90
   4   1  -5    9.81    3.05
   5   1  -5   31.78    5.34
   6   1  -5   10.31    2.38
   7   1  -5   88.76    7.71
   8   1  -5    2.42    2.37
   9   1  -5   59.83    8.54
  10   1  -5    3.47    3.12
 -11   2  -5   19.36    5.86
 -10   2  -5   16.60    5.40
  -9   2  -5   68.94    9.76
  -8   2  -5   11.81    3.79
  -7   2  -5    4.95    2.61
  -6   2  -5    0.49    0.90
  -5   2  -5    3.52    1.31
  -4   2  -5    3.51    1.33
  -3   2  -5   27.42    3.29
  -2   2  -5   90.92    5.17
  -1   2  -5   46.03    4.30
   0   2  -5   98.76    7.45
   1   2  -5   28.06    4.63
   2   2  -5    2.23    1.71
   3   2  -5   82.73    7.23
   4   2  -5   25.96    4.82
   5   2  -5   16.50    4.09
   6   2  -5   85.98    7.62
   7   2  -5    0.45    2.26
   8   2  -5   80.76    9.44
   9   2  -5    1.14    2.68
 -11   3  -5   18.93    5.25
 -10   3  -5   28.00    6.43
  -9   3  -5   26.63    6.10
  -8   3  -5    9.59    3.69
  -7   3  -5    8.66    3.45
  -6   3  -5  148.35    6.81
  -5   3  -5   95.71    5.32
  -4   3  -5  318.50   10.35
  -3   3  -5   49.44    4.47
  -2   3  -5   19.91    2.90
  -1   3  -5   28.16    3.45
   0   3  -5   51.05    6.37
   1   3  -5   10.26    3.13
   2   3  -5    4.28    2.04
   3   3  -5  148.62    9.78
   4   3  -5   19.02    4.33
   5   3  -5  210.46   12.37
 -12   4  -5   13.96    7.71
 -11   4  -5    1.11    2.15
 -10   4  -5   38.76    7.31
  -9   4  -5   27.74    5.94
  -8   4  -5   26.68    5.72
  -7   4  -5   27.96    3.46
  -6   4  -5   24.74    3.18
  -5   4  -5   10.83    2.19
  -4   4  -5    9.80    2.08
  -3   4  -5   13.87    2.35
  -2   4  -5    1.36    1.23
  -1   4  -5  292.97   14.48
   0   4  -5    7.17    2.79
   1   4  -5  185.99   11.11
   2   4  -5    0.10    1.44
   3   4  -5   11.48    3.59
   4   4  -5   24.86    5.13
   5   4  -5   13.65    3.85
 -12   5  -5   17.72    5.51
 -11   5  -5   18.94    5.35
 -10   5  -5   19.89    5.35
  -9   5  -5   15.58    4.50
  -8   5  -5  198.58   12.81
  -7   5  -5   25.07    3.38
  -6   5  -5   27.46    3.42
  -5   5  -5   11.97    2.39
  -4   5  -5  177.03    7.62
  -3   5  -5    3.76    1.44
  -2   5  -5  102.65    5.73
  -1   5  -5    9.62    3.08
   0   5  -5    6.57    2.68
   1   5  -5   76.57    8.80
   2   5  -5    2.67    2.16
   3   5  -5    6.89    2.79
   4   5  -5   28.48    5.23
 -12   6  -5   15.94    5.28
 -11   6  -5   44.47    8.16
 -10   6  -5    3.97    2.77
  -9   6  -5   -1.12    1.63
  -8   6  -5   71.50    6.20
  -7   6  -5    5.71    1.77
  -6   6  -5   10.82    2.14
  -5   6  -5   89.00    5.83
  -4   6  -5    1.61    1.75
  -3   6  -5  135.81    9.88
  -2   6  -5   16.89    4.11
  -1   6  -5   21.47    4.62
   0   6  -5   13.90    3.94
   1   6  -5  239.29   13.98
   2   6  -5   17.18    4.46
   3   6  -5   22.58    5.04
   4   6  -5   26.10    5.57
 -12   7  -5    5.83    3.64
 -11   7  -5   11.47    4.21
 -10   7  -5    3.79    2.87
  -9   7  -5    0.98    2.13
  -8   7  -5   86.99    6.04
  -7   7  -5    7.79    2.07
  -6   7  -5  264.21   14.00
  -5   7  -5    3.65    2.16
  -4   7  -5    6.64    2.80
  -3   7  -5   27.89    5.77
  -2   7  -5   20.96    4.85
  -1   7  -5    7.14    2.83
   0   7  -5    6.64    2.72
   1   7  -5   15.80    4.52
   2   7  -5   62.19    8.65
   3   7  -5   29.99    6.05
 -12   8  -5  101.67   12.37
 -11   8  -5   15.36    5.14
 -10   8  -5   68.42    9.22
  -8   8  -5    9.30    3.42
  -7   8  -5   10.70    3.55
  -6   8  -5   13.63    3.89
  -5   8  -5   12.12    3.84
  -4   8  -5   24.57    5.29
  -3   8  -5  234.70   14.04
  -2   8  -5   80.81    9.70
  -1   8  -5  119.16   10.02
   0   8  -5    4.49    2.70
   1   8  -5   16.49    4.65
   2   8  -5   21.39    5.43
   3   8  -5   41.91    7.51
  -9   9  -5    4.04    2.63
  -8   9  -5   15.33    4.38
  -7   9  -5   54.11    7.71
  -6   9  -5   15.19    4.33
  -5   9  -5   36.31    6.51
  -4   9  -5   13.22    4.05
  -3   9  -5   -0.26    1.64
  -2   9  -5    0.45    1.88
  -1   9  -5    0.95    2.11
   0   9  -5    1.82    2.21
   1   9  -5    3.49    2.95
   2   9  -5   23.26    5.70
  -9  10  -5    4.38    2.67
  -8  10  -5   16.72    4.68
  -7  10  -5   31.01    6.25
  -6  10  -5   16.52    4.52
  -5  10  -5   26.63    5.67
  -4  10  -5    4.81    2.88
  -3  10  -5    1.67    2.23
  -2  10  -5   90.45   11.04
  -1  10  -5   61.17    9.33
   0  10  -5  122.80   13.18
   1  10  -5    8.41    3.78
  -9  11  -5   32.81    6.61
  -8  11  -5   28.67    6.11
  -7  11  -5    0.15    2.33
  -6  11  -5   18.97    5.23
  -5  11  -5   41.56    7.63
  -4  11  -5   14.29    4.51
  -3  11  -5   10.38    4.36
  -2  11  -5    2.18    2.52
  -1  11  -5   16.28    5.36
  -9  12  -5    9.30    4.05
  -8  12  -5   21.53    5.72
  -7  12  -5   30.98    6.92
  -6  12  -5   12.83    4.74
  -5  12  -5    3.32    3.06
   3 -13  -4    0.04    2.90
   4 -13  -4    5.77    3.64
   5 -13  -4   54.20    9.11
   6 -13  -4   71.36   10.44
   7 -13  -4   12.15    4.89
   8 -13  -4    4.92    3.56
   9 -13  -4   18.78    5.95
   1 -12  -4    2.82    3.94
   2 -12  -4  102.62   12.44
   3 -12  -4    3.20    2.92
   4 -12  -4   17.97    5.53
   5 -12  -4    0.22    2.62
   6 -12  -4   16.15    5.20
   7 -12  -4   -0.69    2.43
   8 -12  -4   12.12    4.33
   9 -12  -4   25.21    6.36
  10 -12  -4   91.73   11.76
  11 -12  -4   45.76    8.51
   0 -11  -4   12.31    4.74
   1 -11  -4    1.23    2.44
   2 -11  -4   10.72    4.41
   3 -11  -4   25.23    5.93
   4 -11  -4   -0.35    1.76
   5 -11  -4   32.93    4.69
   6 -11  -4   20.83    3.81
   7 -11  -4  198.41    9.73
   8 -11  -4    2.75    2.04
   9 -11  -4   35.11    4.94
  10 -11  -4    8.92    3.73
  11 -11  -4    2.33    2.97
  12 -11  -4    2.16    2.81
  -3 -10  -4    1.35    3.39
  -1 -10  -4    9.60    4.48
   0 -10  -4    9.20    4.36
   1 -10  -4   17.54    5.15
   2 -10  -4   17.31    4.93
   3 -10  -4   71.28    6.60
   4 -10  -4   50.53    5.51
   5 -10  -4   20.91    3.57
   6 -10  -4   17.51    3.42
   7 -10  -4   15.79    3.12
   8 -10  -4    7.82    2.40
   9 -10  -4    3.89    1.91
  10 -10  -4   23.49    4.08
  11 -10  -4    1.48    1.88
  12 -10  -4  100.14   12.00
  -4  -9  -4   22.55    5.41
  -3  -9  -4   27.57    5.19
  -2  -9  -4   23.01    5.74
  -1  -9  -4    3.45    2.01
   0  -9  -4   66.51    8.97
   1  -9  -4    7.48    2.25
   2  -9  -4   25.29    3.80
   3  -9  -4   96.26    6.57
   4  -9  -4    0.46    1.18
   5  -9  -4   42.51    4.65
   6  -9  -4   22.07    3.54
   7  -9  -4   44.04    5.04
   8  -9  -4   53.71    5.49
   9  -9  -4   70.94    6.47
  10  -9  -4   23.40    3.60
  11  -9  -4    6.74    2.46
  12  -9  -4    1.98    2.81
  13  -9  -4    2.17    3.07
  -5  -8  -4    9.80    4.06
  -4  -8  -4    7.42    3.28
  -3  -8  -4    1.57    1.58
  -2  -8  -4    3.69    1.63
  -1  -8  -4   67.27    4.82
   0  -8  -4  129.87    5.48
   1  -8  -4   27.78    3.77
   2  -8  -4   20.36    3.11
   3  -8  -4   37.73    4.47
   4  -8  -4   14.45    2.64
   5  -8  -4  136.24    6.99
   6  -8  -4    6.32    2.00
   7  -8  -4    1.75    1.44
   8  -8  -4  132.43    7.10
   9  -8  -4    3.14    1.68
  10  -8  -4   19.96    3.49
  11  -8  -4   13.96    4.77
  12  -8  -4   20.79    5.45
  13  -8  -4   57.42    9.28
  -6  -7  -4   12.46    4.29
  -5  -7  -4    1.39    2.00
  -4  -7  -4  204.96   12.60
  -3  -7  -4   15.60    3.12
  -2  -7  -4   41.06    3.16
  -1  -7  -4   -0.04    0.65
   0  -7  -4   24.66    2.24
   1  -7  -4   16.67    2.78
   2  -7  -4    0.75    1.08
   3  -7  -4   27.96    3.49
   4  -7  -4  145.89    6.85
   5  -7  -4   79.62    5.47
   6  -7  -4   57.17    4.93
   7  -7  -4   16.95    2.83
   8  -7  -4   25.70    3.61
   9  -7  -4   23.60    3.63
  10  -7  -4   76.80    6.55
  11  -7  -4   -2.58    1.62
  12  -7  -4    5.02    3.04
  13  -7  -4   51.89    8.68
  -7  -6  -4   61.50    8.93
  -6  -6  -4   11.71    3.88
  -5  -6  -4   17.30    3.21
  -4  -6  -4   25.02    3.69
  -3  -6  -4   18.53    3.08
  -2  -6  -4    3.45    0.92
  -1  -6  -4   68.33    3.37
   0  -6  -4    4.08    1.01
   1  -6  -4  325.62   10.16
   2  -6  -4    0.93    0.97
   3  -6  -4    9.72    2.01
   4  -6  -4    3.42    1.31
   5  -6  -4    5.77    1.70
   6  -6  -4    2.34    1.28
   7  -6  -4   17.31    2.82
   8  -6  -4   20.63    3.19
   9  -6  -4   95.80    6.12
  10  -6  -4   55.67    7.90
  11  -6  -4   29.55    5.92
  12  -6  -4   20.36    5.45
  13  -6  -4   17.50    5.67
  -8  -5  -4   54.85    8.71
  -7  -5  -4    5.46    2.30
  -6  -5  -4   32.19    4.43
  -5  -5  -4   21.99    3.55
  -4  -5  -4   44.20    4.64
  -3  -5  -4  147.40    5.46
  -2  -5  -4   90.69    3.53
  -1  -5  -4    5.76    1.13
   0  -5  -4    2.29    0.78
   1  -5  -4   10.79    2.03
   2  -5  -4   41.28    3.76
   3  -5  -4    9.39    1.86
   4  -5  -4   54.54    4.45
   5  -5  -4    3.17    1.30
   6  -5  -4  322.39   10.17
   7  -5  -4    1.21    0.99
   8  -5  -4   31.38    3.65
   9  -5  -4    0.72    1.30
  10  -5  -4   19.31    4.52
  11  -5  -4   18.43    4.56
  12  -5  -4    2.16    2.60
  13  -5  -4    8.37    3.71
  -9  -4  -4   -1.82    3.99
  -8  -4  -4   12.56    4.71
  -7  -4  -4   -0.30    1.49
  -6  -4  -4   49.55    5.19
  -5  -4  -4    1.25    1.33
  -4  -4  -4   10.78    2.30
  -3  -4  -4  162.84    6.80
  -2  -4  -4    5.19    1.18
  -1  -4  -4   53.31    3.62
   0  -4  -4   46.04    3.20
   1  -4  -4   52.34    3.53
   2  -4  -4  190.67    6.66
   3  -4  -4  346.01    9.61
   4  -4  -4   39.36    3.60
   5  -4  -4    5.65    1.48
   6  -4  -4    0.42    0.83
   7  -4  -4   31.68    3.55
   8  -4  -4   16.03    2.77
   9  -4  -4   56.50    5.12
  10  -4  -4   19.01    4.58
  11  -4  -4  195.13   13.06
  12  -4  -4   11.19    4.12
  13  -4  -4   13.29    4.54
 -10  -3  -4   -0.78    2.92
  -9  -3  -4    0.34    2.77
  -8  -3  -4   21.05    5.36
  -7  -3  -4   58.12    8.20
  -6  -3  -4   83.07    9.84
  -5  -3  -4   39.54    6.55
  -4  -3  -4   24.48    3.58
  -3  -3  -4   11.87    2.16
  -2  -3  -4   13.16    2.35
  -1  -3  -4  338.04    7.70
   0  -3  -4   31.51    2.48
   1  -3  -4    2.39    0.78
   2  -3  -4  162.31    5.69
   3  -3  -4   31.25    3.04
   4  -3  -4   59.02    3.72
   5  -3  -4   36.63    3.53
   6  -3  -4    8.44    1.83
   7  -3  -4  146.04    6.46
   8  -3  -4  144.94    6.68
   9  -3  -4   20.44    4.47
  10  -3  -4   14.42    4.30
  11  -3  -4    2.17    2.60
  12  -3  -4   20.76    5.29
 -10  -2  -4  130.11   13.88
  -9  -2  -4    4.32    2.93
  -8  -2  -4   18.47    4.99
  -7  -2  -4   30.26    6.15
  -6  -2  -4   15.11    4.03
  -5  -2  -4    1.68    1.63
  -4  -2  -4    0.34    0.85
  -3  -2  -4   36.86    3.66
  -2  -2  -4  192.92    7.18
  -1  -2  -4  154.50    4.36
   0  -2  -4   42.62    2.32
   1  -2  -4   62.49    3.24
   2  -2  -4   35.16    2.52
   3  -2  -4    3.34    1.06
   4  -2  -4  199.26    6.58
   5  -2  -4   10.17    1.66
   6  -2  -4    3.71    1.31
   7  -2  -4   86.73    4.90
   8  -2  -4    5.70    1.79
   9  -2  -4   47.26    6.92
  10  -2  -4    1.83    2.24
  11  -2  -4   27.45    6.02
  12  -2  -4  103.09   12.14
 -11  -1  -4    0.24    2.69
 -10  -1  -4    1.58    2.27
  -9  -1  -4   23.34    5.47
  -8  -1  -4    4.08    2.55
  -7  -1  -4   14.27    4.29
  -6  -1  -4   11.04    3.39
  -5  -1  -4  330.01   15.54
  -4  -1  -4    9.59    1.87
  -3  -1  -4   55.38    3.93
  -2  -1  -4    2.74    1.17
  -1  -1  -4   70.43    4.17
   0  -1  -4   24.86    3.01
   1  -1  -4   22.81    1.71
   2  -1  -4   73.81    3.28
   3  -1  -4  155.01    5.40
   4  -1  -4  329.86    9.15
   5  -1  -4   48.11    3.96
   6  -1  -4    6.14    1.58
   7  -1  -4   67.51    5.11
   8  -1  -4    0.74    1.45
   9  -1  -4   61.75    7.87
  10  -1  -4    6.75    3.01
  11  -1  -4    4.55    3.00
  12  -1  -4   38.31    7.56
 -11   0  -4    2.13    2.71
 -10   0  -4   17.72    5.04
  -9   0  -4   72.63    9.37
  -8   0  -4  136.56   10.66
  -7   0  -4   18.10    4.29
  -6   0  -4    6.16    2.63
  -5   0  -4    1.96    1.03
  -4   0  -4   47.55    4.01
  -3   0  -4   33.07    3.32
  -2   0  -4   41.17    3.65
  -1   0  -4   24.24    2.89
   0   0  -4  958.62   20.31
   1   0  -4   19.84    1.73
   2   0  -4   37.27    2.41
   3   0  -4   31.79    2.79
   4   0  -4   41.88    3.45
   5   0  -4    1.37    1.00
   6   0  -4    3.17    1.32
   7   0  -4   22.25    3.08
   8   0  -4  134.72    9.49
   9   0  -4   74.30    8.93
  10   0  -4   10.55    3.96
  11   0  -4    3.89    3.01
 -12   1  -4   43.04    9.56
 -11   1  -4    1.79    2.34
 -10   1  -4    1.27    2.25
  -9   1  -4   60.74    8.62
  -8   1  -4    0.07    1.45
  -7   1  -4   61.44    7.90
  -6   1  -4    3.58    1.94
  -5   1  -4   49.10    4.08
  -4   1  -4  345.25    9.77
  -3   1  -4  162.43    6.19
  -2   1  -4   72.77    4.09
  -1   1  -4   21.35    2.65
   0   1  -4   23.11    2.81
   1   1  -4   75.79    2.94
   2   1  -4    3.80    1.02
   3   1  -4   57.79    3.44
   4   1  -4    8.90    1.68
   5   1  -4  338.70    9.76
   6   1  -4   13.85    2.35
   7   1  -4   29.89    5.16
   8   1  -4    4.71    2.54
   9   1  -4   22.75    5.31
  10   1  -4    0.63    2.33
  11   1  -4    1.70    3.01
 -12   2  -4   84.02   11.31
 -11   2  -4   31.75    6.59
 -10   2  -4    6.13    3.16
  -9   2  -4   42.96    7.19
  -8   2  -4    4.17    2.23
  -7   2  -4   90.98    7.82
  -6   2  -4    5.37    1.49
  -5   2  -4   12.44    1.87
  -4   2  -4  205.46    7.05
  -3   2  -4    2.89    1.13
  -2   2  -4   45.63    3.84
  -1   2  -4   64.93    3.91
   0   2  -4   41.91    3.78
   1   2  -4  162.13    5.04
   2   2  -4  190.98    6.06
   3   2  -4   38.76    3.31
   4   2  -4    1.04    0.89
   5   2  -4    1.94    1.13
   6   2  -4   25.33    3.28
   7   2  -4   26.87    4.99
   8   2  -4   24.84    5.34
   9   2  -4    4.35    2.78
  10   2  -4  116.59   12.78
 -12   3  -4   21.42    5.81
 -11   3  -4    4.19    2.64
 -10   3  -4    9.37    3.65
  -9   3  -4   26.30    5.60
  -8   3  -4  139.58   10.12
  -7   3  -4  142.20    9.83
  -6   3  -4    7.92    1.71
  -5   3  -4   37.35    3.45
  -4   3  -4   62.68    3.75
  -3   3  -4   28.36    3.05
  -2   3  -4  146.25    6.00
  -1   3  -4    3.57    1.30
   0   3  -4   32.42    2.13
   1   3  -4  334.04    8.64
   2   3  -4   13.35    1.94
   3   3  -4   11.57    1.95
   4   3  -4   30.02    3.25
   5   3  -4   39.19    3.94
   6   3  -4   92.01    7.52
   7   3  -4   87.40    9.41
   8   3  -4   28.30    5.97
   9   3  -4    1.46    2.43
  10   3  -4   -2.71    3.83
 -12   4  -4    8.63    3.88
 -11   4  -4  177.86   13.39
 -10   4  -4   24.26    5.41
  -9   4  -4   45.04    7.38
  -8   4  -4   15.61    3.98
  -7   4  -4   29.50    3.23
  -6   4  -4    0.73    0.84
  -5   4  -4    9.23    1.77
  -4   4  -4   45.12    3.92
  -3   4  -4  335.08    9.76
  -2   4  -4  189.30    6.94
  -1   4  -4   57.36    3.90
   0   4  -4   44.51    2.92
   1   4  -4   58.01    3.66
   2   4  -4    4.60    1.41
   3   4  -4  154.97    6.32
   4   4  -4   16.30    2.55
   5   4  -4    1.50    1.19
   6   4  -4   51.60    7.15
   7   4  -4   -3.31    1.56
   8   4  -4   21.11    5.41
   9   4  -4    4.24    3.34
 -13   5  -4   13.27    4.75
 -12   5  -4   -0.20    1.93
 -11   5  -4   28.05    6.48
 -10   5  -4   19.36    4.99
  -9   5  -4    1.97    1.84
  -8   5  -4   43.39    6.46
  -7   5  -4    1.18    0.95
  -6   5  -4  324.72    9.84
  -5   5  -4    1.54    0.96
  -4   5  -4   54.52    3.88
  -3   5  -4   14.21    2.20
  -2   5  -4   43.59    3.84
  -1   5  -4    7.76    2.60
   0   5  -4    0.74    0.73
   1   5  -4    6.85    1.60
   2   5  -4   82.13    4.63
   3   5  -4  145.52    6.47
   4   5  -4   56.94    4.86
   5   5  -4   19.07    4.36
   6   5  -4   37.29    6.63
   7   5  -4    0.40    2.44
   8   5  -4   68.64    9.44
 -13   6  -4   17.15    5.22
 -12   6  -4   17.32    4.97
 -11   6  -4   21.56    5.34
 -10   6  -4   62.89    8.52
  -9   6  -4   93.24   10.11
  -8   6  -4   20.10    2.81
  -7   6  -4   19.26    2.65
  -6   6  -4    4.82    1.50
  -5   6  -4    4.13    1.38
  -4   6  -4    5.75    1.57
  -3   6  -4   10.84    2.98
  -2   6  -4    0.95    1.32
  -1   6  -4  334.94   10.24
   0   6  -4    2.32    1.09
   1   6  -4   70.08    4.62
   2   6  -4    5.94    1.66
   3   6  -4   23.88    3.35
   4   6  -4   25.54    3.54
   5   6  -4   21.58    4.75
   6   6  -4   14.61    4.65
   7   6  -4   67.47    9.71
 -13   7  -4   67.86   10.09
 -12   7  -4    2.35    2.34
 -11   7  -4    0.84    2.17
 -10   7  -4   78.45    9.64
  -9   7  -4   22.77    4.65
  -8   7  -4   31.68    3.66
  -7   7  -4   22.06    3.02
  -6   7  -4   66.96    4.52
  -5   7  -4   79.24    6.96
  -4   7  -4  157.29    9.95
  -3   7  -4   21.68    4.30
  -2   7  -4    1.54    1.33
  -1   7  -4   20.92    3.31
   0   7  -4   20.62    2.93
   1   7  -4    0.08    1.00
   2   7  -4   46.36    4.75
   3   7  -4   13.52    2.66
   4   7  -4  230.62   13.20
   5   7  -4    3.68    2.63
   6   7  -4   14.27    4.80
 -13   8  -4   56.86    9.13
 -12   8  -4   25.13    6.27
 -11   8  -4   26.36    6.00
 -10   8  -4   25.67    5.49
  -9   8  -4    3.58    1.46
  -8   8  -4  128.43    9.07
  -7   8  -4    1.12    1.65
  -6   8  -4    2.93    2.15
  -5   8  -4  147.34    9.98
  -4   8  -4   21.36    4.53
  -3   8  -4   32.04    5.59
  -2   8  -4   27.52    5.23
  -1   8  -4   18.92    4.46
   0   8  -4  122.27    6.37
   1   8  -4   52.46    5.09
   2   8  -4    6.20    2.03
   3   8  -4    2.99    1.78
   4   8  -4   11.47    4.21
   5   8  -4   17.13    5.15
 -13   9  -4    3.65    3.16
 -12   9  -4    1.27    2.50
  -9   9  -4   76.45    8.76
  -8   9  -4   61.99    7.96
  -7   9  -4   36.12    6.09
  -6   9  -4   22.65    4.82
  -5   9  -4   42.23    6.53
  -4   9  -4    1.90    1.73
  -3   9  -4   93.39    9.81
  -2   9  -4   12.20    3.91
  -1   9  -4    2.89    1.99
   0   9  -4   72.19    9.06
   1   9  -4    5.29    1.98
   2   9  -4   33.20    4.41
   3   9  -4   33.59    6.54
   4   9  -4   21.67    5.77
  -9  10  -4    3.39    2.41
  -8  10  -4    8.90    3.41
  -7  10  -4   11.57    3.62
  -6  10  -4   20.58    4.98
  -5  10  -4   17.55    4.43
  -4  10  -4   50.90    7.52
  -3  10  -4   68.84    9.03
  -2  10  -4   19.35    5.04
  -1  10  -4   18.93    4.79
   0  10  -4   18.27    5.02
   1  10  -4    1.01    2.27
 -10  11  -4    4.46    3.02
  -9  11  -4   22.55    5.15
  -8  11  -4    2.38    2.45
  -7  11  -4  213.19   13.57
  -6  11  -4   20.66    5.11
  -5  11  -4   35.02    6.56
  -4  11  -4    0.01    1.82
  -3  11  -4   29.97    6.11
  -2  11  -4   12.73    4.28
  -1  11  -4    0.79    2.29
   0  11  -4    5.16    3.29
   1  11  -4   39.80    7.43
 -10  12  -4  104.77   11.63
  -9  12  -4   32.25    6.44
  -8  12  -4    5.85    3.33
  -7  12  -4    1.28    2.29
  -6  12  -4   18.06    5.13
  -5  12  -4   -0.09    1.98
  -4  12  -4   27.11    6.20
  -3  12  -4    2.04    2.69
  -2  12  -4   92.94   11.27
  -1  12  -4    0.36    2.49
 -10  13  -4    2.36    2.92
  -9  13  -4   17.55    5.33
  -8  13  -4   14.23    4.68
  -7  13  -4   17.56    5.30
  -6  13  -4   43.47    7.71
  -5  13  -4   60.06    9.25
   5 -14  -3    9.76    7.30
   6 -14  -3    8.46    3.85
   7 -14  -3   10.07    4.58
   8 -14  -3   -1.65    2.77
   2 -13  -3   16.11    5.39
   3 -13  -3   27.34    6.50
   4 -13  -3   20.73    6.02
   5 -13  -3   -1.88    1.85
   6 -13  -3    2.04    2.85
   7 -13  -3   68.29    9.99
   8 -13  -3   14.97    4.94
   9 -13  -3   56.82    9.33
  10 -13  -3    4.43    3.45
  11 -13  -3    2.49    3.01
   0 -12  -3   76.36    7.80
   1 -12  -3   21.06    4.16
   2 -12  -3   11.13    3.21
   3 -12  -3    8.19    3.17
   4 -12  -3   71.78   10.11
   5 -12  -3    1.16    2.47
   6 -12  -3   19.65    5.54
   7 -12  -3   20.13    5.66
   8 -12  -3    9.44    4.00
   9 -12  -3   16.82    5.01
  10 -12  -3    6.01    3.78
  11 -12  -3    7.30    3.55
  12 -12  -3   63.75   10.39
  -2 -11  -3   -1.13    2.81
  -1 -11  -3    9.18    3.11
   0 -11  -3   26.91    4.46
   1 -11  -3   12.32    3.20
   2 -11  -3   32.16    4.38
   3 -11  -3   44.02    5.13
   4 -11  -3   16.96    4.94
   5 -11  -3   93.53   11.14
   6 -11  -3   16.69    4.80
   7 -11  -3    7.85    3.66
   8 -11  -3   11.23    4.05
   9 -11  -3   80.34   10.56
  10 -11  -3   12.79    4.45
  11 -11  -3   14.57    4.69
  12 -11  -3   17.76    5.11
  13 -11  -3    8.01    4.31
  -4 -10  -3    8.52    4.01
  -3 -10  -3    5.73    2.40
  -2 -10  -3    2.37    1.86
  -1 -10  -3   17.98    3.64
   0 -10  -3  121.28    7.95
   1 -10  -3   57.21    5.99
   2 -10  -3  118.95    7.47
   3 -10  -3    1.69    1.50
   4 -10  -3    1.89    1.46
   5 -10  -3   25.02    5.64
   6 -10  -3   25.53    3.91
   7 -10  -3   13.18    2.81
   8 -10  -3   24.72    3.70
   9 -10  -3    0.05    1.66
  10 -10  -3  105.13   11.61
  11 -10  -3    7.62    3.93
  12 -10  -3    8.13    3.97
  13 -10  -3   25.42    6.62
  -5  -9  -3    0.39    2.62
  -4  -9  -3   54.20    6.10
  -3  -9  -3   16.38    3.36
  -2  -9  -3   93.70    6.17
  -1  -9  -3    1.49    1.19
   0  -9  -3    2.34    1.66
   1  -9  -3   37.15    4.51
   2  -9  -3   18.90    3.18
   3  -9  -3    1.50    1.02
   4  -9  -3    6.07    1.49
   5  -9  -3  193.22    8.46
   6  -9  -3   42.15    4.65
   7  -9  -3  130.31    6.87
   8  -9  -3    0.35    1.13
   9  -9  -3    2.20    1.51
  10  -9  -3   26.09    3.82
  11  -9  -3   40.03    7.36
  12  -9  -3    3.84    2.85
  13  -9  -3   20.88    5.99
  -6  -8  -3    1.51    2.82
  -5  -8  -3   13.53    4.52
  -4  -8  -3    8.58    2.48
  -3  -8  -3   21.55    3.45
  -2  -8  -3   19.43    2.67
  -1  -8  -3    0.60    0.94
   0  -8  -3    3.81    1.23
   1  -8  -3  192.62    5.58
   2  -8  -3   56.02    4.01
   3  -8  -3  241.42    7.06
   4  -8  -3   44.00    3.44
   5  -8  -3   13.52    2.06
   6  -8  -3    1.83    1.11
   7  -8  -3   32.30    3.92
   8  -8  -3    2.48    1.50
   9  -8  -3   33.54    4.21
  10  -8  -3  123.43    6.89
  11  -8  -3   28.02    5.90
  12  -8  -3   95.74   10.85
  13  -8  -3    4.40    2.86
  14  -8  -3   19.76    9.23
  -7  -7  -3   18.71    5.23
  -6  -7  -3   80.84   10.23
  -5  -7  -3   15.80    4.70
  -4  -7  -3    2.39    1.59
  -3  -7  -3   16.44    2.98
  -2  -7  -3  119.36    4.45
  -1  -7  -3   27.74    2.17
   0  -7  -3   86.02    3.04
   1  -7  -3   78.17    3.16
   2  -7  -3   26.14    2.60
   3  -7  -3   88.33    3.86
   4  -7  -3   17.35    2.08
   5  -7  -3    8.82    1.49
   6  -7  -3  271.95    9.51
   7  -7  -3   85.15    5.60
   8  -7  -3  188.08    8.03
   9  -7  -3   23.88    3.36
  10  -7  -3    1.37    1.23
  11  -7  -3   15.58    4.33
  12  -7  -3   -0.54    1.97
  13  -7  -3    4.13    3.32
  14  -7  -3   19.51    6.33
  -8  -6  -3    9.27    4.58
  -7  -6  -3    2.58    2.56
  -6  -6  -3   17.29    4.90
  -5  -6  -3   23.79    5.12
  -4  -6  -3   22.62    2.82
  -3  -6  -3   37.94    3.36
  -2  -6  -3    3.92    0.89
  -1  -6  -3  282.70    5.72
   0  -6  -3   32.40    2.09
   1  -6  -3   19.66    1.69
   2  -6  -3   75.02    2.59
   3  -6  -3  248.77    6.37
   4  -6  -3   55.96    3.06
   5  -6  -3   55.18    3.03
   6  -6  -3   34.06    3.58
   7  -6  -3   80.18    4.70
   8  -6  -3   51.57    4.63
   9  -6  -3    1.00    1.02
  10  -6  -3    0.72    1.75
  11  -6  -3   81.28    9.50
  12  -6  -3   19.48    5.11
  13  -6  -3   68.23    9.92
  14  -6  -3    1.25    2.89
  -8  -5  -3    0.40    2.32
  -7  -5  -3    0.87    2.10
  -6  -5  -3   94.70    6.43
  -5  -5  -3   25.99    3.60
  -4  -5  -3  192.97    6.62
  -3  -5  -3   12.45    1.53
  -2  -5  -3    7.05    1.04
  -1  -5  -3   47.49    2.46
   0  -5  -3  125.11    3.27
   1  -5  -3   17.79    1.50
   2  -5  -3   86.08    3.22
   3  -5  -3   39.86    2.34
   4  -5  -3  285.93    6.36
   5  -5  -3  128.23    4.09
   6  -5  -3   19.11    2.63
   7  -5  -3   20.80    2.84
   8  -5  -3  225.05    8.19
   9  -5  -3    6.92    1.81
  10  -5  -3   24.51    4.99
  11  -5  -3   14.93    4.24
  12  -5  -3   21.10    5.37
  13  -5  -3   13.43    4.73
  -9  -4  -3   11.26    4.18
  -8  -4  -3  107.98    7.27
  -7  -4  -3   23.90    3.68
  -6  -4  -3    1.67    1.14
  -5  -4  -3    2.91    1.26
  -4  -4  -3   48.06    4.37
  -3  -4  -3   20.33    1.86
  -2  -4  -3   61.83    2.38
  -1  -4  -3  285.30    5.18
   0  -4  -3  139.34    3.26
   1  -4  -3  376.99    6.69
   2  -4  -3    4.89    0.84
   3  -4  -3   26.74    1.65
   4  -4  -3  144.00    3.73
   5  -4  -3   18.09    1.67
   6  -4  -3   66.35    3.90
   7  -4  -3   94.22    4.81
   8  -4  -3   45.63    4.16
   9  -4  -3  190.45   11.35
  10  -4  -3   10.75    3.40
  11  -4  -3    0.46    1.75
  12  -4  -3    7.44    3.59
  13  -4  -3   52.36    8.51
 -10  -3  -3   38.08    5.10
  -9  -3  -3    4.20    1.91
  -8  -3  -3   32.86    4.33
  -7  -3  -3    5.91    1.90
  -6  -3  -3    1.54    1.15
  -5  -3  -3  240.01    8.62
  -4  -3  -3   92.57    3.69
  -3  -3  -3  252.82    6.33
  -2  -3  -3   37.46    2.23
  -1  -3  -3   26.81    1.62
   0  -3  -3   90.16    2.68
   1  -3  -3   26.72    1.48
   2  -3  -3   70.75    2.32
   3  -3  -3   94.92    4.06
   4  -3  -3  365.29    9.48
   5  -3  -3   82.82    2.65
   6  -3  -3  241.51    7.78
   7  -3  -3   19.01    2.58
   8  -3  -3   16.23    2.51
   9  -3  -3   39.17    6.04
  10  -3  -3   16.40    4.26
  11  -3  -3   16.42    4.48
  12  -3  -3   13.37    4.63
  13  -3  -3    3.89    3.43
 -11  -2  -3   13.94    4.81
 -10  -2  -3    8.08    2.57
  -9  -2  -3   30.60    4.22
  -8  -2  -3  128.74    7.01
  -7  -2  -3   21.38    3.23
  -6  -2  -3   56.63    4.87
  -5  -2  -3   32.32    3.50
  -4  -2  -3   73.60    3.06
  -3  -2  -3   74.38    3.10
  -2  -2  -3    4.70    1.18
  -1  -2  -3   75.75    2.70
   0  -2  -3  371.05    7.29
   1  -2  -3   82.89    3.44
   2  -2  -3  370.92    8.72
   3  -2  -3   23.60    2.23
   4  -2  -3    7.09    0.71
   5  -2  -3   40.68    2.01
   6  -2  -3   63.70    2.62
   7  -2  -3   10.46    1.89
   8  -2  -3    0.94    1.39
   9  -2  -3  112.38    8.61
  10  -2  -3   31.33    5.70
  11  -2  -3  109.29   11.33
  12  -2  -3    0.99    2.49
  13  -2  -3    2.34    2.75
 -11  -1  -3   27.28    6.22
 -10  -1  -3    9.85    3.90
  -9  -1  -3   42.95    5.03
  -8  -1  -3   31.76    4.05
  -7  -1  -3  183.68    7.96
  -6  -1  -3   79.45    5.09
  -5  -1  -3   19.91    1.99
  -4  -1  -3   16.26    2.05
  -3  -1  -3  379.16    9.43
  -2  -1  -3   22.76    2.42
  -1  -1  -3   77.00    2.41
   0  -1  -3   51.68    2.05
   1  -1  -3   55.37    2.27
   2  -1  -3   74.74    3.10
   3  -1  -3   69.61    3.21
   4  -1  -3   24.42    1.43
   5  -1  -3  288.26    6.08
   6  -1  -3   51.71    2.59
   7  -1  -3  279.55    6.78
   8  -1  -3   30.07    5.03
   9  -1  -3    0.23    1.43
  10  -1  -3    0.56    1.81
  11  -1  -3   25.77    5.84
  12  -1  -3    9.27    3.84
 -12   0  -3   70.19    9.85
 -11   0  -3   29.98    6.36
 -10   0  -3  134.12   10.91
  -9   0  -3    2.93    2.32
  -8   0  -3    7.02    2.81
  -7   0  -3   86.90    7.46
  -6   0  -3   40.27    5.83
  -5   0  -3  124.89    4.76
  -4   0  -3  144.19    5.25
  -3   0  -3   88.64    3.88
  -2   0  -3  367.28    9.20
  -1   0  -3   48.62    2.89
   0   0  -3    1.36    0.67
   1   0  -3   54.06    2.25
   2   0  -3  361.72    8.36
   3   0  -3   87.47    2.58
   4   0  -3  147.33    3.84
   5   0  -3  125.55    3.83
   6   0  -3   35.16    2.55
   7   0  -3   79.41    4.27
   8   0  -3    3.23    1.96
   9   0  -3    2.66    2.46
  10   0  -3  114.55    9.76
  11   0  -3   19.19    4.98
  12   0  -3   69.29    9.99
 -12   1  -3   16.55    5.17
 -11   1  -3   12.03    4.18
 -10   1  -3   -1.20    1.34
  -9   1  -3    2.25    1.84
  -8   1  -3   27.32    5.13
  -7   1  -3  289.37   13.80
  -6   1  -3   54.45    6.34
  -5   1  -3  292.40    7.96
  -4   1  -3   24.20    2.48
  -3   1  -3   69.43    3.37
  -2   1  -3   79.30    3.58
  -1   1  -3   54.96    3.02
   0   1  -3   53.26    1.76
   1   1  -3   76.14    2.85
   2   1  -3   27.77    2.02
   3   1  -3  378.25    9.08
   4   1  -3   18.97    1.76
   5   1  -3   20.97    1.94
   6   1  -3   70.97    3.20
   7   1  -3  191.03    7.26
   8   1  -3   40.96    4.85
   9   1  -3   34.87    6.01
  10   1  -3    7.85    3.32
  11   1  -3   20.23    5.70
 -13   2  -3    0.17    2.27
 -12   2  -3    2.63    2.32
 -11   2  -3  100.22   11.17
 -10   2  -3   26.85    5.62
  -9   2  -3  119.49    9.25
  -8   2  -3    2.28    1.84
  -7   2  -3    3.36    1.87
  -6   2  -3   62.18    3.36
  -5   2  -3   39.27    2.75
  -4   2  -3    5.13    1.18
  -3   2  -3   26.51    2.51
  -2   2  -3  358.70    9.04
  -1   2  -3   75.57    2.07
   0   2  -3  374.31    6.88
   1   2  -3   71.33    3.00
   2   2  -3    5.49    1.15
   3   2  -3   86.17    3.86
   4   2  -3   72.29    3.73
   5   2  -3   28.35    2.43
   6   2  -3   61.72    4.80
   7   2  -3   17.23    2.76
   8   2  -3  133.75    6.64
   9   2  -3   47.56    7.50
  10   2  -3   13.62    4.49
  11   2  -3    8.71    3.93
 -13   3  -3    1.36    2.74
 -12   3  -3   15.24    4.51
 -11   3  -3   18.06    4.63
 -10   3  -3    7.91    2.99
  -9   3  -3   31.17    5.32
  -8   3  -3    9.21    3.03
  -7   3  -3   23.42    2.77
  -6   3  -3  254.70    7.51
  -5   3  -3   74.53    3.75
  -4   3  -3  366.09    9.31
  -3   3  -3   84.83    3.81
  -2   3  -3   66.47    3.32
  -1   3  -3   27.35    1.53
   0   3  -3   87.65    3.37
   1   3  -3   30.14    2.58
   2   3  -3   40.92    3.24
   3   3  -3  250.20    7.58
   4   3  -3   96.81    4.58
   5   3  -3  242.47    7.93
   6   3  -3    2.32    1.26
   7   3  -3    3.27    1.50
   8   3  -3   47.35    5.06
   9   3  -3    5.37    2.89
  10   3  -3   41.69    7.71
 -13   4  -3   37.10    7.36
 -12   4  -3   10.40    3.84
 -11   4  -3    4.43    2.64
 -10   4  -3   23.02    4.98
  -9   4  -3  201.81   11.91
  -8   4  -3   42.63    5.94
  -7   4  -3  102.35    4.52
  -6   4  -3   73.14    3.76
  -5   4  -3   17.41    2.18
  -4   4  -3  139.04    5.14
  -3   4  -3   22.32    2.42
  -2   4  -3    7.61    1.44
  -1   4  -3  374.64    7.25
   0   4  -3  146.47    5.06
   1   4  -3  287.50    7.90
   2   4  -3   59.17    3.47
   3   4  -3   17.88    2.32
   4   4  -3   45.25    3.88
   5   4  -3    7.03    1.89
   6   4  -3    2.41    1.46
   7   4  -3   24.41    3.66
   8   4  -3   94.60    7.60
   9   4  -3   13.47    4.56
 -13   5  -3   10.78    4.21
 -12   5  -3   11.69    3.79
 -11   5  -3   15.84    4.21
 -10   5  -3   22.09    4.72
  -9   5  -3    4.75    2.28
  -8   5  -3  227.89    7.56
  -7   5  -3   24.99    2.79
  -6   5  -3   15.62    2.12
  -5   5  -3  122.50    5.01
  -4   5  -3  296.85    8.14
  -3   5  -3   41.25    2.86
  -2   5  -3   72.16    3.65
  -1   5  -3   17.76    2.18
   0   5  -3  130.75    5.06
   1   5  -3   47.90    3.36
   2   5  -3    8.56    1.72
   3   5  -3   10.32    2.02
   4   5  -3  202.89    7.73
   5   5  -3   33.23    5.68
   6   5  -3  103.69    6.81
   7   5  -3   -0.96    1.32
   8   5  -3   -0.07    1.92
   9   5  -3    7.70    5.88
 -14   6  -3   -0.19    2.72
 -13   6  -3   60.24    9.16
 -12   6  -3   12.47    4.07
 -11   6  -3   98.05   10.73
 -10   6  -3    3.64    2.31
  -9   6  -3    1.32    1.43
  -8   6  -3   65.12    4.23
  -7   6  -3   79.16    4.20
  -6   6  -3   30.89    3.04
  -5   6  -3   56.56    3.66
  -4   6  -3   63.41    3.63
  -3   6  -3  248.27    7.40
  -2   6  -3   68.65    5.79
  -1   6  -3   14.01    1.97
   0   6  -3   36.39    3.39
   1   6  -3  284.56    8.91
   2   6  -3    4.32    1.34
   3   6  -3   36.11    3.88
   4   6  -3   25.52    3.57
   5   6  -3   12.86    3.69
   6   6  -3   18.46    3.45
   7   6  -3    3.65    2.18
   8   6  -3   11.32    4.32
 -14   7  -3   12.96    4.75
 -13   7  -3    1.45    2.39
 -12   7  -3    1.43    2.08
 -11   7  -3   15.84    4.23
 -10   7  -3    5.44    2.81
  -9   7  -3   19.26    2.67
  -8   7  -3  201.02    7.34
  -7   7  -3   76.25    4.32
  -6   7  -3  285.10    8.68
  -5   7  -3    7.31    1.58
  -4   7  -3   17.92    3.61
  -3   7  -3   81.75    6.69
  -2   7  -3   22.98    4.27
  -1   7  -3   74.04    4.51
   0   7  -3   79.29    4.53
   1   7  -3   25.54    3.07
   2   7  -3  130.49    6.18
   3   7  -3   14.70    2.72
   4   7  -3    9.10    3.30
   5   7  -3   28.54    6.00
   6   7  -3   71.38    6.90
   7   7  -3   10.13    3.05
 -14   8  -3   11.23    4.33
 -13   8  -3    0.48    2.34
 -12   8  -3   99.23   10.83
 -11   8  -3   37.58    6.38
 -10   8  -3  129.18    9.40
  -9   8  -3   39.47    4.04
  -8   8  -3    2.99    1.31
  -7   8  -3   30.94    3.43
  -6   8  -3    2.03    1.65
  -5   8  -3   11.53    3.17
  -4   8  -3   47.25    6.27
  -3   8  -3  223.70   12.06
  -2   8  -3   58.76    7.18
  -1   8  -3  189.57    7.62
   0   8  -3    1.69    1.23
   1   8  -3    0.67    0.98
   2   8  -3   25.78    3.48
   3   8  -3   23.46    5.30
   4   8  -3   12.42    3.90
   5   8  -3   10.81    4.14
   6   8  -3    2.95    2.31
 -14   9  -3    8.95    4.09
 -13   9  -3   27.02    6.10
 -12   9  -3    3.78    2.76
 -11   9  -3   34.24    6.00
 -10   9  -3   37.64    5.94
  -9   9  -3    5.62    2.33
  -8   9  -3    3.10    1.96
  -7   9  -3  126.34    9.09
  -6   9  -3   49.11    6.80
  -5   9  -3  200.72   11.91
  -4   9  -3    6.80    2.59
  -3   9  -3   -1.33    1.08
  -2   9  -3   13.29    3.57
  -1   9  -3   33.35    3.94
   0   9  -3    0.95    1.17
   1   9  -3    2.13    1.47
   2   9  -3  112.80    7.06
   3   9  -3   16.01    4.65
   4   9  -3   51.01    7.92
   5   9  -3   -1.50    2.44
 -14  10  -3   45.44    7.97
 -13  10  -3   33.14    7.62
 -10  10  -3  117.24    9.15
  -9  10  -3    0.22    1.32
  -8  10  -3   24.22    5.00
  -7  10  -3   15.23    3.97
  -6  10  -3   19.39    4.59
  -5  10  -3   25.92    5.06
  -4  10  -3    0.46    1.81
  -3  10  -3    3.50    2.32
  -2  10  -3  131.33    6.85
  -1  10  -3   50.14    5.18
   0  10  -3  122.11    6.84
   1  10  -3   20.87    3.60
   2  10  -3    5.56    3.55
   3  10  -3    8.41    3.87
 -10  11  -3   23.57    5.20
  -9  11  -3   78.79    9.38
  -8  11  -3   21.77    5.30
  -7  11  -3    4.09    2.39
  -6  11  -3   12.75    3.78
  -5  11  -3   85.83   10.06
  -4  11  -3   30.27    6.03
  -3  11  -3   42.43    7.08
  -2  11  -3   35.82    4.54
  -1  11  -3    6.34    2.14
   0  11  -3   40.34    4.95
   1  11  -3    8.00    2.70
   2  11  -3    2.12    2.81
 -11  12  -3   13.84    4.77
 -10  12  -3    4.28    2.77
  -9  12  -3   17.39    5.07
  -8  12  -3    6.93    3.29
  -7  12  -3   20.25    5.26
  -6  12  -3    7.22    3.31
  -5  12  -3   -0.51    1.82
  -4  12  -3  101.33   11.16
  -3  12  -3    9.13    2.66
  -2  12  -3   11.74    2.87
  -1  12  -3   27.39    4.27
   0  12  -3   72.75    7.07
 -11  13  -3    1.53    2.62
 -10  13  -3    9.03    4.03
  -9  13  -3   58.92    8.75
  -8  13  -3   18.69    5.28
  -7  13  -3   74.91   10.16
  -6  13  -3    4.37    3.07
  -5  13  -3   -1.57    2.04
  -4  13  -3   17.93    5.01
  -3  13  -3   30.97    4.69
  -2  13  -3    6.90    2.54
  -9  14  -3    0.80    4.21
  -8  14  -3   -0.36    2.69
  -7  14  -3   11.17    4.83
   3 -14  -2   26.81    6.62
   4 -14  -2    8.90    3.22
   5 -14  -2    1.90    2.12
   6 -14  -2   50.15    6.27
   7 -14  -2    5.72    3.50
   8 -14  -2    2.89    3.16
   9 -14  -2   43.56    8.13
  10 -14  -2   13.04    5.29
   1 -13  -2    5.76    2.93
   2 -13  -2    3.79    2.36
   3 -13  -2    0.76    1.89
   4 -13  -2   17.29    3.53
   5 -13  -2   80.74    7.40
   6 -13  -2   26.81    4.01
   7 -13  -2   55.14    6.19
   8 -13  -2   14.90    5.08
   9 -13  -2   45.82    8.05
  10 -13  -2    5.34    3.43
  11 -13  -2   43.15    8.56
  12 -13  -2    0.11    2.77
  -1 -12  -2    2.37    2.37
   0 -12  -2   21.33    4.35
   1 -12  -2    0.63    1.99
   2 -12  -2  126.50    9.68
   3 -12  -2    3.74    2.05
   4 -12  -2   23.70    3.91
   5 -12  -2    2.50    1.69
   6 -12  -2   32.55    4.46
   7 -12  -2    5.54    2.21
   8 -12  -2    4.62    2.02
   9 -12  -2   28.14    6.56
  10 -12  -2   16.17    5.03
  11 -12  -2   77.90   10.90
  12 -12  -2   11.72    4.70
  13 -12  -2    4.91    3.68
  -2 -11  -2   50.77    5.91
  -1 -11  -2   73.10    6.08
   0 -11  -2   15.47    3.62
   1 -11  -2    8.32    2.70
   2 -11  -2    2.33    1.82
   3 -11  -2   37.06    4.87
   4 -11  -2   62.25    6.03
   5 -11  -2   43.11    4.91
   6 -11  -2   -0.09    1.17
   7 -11  -2  365.64   12.42
   8 -11  -2    2.77    1.72
   9 -11  -2   45.21    7.69
  10 -11  -2    7.71    3.49
  11 -11  -2   14.58    4.67
  12 -11  -2    0.32    2.07
  13 -11  -2    2.93    2.94
  -4 -10  -2    8.69    3.10
  -3 -10  -2    3.37    2.07
  -2 -10  -2   15.88    3.27
  -1 -10  -2    7.56    1.92
   0 -10  -2  102.24    5.63
   1 -10  -2   18.56    3.47
   2 -10  -2   29.58    4.13
   3 -10  -2   93.53    6.35
   4 -10  -2   77.09    6.32
   5 -10  -2   41.79    4.69
   6 -10  -2    6.78    1.88
   7 -10  -2    3.48    1.50
   8 -10  -2   67.40    5.86
   9 -10  -2   11.29    2.46
  10 -10  -2   97.66   11.58
  11 -10  -2    7.58    3.23
  12 -10  -2  139.73   11.82
  13 -10  -2    1.66    2.45
  14 -10  -2    5.71    3.56
  -5  -9  -2   44.41    5.75
  -4  -9  -2   35.06    4.97
  -3  -9  -2   24.44    3.96
  -2  -9  -2   34.43    3.73
  -1  -9  -2   12.40    2.21
   0  -9  -2   74.62    4.92
   1  -9  -2    3.44    1.22
   2  -9  -2    5.46    1.80
   3  -9  -2  143.13    7.05
   4  -9  -2   41.02    4.33
   5  -9  -2   68.02    5.48
   6  -9  -2   54.32    5.00
   7  -9  -2   58.89    5.08
   8  -9  -2   91.71    5.93
   9  -9  -2   72.60    5.85
  10  -9  -2   18.75    4.77
  11  -9  -2    5.92    3.05
  12  -9  -2    1.13    2.14
  13  -9  -2   26.83    6.20
  14  -9  -2    0.61    2.74
  -6  -8  -2    3.71    2.25
  -5  -8  -2   37.92    5.17
  -4  -8  -2    2.03    1.64
  -3  -8  -2    1.95    1.53
  -2  -8  -2   82.69    5.35
  -1  -8  -2   91.25    4.95
   0  -8  -2  112.49    4.75
   1  -8  -2   22.66    2.41
   2  -8  -2   28.77    2.56
   3  -8  -2  125.45    6.11
   4  -8  -2   19.69    2.25
   5  -8  -2   41.63    3.32
   6  -8  -2   28.74    2.70
   7  -8  -2   43.30    3.39
   8  -8  -2  117.38    4.77
   9  -8  -2    3.05    1.34
  10  -8  -2   36.82    4.34
  11  -8  -2   39.05    6.79
  12  -8  -2   20.64    5.19
  13  -8  -2   58.25    8.69
  14  -8  -2   33.63    7.06
  -7  -7  -2    3.77    3.14
  -6  -7  -2   59.98    6.67
  -5  -7  -2    3.37    1.67
  -4  -7  -2  355.66   12.29
  -3  -7  -2    3.24    1.54
  -2  -7  -2   48.97    3.88
  -1  -7  -2   37.64    2.71
   0  -7  -2   79.96    4.02
   1  -7  -2   10.80    1.42
   2  -7  -2   20.65    1.76
   3  -7  -2  102.88    3.12
   4  -7  -2  173.42    5.39
   5  -7  -2  198.13    5.88
   6  -7  -2  110.10    4.29
   7  -7  -2   71.75    3.58
   8  -7  -2   19.93    2.26
   9  -7  -2    5.58    1.28
  10  -7  -2  100.71    5.90
  11  -7  -2   46.96    7.62
  12  -7  -2    2.77    2.31
  13  -7  -2   27.53    6.23
  14  -7  -2    1.69    2.85
  -8  -6  -2   47.27    8.00
  -7  -6  -2   16.36    4.54
  -6  -6  -2   17.98    4.49
  -5  -6  -2    0.95    1.21
  -4  -6  -2    4.48    1.56
  -3  -6  -2   55.88    3.80
  -2  -6  -2   27.58    2.25
  -1  -6  -2  104.71    3.60
   0  -6  -2   16.80    1.44
   1  -6  -2  365.30    6.77
   2  -6  -2    3.09    0.68
   3  -6  -2  141.21    3.37
   4  -6  -2    7.83    1.30
   5  -6  -2  182.51    5.26
   6  -6  -2   16.93    1.85
   7  -6  -2    8.60    1.36
   8  -6  -2   24.35    2.34
   9  -6  -2  149.11    5.11
  10  -6  -2   78.10    5.18
  11  -6  -2   58.86    8.19
  12  -6  -2   39.47    7.00
  13  -6  -2   45.06    7.83
  14  -6  -2    2.69    2.65
  -9  -5  -2    1.30    2.94
  -8  -5  -2   77.69   10.09
  -7  -5  -2    2.06    2.30
  -6  -5  -2   54.73    7.59
  -5  -5  -2   36.70    3.30
  -4  -5  -2   59.66    3.68
  -3  -5  -2   36.16    2.93
  -2  -5  -2  206.36    5.04
  -1  -5  -2  186.39    4.06
   0  -5  -2    2.89    0.64
   1  -5  -2   41.28    2.07
   2  -5  -2   61.05    2.08
   3  -5  -2    9.44    0.83
   4  -5  -2   58.78    2.60
   5  -5  -2    3.48    0.81
   6  -5  -2  352.64    7.57
   7  -5  -2   18.55    1.89
   8  -5  -2  125.54    4.37
   9  -5  -2   54.08    3.26
  10  -5  -2   45.47    4.38
  11  -5  -2    0.18    1.57
  12  -5  -2    3.80    2.58
  13  -5  -2   24.59    6.06
  14  -5  -2   48.85    8.66
 -10  -4  -2   11.54    4.43
  -9  -4  -2   13.58    4.38
  -8  -4  -2   35.69    5.40
  -7  -4  -2   50.38    4.89
  -6  -4  -2   73.77    5.15
  -5  -4  -2   42.28    3.29
  -4  -4  -2   19.27    2.20
  -3  -4  -2  158.62    4.09
  -2  -4  -2    6.74    0.87
  -1  -4  -2   58.10    2.00
   0  -4  -2  128.52    2.91
   1  -4  -2  248.42    4.18
   2  -4  -2  304.49    4.98
   3  -4  -2  151.23    3.98
   4  -4  -2  127.63    3.60
   5  -4  -2   41.43    2.13
   6  -4  -2    3.92    0.86
   7  -4  -2  101.45    3.57
   8  -4  -2   24.79    2.21
   9  -4  -2   58.99    4.19
  10  -4  -2    4.86    1.58
  11  -4  -2  358.18   11.71
  12  -4  -2    5.31    3.19
  13  -4  -2   30.23    6.44
  14  -4  -2   10.67    4.43
 -10  -3  -2    1.13    2.29
  -9  -3  -2    1.63    1.61
  -8  -3  -2   27.45    3.73
  -7  -3  -2   99.10    6.08
  -6  -3  -2  156.53    6.75
  -5  -3  -2  131.14    5.69
  -4  -3  -2  101.37    3.09
  -3  -3  -2  135.46    3.51
  -2  -3  -2    7.37    0.83
  -1  -3  -2  151.53    3.10
   0  -3  -2   43.40    1.53
   1  -3  -2   62.76    1.68
   2  -3  -2  284.90    5.44
   3  -3  -2   44.74    1.78
   4  -3  -2  252.09    5.10
   5  -3  -2   62.89    2.39
   6  -3  -2  135.15    3.95
   7  -3  -2  170.33    4.71
   8  -3  -2   44.13    2.70
   9  -3  -2   55.85    4.03
  10  -3  -2    6.89    1.85
  11  -3  -2    0.24    1.17
  12  -3  -2   20.64    5.04
  13  -3  -2    2.97    2.72
 -11  -2  -2    3.96    2.24
 -10  -2  -2  112.27    7.67
  -9  -2  -2    6.86    2.11
  -8  -2  -2   31.89    3.97
  -7  -2  -2    5.98    1.78
  -6  -2  -2   23.83    2.98
  -5  -2  -2   22.49    2.84
  -4  -2  -2    2.86    0.74
  -3  -2  -2   59.35    2.41
  -2  -2  -2  292.12    4.63
  -1  -2  -2  281.32    4.27
   0  -2  -2  444.14    6.46
   1  -2  -2  187.95    3.81
   2  -2  -2  449.21    6.87
   3  -2  -2   62.34    1.85
   4  -2  -2  297.70    5.66
   5  -2  -2    8.93    1.08
   6  -2  -2    7.30    1.08
   7  -2  -2  199.49    5.24
   8  -2  -2   23.71    2.86
   9  -2  -2   49.86    4.44
  10  -2  -2   85.09    5.58
  11  -2  -2   49.10    5.15
  12  -2  -2   15.28    4.59
  13  -2  -2   54.08    8.82
 -12  -1  -2    7.85    2.80
 -11  -1  -2    1.54    1.71
 -10  -1  -2   10.18    2.54
  -9  -1  -2   28.68    3.86
  -8  -1  -2    2.91    1.35
  -7  -1  -2   22.14    3.04
  -6  -1  -2    4.01    1.30
  -5  -1  -2  361.66    7.06
  -4  -1  -2   41.13    2.06
  -3  -1  -2  246.66    5.27
  -2  -1  -2   60.93    2.22
  -1  -1  -2  191.00    3.93
   0  -1  -2   43.15    1.65
   1  -1  -2   44.68    1.96
   2  -1  -2  189.68    4.97
   3  -1  -2  274.40    5.05
   4  -1  -2  153.65    3.67
   5  -1  -2   61.65    2.41
   6  -1  -2  184.62    4.81
   7  -1  -2  105.08    3.77
   8  -1  -2   40.92    3.90
   9  -1  -2  102.20    5.48
  10  -1  -2   13.35    2.75
  11  -1  -2    7.77    2.30
  12  -1  -2   80.13   10.11
  13  -1  -2    1.09    2.60
 -12   0  -2   27.96    4.58
 -11   0  -2   16.89    3.08
 -10   0  -2   96.90    7.16
  -9   0  -2   78.10    6.22
  -8   0  -2  115.86    5.88
  -7   0  -2   73.33    4.38
  -6   0  -2   19.06    2.49
  -5   0  -2    3.45    0.67
  -4   0  -2  124.43    3.43
  -3   0  -2   44.08    2.25
  -2   0  -2  431.19    9.14
  -1   0  -2   44.09    2.25
   0   0  -2  915.25   13.03
   1   0  -2   40.88    1.81
   2   0  -2  439.74    8.96
   3   0  -2   46.76    1.80
   4   0  -2  128.68    3.49
   5   0  -2    2.54    0.70
   6   0  -2   19.06    1.83
   7   0  -2   58.37    4.05
   8   0  -2  114.36    5.66
   9   0  -2   74.81    5.99
  10   0  -2   99.75    6.65
  11   0  -2   13.82    2.92
  12   0  -2   21.81    5.51
 -13   1  -2    1.14    2.65
 -12   1  -2   61.94    8.75
 -11   1  -2   10.37    3.64
 -10   1  -2   12.53    2.48
  -9   1  -2   97.22    5.64
  -8   1  -2   44.69    4.25
  -7   1  -2  113.61    5.41
  -6   1  -2  188.28    6.65
  -5   1  -2   62.35    2.68
  -4   1  -2  153.49    4.52
  -3   1  -2  279.31    6.70
  -2   1  -2  188.83    5.08
  -1   1  -2   45.99    3.23
   0   1  -2   43.26    1.65
   1   1  -2  192.63    4.72
   2   1  -2   61.87    2.62
   3   1  -2  246.50    6.38
   4   1  -2   43.92    2.19
   5   1  -2  364.67    7.46
   6   1  -2    7.77    1.23
   7   1  -2   21.48    2.80
   8   1  -2    2.72    1.20
   9   1  -2   24.96    3.60
  10   1  -2   11.02    2.65
  11   1  -2    0.33    1.63
  12   1  -2    4.10    2.95
 -13   2  -2   53.82    8.51
 -12   2  -2   22.13    5.66
 -11   2  -2   39.27    6.68
 -10   2  -2   86.03    9.34
  -9   2  -2   52.13    7.08
  -8   2  -2   25.33    4.53
  -7   2  -2  196.22   10.24
  -6   2  -2    8.78    1.29
  -5   2  -2    7.86    1.25
  -4   2  -2  294.42    7.11
  -3   2  -2   58.97    2.64
  -2   2  -2  442.61    9.15
  -1   2  -2  186.42    5.03
   0   2  -2  442.12    7.26
   1   2  -2  283.28    6.58
   2   2  -2  293.97    7.22
   3   2  -2   61.96    3.05
   4   2  -2    4.36    1.08
   5   2  -2   19.96    1.90
   6   2  -2   26.42    3.17
   7   2  -2    4.70    1.60
   8   2  -2   36.33    4.29
   9   2  -2    3.54    1.75
  10   2  -2  110.62    8.37
  11   2  -2    4.97    2.37
 -13   3  -2    2.51    2.35
 -12   3  -2   21.08    5.31
 -11   3  -2    1.40    2.09
 -10   3  -2    6.17    2.58
  -9   3  -2   44.49    6.07
  -8   3  -2   39.36    5.62
  -7   3  -2  163.73    5.17
  -6   3  -2  137.34    4.62
  -5   3  -2   58.19    2.85
  -4   3  -2  239.37    6.29
  -3   3  -2   44.55    2.33
  -2   3  -2  283.04    6.71
  -1   3  -2   65.29    2.74
   0   3  -2   43.60    2.24
   1   3  -2  152.50    4.78
   2   3  -2    7.98    1.22
   3   3  -2  144.52    5.07
   4   3  -2   94.64    4.27
   5   3  -2  125.13    5.08
   6   3  -2  151.14    6.78
   7   3  -2   87.46    5.85
   8   3  -2   37.36    4.67
   9   3  -2    4.55    2.00
  10   3  -2   -0.15    1.47
  11   3  -2   35.09    7.04
 -14   4  -2   18.78    5.50
 -13   4  -2   44.65    7.63
 -12   4  -2    3.08    2.28
 -11   4  -2  349.01   17.33
 -10   4  -2    6.70    2.73
  -9   4  -2   66.77    7.69
  -8   4  -2   20.54    3.99
  -7   4  -2  101.45    4.10
  -6   4  -2    3.32    0.93
  -5   4  -2   43.22    2.73
  -4   4  -2  127.52    4.38
  -3   4  -2  140.13    4.59
  -2   4  -2  300.41    7.08
  -1   4  -2  246.63    6.21
   0   4  -2  129.82    4.50
   1   4  -2   58.15    3.02
   2   4  -2    6.99    1.38
   3   4  -2  156.62    5.71
   4   4  -2   20.34    2.45
   5   4  -2   45.04    6.13
   6   4  -2   60.13    5.33
   7   4  -2   59.90    5.60
   8   4  -2   28.98    4.08
   9   4  -2   19.84    3.69
  10   4  -2    2.48    2.43
 -14   5  -2   40.25    7.80
 -13   5  -2   30.69    6.52
 -12   5  -2    3.94    2.55
 -11   5  -2    3.50    2.27
 -10   5  -2   44.10    6.61
  -9   5  -2   42.76    6.03
  -8   5  -2  130.31    5.07
  -7   5  -2   21.08    2.31
  -6   5  -2  359.13    9.12
  -5   5  -2    2.67    0.86
  -4   5  -2   63.13    2.98
  -3   5  -2    7.89    1.21
  -2   5  -2   59.03    2.63
  -1   5  -2   36.34    4.23
   0   5  -2    3.42    1.00
   1   5  -2  188.02    6.28
   2   5  -2  191.20    6.60
   3   5  -2   44.81    3.84
   4   5  -2   63.32    4.13
   5   5  -2   41.15    6.21
   6   5  -2   46.11    4.95
   7   5  -2    2.12    1.61
   8   5  -2   72.22    6.91
   9   5  -2   -0.81    1.75
 -14   6  -2    3.74    2.86
 -13   6  -2   52.14    8.13
 -12   6  -2   26.29    5.52
 -11   6  -2   42.01    6.45
 -10   6  -2   79.94    8.65
  -9   6  -2  143.56    9.32
  -8   6  -2   24.35    2.67
  -7   6  -2    7.65    1.46
  -6   6  -2   16.36    2.08
  -5   6  -2  182.40    5.89
  -4   6  -2    7.29    1.23
  -3   6  -2  132.71    4.37
  -2   6  -2    2.83    1.50
  -1   6  -2  356.20   13.69
   0   6  -2   19.32    2.45
   1   6  -2  111.67    5.02
   2   6  -2   24.04    2.88
   3   6  -2   57.60    4.10
   4   6  -2    5.54    2.65
   5   6  -2    1.35    1.92
   6   6  -2   42.03    5.15
   7   6  -2   30.59    4.54
   8   6  -2   45.71    6.03
 -14   7  -2    2.88    2.65
 -13   7  -2   25.44    5.84
 -12   7  -2    1.33    1.81
 -11   7  -2   49.65    7.13
 -10   7  -2   98.65    8.03
  -9   7  -2    5.18    1.39
  -8   7  -2   19.27    2.39
  -7   7  -2   68.80    3.76
  -6   7  -2  112.98    4.73
  -5   7  -2  195.81    6.19
  -4   7  -2  175.26    9.09
  -3   7  -2  103.39    6.86
  -2   7  -2   18.56    3.43
  -1   7  -2    7.11    2.32
   0   7  -2   70.63    4.15
   1   7  -2   38.18    3.66
   2   7  -2   64.39    5.15
   3   7  -2    4.39    1.44
   4   7  -2  362.23   17.36
   5   7  -2    3.07    2.26
   6   7  -2   42.61    5.44
   7   7  -2    1.94    2.08
 -14   8  -2   29.85    6.53
 -13   8  -2   54.08    8.08
 -12   8  -2   24.88    5.39
 -11   8  -2   22.76    4.88
 -10   8  -2   35.56    5.53
  -9   8  -2    1.38    1.00
  -8   8  -2  107.67    5.15
  -7   8  -2   42.52    3.73
  -6   8  -2   28.75    3.46
  -5   8  -2   41.45    5.35
  -4   8  -2   18.42    3.67
  -3   8  -2  119.58    7.99
  -2   8  -2   24.33    4.23
  -1   8  -2   20.75    3.87
   0   8  -2  118.85    5.78
   1   8  -2   88.00    5.16
   2   8  -2   83.56    5.59
   3   8  -2    1.75    1.95
   4   8  -2    1.86    2.19
   5   8  -2   34.92    6.50
   6   8  -2    2.54    2.14
 -14   9  -2    1.13    2.46
 -13   9  -2   20.05    5.04
 -12   9  -2    3.45    2.38
 -11   9  -2    3.95    2.27
 -10   9  -2   28.37    3.36
  -9   9  -2   72.05    4.81
  -8   9  -2   96.36    7.38
  -7   9  -2   67.04    7.51
  -6   9  -2   56.10    6.68
  -5   9  -2   61.59    7.18
  -4   9  -2   42.90    5.86
  -3   9  -2  142.38    9.26
  -2   9  -2    5.70    2.35
  -1   9  -2    1.43    1.36
   0   9  -2   60.54    5.33
   1   9  -2    6.97    1.97
   2   9  -2   39.07    4.51
   3   9  -2   42.03    7.37
   4   9  -2   33.55    6.84
   5   9  -2   57.41    9.48
 -14  10  -2    4.52    3.18
 -13  10  -2   -1.37    1.86
 -12  10  -2  115.74    9.68
 -11  10  -2    5.62    4.37
 -10  10  -2   83.58    7.34
  -9  10  -2    8.09    2.96
  -8  10  -2   83.71    7.34
  -7  10  -2    3.31    1.90
  -6  10  -2    7.63    2.92
  -5  10  -2   27.36    5.04
  -4  10  -2   63.19    7.53
  -3  10  -2   98.65    8.03
  -2  10  -2   29.49    5.16
  -1  10  -2   28.84    3.79
   0  10  -2   97.70    6.50
   1  10  -2    6.94    2.14
   2  10  -2   11.71    4.31
   3  10  -2    3.09    2.65
   4  10  -2   12.50    4.66
 -11  11  -2   30.30    8.71
 -10  11  -2    4.88    2.58
  -9  11  -2   57.05    7.35
  -8  11  -2    0.82    1.71
  -7  11  -2  349.55   16.85
  -6  11  -2    0.08    1.56
  -5  11  -2   59.06    7.61
  -4  11  -2   53.57    7.48
  -3  11  -2   38.46    6.19
  -2  11  -2    2.61    1.96
  -1  11  -2    7.38    2.23
   0  11  -2   24.78    4.00
   1  11  -2   77.64    6.81
   2  11  -2   57.94    9.09
 -11  12  -2   79.54    9.56
 -10  12  -2   14.78    4.25
  -9  12  -2   33.96    6.08
  -8  12  -2    6.11    2.86
  -7  12  -2    2.46    2.17
  -6  12  -2   26.43    5.39
  -5  12  -2    2.44    2.17
  -4  12  -2   26.36    5.59
  -3  12  -2    5.94    2.98
  -2  12  -2  121.88    7.90
  -1  12  -2   -0.90    1.40
   0  12  -2   18.78    3.48
   1  12  -2    2.23    2.82
 -11  13  -2   49.79    7.84
 -10  13  -2    2.25    2.31
  -9  13  -2   27.97    5.85
  -8  13  -2   25.71    5.55
  -7  13  -2   51.38    7.82
  -6  13  -2   20.61    5.15
  -5  13  -2   72.08    9.38
  -4  13  -2   19.56    5.06
  -3  13  -2   -0.90    2.08
  -2  13  -2    5.28    2.21
  -1  13  -2   11.60    3.24
 -11  14  -2   23.65    5.65
 -10  14  -2   14.66    4.99
  -9  14  -2   31.70    6.47
  -8  14  -2    2.96    2.72
  -7  14  -2    2.45    2.59
  -6  14  -2   54.29    8.53
  -5  14  -2    1.99    2.48
  -4  14  -2   -0.18    2.41
  -3  14  -2   32.96    5.28
   6 -15  -1   69.93   11.02
   7 -15  -1   15.07    5.45
   8 -15  -1   41.99    8.28
   9 -15  -1    4.41    3.91
   3 -14  -1   28.69    4.92
   4 -14  -1   62.29    7.16
   5 -14  -1   13.54    3.38
   6 -14  -1    2.35    1.97
   7 -14  -1   16.95    3.66
   8 -14  -1    1.05    1.92
   9 -14  -1   -1.48    1.70
  10 -14  -1   17.11    3.83
  11 -14  -1   48.78    6.32
   1 -13  -1    2.74    2.29
   2 -13  -1    8.46    2.92
   3 -13  -1   35.24    5.23
   4 -13  -1    9.68    2.86
   5 -13  -1    2.45    1.91
   6 -13  -1    1.03    1.55
   7 -13  -1   90.69    7.89
   8 -13  -1   13.22    3.27
   9 -13  -1   63.40    6.64
  10 -13  -1    1.44    1.74
  11 -13  -1    2.92    1.99
  12 -13  -1   12.32    4.91
  -2 -12  -1   12.14    4.27
  -1 -12  -1    7.11    2.14
   0 -12  -1   87.87    8.35
   1 -12  -1   32.63    4.92
   2 -12  -1    1.78    1.62
   3 -12  -1   10.46    2.80
   4 -12  -1   88.83    7.74
   5 -12  -1    2.67    1.74
   6 -12  -1   21.51    3.61
   7 -12  -1    8.99    2.56
   8 -12  -1    5.47    2.10
   9 -12  -1   15.22    3.30
  10 -12  -1   -0.78    1.45
  11 -12  -1    2.57    1.97
  12 -12  -1   88.63    7.82
  13 -12  -1    6.15    3.79
  -3 -11  -1   51.33    6.23
  -2 -11  -1    0.72    1.65
  -1 -11  -1    6.49    2.04
   0 -11  -1   37.97    3.94
   1 -11  -1   15.75    2.55
   2 -11  -1   57.90    6.12
   3 -11  -1   64.79    6.42
   4 -11  -1   31.49    4.45
   5 -11  -1  134.44    7.40
   6 -11  -1    6.48    2.14
   7 -11  -1    3.17    1.74
   8 -11  -1   11.89    2.88
   9 -11  -1  115.78    7.40
  10 -11  -1   20.72    3.65
  11 -11  -1   41.82    5.28
  12 -11  -1   41.79    5.31
  13 -11  -1   10.15    4.04
  14 -11  -1   37.86    7.81
  -4 -10  -1   14.15    3.61
  -3 -10  -1    0.49    1.59
  -2 -10  -1    1.29    1.57
  -1 -10  -1   21.59    2.92
   0 -10  -1  113.64    6.01
   1 -10  -1   27.91    3.11
   2 -10  -1  168.61    6.08
   3 -10  -1    1.14    1.31
   4 -10  -1    5.10    1.86
   5 -10  -1   34.39    4.20
   6 -10  -1    5.75    1.91
   7 -10  -1    7.37    2.21
   8 -10  -1   29.44    3.98
   9 -10  -1    0.22    1.18
  10 -10  -1  122.69    6.93
  11 -10  -1    9.79    3.63
  12 -10  -1    1.23    1.64
  13 -10  -1   40.85    5.34
  14 -10  -1   57.54    9.38
  -5  -9  -1    5.12    2.34
  -4  -9  -1   72.92    6.93
  -3  -9  -1   15.38    3.07
  -2  -9  -1  109.36    5.71
  -1  -9  -1    1.48    1.13
   0  -9  -1    2.12    1.15
   1  -9  -1   33.51    3.03
   2  -9  -1   27.02    2.73
   3  -9  -1    1.29    0.88
   4  -9  -1    0.65    1.05
   5  -9  -1  227.17    8.67
   6  -9  -1   49.07    4.79
   7  -9  -1  196.74    8.23
   8  -9  -1    6.60    1.87
   9  -9  -1    1.69    1.24
  10  -9  -1   22.13    3.57
  11  -9  -1   60.18    5.85
  12  -9  -1    7.93    2.49
  13  -9  -1   16.14    3.40
  14  -9  -1   10.89    4.10
  -6  -8  -1    0.52    1.84
  -5  -8  -1   10.90    2.82
  -4  -8  -1    5.68    2.08
  -3  -8  -1    7.66    2.19
  -2  -8  -1   26.05    3.08
  -1  -8  -1    6.84    1.52
   0  -8  -1   11.96    1.94
   1  -8  -1  219.34    6.49
   2  -8  -1   33.73    2.83
   3  -8  -1  238.70    6.35
   4  -8  -1   65.83    2.96
   5  -8  -1    2.82    1.28
   6  -8  -1    0.09    0.92
   7  -8  -1   38.27    3.95
   8  -8  -1    7.96    2.01
   9  -8  -1   46.15    4.52
  10  -8  -1  157.16    7.37
  11  -8  -1   55.92    5.34
  12  -8  -1  110.68    7.15
  13  -8  -1    0.93    1.64
  14  -8  -1    2.69    2.69
  -7  -7  -1   19.15    5.53
  -6  -7  -1   85.71    7.96
  -5  -7  -1    9.45    2.35
  -4  -7  -1    4.85    1.55
  -3  -7  -1    8.66    2.20
  -2  -7  -1  216.67    7.01
  -1  -7  -1   35.43    3.01
   0  -7  -1  119.82    4.47
   1  -7  -1  119.88    4.32
   2  -7  -1   36.85    2.68
   3  -7  -1  178.60    4.86
   4  -7  -1    4.27    0.84
   5  -7  -1   10.56    1.22
   6  -7  -1  283.66    8.94
   7  -7  -1  114.31    5.41
   8  -7  -1  212.60    7.86
   9  -7  -1   31.22    3.55
  10  -7  -1   -0.35    0.95
  11  -7  -1   28.88    3.46
  12  -7  -1    1.28    1.34
  13  -7  -1   -0.31    1.40
  14  -7  -1   21.37    4.66
  -8  -6  -1    3.51    2.65
  -7  -6  -1    0.28    1.88
  -6  -6  -1   25.72    3.99
  -5  -6  -1    8.54    2.21
  -4  -6  -1    7.58    1.95
  -3  -6  -1   45.07    4.43
  -2  -6  -1    0.62    0.57
  -1  -6  -1  300.93    6.14
   0  -6  -1   36.03    2.02
   1  -6  -1    3.17    0.82
   2  -6  -1  185.07    4.80
   3  -6  -1  343.18    6.84
   4  -6  -1   66.37    2.08
   5  -6  -1   32.34    1.41
   6  -6  -1   39.39    2.88
   7  -6  -1  122.63    5.27
   8  -6  -1   34.07    3.59
   9  -6  -1    1.79    1.06
  10  -6  -1    6.34    1.83
  11  -6  -1  130.49    6.81
  12  -6  -1   20.27    3.27
  13  -6  -1   95.62    7.50
  14  -6  -1   -0.40    1.55
  -9  -5  -1    6.76    3.40
  -8  -5  -1   -0.57    1.93
  -7  -5  -1    2.26    2.41
  -6  -5  -1  129.73    7.24
  -5  -5  -1   30.02    3.71
  -4  -5  -1  221.42    6.33
  -3  -5  -1    1.59    0.71
  -2  -5  -1   13.41    1.40
  -1  -5  -1   29.23    1.97
   0  -5  -1  181.07    4.07
   1  -5  -1   21.62    1.55
   2  -5  -1   86.45    2.43
   3  -5  -1   79.66    2.18
   4  -5  -1  422.82    6.43
   5  -5  -1  186.03    3.40
   6  -5  -1    4.89    0.67
   7  -5  -1   40.62    1.79
   8  -5  -1  248.33    8.12
   9  -5  -1   -0.26    0.68
  10  -5  -1   43.95    4.40
  11  -5  -1    9.50    2.16
  12  -5  -1   12.79    2.90
  13  -5  -1   15.90    3.22
  14  -5  -1    4.26    2.16
 -10  -4  -1   77.04   10.58
  -9  -4  -1   15.35    4.73
  -8  -4  -1  113.96   11.37
  -7  -4  -1   39.23    4.23
  -6  -4  -1    3.29    1.19
  -5  -4  -1   -0.06    0.62
  -4  -4  -1   55.94    3.21
  -3  -4  -1    3.46    0.93
  -2  -4  -1   65.10    2.36
  -1  -4  -1  421.65    6.96
   0  -4  -1  208.17    3.65
   1  -4  -1  456.18    6.85
   2  -4  -1   12.74    0.98
   3  -4  -1    9.00    0.61
   4  -4  -1  208.82    4.76
   5  -4  -1   26.33    1.19
   6  -4  -1  184.50    3.70
   7  -4  -1  180.73    3.91
   8  -4  -1   63.57    2.39
   9  -4  -1  225.66    6.05
  10  -4  -1    9.35    2.15
  11  -4  -1    5.78    1.94
  12  -4  -1    3.70    1.75
  13  -4  -1   72.17    6.91
  14  -4  -1   17.89    3.72
 -11  -3  -1   40.85    7.88
 -10  -3  -1   33.17    6.87
  -9  -3  -1    4.57    1.88
  -8  -3  -1   74.40    5.93
  -7  -3  -1    0.74    0.96
  -6  -3  -1    0.70    0.86
  -5  -3  -1  237.90    6.54
  -4  -3  -1  182.19    5.12
  -3  -3  -1  343.51    7.15
  -2  -3  -1   75.47    3.13
  -1  -3  -1    9.62    0.78
   0  -3  -1  168.59    2.99
   1  -3  -1   12.49    0.91
   2  -3  -1   38.46    1.18
   3  -3  -1  174.88    3.89
   4  -3  -1  459.90    6.29
   5  -3  -1   85.99    2.18
   6  -3  -1  338.20    6.80
   7  -3  -1    3.69    0.83
   8  -3  -1    2.18    1.06
   9  -3  -1   45.80    4.10
  10  -3  -1    7.83    1.92
  11  -3  -1    4.96    1.68
  12  -3  -1   17.72    3.33
  13  -3  -1    1.83    1.63
  14  -3  -1   51.87    6.16
 -11  -2  -1   11.49    2.84
 -10  -2  -1    1.89    1.65
  -9  -2  -1   54.70    5.16
  -8  -2  -1  156.27    7.11
  -7  -2  -1   28.39    3.34
  -6  -2  -1   33.13    3.35
  -5  -2  -1   38.81    3.39
  -4  -2  -1  175.49    4.88
  -3  -2  -1   84.43    2.89
  -2  -2  -1   11.04    0.90
  -1  -2  -1   36.22    1.15
   0  -2  -1  600.77    6.89
   1  -2  -1  132.64    2.59
   2  -2  -1  607.60    8.80
   3  -2  -1   14.16    1.12
   4  -2  -1   11.92    1.06
   5  -2  -1   83.37    2.60
   6  -2  -1   65.43    2.45
   7  -2  -1   12.07    1.35
   8  -2  -1    0.23    0.77
   9  -2  -1  184.85    7.67
  10  -2  -1   25.50    3.42
  11  -2  -1  114.81    6.58
  12  -2  -1   -0.46    1.22
  13  -2  -1    0.94    1.67
  14  -2  -1   17.14    5.06
 -12  -1  -1    2.86    2.14
 -11  -1  -1   41.82    5.04
 -10  -1  -1   10.45    2.56
  -9  -1  -1   24.93    3.54
  -8  -1  -1   35.54    3.86
  -7  -1  -1  236.43    8.00
  -6  -1  -1  111.60    5.02
  -5  -1  -1    5.55    1.29
  -4  -1  -1   22.03    2.16
  -3  -1  -1  466.67    6.53
  -2  -1  -1   12.25    0.83
  -1  -1  -1  133.69    2.16
   0  -1  -1   47.29    1.04
   1  -1  -1   43.66    1.68
   2  -1  -1  133.46    2.64
   3  -1  -1   34.46    1.39
   4  -1  -1   10.46    1.02
   5  -1  -1  435.29    7.63
   6  -1  -1   34.57    1.89
   7  -1  -1  290.60    8.76
   8  -1  -1   33.99    3.52
   9  -1  -1    7.42    1.79
  10  -1  -1    2.07    1.32
  11  -1  -1   27.64    3.99
  12  -1  -1    4.81    2.16
  13  -1  -1   12.94    3.17
 -13   0  -1   14.39    3.52
 -12   0  -1   80.06    7.17
 -11   0  -1   34.67    4.50
 -10   0  -1  116.38    6.47
  -9   0  -1    2.60    1.38
  -8   0  -1    8.30    1.86
  -7   0  -1  106.70    5.08
  -6   0  -1   33.01    3.07
  -5   0  -1  188.39    5.93
  -4   0  -1  209.12    5.86
  -3   0  -1  178.38    3.47
  -2   0  -1  595.42    8.64
  -1   0  -1   45.33    2.22
   0   0  -1    0.22    0.37
   1   0  -1   44.63    1.58
   2   0  -1  602.74    8.63
   3   0  -1  178.64    3.70
   4   0  -1  212.99    4.40
   5   0  -1  186.73    4.28
   6   0  -1   30.80    1.82
   7   0  -1  111.41    5.20
   8   0  -1   10.31    2.16
   9   0  -1    2.58    1.38
  10   0  -1  114.60    6.64
  11   0  -1   29.52    4.32
  12   0  -1   79.13    7.40
  13   0  -1    6.77    4.14
 -13   1  -1    8.69    2.83
 -12   1  -1    3.40    1.84
 -11   1  -1   25.13    3.78
 -10   1  -1    3.02    1.42
  -9   1  -1   11.92    2.26
  -8   1  -1   46.55    4.18
  -7   1  -1  285.39    8.66
  -6   1  -1   31.89    2.90
  -5   1  -1  446.56   10.11
  -4   1  -1   11.91    0.83
  -3   1  -1   33.87    1.30
  -2   1  -1  130.02    3.29
  -1   1  -1   47.58    1.68
   0   1  -1   49.06    1.56
   1   1  -1  132.36    3.35
   2   1  -1   10.11    1.09
   3   1  -1  460.77    9.19
   4   1  -1   23.66    1.51
   5   1  -1    4.19    0.75
   6   1  -1  111.24    5.12
   7   1  -1  208.18    7.80
   8   1  -1   35.22    4.01
   9   1  -1   28.29    3.89
  10   1  -1    9.03    2.38
  11   1  -1   41.86    5.32
  12   1  -1    6.65    2.69
 -13   2  -1    2.85    3.00
 -12   2  -1    0.85    1.44
 -11   2  -1  107.88    6.91
 -10   2  -1   29.99    3.60
  -9   2  -1  218.98    8.07
  -8   2  -1    0.42    0.79
  -7   2  -1   12.12    1.92
  -6   2  -1   66.09    2.06
  -5   2  -1   75.76    2.66
  -4   2  -1   12.63    1.22
  -3   2  -1   12.93    1.24
  -2   2  -1  594.33   10.61
  -1   2  -1  136.64    3.25
   0   2  -1  608.89   15.39
   1   2  -1   36.98    1.80
   2   2  -1   10.87    1.26
   3   2  -1   87.66    3.22
   4   2  -1  190.77    5.34
   5   2  -1   37.10    2.15
   6   2  -1   37.75    3.75
   7   2  -1   28.27    3.54
   8   2  -1  162.50    7.55
   9   2  -1   47.41    5.15
  10   2  -1    2.17    1.66
  11   2  -1   10.27    2.95
  12   2  -1   78.47   11.16
 -14   3  -1   48.45    8.22
 -13   3  -1    2.79    2.46
 -12   3  -1    5.26    2.84
 -11   3  -1   13.70    4.15
 -10   3  -1    8.60    3.12
  -9   3  -1   36.36    5.44
  -8   3  -1    2.48    1.41
  -7   3  -1    3.33    0.75
  -6   3  -1  332.85    7.70
  -5   3  -1   85.55    3.13
  -4   3  -1  451.66    9.23
  -3   3  -1  172.32    4.52
  -2   3  -1   38.11    1.68
  -1   3  -1   12.33    0.87
   0   3  -1  164.92    6.58
   1   3  -1    8.97    1.23
   2   3  -1   71.31    3.11
   3   3  -1  336.59    8.10
   4   3  -1  178.40    5.57
   5   3  -1  236.33   11.48
   6   3  -1    1.99    1.20
   7   3  -1    1.68    1.19
   8   3  -1   60.61    5.75
   9   3  -1    4.43    1.83
  10   3  -1   32.66    4.86
  11   3  -1   27.53    4.52
 -14   4  -1   21.83    5.77
 -13   4  -1   90.71   10.65
 -12   4  -1    7.67    3.14
 -11   4  -1    0.74    1.63
 -10   4  -1    4.85    2.33
  -9   4  -1  208.53   11.45
  -8   4  -1   66.39    5.72
  -7   4  -1  181.76    5.45
  -6   4  -1  185.66    5.44
  -5   4  -1   25.04    2.19
  -4   4  -1  208.74    5.48
  -3   4  -1   10.82    1.24
  -2   4  -1   11.46    1.08
  -1   4  -1  444.45   13.65
   0   4  -1  193.64    7.83
   1   4  -1  432.42    9.74
   2   4  -1   66.50    3.21
   3   4  -1    2.91    0.93
   4   4  -1   68.72    3.47
   5   4  -1   -0.13    1.20
   6   4  -1    3.52    1.45
   7   4  -1   30.81    3.98
   8   4  -1  100.27    7.82
   9   4  -1   14.74    3.28
  10   4  -1   65.59    6.98
 -14   5  -1    3.44    2.80
 -13   5  -1    9.61    3.48
 -12   5  -1    7.09    3.14
 -11   5  -1    5.96    2.84
 -10   5  -1   40.80    6.23
  -9   5  -1   -0.31    0.85
  -8   5  -1  244.48    7.18
  -7   5  -1   38.93    2.72
  -6   5  -1    5.26    1.11
  -5   5  -1  179.75    5.44
  -4   5  -1  432.35    9.42
  -3   5  -1   76.47    2.88
  -2   5  -1   85.25    2.57
  -1   5  -1   23.31    3.18
   0   5  -1  180.58    7.93
   1   5  -1   31.41    2.79
   2   5  -1   12.52    1.88
   3   5  -1    2.33    1.00
   4   5  -1  231.17    7.79
   5   5  -1   29.21    5.33
   6   5  -1  127.62    7.15
   7   5  -1    0.79    1.37
   8   5  -1   -1.16    1.26
   9   5  -1   10.50    3.05
 -14   6  -1    0.10    2.01
 -13   6  -1   76.32    9.83
 -12   6  -1   17.94    4.54
 -11   6  -1  125.92    9.68
 -10   6  -1    3.94    2.23
  -9   6  -1    3.14    1.40
  -8   6  -1   36.58    3.19
  -7   6  -1  118.79    4.76
  -6   6  -1   41.27    3.27
  -5   6  -1   31.04    2.68
  -4   6  -1   66.18    2.95
  -3   6  -1  341.49    7.50
  -2   6  -1  165.32    8.15
  -1   6  -1    5.10    1.73
   0   6  -1   32.69    4.08
   1   6  -1  279.75    8.44
   2   6  -1    1.08    0.85
   3   6  -1   40.86    3.70
   4   6  -1    2.28    1.86
   5   6  -1    5.39    2.72
   6   6  -1   20.48    3.57
   7   6  -1    2.91    1.84
   8   6  -1    0.40    1.76
 -14   7  -1   18.82    5.32
 -13   7  -1   -0.46    1.71
 -12   7  -1    0.90    1.80
 -11   7  -1   32.15    6.01
 -10   7  -1    1.23    1.49
  -9   7  -1   26.58    2.90
  -8   7  -1  219.40    7.21
  -7   7  -1  111.32    4.78
  -6   7  -1  298.31    8.19
  -5   7  -1    9.74    1.54
  -4   7  -1    3.12    0.85
  -3   7  -1  170.70    8.85
  -2   7  -1   46.25    5.15
  -1   7  -1  115.18    7.05
   0   7  -1  116.54    7.08
   1   7  -1   38.45    3.67
   2   7  -1  214.87    7.70
   3   7  -1    6.08    1.74
   4   7  -1    4.36    2.48
   5   7  -1    8.95    3.40
   6   7  -1   89.87    7.87
   7   7  -1   17.55    3.79
   8   7  -1   24.83    9.84
 -14   8  -1    3.49    2.76
 -13   8  -1   -0.21    1.91
 -12   8  -1   98.56   10.75
 -11   8  -1   66.59    8.27
 -10   8  -1  167.53    7.15
  -9   8  -1   35.72    3.52
  -8   8  -1    9.25    1.82
  -7   8  -1   44.79    3.74
  -6   8  -1    1.85    0.86
  -5   8  -1    3.89    1.81
  -4   8  -1   62.28    5.48
  -3   8  -1  249.51   11.52
  -2   8  -1   37.20    5.00
  -1   8  -1  239.98   11.11
   0   8  -1   12.30    3.03
   1   8  -1    7.21    1.74
   2   8  -1   26.77    3.45
   3   8  -1    6.46    2.84
   4   8  -1    6.27    2.89
   5   8  -1   26.79    6.15
   6   8  -1   -1.29    1.63
 -14   9  -1    5.40    3.22
 -13   9  -1   15.44    4.63
 -12   9  -1    5.64    2.90
 -11   9  -1   50.35    7.05
 -10   9  -1   23.89    3.08
  -9   9  -1    3.53    1.32
  -8   9  -1    7.20    1.70
  -7   9  -1  205.21   10.99
  -6   9  -1   43.24    5.68
  -5   9  -1  221.97   11.34
  -4   9  -1    0.20    1.15
  -3   9  -1    1.03    1.31
  -2   9  -1   22.50    4.16
  -1   9  -1   32.84    4.97
   0   9  -1    3.10    1.34
   1   9  -1    5.30    1.73
   2   9  -1  111.37    6.53
   3   9  -1   10.98    3.97
   4   9  -1   82.10   10.54
   5   9  -1    0.61    2.34
 -14  10  -1   64.51    9.44
 -13  10  -1   46.12    7.64
 -12  10  -1    0.43    1.80
 -11  10  -1   14.16    3.89
 -10  10  -1  129.06    6.30
  -9  10  -1    4.20    2.04
  -8  10  -1   28.46    4.80
  -7  10  -1    5.26    2.20
  -6  10  -1    5.41    2.27
  -5  10  -1   39.57    5.64
  -4  10  -1    6.65    2.43
  -3  10  -1    3.49    2.06
  -2  10  -1  165.97   10.26
  -1  10  -1   27.17    4.97
   0  10  -1  121.38    6.59
   1  10  -1   25.03    3.62
   2  10  -1   -0.04    1.88
   3  10  -1   -0.54    1.85
   4  10  -1   16.18    4.87
 -14  11  -1   30.26    6.62
 -13  11  -1   15.35    5.23
 -11  11  -1   23.82    4.98
 -10  11  -1   19.16    4.40
  -9  11  -1  113.97    8.75
  -8  11  -1    7.31    2.99
  -7  11  -1    3.69    2.40
  -6  11  -1    3.86    2.00
  -5  11  -1  137.07    9.64
  -4  11  -1   26.29    5.07
  -3  11  -1   59.42    7.48
  -2  11  -1   57.41    7.41
  -1  11  -1   11.60    2.68
   0  11  -1   33.61    4.49
   1  11  -1    1.17    2.27
   2  11  -1    4.76    2.83
   3  11  -1   40.30    7.73
 -11  12  -1    4.88    2.73
 -10  12  -1   -0.52    1.41
  -9  12  -1   14.23    4.12
  -8  12  -1    3.86    2.51
  -7  12  -1    8.74    3.23
  -6  12  -1   13.80    3.87
  -5  12  -1    3.65    2.28
  -4  12  -1   90.30    9.84
  -3  12  -1   13.98    4.33
  -2  12  -1    0.02    1.71
  -1  12  -1   37.74    4.87
   0  12  -1   83.71    7.22
   1  12  -1    8.34    4.05
 -11  13  -1    0.04    2.03
 -10  13  -1    2.32    2.17
  -9  13  -1   86.96   10.05
  -8  13  -1   12.62    4.11
  -7  13  -1   82.69    9.90
  -6  13  -1   -1.17    1.25
  -5  13  -1   -0.51    1.86
  -4  13  -1   13.30    4.17
  -3  13  -1   41.97    7.12
  -2  13  -1   11.65    3.05
  -1  13  -1    8.80    2.75
 -12  14  -1   18.19    4.94
 -11  14  -1   51.20    8.53
 -10  14  -1   15.66    4.70
  -9  14  -1    1.26    2.41
  -8  14  -1    2.57    2.78
  -7  14  -1   20.17    5.42
  -6  14  -1    4.16    3.12
  -5  14  -1    5.66    3.36
  -4  14  -1   56.48    8.57
  -3  14  -1   32.21    6.79
  -2  14  -1   69.70    9.80
   6 -15   0    1.07    4.11
   7 -15   0   11.66    3.75
   8 -15   0   25.28    4.98
   9 -15   0  129.99   14.60
  10 -15   0   31.34    9.78
   3 -14   0    7.77    2.98
   4 -14   0    1.63    2.09
   5 -14   0    0.99    2.01
   6 -14   0   35.91    5.32
   7 -14   0    1.60    1.94
   8 -14   0    1.42    2.12
   9 -14   0   26.60    4.83
  10 -14   0    2.58    2.21
  11 -14   0   30.92    4.99
  12 -14   0    8.31    4.34
   0 -13   0   -0.89    2.23
   1 -13   0   28.00    5.15
   2 -13   0    6.66    2.62
   3 -13   0    2.83    1.90
   4 -13   0    1.68    1.71
   5 -13   0  162.67    9.18
   6 -13   0   60.07    6.42
   7 -13   0   36.19    5.17
   8 -13   0    6.43    2.55
   9 -13   0   41.38    5.35
  10 -13   0   11.06    3.17
  11 -13   0  100.70    8.62
  12 -13   0   -0.95    1.84
  13 -13   0    1.89    2.30
  -2 -12   0    8.34    3.76
  -1 -12   0   -0.31    1.77
   0 -12   0    1.98    1.48
   1 -12   0    0.89    1.24
   2 -12   0  106.11    6.08
   3 -12   0   15.64    3.39
   4 -12   0   60.69    6.40
   5 -12   0   13.13    3.11
   6 -12   0    1.35    1.55
   7 -12   0    0.90    1.45
   8 -12   0    8.43    2.57
   9 -12   0    9.01    2.38
  10 -12   0  102.63    8.35
  11 -12   0   48.51    5.82
  12 -12   0   -0.81    1.59
  13 -12   0   25.33    4.50
  14 -12   0   33.05    5.78
  -3 -11   0   37.20    5.37
  -2 -11   0   94.97    8.36
  -1 -11   0   57.51    5.10
   0 -11   0   17.11    2.77
   1 -11   0    5.97    1.62
   2 -11   0    2.45    1.30
   3 -11   0   64.22    4.55
   4 -11   0   20.48    3.61
   5 -11   0   95.82    7.59
   6 -11   0   13.37    2.85
   7 -11   0  491.86   15.21
   8 -11   0   -0.64    1.14
   9 -11   0   68.88    6.59
  10 -11   0   -0.70    1.22
  11 -11   0   17.11    3.30
  12 -11   0    0.69    1.67
  13 -11   0    5.43    2.54
  14 -11   0    9.62    3.00
  -4 -10   0    5.24    2.45
  -3 -10   0    7.77    2.68
  -2 -10   0  113.25    7.58
  -1 -10   0    0.57    1.04
   0 -10   0   33.92    3.54
   1 -10   0   48.17    4.01
   2 -10   0    1.49    0.97
   3 -10   0   68.56    4.18
   4 -10   0   42.33    3.46
   5 -10   0    0.03    1.03
   6 -10   0   15.99    2.94
   7 -10   0    6.75    1.97
   8 -10   0   -0.21    1.00
   9 -10   0   24.89    3.68
  10 -10   0   36.59    4.52
  11 -10   0    7.71    2.44
  12 -10   0  125.15    9.12
  13 -10   0    0.18    1.63
  14 -10   0   -0.06    1.88
  15 -10   0    0.37    3.18
  -5  -9   0   29.77    4.83
  -4  -9   0   46.93    5.82
  -3  -9   0    7.72    2.50
  -2  -9   0   76.47    6.58
  -1  -9   0   24.53    3.03
   0  -9   0  243.88    7.69
   1  -9   0   -0.87    0.66
   2  -9   0   10.16    1.72
   3  -9   0  303.21    7.93
   4  -9   0    3.17    1.02
   5  -9   0  121.67    4.51
   6  -9   0    0.51    1.07
   7  -9   0  109.20    5.96
   8  -9   0   48.39    4.74
   9  -9   0  241.85    9.53
  10  -9   0   47.07    5.08
  11  -9   0    2.74    1.59
  12  -9   0   12.41    2.79
  13  -9   0    2.40    1.80
  14  -9   0    1.92    1.92
  15  -9   0   -0.73    2.02
  -6  -8   0    2.17    1.98
  -5  -8   0    3.92    2.05
  -4  -8   0    7.21    2.37
  -3  -8   0    0.06    1.12
  -2  -8   0    0.91    0.83
  -1  -8   0   54.90    4.24
   0  -8   0  145.31    5.43
   1  -8   0    1.06    0.72
   2  -8   0   70.84    3.81
   3  -8   0  109.14    4.15
   4  -8   0    0.32    0.59
   5  -8   0  165.20    4.96
   6  -8   0   27.50    2.31
   7  -8   0   24.78    3.18
   8  -8   0  146.79    6.83
   9  -8   0   -0.44    0.86
  10  -8   0    1.13    1.19
  11  -8   0   66.16    6.10
  12  -8   0   63.23    6.14
  13  -8   0  176.89    8.95
  14  -8   0   36.35    5.12
  15  -8   0    9.62    3.03
  -7  -7   0   -0.12    1.55
  -6  -7   0   39.76    5.17
  -5  -7   0   -0.64    1.17
  -4  -7   0  459.25   14.62
  -3  -7   0    6.30    1.94
  -2  -7   0  109.07    4.84
  -1  -7   0   23.83    2.51
   0  -7   0   71.14    3.88
   1  -7   0    6.26    1.31
   2  -7   0   57.40    3.19
   3  -7   0   98.22    3.63
   4  -7   0  189.26    5.08
   5  -7   0  355.38    7.57
   6  -7   0  194.74    5.08
   7  -7   0   70.84    2.98
   8  -7   0    0.41    0.88
   9  -7   0   12.72    2.38
  10  -7   0   81.93    6.29
  11  -7   0    9.66    2.30
  12  -7   0   11.83    2.86
  13  -7   0   70.73    6.78
  14  -7   0   -1.00    1.53
  15  -7   0   27.70    4.71
  -8  -6   0   27.58    6.47
  -7  -6   0   63.43    6.66
  -6  -6   0    0.12    1.27
  -5  -6   0   17.03    3.09
  -4  -6   0   13.16    2.61
  -3  -6   0    0.17    0.97
  -2  -6   0   28.55    2.76
  -1  -6   0  189.23    5.75
   0  -6   0   28.80    2.50
   1  -6   0  417.45   10.52
   2  -6   0    6.25    1.08
   3  -6   0   14.63    1.54
   4  -6   0    0.86    0.49
   5  -6   0   16.16    1.60
   6  -6   0   28.86    2.13
   7  -6   0    5.59    0.98
   8  -6   0   72.12    3.29
   9  -6   0  302.40    9.91
  10  -6   0   49.56    4.73
  11  -6   0   94.39    6.36
  12  -6   0    1.69    1.49
  13  -6   0   47.81    5.51
  14  -6   0    0.10    1.71
  15  -6   0  136.03   10.98
  -9  -5   0    2.88    2.80
  -8  -5   0  146.49   11.84
  -7  -5   0   12.17    2.95
  -6  -5   0   72.76    6.17
  -5  -5   0    1.07    1.06
  -4  -5   0  142.42    6.54
  -3  -5   0  158.75    4.79
  -2  -5   0  364.85    7.40
  -1  -5   0   13.98    1.19
   0  -5   0    2.14    0.73
   1  -5   0  147.20    4.14
   2  -5   0  146.61    3.94
   3  -5   0   -0.02    0.32
   4  -5   0    1.83    0.58
   5  -5   0    2.93    0.71
   6  -5   0  436.22    8.12
   7  -5   0   56.98    2.67
   8  -5   0  114.97    3.96
   9  -5   0    2.93    0.94
  10  -5   0    1.82    0.92
  11  -5   0   13.50    2.57
  12  -5   0   -0.07    1.17
  13  -5   0    3.46    1.73
  14  -5   0   29.50    4.70
  15  -5   0   36.83    7.75
 -10  -4   0   -0.46    2.59
  -9  -4   0    3.24    2.62
  -8  -4   0   78.28    9.39
  -7  -4   0   10.95    2.59
  -6  -4   0   53.58    3.83
  -5  -4   0    2.52    0.91
  -4  -4   0    0.44    0.57
  -3  -4   0  190.36    5.67
  -2  -4   0    1.20    0.46
  -1  -4   0    2.51    0.51
   0  -4   0  171.46    3.32
   1  -4   0  218.03    4.82
   2  -4   0  895.18   13.22
   3  -4   0  532.88    8.71
   4  -4   0  167.84    3.88
   5  -4   0  146.91    3.74
   6  -4   0    5.77    0.97
   7  -4   0   98.42    3.41
   8  -4   0    0.85    0.62
   9  -4   0  137.29    4.72
  10  -4   0   13.09    1.91
  11  -4   0  475.15   11.11
  12  -4   0    6.53    2.33
  13  -4   0   52.14    6.00
  14  -4   0    3.14    2.27
 -11  -3   0    6.32    4.23
 -10  -3   0    3.69    2.81
  -9  -3   0   16.53    4.64
  -8  -3   0   70.08    5.77
  -7  -3   0   75.48    4.86
  -6  -3   0  300.22    7.74
  -5  -3   0  112.06    4.07
  -4  -3   0   97.51    3.49
  -3  -3   0   13.77    1.42
  -2  -3   0    0.84    0.40
  -1  -3   0  535.23    7.49
   0  -3   0    1.34    0.38
   1  -3   0   54.18    1.87
   2  -3   0  186.66    3.73
   3  -3   0    1.67    0.48
   4  -3   0  227.37    4.54
   5  -3   0  140.48    3.61
   6  -3   0   14.98    1.47
   7  -3   0  183.79    5.00
   8  -3   0  177.56    5.22
   9  -3   0    0.19    0.65
  10  -3   0    4.73    1.29
  11  -3   0   -0.49    0.80
  12  -3   0    5.90    1.72
  13  -3   0   12.26    2.95
  14  -3   0   30.49    4.39
 -12  -2   0   36.10    7.68
 -11  -2   0    4.51    3.06
 -10  -2   0  129.42    7.06
  -9  -2   0    2.33    1.38
  -8  -2   0    1.35    1.15
  -7  -2   0   15.08    2.39
  -6  -2   0   65.50    4.04
  -5  -2   0   51.42    2.88
  -4  -2   0    6.49    1.07
  -3  -2   0  136.44    3.69
  -2  -2   0  887.21   13.01
  -1  -2   0  191.80    3.22
   0  -2   0  194.05    3.74
   1  -2   0    6.01    0.62
   2  -2   0  198.42    3.50
   3  -2   0   56.54    1.72
   4  -2   0  881.75   12.90
   5  -2   0    0.31    0.45
   6  -2   0    0.86    0.68
   7  -2   0  362.25    9.84
   8  -2   0   25.80    3.01
   9  -2   0  110.48    5.74
  10  -2   0    1.17    0.91
  11  -2   0   75.54    5.24
  12  -2   0  107.36    6.52
  13  -2   0   71.89    7.07
  14  -2   0   14.25    5.20
 -12  -1   0   24.82    4.23
 -11  -1   0    0.94    1.55
 -10  -1   0   10.15    2.44
  -9  -1   0   53.77    4.93
  -8  -1   0    0.88    0.95
  -7  -1   0    1.05    0.92
  -6  -1   0    5.87    1.34
  -5  -1   0  420.23   10.03
  -4  -1   0  146.78    3.94
  -3  -1   0  221.19    5.56
  -2  -1   0   56.87    1.82
  -1  -1   0    4.94    0.53
   0  -1   0    4.39    0.41
   1  -1   0    4.25    0.49
   2  -1   0    6.21    0.54
   3  -1   0  188.72    3.42
   4  -1   0  529.83   10.91
   5  -1   0    2.28    0.85
   6  -1   0   15.63    2.13
   7  -1   0  189.95    6.86
   8  -1   0   21.39    2.80
   9  -1   0   53.80    4.75
  10  -1   0   22.41    3.32
  11  -1   0   -0.24    1.25
  12  -1   0   50.88    4.72
  13  -1   0   -0.04    1.34
 -13   0   0    1.39    2.00
 -12   0   0    0.80    1.70
 -11   0   0   18.99    3.12
 -10   0   0   46.04    4.64
  -9   0   0  230.97    8.70
  -8   0   0  154.55    6.41
  -7   0   0   67.37    3.90
  -6   0   0   38.43    3.23
  -5   0   0    2.18    0.78
  -4   0   0  167.72    4.93
  -3   0   0    1.09    0.49
  -2   0   0  205.46    4.41
  -1   0   0    5.10    0.42
   1   0   0    6.03    0.58
   2   0   0  198.50    4.48
   3   0   0    0.74    0.53
   4   0   0  169.41    5.08
   5   0   0    2.92    1.01
   6   0   0   26.47    2.76
   7   0   0   70.82    4.15
   8   0   0  137.19    6.39
   9   0   0  240.25    9.36
  10   0   0   38.54    4.52
  11   0   0   18.98    3.40
  12   0   0    0.58    1.59
  13   0   0    0.38    1.62
 -13   1   0    1.52    2.51
 -12   1   0   52.85    5.53
 -11   1   0    1.24    1.41
 -10   1   0   17.72    2.73
  -9   1   0   51.94    4.57
  -8   1   0   25.42    3.00
  -7   1   0  187.00    6.50
  -6   1   0   14.40    1.83
  -5   1   0    2.40    0.81
  -4   1   0  548.98    8.09
  -3   1   0  188.17    3.36
  -2   1   0    5.97    0.51
  -1   1   0    6.08    0.53
   0   1   0    4.90    0.68
   1   1   0    5.79    0.61
   2   1   0   54.58    1.75
   3   1   0  227.15    4.19
   4   1   0  144.83    3.18
   5   1   0  417.53   10.53
   6   1   0    3.33    1.09
   7   1   0    0.34    0.81
   8   1   0    0.30    0.93
   9   1   0   43.44    4.74
  10   1   0   11.39    2.83
  11   1   0    1.44    1.48
  12   1   0   18.59    3.95
 -14   2   0    7.79    4.30
 -13   2   0   94.98   11.02
 -12   2   0  106.75    7.18
 -11   2   0   79.39    6.33
 -10   2   0    0.85    0.96
  -9   2   0  102.57    5.21
  -8   2   0   23.62    2.80
  -7   2   0  350.38    9.41
  -6   2   0    0.62    0.36
  -5   2   0    0.13    0.28
  -4   2   0  889.28   12.53
  -3   2   0   56.25    2.07
  -2   2   0  200.35    4.31
  -1   2   0    7.69    0.70
   0   2   0  198.45    6.10
   1   2   0  189.41    4.44
   2   2   0  882.82   15.40
   3   2   0  144.60    3.93
   4   2   0    6.63    0.87
   5   2   0   56.70    4.37
   6   2   0   69.31    4.64
   7   2   0   13.66    2.35
   8   2   0    0.91    1.09
   9   2   0    1.75    1.45
  10   2   0  131.20    8.39
  11   2   0    8.39    2.81
  12   2   0   29.31   10.70
 -14   3   0   27.90    6.31
 -13   3   0    8.44    3.75
 -12   3   0    2.46    2.13
 -11   3   0    0.52    1.10
 -10   3   0    7.44    1.77
  -9   3   0    0.46    0.76
  -8   3   0  164.00    6.05
  -7   3   0  185.02    4.34
  -6   3   0   15.79    1.32
  -5   3   0  144.44    4.28
  -4   3   0  222.32    5.50
  -3   3   0    0.04    0.39
  -2   3   0  191.41    4.40
  -1   3   0   54.14    1.82
   0   3   0    1.24    0.78
   1   3   0  547.48   14.41
   2   3   0    0.30    0.47
   3   3   0   15.28    1.61
   4   3   0  100.29    3.66
   5   3   0  113.10    5.49
   6   3   0  300.68   10.18
   7   3   0   71.00    5.86
   8   3   0   57.13    5.59
   9   3   0   16.13    3.33
  10   3   0    1.27    1.64
  11   3   0    7.81    2.88
 -14   4   0   12.91    4.62
 -13   4   0   34.46    6.83
 -12   4   0    4.39    2.72
 -11   4   0  459.09   19.74
 -10   4   0   14.80    3.57
  -9   4   0  132.73    8.71
  -8   4   0    0.66    0.57
  -7   4   0   97.26    3.86
  -6   4   0    3.99    0.97
  -5   4   0  142.12    4.56
  -4   4   0  170.93    4.84
  -3   4   0  545.13   10.46
  -2   4   0  894.74   15.41
  -1   4   0  232.38    4.95
   0   4   0  167.08    4.13
   1   4   0    0.76    0.71
   2   4   0    0.72    0.58
   3   4   0  189.57    5.79
   4   4   0    0.92    0.57
   5   4   0    2.00    1.28
   6   4   0   54.13    5.37
   7   4   0   11.40    2.59
   8   4   0   53.34    5.60
   9   4   0    3.56    1.88
  10   4   0    0.05    1.63
 -14   5   0   37.09    7.32
 -13   5   0    0.52    2.05
 -12   5   0   -1.13    1.32
 -11   5   0   15.31    3.97
 -10   5   0    0.94    1.37
  -9   5   0    2.84    1.81
  -8   5   0  109.71    4.44
  -7   5   0   51.97    3.15
  -6   5   0  424.77    9.94
  -5   5   0    1.54    0.67
  -4   5   0    2.52    0.73
  -3   5   0   -0.06    0.37
  -2   5   0  138.55    3.90
  -1   5   0  149.21    3.76
   0   5   0    2.08    0.55
   1   5   0   15.39    2.49
   2   5   0  352.23    9.12
   3   5   0  170.62    5.90
   4   5   0  119.99    8.25
   5   5   0    2.88    1.90
   6   5   0   84.33    6.82
   7   5   0   11.74    2.69
   8   5   0  171.37    9.17
   9   5   0    0.75    1.69
 -14   6   0    0.88    2.41
 -13   6   0   43.92    7.28
 -12   6   0    5.73    2.86
 -11   6   0   90.13    7.95
 -10   6   0   46.68    6.38
  -9   6   0  300.70    8.74
  -8   6   0   68.94    3.71
  -7   6   0    5.58    1.23
  -6   6   0   27.54    2.60
  -5   6   0   13.79    1.81
  -4   6   0    2.69    0.83
  -3   6   0   15.75    1.63
  -2   6   0    6.02    0.91
  -1   6   0  432.98    8.44
   0   6   0   27.01    3.59
   1   6   0  187.18    8.64
   2   6   0   27.04    2.81
   3   6   0    1.11    0.91
   4   6   0   17.27    4.05
   5   6   0   11.97    3.61
   6   6   0    0.63    1.22
   7   6   0   59.20    6.50
   8   6   0   40.14    5.52
 -14   7   0    0.08    2.12
 -13   7   0   57.50    8.22
 -12   7   0   19.21    4.78
 -11   7   0   13.82    3.78
 -10   7   0   67.43    7.87
  -9   7   0   10.17    1.91
  -8   7   0   -0.24    0.59
  -7   7   0   71.48    3.78
  -6   7   0  195.09    6.38
  -5   7   0  360.20    9.10
  -4   7   0  189.93    5.68
  -3   7   0  101.94    3.60
  -2   7   0   55.69    4.73
  -1   7   0    2.10    1.28
   0   7   0   67.76    5.24
   1   7   0   27.43    3.10
   2   7   0  106.80    5.14
   3   7   0    6.46    2.77
   4   7   0  484.78   20.59
   5   7   0   -1.14    1.68
   6   7   0   39.57    5.30
   7   7   0    0.86    1.67
   8   7   0    8.72    6.60
 -15   8   0    8.29    5.41
 -14   8   0   24.50    5.91
 -13   8   0  152.97   11.75
 -12   8   0   70.77    9.00
 -11   8   0   78.10    9.00
 -10   8   0    0.70    0.94
  -9   8   0    0.25    0.71
  -8   8   0  150.99    6.11
  -7   8   0   23.14    2.71
  -6   8   0   26.27    2.78
  -5   8   0  163.02    5.65
  -4   8   0    0.76    1.05
  -3   8   0   98.70    6.94
  -2   8   0   61.10    5.38
  -1   8   0    0.35    0.97
   0   8   0  144.77    8.51
   1   8   0   56.05    4.74
   2   8   0    0.71    0.95
   3   8   0    1.03    1.71
   4   8   0    4.14    2.71
   5   8   0    1.69    2.12
   6   8   0    2.38    1.91
 -14   9   0    1.44    2.44
 -13   9   0    0.02    2.11
 -12   9   0   15.71    4.22
 -11   9   0    4.95    2.37
 -10   9   0   45.53    4.29
  -9   9   0  230.07    8.33
  -8   9   0   54.37    4.47
  -7   9   0   97.65    4.87
  -6   9   0    0.06    1.03
  -5   9   0  120.31    8.22
  -4   9   0    5.21    2.22
  -3   9   0  308.09   13.71
  -2   9   0   12.36    3.12
  -1   9   0   -0.77    0.92
   0   9   0  233.39   11.81
   1   9   0   27.11    3.51
   2   9   0   70.25    9.13
   3   9   0    7.35    3.33
   4   9   0   48.83    8.32
   5   9   0   36.15    5.43
 -14  10   0    2.20    2.96
 -13  10   0   -0.22    2.18
 -12  10   0  110.28    9.43
 -11  10   0    8.09    2.06
 -10  10   0   37.74    4.10
  -9  10   0   22.64    3.11
  -8  10   0    1.48    1.47
  -7  10   0    6.99    2.48
  -6  10   0   11.21    3.13
  -5  10   0   -0.38    0.98
  -4  10   0   53.35    6.90
  -3  10   0   76.55    6.78
  -2  10   0    2.19    1.70
  -1  10   0   55.00    6.96
   0  10   0   34.52    4.16
   1  10   0   -0.23    1.16
   2  10   0   91.34   11.06
   3  10   0    7.22    3.75
   4  10   0    5.61    3.46
 -14  11   0    8.53    3.79
 -13  11   0    6.97    3.51
 -12  11   0    2.13    2.35
 -11  11   0   17.52    4.13
 -10  11   0    2.42    1.92
  -9  11   0   74.15    8.45
  -8  11   0    1.59    1.86
  -7  11   0  447.79   19.47
  -6  11   0   17.49    4.10
  -5  11   0   82.14    9.00
  -4  11   0   15.42    3.90
  -3  11   0   58.85    7.70
  -2  11   0    1.87    1.84
  -1  11   0    6.73    2.69
   0  11   0   24.76    3.73
   1  11   0   57.50    9.14
   2  11   0   93.77   12.18
   3  11   0   33.84    7.27
 -11  12   0   49.39    7.35
 -10  12   0   96.43   10.43
  -9  12   0    4.90    2.64
  -8  12   0    3.17    2.25
  -7  12   0    1.94    1.75
  -6  12   0    2.07    2.01
  -5  12   0   14.40    4.06
  -4  12   0   49.84    7.32
  -3  12   0   15.80    4.13
  -2  12   0  123.17    9.78
  -1  12   0    0.18    1.27
   0  12   0   -0.21    1.57
   1  12   0    0.08    2.27
 -12  13   0   -1.10    2.09
 -11  13   0   90.59   10.83
 -10  13   0   11.13    3.90
  -9  13   0   49.40    7.98
  -8  13   0    2.63    2.56
  -7  13   0   37.53    6.91
  -6  13   0   58.61    8.30
  -5  13   0  158.52   11.94
  -4  13   0    4.83    2.72
  -3  13   0   -0.55    1.66
  -2  13   0    6.39    3.12
  -1  13   0   21.15    3.93
 -12  14   0    2.73    2.92
 -11  14   0   41.96    7.71
 -10  14   0   15.36    4.96
  -9  14   0   30.94    6.54
  -8  14   0   -0.10    2.01
  -7  14   0    1.18    2.68
  -6  14   0   29.29    6.26
  -5  14   0    2.57    2.11
  -4  14   0    0.12    2.21
  -3  14   0    5.10    3.21
   7 -15   1   23.14    6.26
   8 -15   1   56.56    9.89
   9 -15   1    0.97    3.08
   3 -14   1   36.85    5.86
   4 -14   1   59.08    7.12
   5 -14   1    7.23    2.72
   6 -14   1   -0.89    1.75
   7 -14   1   13.50    3.11
   8 -14   1    2.38    1.99
   9 -14   1    3.80    2.21
  10 -14   1   15.14    3.67
  11 -14   1   42.49    5.82
  12 -14   1   12.51    4.45
   0 -13   1   10.15    3.87
   1 -13   1    7.23    2.21
   2 -13   1    9.57    2.17
   3 -13   1   32.99    5.12
   4 -13   1   21.73    3.97
   5 -13   1   -0.32    1.46
   6 -13   1    0.14    1.48
   7 -13   1   75.53    7.33
   8 -13   1   13.31    3.19
   9 -13   1   63.83    6.78
  10 -13   1    0.47    1.87
  11 -13   1    2.96    2.25
  12 -13   1    7.85    2.96
  13 -13   1   14.51    3.83
  -1 -12   1   10.99    2.97
   0 -12   1   84.75    6.39
   1 -12   1   34.36    3.97
   2 -12   1    1.47    1.28
   3 -12   1    9.78    2.08
   4 -12   1   93.67    5.46
   5 -12   1    1.41    1.52
   6 -12   1   15.50    3.20
   7 -12   1   11.67    2.92
   8 -12   1    7.84    2.62
   9 -12   1   12.09    2.81
  10 -12   1    0.04    1.49
  11 -12   1    3.39    1.90
  12 -12   1   84.28    7.90
  13 -12   1    4.83    2.50
  14 -12   1   64.01   10.20
  -3 -11   1   48.96    6.18
  -2 -11   1    0.50    1.82
  -1 -11   1    3.06    1.81
   0 -11   1   32.70    3.79
   1 -11   1   11.16    2.24
   2 -11   1   43.96    4.10
   3 -11   1   68.39    4.98
   4 -11   1   28.83    3.17
   5 -11   1  142.28    5.68
   6 -11   1    6.99    2.15
   7 -11   1    3.48    1.80
   8 -11   1   11.91    2.74
   9 -11   1  107.97    8.35
  10 -11   1   26.06    4.16
  11 -11   1   33.15    4.70
  12 -11   1   32.75    4.74
  13 -11   1    9.70    3.10
  14 -11   1   32.30    5.17
  -4 -10   1   20.22    4.18
  -3 -10   1    3.27    2.08
  -2 -10   1   -0.01    1.42
  -1 -10   1   22.15    3.07
   0 -10   1  116.59    5.85
   1 -10   1   27.56    3.11
   2 -10   1  168.23    6.30
   3 -10   1    1.87    1.10
   4 -10   1    6.38    1.51
   5 -10   1   45.20    3.64
   6 -10   1    7.32    1.54
   7 -10   1    3.55    1.62
   8 -10   1   27.95    3.94
   9 -10   1    2.07    1.51
  10 -10   1  130.79    7.37
  11 -10   1   18.39    3.41
  12 -10   1    1.71    1.69
  13 -10   1   34.19    4.96
  14 -10   1   82.67    7.93
  -5  -9   1    2.62    2.28
  -4  -9   1   80.29    7.58
  -3  -9   1   12.77    3.13
  -2  -9   1  109.25    7.31
  -1  -9   1    2.87    1.22
   0  -9   1    3.61    1.26
   1  -9   1   28.81    3.00
   2  -9   1   23.85    2.53
   3  -9   1    2.23    0.99
   4  -9   1   -0.88    0.59
   5  -9   1  195.49    6.22
   6  -9   1   47.65    3.49
   7  -9   1  217.22    6.52
   8  -9   1   12.68    2.49
   9  -9   1    4.65    1.70
  10  -9   1   37.32    4.67
  11  -9   1   36.14    4.66
  12  -9   1    5.90    2.22
  13  -9   1   13.37    3.25
  14  -9   1   11.63    3.15
  15  -9   1   74.22    9.21
  -7  -8   1   42.44   14.02
  -6  -8   1   -0.01    1.70
  -5  -8   1   11.03    2.96
  -4  -8   1    3.67    1.87
  -3  -8   1   10.89    2.69
  -2  -8   1   26.02    3.72
  -1  -8   1   13.65    2.04
   0  -8   1    8.88    1.66
   1  -8   1  207.42    6.53
   2  -8   1   39.83    3.11
   3  -8   1  250.41    6.79
   4  -8   1   62.84    3.49
   5  -8   1    2.59    0.94
   6  -8   1    0.48    0.67
   7  -8   1   38.19    3.04
   8  -8   1    9.85    1.61
   9  -8   1   39.12    4.30
  10  -8   1  156.82    7.65
  11  -8   1   65.35    6.13
  12  -8   1  108.06    8.21
  13  -8   1    0.91    1.57
  14  -8   1    0.54    1.72
  15  -8   1   16.90    3.94
  -7  -7   1   22.31    4.11
  -6  -7   1   68.04    6.96
  -5  -7   1   16.18    3.37
  -4  -7   1    1.80    1.46
  -3  -7   1    7.39    2.04
  -2  -7   1  213.39    8.61
  -1  -7   1   35.57    3.14
   0  -7   1  106.55    4.41
   1  -7   1  113.55    4.35
   2  -7   1   37.06    2.88
   3  -7   1  182.00    5.33
   4  -7   1    2.03    0.80
   5  -7   1    9.15    1.39
   6  -7   1  286.80    7.04
   7  -7   1  108.01    4.13
   8  -7   1  216.60    6.26
   9  -7   1   25.17    2.54
  10  -7   1    2.78    1.31
  11  -7   1   38.06    4.44
  12  -7   1   -0.34    1.15
  13  -7   1    2.73    1.92
  14  -7   1   13.72    3.39
  15  -7   1   50.90    6.39
  -8  -6   1   -1.11    1.97
  -7  -6   1    1.29    1.67
  -6  -6   1   26.77    4.17
  -5  -6   1    5.79    1.87
  -4  -6   1   10.56    2.50
  -3  -6   1   42.48    4.33
  -2  -6   1   -0.36    0.58
  -1  -6   1  294.17    7.54
   0  -6   1   32.75    2.66
   1  -6   1    5.83    1.10
   2  -6   1  179.17    5.09
   3  -6   1  336.82    7.35
   4  -6   1   58.34    2.81
   5  -6   1   27.75    2.24
   6  -6   1   27.12    2.30
   7  -6   1  116.87    4.12
   8  -6   1   44.57    3.15
   9  -6   1    1.95    0.95
  10  -6   1    5.30    1.34
  11  -6   1  143.45    5.82
  12  -6   1   22.77    3.70
  13  -6   1   85.67    7.55
  14  -6   1   -0.83    1.52
  15  -6   1   -1.04    2.49
  -9  -5   1   11.09    4.35
  -8  -5   1    0.73    2.12
  -7  -5   1    1.53    1.50
  -6  -5   1  134.76    7.22
  -5  -5   1   37.19    4.36
  -4  -5   1  197.13    8.19
  -3  -5   1    3.43    1.36
  -2  -5   1   10.01    1.92
  -1  -5   1   30.60    2.45
   0  -5   1  167.18    4.88
   1  -5   1   23.11    1.96
   2  -5   1   79.86    2.97
   3  -5   1   78.06    2.87
   4  -5   1  438.91    8.27
   5  -5   1  174.63    4.70
   6  -5   1    6.48    1.10
   7  -5   1   36.13    2.64
   8  -5   1  245.82    6.47
   9  -5   1   -0.17    0.61
  10  -5   1   40.46    3.37
  11  -5   1    6.79    1.56
  12  -5   1   16.11    3.10
  13  -5   1   12.17    2.93
  14  -5   1    2.48    1.97
 -10  -4   1   61.10    9.80
  -9  -4   1   14.25    4.49
  -8  -4   1  107.01   10.96
  -7  -4   1   33.05    4.21
  -6  -4   1    4.11    1.63
  -5  -4   1    0.42    0.73
  -4  -4   1   60.72    3.08
  -3  -4   1    1.95    0.66
  -2  -4   1   59.85    2.44
  -1  -4   1  433.76    6.50
   0  -4   1  189.90    4.83
   1  -4   1  449.11    8.18
   2  -4   1   12.05    1.25
   3  -4   1   11.86    1.25
   4  -4   1  202.06    4.75
   5  -4   1   24.26    1.88
   6  -4   1  184.85    4.85
   7  -4   1  177.27    5.03
   8  -4   1   55.85    3.24
   9  -4   1  214.02    6.34
  10  -4   1   11.09    1.80
  11  -4   1    2.90    1.20
  12  -4   1    3.83    1.46
  13  -4   1   79.36    7.31
  14  -4   1   13.80    3.62
 -11  -3   1   43.46    8.48
 -10  -3   1   30.85    6.81
  -9  -3   1    6.31    3.13
  -8  -3   1   81.04    9.20
  -7  -3   1    3.90    1.19
  -6  -3   1    1.66    0.82
  -5  -3   1  247.78    6.41
  -4  -3   1  176.37    4.87
  -3  -3   1  344.41    6.91
  -2  -3   1   81.59    2.98
  -1  -3   1    8.82    0.75
   0  -3   1  181.68    4.15
   1  -3   1   13.27    1.19
   2  -3   1   32.63    1.60
   3  -3   1  182.19    4.78
   4  -3   1  445.52    7.84
   5  -3   1   84.76    2.86
   6  -3   1  335.49    7.06
   7  -3   1    2.19    0.78
   8  -3   1    3.43    0.94
   9  -3   1   40.50    3.22
  10  -3   1    7.92    1.61
  11  -3   1    9.94    1.88
  12  -3   1   17.89    2.67
  13  -3   1    2.09    1.45
  14  -3   1   47.83    5.99
 -12  -2   1   64.60   10.21
 -11  -2   1   13.42    4.37
 -10  -2   1    2.33    2.68
  -9  -2   1   50.20    5.02
  -8  -2   1  164.85    7.02
  -7  -2   1   22.63    2.78
  -6  -2   1   36.25    2.84
  -5  -2   1   39.48    2.75
  -4  -2   1  185.35    4.76
  -3  -2   1   83.90    2.79
  -2  -2   1   11.64    1.08
  -1  -2   1   31.66    1.39
   0  -2   1  593.03    7.59
   1  -2   1  136.67    2.91
   2  -2   1  590.18    8.88
   3  -2   1   14.99    1.20
   4  -2   1   10.62    1.10
   5  -2   1   77.59    2.75
   6  -2   1   57.18    2.60
   7  -2   1   12.08    1.55
   8  -2   1   -0.01    0.63
   9  -2   1  221.00    6.73
  10  -2   1   32.46    3.26
  11  -2   1  115.48    5.68
  12  -2   1    0.07    1.02
  13  -2   1    1.34    1.41
  14  -2   1   13.63    5.76
 -12  -1   1    5.82    3.61
 -11  -1   1   41.70    4.83
 -10  -1   1   11.68    4.12
  -9  -1   1   38.00    4.16
  -8  -1   1   29.82    3.44
  -7  -1   1  202.39    7.29
  -6  -1   1  115.21    4.90
  -5  -1   1    7.87    1.19
  -4  -1   1   20.98    1.67
  -3  -1   1  451.91    7.75
  -2  -1   1   13.15    1.06
  -1  -1   1  139.62    2.87
   0  -1   1   45.61    1.16
   1  -1   1   45.24    1.42
   2  -1   1  138.13    3.32
   3  -1   1   32.06    1.45
   4  -1   1    8.00    1.04
   5  -1   1  433.32    8.20
   6  -1   1   34.26    2.51
   7  -1   1  295.97    7.26
   8  -1   1   32.29    2.88
   9  -1   1   12.47    1.95
  10  -1   1    1.02    1.04
  11  -1   1   24.48    3.12
  12  -1   1    1.12    1.32
  13  -1   1    8.75    2.22
 -13   0   1   13.30    4.49
 -12   0   1   81.63    6.84
 -11   0   1   30.68    4.14
 -10   0   1  124.15    6.53
  -9   0   1    3.83    1.37
  -8   0   1    8.70    1.84
  -7   0   1  103.01    4.79
  -6   0   1   35.68    3.13
  -5   0   1  167.70    5.48
  -4   0   1  197.59    5.55
  -3   0   1  181.08    3.78
  -2   0   1  593.55    8.63
  -1   0   1   47.48    1.27
   0   0   1    0.36    0.49
   1   0   1   47.97    1.43
   2   0   1  586.38    8.79
   3   0   1  180.05    4.78
   4   0   1  197.44    5.71
   5   0   1  170.44    5.78
   6   0   1   35.40    3.37
   7   0   1  112.01    5.32
   8   0   1   10.19    2.23
   9   0   1    3.87    1.59
  10   0   1  122.44    5.64
  11   0   1   30.42    3.33
  12   0   1   73.96    5.83
  13   0   1    7.26    2.74
 -13   1   1   18.09    5.22
 -12   1   1    0.84    2.07
 -11   1   1   21.71    3.48
 -10   1   1    0.41    1.05
  -9   1   1    9.97    2.08
  -8   1   1   43.07    3.91
  -7   1   1  298.24    8.42
  -6   1   1   32.43    2.76
  -5   1   1  432.38    9.59
  -4   1   1    8.56    1.23
  -3   1   1   35.42    1.70
  -2   1   1  136.80    3.23
  -1   1   1   45.78    1.54
   0   1   1   46.76    2.16
   1   1   1  140.42    3.47
   2   1   1   11.43    1.29
   3   1   1  435.55    9.73
   4   1   1   25.23    1.13
   5   1   1    3.68    1.15
   6   1   1  115.55    5.28
   7   1   1  226.66    8.26
   8   1   1   30.57    3.71
   9   1   1   27.04    3.82
  10   1   1   12.95    2.85
  11   1   1   32.34    3.81
  12   1   1    3.56    1.86
 -14   2   1   24.22    7.01
 -13   2   1    2.35    2.83
 -12   2   1    0.09    1.96
 -11   2   1  100.87    8.80
 -10   2   1   30.34    3.67
  -9   2   1  211.74    7.67
  -8   2   1    0.65    0.78
  -7   2   1   13.22    1.92
  -6   2   1   57.09    2.97
  -5   2   1   75.34    3.05
  -4   2   1   15.14    1.39
  -3   2   1   12.76    0.85
  -2   2   1  605.49   16.20
  -1   2   1  140.27    5.72
   2   2   1   12.93    1.32
   3   2   1   82.02    2.55
   4   2   1  187.40    4.20
   5   2   1   33.60    3.31
   6   2   1   45.97    4.26
   7   2   1   20.89    3.11
   8   2   1  158.92    7.67
   9   2   1   40.11    4.91
  10   2   1    0.19    1.28
  11   2   1    9.18    2.74
 -14   3   1   50.35    8.53
 -13   3   1    0.56    2.21
 -12   3   1   10.01    3.71
 -11   3   1   10.84    3.67
 -10   3   1    8.09    2.89
  -9   3   1   45.69    3.87
  -8   3   1    2.97    1.11
  -7   3   1    2.66    0.94
  -6   3   1  346.73    8.03
  -5   3   1   81.48    2.86
  -4   3   1  461.23   14.33
  -3   3   1  188.78    7.27
  -2   3   1   31.87    2.77
  -1   3   1   13.40    2.11
   1   3   1    7.84    1.54
   2   3   1   78.21    3.08
   3   3   1  339.44    7.93
   4   3   1  182.73    4.59
   5   3   1  247.36    8.58
   6   3   1    1.93    1.21
   7   3   1    2.04    1.32
   8   3   1   60.38    5.69
   9   3   1   10.34    2.78
  10   3   1   35.02    5.07
  11   3   1   35.62    5.46
 -14   4   1   14.35    4.68
 -13   4   1   75.92    9.78
 -12   4   1    3.50    2.57
 -11   4   1    4.06    2.40
 -10   4   1    6.26    2.47
  -9   4   1  196.83   11.18
  -8   4   1   57.72    2.82
  -7   4   1  179.34    5.95
  -6   4   1  178.54    5.81
  -5   4   1   24.50    3.37
  -4   4   1  187.46    8.26
  -3   4   1    8.21    1.80
  -2   4   1   11.58    1.51
  -1   4   1  459.82    9.77
   0   4   1  205.29    8.02
   1   4   1  431.25   13.23
   2   4   1   64.85    3.09
   3   4   1    2.18    0.84
   4   4   1   50.56    4.33
   5   4   1    2.04    1.31
   6   4   1    5.42    1.79
   7   4   1   30.20    4.19
   8   4   1  102.88    8.06
   9   4   1   11.33    3.01
  10   4   1   63.91    6.98
 -14   5   1    1.62    2.43
 -13   5   1   15.30    4.65
 -12   5   1    8.41    3.35
 -11   5   1    9.79    3.36
 -10   5   1   39.01    6.01
  -9   5   1   -0.61    0.95
  -8   5   1  259.41    7.78
  -7   5   1   39.66    3.33
  -6   5   1    5.60    1.27
  -5   5   1  170.26    5.75
  -4   5   1  451.21   10.18
  -3   5   1   76.38    3.39
  -2   5   1   85.44    3.53
  -1   5   1   24.72    2.26
   0   5   1  171.04    5.38
   1   5   1   33.87    3.77
   2   5   1   11.58    1.74
   3   5   1    2.99    1.08
   4   5   1  208.14   11.50
   5   5   1   39.14    4.42
   6   5   1  133.34    7.29
   7   5   1    1.06    1.48
   8   5   1    0.94    1.48
   9   5   1    6.41    2.88
 -14   6   1    1.08    2.35
 -13   6   1   81.66   10.53
 -12   6   1   23.52    5.37
 -11   6   1  124.04    9.77
 -10   6   1    3.55    2.32
  -9   6   1    2.70    1.16
  -8   6   1   35.42    3.32
  -7   6   1  114.65    4.99
  -6   6   1   28.72    2.90
  -5   6   1   32.22    2.98
  -4   6   1   58.83    3.17
  -3   6   1  338.03    8.56
  -2   6   1  176.30    5.61
  -1   6   1    6.31    1.21
   0   6   1   32.30    2.75
   1   6   1  291.79   11.49
   2   6   1    0.53    0.83
   3   6   1   36.87    3.41
   4   6   1   13.28    3.91
   5   6   1    6.84    2.21
   6   6   1   22.03    3.71
   7   6   1    1.21    1.52
   8   6   1    2.26    1.92
 -14   7   1   22.39    5.81
 -13   7   1   -0.04    1.84
 -12   7   1    1.87    2.12
 -11   7   1   24.24    5.32
 -10   7   1    5.66    1.79
  -9   7   1   28.31    3.21
  -8   7   1  207.42    7.52
  -7   7   1  101.83    4.93
  -6   7   1  283.49    8.59
  -5   7   1   10.92    1.77
  -4   7   1    3.08    1.01
  -3   7   1  176.45    5.84
  -2   7   1   41.65    2.72
  -1   7   1  115.61    4.57
   0   7   1  108.04    6.90
   1   7   1   33.19    4.48
   2   7   1  220.13    7.80
   3   7   1    8.91    3.06
   4   7   1    2.84    2.14
   5   7   1    8.78    2.56
   6   7   1   71.50    7.32
   7   7   1    9.69    3.00
   8   7   1   21.27    9.18
 -14   8   1    3.82    3.17
 -13   8   1   -0.35    1.76
 -12   8   1   80.62    9.91
 -11   8   1   85.21    9.88
 -10   8   1  157.03    6.99
  -9   8   1   30.81    3.57
  -8   8   1    7.34    1.72
  -7   8   1   42.71    3.87
  -6   8   1    0.81    0.80
  -5   8   1    1.79    0.82
  -4   8   1   63.52    3.72
  -3   8   1  260.83   11.95
  -2   8   1   51.92    6.35
  -1   8   1  223.62   11.00
   0   8   1    8.83    2.51
   1   8   1   11.63    2.21
   2   8   1   32.41    3.56
   3   8   1    9.55    3.54
   4   8   1    5.67    2.81
   5   8   1   11.52    3.09
   6   8   1    1.98    2.04
 -14   9   1    9.09    4.00
 -13   9   1   16.70    5.00
 -12   9   1    6.26    3.21
 -11   9   1   54.58    7.54
 -10   9   1   36.72    3.98
  -9   9   1    2.49    1.16
  -8   9   1    7.02    1.83
  -7   9   1  228.98    8.04
  -6   9   1   41.41    3.74
  -5   9   1  196.60   11.22
  -4   9   1    1.08    1.36
  -3   9   1    1.80    1.71
  -2   9   1   23.95    4.49
  -1   9   1   27.75    4.66
   0   9   1    4.13    1.98
   1   9   1    0.67    1.23
   2   9   1  116.09   12.22
   3   9   1   16.48    4.86
   4   9   1   82.87   11.21
   5   9   1    1.81    1.84
 -14  10   1   61.82    9.37
 -13  10   1   22.40    5.75
 -12  10   1   -0.70    1.91
 -11  10   1   16.23    2.90
 -10  10   1  130.37    6.68
  -9  10   1    1.15    1.18
  -8  10   1   27.17    3.40
  -7  10   1    5.37    2.58
  -6  10   1   10.75    3.50
  -5  10   1   33.24    5.47
  -4  10   1    3.80    2.14
  -3  10   1    1.04    1.52
  -2  10   1  166.68   10.55
  -1  10   1   32.93    5.40
   0  10   1  125.30    9.00
   1  10   1   25.22    3.76
   2  10   1    0.73    1.86
   3  10   1    1.43    2.56
   4  10   1   13.40    4.68
 -14  11   1   30.01    6.72
 -13  11   1    6.03    3.39
 -12  11   1   31.29    6.60
 -11  11   1   28.69    3.92
 -10  11   1   18.96    4.55
  -9  11   1  108.37    9.04
  -8  11   1   15.19    4.02
  -7  11   1    7.29    3.21
  -6  11   1    9.65    3.27
  -5  11   1  141.82   10.16
  -4  11   1   31.62    5.66
  -3  11   1   65.73    8.26
  -2  11   1   42.65    6.40
  -1  11   1   14.64    4.00
   0  11   1   38.51    4.77
   1  11   1    5.96    3.33
   2  11   1   -1.75    2.04
   3  11   1   41.43    8.49
 -14  12   1   74.76   11.31
 -12  12   1   85.00   10.00
 -11  12   1    5.17    2.92
 -10  12   1   -0.49    1.58
  -9  12   1   22.06    5.35
  -8  12   1   10.18    3.80
  -7  12   1   11.50    3.97
  -6  12   1   23.54    5.15
  -5  12   1   -0.45    1.53
  -4  12   1  101.90    8.97
  -3  12   1    5.11    2.50
  -2  12   1    0.29    1.77
  -1  12   1   32.20    6.09
   0  12   1   92.61   12.44
   1  12   1    4.86    3.64
 -12  13   1    6.62    3.57
 -11  13   1    0.01    2.22
 -10  13   1    3.86    2.76
  -9  13   1   90.56   10.77
  -8  13   1   10.18    3.94
  -7  13   1   69.56    9.38
  -6  13   1    1.55    2.20
  -5  13   1    0.35    2.21
  -4  13   1   10.82    3.67
  -3  13   1   32.39    6.48
  -2  13   1    7.91    3.69
  -1  13   1    8.54    2.70
 -12  14   1   27.35    6.45
 -11  14   1   58.27    9.00
 -10  14   1   23.11    6.00
  -9  14   1    5.01    3.44
  -8  14   1   -0.20    2.39
  -7  14   1   15.04    4.62
  -6  14   1    0.51    2.31
  -5  14   1    7.02    3.59
  -4  14   1   77.23   10.21
  -3  14   1   25.45    5.99
  -2  14   1   72.47    9.86
   3 -14   2   43.60    8.85
   4 -14   2    1.25    2.20
   5 -14   2    0.92    2.04
   6 -14   2   48.88    6.45
   7 -14   2    3.58    2.10
   8 -14   2    2.03    2.37
   9 -14   2   50.62    6.36
  10 -14   2   17.95    4.06
  11 -14   2   34.88   10.78
   1 -13   2    6.29    2.09
   2 -13   2    6.47    2.01
   3 -13   2    0.56    1.32
   4 -13   2   21.18    2.96
   5 -13   2   73.52    7.31
   6 -13   2   27.23    4.52
   7 -13   2   43.97    5.83
   8 -13   2   29.02    4.71
   9 -13   2   48.34    6.14
  10 -13   2    4.37    2.22
  11 -13   2   45.53    6.05
  12 -13   2   -1.92    2.69
  -1 -12   2    2.66    2.30
   0 -12   2   26.93    4.14
   1 -12   2    1.13    1.38
   2 -12   2  108.40    6.93
   3 -12   2    6.67    1.81
   4 -12   2   31.71    3.59
   5 -12   2    2.40    1.38
   6 -12   2   35.13    3.70
   7 -12   2    2.71    1.74
   8 -12   2    3.75    1.85
   9 -12   2   27.95    4.51
  10 -12   2   19.07    3.77
  11 -12   2   74.12    7.29
  12 -12   2   24.36    4.53
  13 -12   2   10.21    4.83
  -2 -11   2   52.51    6.43
  -1 -11   2   83.57    7.74
   0 -11   2   18.34    2.93
   1 -11   2    9.27    2.16
   2 -11   2    5.14    1.49
   3 -11   2   29.09    3.31
   4 -11   2   57.76    4.59
   5 -11   2   49.72    4.16
   6 -11   2    1.72    1.09
   7 -11   2  341.07    9.65
   8 -11   2    2.95    1.55
   9 -11   2   44.66    5.41
  10 -11   2    0.00    1.39
  11 -11   2   18.79    3.64
  12 -11   2   -0.11    1.75
  13 -11   2    3.55    3.31
  -4 -10   2   17.91    4.24
  -3 -10   2    2.96    2.19
  -2 -10   2   15.06    3.22
  -1 -10   2    4.31    2.16
   0 -10   2   82.61    5.69
   1 -10   2   24.24    3.09
   2 -10   2   27.02    3.03
   3 -10   2   96.97    4.95
   4 -10   2   65.80    4.50
   5 -10   2   37.23    3.48
   6 -10   2    4.69    1.32
   7 -10   2    5.32    1.42
   8 -10   2   84.88    5.38
   9 -10   2   13.40    2.90
  10 -10   2   97.14    7.68
  11 -10   2    7.31    2.35
  12 -10   2  113.09    8.89
  13 -10   2   -1.31    1.49
  14 -10   2    3.20    3.22
  -5  -9   2   36.52    5.49
  -4  -9   2   37.55    5.28
  -3  -9   2   30.34    4.56
  -2  -9   2   41.10    5.02
  -1  -9   2   16.51    3.23
   0  -9   2   66.57    4.90
   1  -9   2    4.17    1.29
   2  -9   2    6.49    1.52
   3  -9   2  151.05    5.59
   4  -9   2   38.99    3.39
   5  -9   2   56.82    3.94
   6  -9   2   56.72    4.02
   7  -9   2   56.09    4.10
   8  -9   2   98.74    4.75
   9  -9   2   79.80    5.03
  10  -9   2   30.35    4.07
  11  -9   2    2.36    1.53
  12  -9   2    6.74    2.35
  13  -9   2   25.88    4.28
  14  -9   2    1.62    2.84
  -6  -8   2    1.96    1.89
  -5  -8   2   25.39    4.30
  -4  -8   2    3.55    2.02
  -3  -8   2    1.64    1.59
  -2  -8   2   74.38    6.46
  -1  -8   2   92.20    5.15
   0  -8   2  101.24    4.91
   1  -8   2   16.78    2.19
   2  -8   2   26.75    2.70
   3  -8   2  126.87    4.82
   4  -8   2   22.70    2.42
   5  -8   2   42.86    3.34
   6  -8   2   23.57    2.52
   7  -8   2   43.95    3.50
   8  -8   2  114.05    4.77
   9  -8   2    3.43    1.24
  10  -8   2   26.52    2.87
  11  -8   2   31.48    4.23
  12  -8   2   29.53    4.30
  13  -8   2   77.92    7.22
  14  -8   2   49.14    8.74
  -7  -7   2    4.88    2.62
  -6  -7   2   44.68    5.56
  -5  -7   2    7.25    2.34
  -4  -7   2  348.98   12.78
  -3  -7   2    3.71    1.60
  -2  -7   2   48.82    4.99
  -1  -7   2   54.55    4.02
   0  -7   2   60.81    4.10
   1  -7   2    6.10    1.30
   2  -7   2   26.24    2.48
   3  -7   2   96.36    3.92
   4  -7   2  165.43    5.20
   5  -7   2  198.61    5.82
   6  -7   2  111.31    4.30
   7  -7   2   69.20    4.17
   8  -7   2   18.45    2.16
   9  -7   2    5.76    1.52
  10  -7   2  103.61    4.69
  11  -7   2   59.84    4.47
  12  -7   2    2.21    1.58
  13  -7   2   20.42    3.61
  14  -7   2    4.84    3.36
  -8  -6   2   53.97    9.19
  -7  -6   2   24.33    4.25
  -6  -6   2   40.95    4.97
  -5  -6   2    1.29    1.27
  -4  -6   2    4.93    1.85
  -3  -6   2   63.55    5.68
  -2  -6   2   21.12    3.34
  -1  -6   2  107.13    4.40
   0  -6   2   19.13    2.14
   1  -6   2  349.09    8.12
   2  -6   2    3.47    1.00
   3  -6   2  140.69    4.43
   4  -6   2   10.55    1.41
   5  -6   2  176.64    5.25
   6  -6   2   24.05    2.30
   7  -6   2    7.11    1.33
   8  -6   2   31.49    2.81
   9  -6   2  146.85    5.33
  10  -6   2   71.95    4.62
  11  -6   2   61.32    4.42
  12  -6   2   41.62    3.95
  13  -6   2   45.07    5.34
  14  -6   2    0.10    2.71
  -9  -5   2    2.07    2.92
  -8  -5   2   79.26   10.61
  -7  -5   2    3.66    1.85
  -6  -5   2   67.65    6.23
  -5  -5   2   31.38    4.05
  -4  -5   2   76.28    6.13
  -3  -5   2   33.57    3.71
  -2  -5   2  191.22    7.48
  -1  -5   2  180.41    6.92
   0  -5   2    2.76    0.87
   1  -5   2   52.61    1.86
   2  -5   2   65.25    2.77
   3  -5   2    9.13    1.17
   4  -5   2   53.65    2.64
   5  -5   2    3.55    0.91
   6  -5   2  348.23    7.77
   7  -5   2   27.06    2.41
   8  -5   2  121.55    4.53
   9  -5   2   42.99    3.42
  10  -5   2   34.45    3.21
  11  -5   2    2.02    1.14
  12  -5   2    3.45    1.40
  13  -5   2   26.87    3.40
  14  -5   2   48.01    8.74
 -10  -4   2    6.34    4.04
  -9  -4   2   22.45    5.43
  -8  -4   2   30.16    6.32
  -7  -4   2   58.11    5.66
  -6  -4   2   66.93    5.82
  -5  -4   2   48.62    4.81
  -4  -4   2   26.49    3.33
  -3  -4   2  166.44    4.61
  -2  -4   2   11.04    1.26
  -1  -4   2   62.23    2.37
   0  -4   2  129.86    3.00
   1  -4   2  236.28    5.49
   2  -4   2  300.69    6.20
   3  -4   2  146.53    4.03
   4  -4   2  124.86    3.73
   5  -4   2   49.86    2.44
   6  -4   2    3.76    0.97
   7  -4   2   95.31    3.72
   8  -4   2   25.12    2.39
   9  -4   2   65.25    4.20
  10  -4   2    7.00    1.59
  11  -4   2  336.33    9.63
  12  -4   2    2.19    1.38
  13  -4   2   39.98    4.20
  14  -4   2   11.30    4.59
 -11  -3   2   20.68    6.28
 -10  -3   2    3.55    3.06
  -9  -3   2    4.99    2.95
  -8  -3   2   34.64    6.12
  -7  -3   2   97.64    6.39
  -6  -3   2  145.86    5.16
  -5  -3   2  127.11    4.41
  -4  -3   2   94.18    3.56
  -3  -3   2  138.26    4.06
  -2  -3   2   11.08    1.18
  -1  -3   2  151.30    3.87
   0  -3   2   47.05    1.75
   1  -3   2   56.48    2.14
   2  -3   2  281.07    5.53
   3  -3   2   46.33    2.04
   4  -3   2  240.01    5.27
   5  -3   2   68.64    2.66
   6  -3   2  143.80    4.32
   7  -3   2  153.63    4.87
   8  -3   2   44.41    3.21
   9  -3   2   55.50    3.96
  10  -3   2    6.19    1.48
  11  -3   2    2.24    1.18
  12  -3   2   17.85    2.56
  13  -3   2    1.79    1.35
  14  -3   2   29.86    6.96
 -11  -2   2    2.80    3.16
 -10  -2   2  113.86   12.12
  -9  -2   2    2.00    2.45
  -8  -2   2   35.34    3.81
  -7  -2   2    7.87    1.79
  -6  -2   2   36.39    2.94
  -5  -2   2   23.22    2.16
  -4  -2   2    4.32    0.89
  -3  -2   2   66.91    2.61
  -2  -2   2  301.25    6.02
  -1  -2   2  278.76    5.64
   0  -2   2  433.96    7.67
   1  -2   2  195.87    3.81
   2  -2   2  432.03    7.10
   3  -2   2   60.80    2.07
   4  -2   2  297.22    5.93
   5  -2   2   12.04    1.38
   6  -2   2    8.10    1.26
   7  -2   2  199.01    5.68
   8  -2   2   25.55    2.47
   9  -2   2   51.82    3.83
  10  -2   2   86.16    5.40
  11  -2   2   41.43    3.92
  12  -2   2   20.14    2.90
  13  -2   2   56.27    5.18
 -11  -1   2   -2.25    2.10
 -10  -1   2   11.84    2.51
  -9  -1   2   28.16    3.69
  -8  -1   2    5.45    1.62
  -7  -1   2   17.80    2.52
  -6  -1   2    7.82    1.69
  -5  -1   2  363.22    7.62
  -4  -1   2   51.86    2.28
  -3  -1   2  250.88    5.28
  -2  -1   2   60.43    2.20
  -1  -1   2  189.77    4.11
   0  -1   2   49.16    1.84
   1  -1   2   46.46    2.12
   2  -1   2  188.53    3.58
   3  -1   2  287.46    5.34
   4  -1   2  149.49    4.59
   5  -1   2   56.18    2.49
   6  -1   2  189.99    5.30
   7  -1   2  112.58    4.27
   8  -1   2   47.87    3.61
   9  -1   2   93.38    4.71
  10  -1   2   12.00    2.06
  11  -1   2    4.82    1.54
  12  -1   2   67.51    5.22
  13  -1   2    0.69    1.36
 -12   0   2   28.50    6.20
 -11   0   2   27.60    5.79
 -10   0   2   98.32    5.93
  -9   0   2   70.04    5.59
  -8   0   2  114.45    5.55
  -7   0   2   65.03    4.25
  -6   0   2   18.27    2.32
  -5   0   2    4.64    1.12
  -4   0   2  128.42    4.57
  -3   0   2   45.19    1.80
  -2   0   2  448.91    7.18
  -1   0   2   42.58    1.49
   0   0   2  955.96   15.61
   1   0   2   47.30    2.02
   2   0   2  431.35    6.99
   3   0   2   51.59    1.95
   4   0   2  124.61    3.64
   5   0   2    3.30    0.83
   6   0   2   19.17    2.03
   7   0   2   67.68    3.79
   8   0   2  103.34    4.63
   9   0   2   69.68    4.87
  10   0   2   86.19    5.74
  11   0   2   23.04    3.22
  12   0   2   21.71    3.21
 -13   1   2    2.72    2.80
 -12   1   2   72.84    9.50
 -11   1   2   12.60    3.90
 -10   1   2   17.12    4.29
  -9   1   2   95.69    5.16
  -8   1   2   39.61    3.79
  -7   1   2  121.48    5.11
  -6   1   2  186.83    6.15
  -5   1   2   62.60    3.10
  -4   1   2  153.84    4.76
  -3   1   2  285.77    6.76
  -2   1   2  187.31    5.02
  -1   1   2   46.70    2.36
   0   1   2   48.19    1.76
   1   1   2  184.87    4.72
   2   1   2   62.52    2.13
   3   1   2  253.12    5.44
   4   1   2   46.82    2.54
   5   1   2  348.97    9.56
   6   1   2    7.95    1.77
   7   1   2   16.36    2.13
   8   1   2    1.54    1.02
   9   1   2   20.43    2.77
  10   1   2    9.32    2.07
  11   1   2   -0.93    1.04
  12   1   2    6.61    2.07
 -13   2   2   49.67    8.28
 -12   2   2   22.92    5.28
 -11   2   2   34.51    6.40
 -10   2   2   85.24    9.10
  -9   2   2   69.09    8.14
  -8   2   2   26.78    2.92
  -7   2   2  200.13    6.47
  -6   2   2   10.99    1.63
  -5   2   2   14.86    1.74
  -4   2   2  298.07    6.87
  -3   2   2   63.82    2.40
  -2   2   2  440.52    8.93
  -1   2   2  187.93    4.94
   0   2   2  434.29   12.16
   1   2   2  278.92    6.74
   2   2   2  297.19    7.30
   3   2   2   64.55    3.23
   4   2   2    3.70    1.14
   5   2   2   24.20    2.91
   6   2   2   29.53    3.23
   7   2   2    5.51    1.82
   8   2   2   33.46    4.12
   9   2   2    4.17    1.52
  10   2   2  111.01    6.54
  11   2   2    2.32    1.59
 -14   3   2   32.45    8.00
 -13   3   2    0.03    2.11
 -12   3   2   31.00    6.41
 -11   3   2    3.89    2.62
 -10   3   2    6.18    2.73
  -9   3   2   51.91    7.11
  -8   3   2   44.32    6.28
  -7   3   2  157.64    5.36
  -6   3   2  137.58    4.41
  -5   3   2   68.91    2.48
  -4   3   2  244.66    5.29
  -3   3   2   45.88    4.15
  -2   3   2  281.91    6.26
  -1   3   2   64.71    2.62
   2   3   2   12.49    1.75
   3   3   2  131.93    5.33
   4   3   2  105.32    3.52
   5   3   2  118.02    5.74
   6   3   2  147.44    6.88
   7   3   2   97.13    6.37
   8   3   2   28.67    4.07
   9   3   2    6.31    2.40
  10   3   2    1.25    1.37
  11   3   2   36.37    7.98
 -14   4   2   20.83    5.76
 -13   4   2   52.88    8.89
 -12   4   2   -0.63    2.05
 -11   4   2  332.34   17.17
 -10   4   2    7.98    3.32
  -9   4   2   55.90    7.10
  -8   4   2   23.10    4.24
  -7   4   2   95.09    7.06
  -6   4   2    2.32    1.60
  -5   4   2   48.08    5.59
  -4   4   2  133.37    7.45
  -3   4   2  151.68    8.00
  -2   4   2  297.21    6.76
  -1   4   2  225.94   10.24
   2   4   2   10.17    1.61
   3   4   2  160.25    4.78
   4   4   2   28.80    3.40
   5   4   2   39.39    4.30
   6   4   2   66.68    5.83
   7   4   2   54.07    5.64
   8   4   2   31.66    4.53
   9   4   2   20.88    3.87
  10   4   2    6.82    2.17
 -14   5   2   53.15    9.27
 -13   5   2   33.34    6.95
 -12   5   2    4.19    2.76
 -11   5   2    1.19    1.70
 -10   5   2   31.20    5.89
  -9   5   2   46.27    4.10
  -8   5   2  128.10    8.96
  -7   5   2   22.19    4.04
  -6   5   2  362.77   14.80
  -5   5   2    5.29    1.97
  -4   5   2   50.80    4.63
  -3   5   2   15.13    1.29
  -2   5   2   73.85    5.38
  -1   5   2   48.79    5.41
   0   5   2    2.73    1.68
   1   5   2  183.83    8.58
   2   5   2  195.15    6.65
   3   5   2   43.71    3.63
   4   5   2   59.69    5.25
   5   5   2   39.25    4.56
   6   5   2   47.59    5.24
   7   5   2    2.53    1.65
   8   5   2   58.42    6.41
   9   5   2    0.52    2.05
 -14   6   2    3.74    3.19
 -13   6   2   55.24    8.85
 -12   6   2   33.67    6.48
 -11   6   2   46.15    7.34
 -10   6   2   42.71    6.55
  -9   6   2  141.54    6.48
  -8   6   2   24.77    3.11
  -7   6   2   12.00    3.44
  -6   6   2   17.19    3.80
  -5   6   2  181.55    9.61
  -4   6   2   10.66    2.69
  -3   6   2  134.16    7.79
  -2   6   2    5.07    1.35
  -1   6   2  360.23    9.78
   0   6   2   21.28    2.55
   1   6   2  112.42    6.87
   2   6   2   27.36    3.04
   3   6   2   47.07    6.59
   4   6   2    6.85    2.05
   5   6   2    0.58    1.19
   6   6   2   34.50    4.86
   7   6   2   22.05    4.30
   8   6   2   59.43    6.54
 -14   7   2    0.33    2.72
 -13   7   2   16.27    4.90
 -12   7   2    4.27    2.76
 -11   7   2   50.51    7.80
 -10   7   2   97.73    6.03
  -9   7   2    6.08    1.64
  -8   7   2   16.71    2.61
  -7   7   2   76.49    6.43
  -6   7   2   99.50    5.24
  -5   7   2  195.69    7.31
  -4   7   2  160.81    6.38
  -3   7   2   97.62    4.80
  -2   7   2   22.28    2.72
  -1   7   2    9.96    1.84
   0   7   2   69.84    4.02
   1   7   2   58.53    6.27
   2   7   2   66.23    5.11
   3   7   2    6.92    2.94
   4   7   2  344.82   12.72
   5   7   2    5.76    2.20
   6   7   2   53.95    6.23
   7   7   2    1.89    2.10
 -14   8   2   51.81    9.21
 -13   8   2   84.06   11.07
 -12   8   2   33.22    6.60
 -11   8   2   37.86    7.08
 -10   8   2   33.96    4.10
  -9   8   2    4.19    1.47
  -8   8   2  108.07    5.81
  -7   8   2   51.19    4.57
  -6   8   2   20.31    2.91
  -5   8   2   47.80    4.32
  -4   8   2   18.15    2.59
  -3   8   2  123.34    5.57
  -2   8   2   23.21    2.81
  -1   8   2   17.31    3.61
   0   8   2  108.59    7.69
   1   8   2   89.38    5.72
   2   8   2   88.19    9.87
   3   8   2    3.97    2.72
   4   8   2    3.56    1.85
   5   8   2   25.87    4.58
   6   8   2    6.18    2.68
 -14   9   2    2.01    3.00
 -13   9   2   18.46    5.28
 -12   9   2    2.99    2.77
 -11   9   2    5.67    1.92
 -10   9   2   27.47    3.80
  -9   9   2   71.12    5.91
  -8   9   2   93.79    5.56
  -7   9   2   55.93    4.88
  -6   9   2   57.88    4.94
  -5   9   2   61.54    4.38
  -4   9   2   47.06    6.58
  -3   9   2  154.02    9.94
  -2   9   2    4.52    2.22
  -1   9   2    3.93    2.04
   0   9   2   83.45    7.12
   1   9   2   10.27    2.41
   2   9   2   53.65    8.36
   3   9   2   27.57    6.67
   4   9   2   25.89    4.66
   5   9   2   35.17    5.39
 -14  10   2    5.48    3.98
 -13  10   2    0.45    2.35
 -12  10   2  135.77   11.42
 -11  10   2    8.23    2.44
 -10  10   2   92.89    6.58
  -9  10   2   20.50    3.43
  -8  10   2   85.19    5.87
  -7  10   2    7.18    1.83
  -6  10   2    4.00    2.15
  -5  10   2   51.32    7.14
  -4  10   2   70.53    8.26
  -3  10   2   91.77    9.75
  -2  10   2   30.25    5.39
  -1  10   2   26.72    5.08
   0  10   2  102.12    8.32
   1  10   2   10.91    4.28
   2  10   2   17.66    5.13
   3  10   2    7.35    3.67
   4  10   2   13.67    3.52
 -14  11   2   30.20    7.28
 -13  11   2    5.85    3.70
 -12  11   2    2.84    2.65
 -11  11   2   27.43    3.94
 -10  11   2    8.67    2.37
  -9  11   2   48.26    7.58
  -8  11   2    1.07    1.88
  -7  11   2  341.06   17.38
  -6  11   2    2.52    2.15
  -5  11   2   50.73    7.55
  -4  11   2   54.10    7.72
  -3  11   2   34.10    6.51
  -2  11   2    4.32    2.53
  -1  11   2    9.78    3.57
   0  11   2   19.18    3.28
   1  11   2   62.56    9.62
   2  11   2   43.61    8.81
   3  11   2   35.18   12.20
 -13  12   2   19.25    5.85
 -12  12   2   16.95    5.01
 -11  12   2   47.65    7.97
 -10  12   2   15.97    4.73
  -9  12   2   22.17    5.42
  -8  12   2    2.87    2.53
  -7  12   2    2.19    2.23
  -6  12   2   38.12    6.94
  -5  12   2    3.27    2.38
  -4  12   2   21.48    5.04
  -3  12   2    3.52    2.35
  -2  12   2  115.18   10.10
  -1  12   2   -0.71    1.93
   0  12   2   18.53    5.68
   1  12   2   -1.21    2.79
 -12  13   2    1.28    2.86
 -11  13   2   57.94    8.95
 -10  13   2    1.38    2.59
  -9  13   2   36.22    7.18
  -8  13   2   33.38    6.82
  -7  13   2   63.68    9.12
  -6  13   2   25.71    6.09
  -5  13   2   99.17   11.44
  -4  13   2   22.83    5.84
  -3  13   2   -0.45    1.87
  -2  13   2    6.52    3.60
  -1  13   2    9.45    4.75
 -11  14   2   45.59    8.77
 -10  14   2    7.65    3.82
  -9  14   2   60.50    9.57
  -8  14   2    4.53    3.11
  -7  14   2    3.59    3.39
  -6  14   2   50.81    8.72
  -5  14   2    0.65    2.43
  -4  14   2    0.66    2.46
  -3  14   2   31.41    6.93
   4 -14   3   36.55    7.33
   6 -14   3   15.25    6.87
   7 -14   3   19.35    7.56
   8 -14   3   -1.60    4.91
   2 -13   3    8.08    2.25
   3 -13   3   26.76    3.69
   4 -13   3   20.12    3.20
   5 -13   3   -0.57    1.69
   6 -13   3    2.17    1.81
   7 -13   3   88.19   12.83
   8 -13   3   18.65    6.00
   9 -13   3   73.20   11.51
  10 -13   3   -0.58    2.43
  11 -13   3    1.98    3.37
   0 -12   3   60.23    6.72
   1 -12   3   17.22    3.79
   2 -12   3   11.56    2.52
   3 -12   3    6.79    1.91
   4 -12   3   91.00    6.11
   5 -12   3    1.35    1.20
   6 -12   3   16.93    3.33
   7 -12   3   14.70    3.20
   8 -12   3   13.50    3.62
   9 -12   3   15.19    5.30
  10 -12   3    3.02    2.89
  11 -12   3   17.27    6.24
  12 -12   3   69.50   11.32
  -2 -11   3    1.01    2.03
  -1 -11   3    7.73    2.83
   0 -11   3   28.97    4.83
   1 -11   3    2.72    1.56
   2 -11   3   31.08    3.70
   3 -11   3   36.66    3.74
   4 -11   3   16.86    2.54
   5 -11   3   91.49    5.41
   6 -11   3   15.67    2.38
   7 -11   3    2.87    1.71
   8 -11   3   13.40    2.94
   9 -11   3  104.06    8.05
  10 -11   3   21.20    5.96
  11 -11   3   14.36    5.01
  12 -11   3   12.27    4.66
  13 -11   3    0.34    3.54
  -4 -10   3   16.59    6.86
  -3 -10   3    3.46    2.19
  -2 -10   3    0.58    1.87
  -1 -10   3   18.75    3.65
   0 -10   3  107.77    8.46
   1 -10   3   33.75    3.63
   2 -10   3  128.48    6.02
   3 -10   3    4.81    1.52
   4 -10   3    1.09    0.98
   5 -10   3   18.76    2.56
   6 -10   3   19.90    2.57
   7 -10   3   12.62    2.25
   8 -10   3   26.93    3.91
   9 -10   3    0.58    1.23
  10 -10   3  110.72    7.43
  11 -10   3    3.72    2.62
  12 -10   3   10.50    4.42
  13 -10   3   20.95    6.04
  -5  -9   3    0.14    3.53
  -4  -9   3   56.06    6.58
  -3  -9   3   15.76    3.53
  -2  -9   3  107.36    8.59
  -1  -9   3    0.46    1.29
   0  -9   3   -0.22    1.19
   1  -9   3   39.66    3.77
   2  -9   3   18.84    2.50
   3  -9   3    2.15    1.05
   4  -9   3    3.60    1.28
   5  -9   3  212.08    6.82
   6  -9   3   43.88    3.65
   7  -9   3  115.93    5.09
   8  -9   3    0.67    1.18
   9  -9   3    1.82    1.48
  10  -9   3   33.56    4.43
  11  -9   3   28.93    4.17
  12  -9   3    2.34    2.67
  13  -9   3   20.75    5.95
  -6  -8   3    2.13    2.79
  -5  -8   3    7.25    2.60
  -4  -8   3    6.91    2.48
  -3  -8   3   11.84    2.91
  -2  -8   3   18.11    3.49
  -1  -8   3    0.20    1.23
   0  -8   3    1.74    1.09
   1  -8   3  207.37    6.78
   2  -8   3   64.86    4.42
   3  -8   3  250.83    7.21
   4  -8   3   49.57    3.59
   5  -8   3   10.24    1.72
   6  -8   3    0.07    0.78
   7  -8   3   29.62    2.89
   8  -8   3    6.13    1.94
   9  -8   3   34.04    4.16
  10  -8   3  125.81    6.98
  11  -8   3   32.37    4.25
  12  -8   3   90.20    7.52
  13  -8   3    1.36    2.26
  -7  -7   3   16.21    4.26
  -6  -7   3   96.73    8.60
  -5  -7   3   14.31    3.22
  -4  -7   3    3.28    1.85
  -3  -7   3   13.10    2.95
  -2  -7   3  120.62    7.31
  -1  -7   3   32.49    4.14
   0  -7   3   76.25    4.32
   1  -7   3   72.65    4.03
   2  -7   3   22.63    2.47
   3  -7   3   93.21    3.97
   4  -7   3   20.02    2.25
   5  -7   3    7.89    1.48
   6  -7   3  263.31    7.28
   7  -7   3   87.80    4.17
   8  -7   3  212.33    6.92
   9  -7   3   21.50    3.40
  10  -7   3    3.67    1.57
  11  -7   3   23.04    3.54
  12  -7   3    2.18    1.86
  13  -7   3    1.91    1.83
  14  -7   3    8.18    4.65
  -8  -6   3    8.27    4.36
  -7  -6   3    0.26    1.88
  -6  -6   3   21.78    4.04
  -5  -6   3    8.63    2.55
  -4  -6   3   14.09    2.92
  -3  -6   3   41.40    4.70
  -2  -6   3    0.78    1.16
  -1  -6   3  272.76    9.73
   0  -6   3   41.00    3.20
   1  -6   3   24.03    2.37
   2  -6   3   68.81    3.54
   3  -6   3  263.77    6.60
   4  -6   3   62.39    3.26
   5  -6   3   46.78    2.90
   6  -6   3   38.19    3.01
   7  -6   3   75.26    3.89
   8  -6   3   49.34    3.63
   9  -6   3    2.30    1.34
  10  -6   3    2.05    1.24
  11  -6   3   99.17    7.65
  12  -6   3   16.73    3.36
  13  -6   3   78.55    7.43
  14  -6   3    1.40    4.96
  -9  -5   3   11.47    4.83
  -8  -5   3    1.24    2.47
  -7  -5   3    2.68    1.77
  -6  -5   3   92.71    7.29
  -5  -5   3   26.32    3.54
  -4  -5   3  195.41    8.54
  -3  -5   3   10.94    2.29
  -2  -5   3    7.71    1.85
  -1  -5   3   59.65    4.93
   0  -5   3  120.23    5.64
   1  -5   3   23.41    1.78
   2  -5   3   83.80    3.26
   3  -5   3   41.84    2.47
   4  -5   3  281.98    6.61
   5  -5   3  127.63    4.18
   6  -5   3   23.81    2.25
   7  -5   3   22.69    2.25
   8  -5   3  218.42    6.52
   9  -5   3    3.84    1.47
  10  -5   3   27.00    3.80
  11  -5   3   25.85    3.94
  12  -5   3   13.01    2.81
  13  -5   3   12.24    3.19
  14  -5   3    2.71    2.93
 -10  -4   3   57.55    9.69
  -9  -4   3   16.41    5.22
  -8  -4   3  103.90   11.73
  -7  -4   3   23.77    3.97
  -6  -4   3    4.97    1.80
  -5  -4   3    7.15    2.04
  -4  -4   3   51.26    4.65
  -3  -4   3   17.81    2.81
  -2  -4   3   65.52    3.20
  -1  -4   3  269.68    6.44
   0  -4   3  141.35    4.36
   1  -4   3  371.46    6.50
   2  -4   3    6.77    1.03
   3  -4   3   25.11    1.70
   4  -4   3  148.08    4.13
   5  -4   3   21.32    1.92
   6  -4   3   66.35    3.16
   7  -4   3   96.64    3.86
   8  -4   3   46.40    3.32
   9  -4   3  215.19    8.58
  10  -4   3   19.60    3.22
  11  -4   3    3.60    1.77
  12  -4   3    7.36    2.46
  13  -4   3   58.78    6.36
  14  -4   3    2.77    3.10
 -10  -3   3   30.43    7.01
  -9  -3   3    6.05    3.46
  -8  -3   3   36.58    6.63
  -7  -3   3    3.71    1.74
  -6  -3   3    2.06    1.31
  -5  -3   3  225.57    6.43
  -4  -3   3   96.67    3.77
  -3  -3   3  248.77    6.23
  -2  -3   3   40.37    2.76
  -1  -3   3   25.48    2.13
   0  -3   3   80.36    3.15
   1  -3   3   20.74    2.36
   2  -3   3   64.83    2.23
   3  -3   3   83.87    2.62
   4  -3   3  376.90    7.25
   5  -3   3   88.72    3.11
   6  -3   3  254.39    6.22
   7  -3   3   23.40    2.30
   8  -3   3   12.25    1.82
   9  -3   3   46.35    3.92
  10  -3   3   15.34    2.99
  11  -3   3   18.86    3.35
  12  -3   3   10.68    2.85
  13  -3   3    5.52    2.47
 -10  -2   3   16.66    4.91
  -9  -2   3   34.41    6.54
  -8  -2   3  141.87   10.33
  -7  -2   3   26.16    3.36
  -6  -2   3   56.35    3.44
  -5  -2   3   22.77    2.16
  -4  -2   3   68.42    3.23
  -3  -2   3   81.44    3.17
  -2  -2   3    4.03    0.87
  -1  -2   3   68.59    2.77
   0  -2   3  391.64    7.60
   1  -2   3   76.68    3.42
   2  -2   3  362.92    8.95
   3  -2   3   21.75    1.22
   4  -2   3    5.55    0.90
   5  -2   3   44.30    2.41
   6  -2   3   63.31    3.02
   7  -2   3    6.64    1.28
   8  -2   3    1.36    0.80
   9  -2   3  121.52    5.16
  10  -2   3   30.30    4.22
  11  -2   3   74.55    6.85
  12  -2   3    2.67    1.94
  13  -2   3    3.85    2.33
  -9  -1   3   35.17    4.30
  -8  -1   3   37.99    4.18
  -7  -1   3  207.41    7.92
  -6  -1   3   73.17    4.75
  -5  -1   3   25.08    2.21
  -4  -1   3   20.94    1.88
  -3  -1   3  378.75    7.42
  -2  -1   3   22.73    1.78
  -1  -1   3   74.57    2.66
   0  -1   3   54.39    2.26
   1  -1   3   59.88    2.72
   2  -1   3   75.96    3.32
   3  -1   3   70.44    2.16
   4  -1   3   27.11    1.92
   5  -1   3  275.80    6.39
   6  -1   3   54.12    3.05
   7  -1   3  267.32    7.21
   8  -1   3   29.66    2.87
   9  -1   3    0.65    0.91
  10  -1   3   -0.05    1.07
  11  -1   3   13.37    2.77
  12  -1   3   10.66    3.00
 -11   0   3   38.28    6.87
 -10   0   3  112.76    9.40
  -9   0   3    1.54    1.49
  -8   0   3    2.30    1.29
  -7   0   3   87.33    4.79
  -6   0   3   38.28    3.58
  -5   0   3  134.26    5.42
  -4   0   3  146.80    5.47
  -3   0   3   90.40    2.73
  -2   0   3  378.08    6.65
  -1   0   3   57.70    1.93
   0   0   3    0.46    0.38
   1   0   3   54.17    2.48
   2   0   3  373.49    6.28
   3   0   3   86.02    2.69
   4   0   3  145.80    4.06
   5   0   3  122.66    4.05
   6   0   3   43.73    3.12
   7   0   3   88.56    3.99
   8   0   3    2.08    0.98
   9   0   3    1.11    0.96
  10   0   3  118.71    7.83
  11   0   3   26.57    4.25
  12   0   3   58.14    6.63
 -12   1   3   10.75    4.26
 -11   1   3   22.83    5.35
 -10   1   3    1.51    1.92
  -9   1   3    2.18    2.00
  -8   1   3   34.46    3.81
  -7   1   3  269.83    8.71
  -6   1   3   49.31    3.45
  -5   1   3  287.77    8.21
  -4   1   3   24.98    2.47
  -3   1   3   62.99    3.30
  -2   1   3   66.90    3.36
  -1   1   3   52.34    3.10
   0   1   3   52.87    2.16
   1   1   3   73.57    2.15
   2   1   3   22.71    1.45
   3   1   3  376.57    7.26
   4   1   3   21.40    1.93
   5   1   3   19.97    2.03
   6   1   3   73.33    3.68
   7   1   3  199.47    6.48
   8   1   3   36.29    3.41
   9   1   3   33.93    3.61
  10   1   3    2.42    1.53
  11   1   3   14.83    3.39
 -13   2   3    2.14    2.91
 -12   2   3    6.32    3.47
 -11   2   3  103.48   11.15
 -10   2   3   36.26    6.49
  -9   2   3  120.04    9.33
  -8   2   3    0.98    1.70
  -7   2   3    6.43    2.59
  -6   2   3   60.93    3.56
  -5   2   3   40.40    2.72
  -4   2   3    6.06    1.19
  -3   2   3   21.05    2.16
  -2   2   3  379.80    9.02
  -1   2   3   77.69    2.19
   0   2   3  388.78    8.01
   1   2   3   71.15    3.07
   2   2   3    6.35    1.02
   3   2   3   88.34    3.19
   4   2   3   61.11    3.12
   5   2   3   19.63    2.19
   6   2   3   52.47    3.90
   7   2   3   21.14    2.61
   8   2   3  118.00    5.78
   9   2   3   27.20    3.29
  10   2   3   11.62    3.10
  11   2   3   11.85    3.42
 -13   3   3    7.52    4.25
 -12   3   3   11.77    4.29
 -11   3   3   26.22    6.01
 -10   3   3   10.91    3.83
  -9   3   3   39.76    6.55
  -8   3   3   13.97    3.93
  -7   3   3   21.41    4.56
  -6   3   3  248.77   12.59
  -5   3   3   84.64    3.56
  -4   3   3  376.69    8.58
  -3   3   3   86.07    3.44
  -2   3   3   71.16    3.28
  -1   3   3   21.74    1.60
   0   3   3   87.07    3.34
   1   3   3   26.86    2.46
   2   3   3   39.17    2.62
   3   3   3  244.48    6.31
   4   3   3   91.07    3.85
   5   3   3  224.38    6.75
   6   3   3   -0.02    0.69
   7   3   3    1.92    1.02
   8   3   3   43.57    4.21
   9   3   3    7.22    2.36
  10   3   3   29.87    4.70
 -13   4   3   46.82    8.48
 -12   4   3    9.39    3.87
 -11   4   3    2.84    2.50
 -10   4   3   26.52    5.69
  -9   4   3  201.47   12.82
  -8   4   3   41.71    6.43
  -7   4   3   98.85    8.06
  -6   4   3   68.04    7.75
  -5   4   3   16.19    3.78
  -4   4   3  130.05    8.70
  -3   4   3   27.45    1.84
  -2   4   3    3.76    0.97
  -1   4   3  356.60    9.17
   0   4   3  136.05    5.18
   1   4   3  290.37    8.01
   2   4   3   61.11    3.11
   3   4   3   21.14    2.23
   4   4   3   46.11    4.22
   5   4   3    6.33    1.45
   6   4   3    0.43    0.86
   7   4   3   23.31    3.07
   8   4   3   89.87    6.12
   9   4   3   23.45    4.19
 -13   5   3   11.12    4.58
 -12   5   3   18.87    5.42
 -11   5   3   24.60    6.03
 -10   5   3   17.65    4.69
  -9   5   3    3.48    2.22
  -8   5   3  210.16   12.85
  -7   5   3   21.69    4.64
  -6   5   3   26.46    4.85
  -5   5   3  129.60    8.74
  -4   5   3  286.77   13.64
  -3   5   3   39.35    5.83
  -2   5   3   91.86    3.67
  -1   5   3   22.71    2.43
   0   5   3  122.71    5.10
   2   5   3    7.88    1.84
   3   5   3    8.35    1.46
   4   5   3  210.69    8.38
   5   5   3   20.86    3.37
   6   5   3   85.79    7.00
   7   5   3    1.88    1.23
   8   5   3    0.40    1.23
 -14   6   3   -1.92    3.49
 -13   6   3   83.64   11.31
 -12   6   3   15.06    5.09
 -11   6   3   96.72   11.36
 -10   6   3    1.65    2.00
  -9   6   3    0.69    1.75
  -8   6   3   40.38    6.62
  -7   6   3   79.22    9.16
  -6   6   3   41.22    6.35
  -5   6   3   45.85    6.39
  -4   6   3   63.63    7.66
  -3   6   3  236.63   12.35
  -2   6   3   71.61    3.39
  -1   6   3   28.13    2.76
   0   6   3   46.22    6.19
   1   6   3  266.80    8.99
   2   6   3    1.48    0.90
   3   6   3   44.50    4.71
   4   6   3   17.10    2.97
   5   6   3   14.39    2.98
   6   6   3   11.60    2.87
   7   6   3    2.48    1.54
   8   6   3    5.16    2.45
 -14   7   3   21.51    7.47
 -13   7   3    6.90    3.88
 -12   7   3    2.96    2.90
 -11   7   3   37.19    7.07
 -10   7   3    7.65    2.11
  -9   7   3   29.15    5.92
  -8   7   3  207.27   12.97
  -7   7   3   76.18    8.80
  -6   7   3  260.61   13.80
  -5   7   3    8.71    2.97
  -4   7   3    9.66    3.02
  -3   7   3   95.78    7.48
  -2   7   3   30.51    5.09
  -1   7   3   70.30    4.87
   0   7   3   83.72    5.34
   1   7   3   23.88    3.21
   2   7   3  120.99    6.08
   3   7   3   17.77    3.13
   4   7   3    1.52    1.53
   5   7   3   13.18    3.07
   6   7   3   76.78    7.49
   7   7   3   14.19    2.83
 -14   8   3   12.94    7.79
 -13   8   3    0.28    2.37
 -12   8   3   97.26   11.98
 -11   8   3   36.01    6.95
 -10   8   3  129.36    7.22
  -9   8   3   38.15    4.56
  -8   8   3    1.65    1.27
  -7   8   3   36.01    4.27
  -6   8   3    3.15    1.51
  -5   8   3    5.76    1.82
  -4   8   3   45.12    4.53
  -3   8   3  220.83    8.58
  -2   8   3   52.35    4.77
  -1   8   3  197.33    7.92
   0   8   3    2.90    1.83
   1   8   3    0.09    1.03
   2   8   3   14.17    4.14
   3   8   3   16.89    3.48
   4   8   3    8.67    2.57
   5   8   3   20.06    4.02
   6   8   3   -1.00    1.88
 -13   9   3   19.40    5.92
 -12   9   3    6.48    3.78
 -11   9   3   32.02    4.49
 -10   9   3   35.13    4.56
  -9   9   3    3.64    1.70
  -8   9   3    2.14    1.37
  -7   9   3  105.57    6.29
  -6   9   3   43.99    4.58
  -5   9   3  210.20    8.61
  -4   9   3    2.00    1.26
  -3   9   3    0.93    1.36
  -2   9   3   21.12    4.59
  -1   9   3   35.62    5.97
   0   9   3    3.99    2.16
   1   9   3    0.32    1.24
   2   9   3  104.09   11.92
   3   9   3   16.86    3.77
   4   9   3   59.31    6.88
   5   9   3   -0.43    2.07
 -13  10   3   32.50    7.53
 -12  10   3    9.60    4.16
 -11  10   3    5.47    2.33
 -10  10   3  111.30    7.55
  -9  10   3    0.35    1.32
  -8  10   3   26.20    3.62
  -7  10   3   11.22    2.42
  -6  10   3   13.80    2.64
  -5  10   3   30.63    5.87
  -4  10   3    1.66    1.83
  -3  10   3    3.45    2.24
  -2  10   3  133.64    9.98
  -1  10   3   50.64    7.57
   0  10   3  116.66    9.40
   1  10   3    9.32    4.14
   2  10   3    1.97    2.02
   3  10   3    2.88    2.00
   4  10   3   11.36    5.16
 -13  11   3    8.34    4.54
 -12  11   3   21.07    4.86
 -11  11   3   24.70    4.13
 -10  11   3   18.06    3.42
  -9  11   3   93.14    7.50
  -8  11   3   11.85    4.01
  -7  11   3    4.57    2.63
  -6  11   3   23.00    5.50
  -5  11   3  113.58    9.75
  -4  11   3   20.65    5.01
  -3  11   3   38.06    6.67
  -2  11   3   36.56    6.62
  -1  11   3    0.33    2.09
   0  11   3   34.15    7.33
   1  11   3   16.56    5.26
   2  11   3    1.14    2.05
 -12  12   3   69.14    7.20
 -11  12   3    9.51    3.99
 -10  12   3    3.49    2.88
  -9  12   3   24.28    5.92
  -8  12   3   17.54    5.09
  -7  12   3   14.36    4.43
  -6  12   3   13.07    4.28
  -5  12   3    5.18    3.06
  -4  12   3   98.97   11.33
  -3  12   3    6.02    3.42
  -2  12   3   11.09    4.07
  -1  12   3   18.11    5.03
   0  12   3   68.46   10.70
 -11  13   3    2.15    2.99
 -10  13   3    3.22    3.10
  -9  13   3   43.75    8.29
  -8  13   3   14.63    4.89
  -7  13   3   77.27   10.66
  -6  13   3    5.25    3.14
  -5  13   3    1.21    2.70
  -4  13   3   27.00    6.51
  -3  13   3   32.58    6.86
  -2  13   3   10.73    4.68
  -8  14   3    0.90    4.02
  -7  14   3   17.93    6.45
  -6  14   3   10.33    5.02
   4 -13   4    1.18    2.17
   5 -13   4   57.61    6.47
   6 -13   4   53.64    6.31
   7 -13   4   11.96    3.43
   8 -13   4   23.68    4.27
   9 -13   4    6.58    5.41
   1 -12   4    4.65    2.60
   2 -12   4   94.77    8.45
   3 -12   4   -0.10    1.78
   4 -12   4   20.37    4.00
   5 -12   4    2.27    1.84
   6 -12   4   15.50    3.52
   7 -12   4    2.06    2.06
   8 -12   4    8.54    2.67
   9 -12   4   16.09    3.51
  10 -12   4   75.26   11.43
  -1 -11   4   55.85    9.75
   0 -11   4    5.11    2.50
   1 -11   4    0.46    1.75
   2 -11   4    4.78    2.28
   3 -11   4   17.87    3.72
   4 -11   4    1.30    1.56
   5 -11   4   30.90    4.81
   6 -11   4   23.61    4.07
   7 -11   4  201.36    9.89
   8 -11   4    8.21    2.65
   9 -11   4   23.89    4.01
  10 -11   4    4.60    2.13
  11 -11   4    8.99    4.42
  -2 -10   4   78.55    7.71
  -1 -10   4    4.48    2.52
   0 -10   4   10.27    2.99
   1 -10   4   22.68    4.16
   2 -10   4   27.64    4.39
   3 -10   4   62.91    6.52
   4 -10   4   53.92    5.74
   5 -10   4   19.50    3.72
   6 -10   4   24.55    3.84
   7 -10   4   15.63    3.29
   8 -10   4    6.49    2.31
   9 -10   4    4.43    2.00
  10 -10   4    9.13    2.78
  11 -10   4    2.39    1.92
  12 -10   4  124.14   14.62
  -3  -9   4   24.03    4.42
  -2  -9   4   38.74    5.31
  -1  -9   4    3.48    1.97
   0  -9   4   63.31    6.41
   1  -9   4    2.30    1.53
   2  -9   4   21.35    3.68
   3  -9   4   94.92    7.72
   4  -9   4   -0.40    1.15
   5  -9   4   44.22    5.06
   6  -9   4   25.91    3.74
   7  -9   4   34.60    4.55
   8  -9   4   71.54    6.65
   9  -9   4   65.38    6.47
  10  -9   4   17.86    3.49
  11  -9   4    6.22    2.36
  12  -9   4   -0.16    1.72
  -5  -8   4    9.26    4.22
  -4  -8   4    4.56    3.39
  -3  -8   4    3.23    2.08
  -2  -8   4    8.51    2.62
  -1  -8   4   81.13    7.30
   0  -8   4  129.15    7.46
   1  -8   4   27.68    3.88
   2  -8   4   21.60    3.46
   3  -8   4   41.08    4.71
   4  -8   4   19.05    3.26
   5  -8   4  149.28    7.51
   6  -8   4    0.94    1.21
   7  -8   4    1.35    1.35
   8  -8   4  123.23    7.14
   9  -8   4    4.99    1.97
  10  -8   4   21.86    3.68
  11  -8   4   16.29    3.28
  12  -8   4   19.78    3.70
  13  -8   4   63.01    6.86
  -6  -7   4    8.15    3.98
  -5  -7   4    2.23    2.60
  -4  -7   4  165.10   12.90
  -3  -7   4   12.59    2.90
  -2  -7   4   37.12    4.63
  -1  -7   4   -0.24    1.09
   0  -7   4   19.49    3.17
   1  -7   4   17.58    2.98
   2  -7   4    1.12    1.28
   3  -7   4   24.92    3.62
   4  -7   4  162.06    7.51
   5  -7   4   86.97    6.52
   6  -7   4   56.99    5.28
   7  -7   4   14.93    2.92
   8  -7   4   27.46    3.80
   9  -7   4   19.54    3.35
  10  -7   4   76.51    6.87
  11  -7   4    0.58    1.28
  12  -7   4    2.10    1.81
  13  -7   4   55.93    6.50
  -7  -6   4   63.57   10.17
  -6  -6   4   31.88    6.94
  -5  -6   4   24.11    5.70
  -4  -6   4   11.49    3.84
  -3  -6   4   31.37    4.23
  -2  -6   4    0.98    1.11
  -1  -6   4   63.69    5.72
   0  -6   4    4.26    1.64
   1  -6   4  317.95   10.76
   2  -6   4    0.84    1.10
   3  -6   4   13.52    2.46
   4  -6   4    6.21    1.76
   5  -6   4    5.91    1.79
   6  -6   4    4.84    1.67
   7  -6   4   14.46    2.66
   8  -6   4   21.97    3.42
   9  -6   4   78.14    6.65
  10  -6   4   60.29    6.08
  11  -6   4   27.35    4.28
  12  -6   4   16.30    3.60
  13  -6   4    9.09    2.95
  -8  -5   4   62.76    9.84
  -7  -5   4    2.29    2.98
  -6  -5   4   34.27    6.57
  -5  -5   4   24.87    5.72
  -4  -5   4   51.56    7.70
  -3  -5   4  143.34    7.02
  -2  -5   4   90.94    5.82
  -1  -5   4    8.79    2.08
   0  -5   4    2.28    1.19
   1  -5   4    7.47    1.39
   2  -5   4   36.90    3.08
   3  -5   4   15.50    2.53
   4  -5   4   51.95    4.45
   5  -5   4    1.63    1.10
   6  -5   4  314.15   10.41
   7  -5   4    0.49    0.92
   8  -5   4   33.96    4.15
   9  -5   4    1.23    1.28
  10  -5   4   26.20    4.07
  11  -5   4   20.94    3.64
  12  -5   4    1.94    1.66
  13  -5   4   18.57    3.99
  -9  -4   4    8.03    4.28
  -8  -4   4   17.24    5.44
  -7  -4   4    1.56    2.45
  -6  -4   4   57.25    8.46
  -5  -4   4    1.23    2.07
  -4  -4   4   14.37    4.01
  -3  -4   4  166.29    6.98
  -2  -4   4    4.48    1.39
  -1  -4   4   56.85    3.38
   0  -4   4   41.20    3.04
   1  -4   4   57.19    3.64
   2  -4   4  188.96    7.02
   3  -4   4  337.36   10.04
   4  -4   4   37.77    3.75
   5  -4   4    5.88    1.55
   6  -4   4    0.09    0.86
   7  -4   4   25.59    3.31
   8  -4   4   19.82    3.13
   9  -4   4   37.33    4.59
  10  -4   4   20.82    3.53
  11  -4   4  177.53    9.28
  12  -4   4   15.47    3.41
  13  -4   4   19.18    4.45
  -9  -3   4   -1.06    2.73
  -8  -3   4   20.94    5.51
  -7  -3   4   83.81   10.17
  -6  -3   4   96.26   10.42
  -5  -3   4   41.81    6.45
  -4  -3   4   25.45    3.18
  -3  -3   4   14.75    2.33
  -2  -3   4   16.45    1.97
  -1  -3   4  344.90    7.89
   0  -3   4   36.41    2.81
   1  -3   4    1.14    0.76
   2  -3   4  162.53    6.08
   3  -3   4   29.29    2.98
   4  -3   4   45.78    3.89
   5  -3   4   32.79    3.35
   6  -3   4   13.64    2.40
   7  -3   4  160.93    7.11
   8  -3   4  150.72    7.26
   9  -3   4   22.98    3.52
  10  -3   4   17.07    3.31
  11  -3   4    1.52    1.77
  12  -3   4   22.14    4.12
  -8  -2   4   12.55    4.30
  -7  -2   4   31.20    5.90
  -6  -2   4   23.71    3.34
  -5  -2   4    0.52    1.01
  -4  -2   4    0.92    0.93
  -3  -2   4   43.96    4.03
  -2  -2   4  187.32    5.35
  -1  -2   4  166.14    4.83
   0  -2   4   43.14    2.66
   1  -2   4   67.98    3.52
   2  -2   4   44.12    3.62
   3  -2   4    2.34    1.05
   4  -2   4  186.52    6.77
   5  -2   4   17.07    2.50
   6  -2   4    5.32    1.59
   7  -2   4   76.46    5.90
   8  -2   4    4.18    1.77
   9  -2   4   34.59    4.47
  10  -2   4    9.16    2.44
  11  -2   4   21.36    3.94
  12  -2   4   69.66    7.22
  -8  -1   4    8.13    2.33
  -7  -1   4   36.96    4.18
  -6  -1   4   13.44    2.48
  -5  -1   4  345.08   10.46
  -4  -1   4    7.36    1.77
  -3  -1   4   56.48    4.59
  -2  -1   4    1.42    1.01
  -1  -1   4   81.64    2.99
   0  -1   4   18.24    1.78
   1  -1   4   21.49    2.23
   2  -1   4   72.58    3.55
   3  -1   4  156.08    5.74
   4  -1   4  331.87    9.55
   5  -1   4   54.61    4.46
   6  -1   4   13.59    2.42
   7  -1   4   59.39    5.33
   8  -1   4    0.21    1.18
   9  -1   4   65.22    6.14
  10  -1   4    1.59    1.59
  11  -1   4    9.89    2.90
  12  -1   4   51.36    7.78
 -10   0   4   15.66    4.60
  -9   0   4   57.08    7.92
  -8   0   4  134.83    9.83
  -7   0   4   17.83    2.81
  -6   0   4    3.35    1.26
  -5   0   4    1.84    1.15
  -4   0   4   41.08    3.81
  -3   0   4   27.18    3.11
  -2   0   4   43.55    3.90
  -1   0   4   21.57    2.73
   0   0   4  981.96   15.28
   1   0   4   20.17    2.09
   2   0   4   42.30    3.27
   3   0   4   35.18    3.18
   4   0   4   36.36    3.53
   5   0   4    1.70    0.98
   6   0   4    7.77    2.01
   7   0   4   17.74    2.89
   8   0   4  138.17    7.28
   9   0   4   59.44    5.79
  10   0   4    6.19    2.24
  11   0   4    4.72    2.34
 -12   1   4   56.70    9.10
 -11   1   4    3.98    2.99
 -10   1   4    1.91    2.86
  -9   1   4   51.85    7.70
  -8   1   4   -0.08    1.59
  -7   1   4   60.23    7.80
  -6   1   4    9.91    2.16
  -5   1   4   46.85    4.09
  -4   1   4  341.27    9.81
  -3   1   4  160.11    6.14
  -2   1   4   73.74    4.00
  -1   1   4   19.26    2.54
   0   1   4   17.85    1.53
   1   1   4   76.08    3.26
   2   1   4    1.23    0.80
   3   1   4   54.23    3.61
   4   1   4    7.41    1.68
   5   1   4  318.18   10.16
   6   1   4   20.06    3.10
   7   1   4   30.42    4.09
   8   1   4    7.06    2.04
   9   1   4   18.44    3.59
  10   1   4    3.71    2.19
  11   1   4    3.85    3.14
 -12   2   4   72.47   10.27
 -11   2   4   25.40    5.95
 -10   2   4    9.67    3.84
  -9   2   4   40.12    7.13
  -8   2   4    4.36    2.53
  -7   2   4   92.15   10.16
  -6   2   4    1.86    1.88
  -5   2   4   12.54    3.77
  -4   2   4  198.30    6.77
  -3   2   4    1.65    0.92
  -2   2   4   43.78    3.66
  -1   2   4   82.77    4.11
   0   2   4   40.86    2.17
   1   2   4  161.00    5.25
   2   2   4  196.04    6.41
   3   2   4   35.66    3.43
   4   2   4    0.94    0.94
   5   2   4   -0.15    0.87
   6   2   4   21.59    3.25
   7   2   4   21.31    3.41
   8   2   4   23.22    3.71
   9   2   4    7.77    2.35
  10   2   4   98.93    8.42
 -12   3   4   29.55    6.66
 -11   3   4    3.67    2.99
 -10   3   4   13.88    4.51
  -9   3   4   21.08    5.22
  -8   3   4  147.78   11.23
  -7   3   4  158.23   11.16
  -6   3   4    9.37    3.21
  -5   3   4   33.55    5.69
  -4   3   4   40.23    6.06
  -3   3   4   33.38    2.97
  -2   3   4  164.23    5.86
  -1   3   4    2.29    0.97
   0   3   4   34.91    2.39
   1   3   4  344.71    7.06
   2   3   4   18.30    2.28
   3   3   4   14.18    2.17
   4   3   4   28.53    3.33
   5   3   4   33.69    3.86
   6   3   4   81.89    6.43
   7   3   4   79.68    6.86
   8   3   4   18.46    3.49
   9   3   4   -0.70    1.34
 -13   4   4   27.26    6.87
 -12   4   4   11.74    4.75
 -11   4   4  178.76   13.92
 -10   4   4   33.44    6.72
  -9   4   4   36.29    6.78
  -8   4   4   10.32    3.66
  -7   4   4   26.95    5.56
  -6   4   4    0.35    1.50
  -5   4   4    4.31    2.28
  -4   4   4   40.12    6.15
  -3   4   4  330.26   16.13
  -2   4   4  184.66    6.36
  -1   4   4   59.51    3.68
   0   4   4   42.67    2.61
   1   4   4   59.22    3.34
   2   4   4    6.49    1.22
   3   4   4  159.38    6.57
   4   4   4   17.04    2.80
   5   4   4    1.98    1.24
   6   4   4   51.75    5.37
   7   4   4   -1.99    1.19
   8   4   4   25.37    4.31
   9   4   4    2.81    3.00
 -13   5   4   19.04    5.98
 -12   5   4    0.75    2.89
 -11   5   4   14.36    4.72
 -10   5   4   23.50    5.94
  -9   5   4    0.76    2.17
  -8   5   4   34.54    6.70
  -7   5   4    1.35    1.95
  -6   5   4  326.29   16.74
  -5   5   4    2.82    2.03
  -4   5   4   48.61    7.39
  -3   5   4   16.59    4.11
  -2   5   4   38.12    6.07
  -1   5   4    7.84    1.58
   0   5   4    1.72    0.83
   1   5   4    9.17    1.47
   2   5   4   83.04    3.72
   3   5   4  149.32    6.61
   4   5   4   46.86    4.69
   5   5   4   22.52    3.50
   6   5   4   32.88    4.57
   7   5   4   -0.07    1.42
   8   5   4   43.17    5.50
 -13   6   4   14.09    5.54
 -12   6   4   23.65    6.60
 -11   6   4   37.84    7.62
 -10   6   4   64.01    9.65
  -9   6   4   83.78   10.53
  -8   6   4   16.89    5.06
  -7   6   4   13.94    4.26
  -6   6   4    0.65    1.92
  -5   6   4    5.07    2.58
  -4   6   4    5.41    2.73
  -3   6   4   12.19    3.70
  -2   6   4    0.36    1.33
  -1   6   4  323.14   15.61
   0   6   4    4.19    1.15
   1   6   4   67.30    3.75
   2   6   4    4.33    1.30
   3   6   4   27.68    3.53
   4   6   4   21.48    3.31
   5   6   4   17.21    3.15
   6   6   4   20.82    3.74
   7   6   4   71.21    7.27
 -13   7   4   45.69    9.28
 -12   7   4    0.75    2.59
 -11   7   4   -0.33    2.33
 -10   7   4   73.24   10.14
  -9   7   4   16.53    4.94
  -8   7   4   36.37    7.10
  -7   7   4   18.98    5.05
  -6   7   4   53.35    7.83
  -5   7   4   91.59   10.33
  -4   7   4  152.68   10.87
  -3   7   4   26.25    5.38
  -2   7   4    0.09    1.35
  -1   7   4   12.30    3.62
   0   7   4   18.38    4.49
   1   7   4    0.51    0.70
   2   7   4   41.05    3.20
   3   7   4   15.20    2.89
   4   7   4  185.87    8.83
   5   7   4    1.62    1.69
   6   7   4   19.65    3.76
 -13   8   4   55.63   10.21
 -12   8   4   30.08    7.14
 -11   8   4   20.29    4.43
 -10   8   4   27.66    6.55
  -9   8   4    4.58    3.15
  -8   8   4  127.12   13.69
  -7   8   4    0.80    1.94
  -6   8   4    2.87    2.17
  -5   8   4  153.08   10.99
  -4   8   4   27.72    5.57
  -3   8   4   42.01    6.65
  -2   8   4   29.26    5.71
  -1   8   4   39.57    4.53
   0   8   4  138.73    6.99
   1   8   4   68.18    4.88
   2   8   4    7.43    1.74
   3   8   4    5.72    2.03
   4   8   4    7.88    2.50
   5   8   4   24.08    4.25
 -13   9   4    0.61    3.97
 -12   9   4    0.07    2.78
 -11   9   4   12.10    3.10
 -10   9   4   19.71    3.79
  -9   9   4   55.79    6.12
  -8   9   4   58.86    6.12
  -7   9   4   33.70    4.60
  -6   9   4   23.63    3.80
  -5   9   4   46.91    5.13
  -4   9   4    3.48    1.63
  -3   9   4   83.83    6.84
  -2   9   4   28.31    5.52
  -1   9   4    9.13    3.08
   0   9   4   63.74    8.04
   1   9   4    2.38    2.76
   2   9   4   25.44    4.89
   3   9   4   25.50    5.95
   4   9   4   11.48    4.95
 -12  10   4  118.08   14.36
 -11  10   4    3.27    2.07
 -10  10   4   10.60    3.02
  -9  10   4    2.82    1.91
  -8  10   4    7.27    2.32
  -7  10   4   15.59    3.17
  -6  10   4   23.34    3.81
  -5  10   4   29.68    4.16
  -4  10   4   61.74    8.57
  -3  10   4   61.59    8.47
  -2  10   4   25.45    5.65
  -1  10   4   25.13    5.32
   0  10   4   14.67    3.34
   1  10   4    5.70    3.56
 -12  11   4    3.01    2.21
 -11  11   4    7.17    2.68
 -10  11   4    2.18    2.19
  -9  11   4   30.40    4.77
  -8  11   4    5.08    2.25
  -7  11   4  198.10   13.77
  -6  11   4   28.07    6.31
  -5  11   4   40.90    7.26
  -4  11   4   -0.27    1.92
  -3  11   4   22.70    5.64
  -2  11   4    9.57    4.05
  -1  11   4    4.29    2.72
   0  11   4    5.38    3.76
 -11  12   4   48.54    6.14
 -10  12   4   89.97   11.55
  -9  12   4   24.52    6.20
  -8  12   4   13.76    4.74
  -7  12   4    2.15    2.64
  -6  12   4   23.06    5.82
  -5  12   4    1.84    2.34
  -4  12   4   14.82    4.93
  -3  12   4    2.42    2.70
  -2  12   4  103.97   11.87
  -1  12   4    9.57    4.40
  -9  13   4   11.73    6.94
  -8  13   4   21.67    5.89
  -7  13   4   12.86    4.52
  -6  13   4   57.90    9.43
  -5  13   4   64.51    9.83
  -4  13   4    4.15    3.51
  -3  13   4    0.14    2.83
   3 -12   5    6.59    4.34
   4 -12   5   99.14    8.83
   5 -12   5    4.13    2.50
   6 -12   5   13.92    3.61
   7 -12   5   19.69    4.11
   8 -12   5   20.51    4.38
   9 -12   5   11.80    4.79
   1 -11   5   16.56    5.90
   2 -11   5   -0.26    1.98
   3 -11   5    8.29    2.70
   4 -11   5   10.17    2.97
   5 -11   5   52.90    6.28
   6 -11   5   31.73    4.94
   7 -11   5   -0.11    1.71
   8 -11   5   28.32    4.83
   9 -11   5   22.52    4.16
  10 -11   5    6.05    2.81
  -1 -10   5    7.60    4.38
   0 -10   5  110.76   12.95
   1 -10   5   59.26    7.53
   2 -10   5   79.45    7.46
   3 -10   5    3.02    2.05
   4 -10   5    7.83    2.63
   5 -10   5   26.78    4.35
   6 -10   5   32.44    5.05
   7 -10   5   26.32    4.36
   8 -10   5   19.78    3.86
   9 -10   5    9.58    3.03
  10 -10   5  119.06    9.58
  11 -10   5   10.23    2.97
  -2  -9   5   29.28    6.96
  -1  -9   5    5.28    3.55
   0  -9   5    2.66    2.81
   1  -9   5    0.98    1.67
   2  -9   5    2.93    1.83
   3  -9   5    0.44    1.45
   4  -9   5   27.06    4.33
   5  -9   5   27.50    4.32
   6  -9   5   18.25    3.51
   7  -9   5   67.32    6.78
   8  -9   5    6.92    2.18
   9  -9   5   -0.78    1.53
  10  -9   5   60.00    6.62
  11  -9   5    4.20    2.42
  12  -9   5    3.37    3.55
  -4  -8   5   16.73    5.72
  -3  -8   5   23.05    6.44
  -2  -8   5   30.27    6.47
  -1  -8   5   16.60    4.91
   0  -8   5    1.74    2.54
   1  -8   5   88.40    7.43
   2  -8   5   79.45    6.93
   3  -8   5  233.57   10.09
   4  -8   5   21.87    3.71
   5  -8   5    7.56    2.17
   6  -8   5   10.22    2.57
   7  -8   5   14.25    3.03
   8  -8   5    3.79    1.93
   9  -8   5    1.31    1.52
  10  -8   5   90.99    8.11
  11  -8   5   11.32    3.23
  12  -8   5   87.93    8.23
  -5  -7   5   29.10    6.96
  -4  -7   5    2.07    2.64
  -3  -7   5   44.36    7.94
  -2  -7   5   65.07    9.09
  -1  -7   5    7.35    3.41
   0  -7   5    9.26    3.44
   1  -7   5    4.57    1.84
   2  -7   5   27.69    4.03
   3  -7   5   24.33    3.73
   4  -7   5   10.66    2.50
   5  -7   5    1.79    1.30
   6  -7   5  248.06   10.17
   7  -7   5    8.37    2.43
   8  -7   5   79.16    6.95
   9  -7   5    1.52    1.68
  10  -7   5    5.35    2.18
  11  -7   5    9.52    2.80
  12  -7   5    7.97    2.87
  -6  -6   5   11.26    4.52
  -5  -6   5   24.54    6.38
  -4  -6   5   30.96    6.52
  -3  -6   5   22.00    5.60
  -2  -6   5    9.82    3.75
  -1  -6   5  251.93   14.63
   0  -6   5    7.68    3.04
   1  -6   5   31.65    4.23
   2  -6   5   21.36    3.28
   3  -6   5  158.90    7.45
   4  -6   5    0.33    1.04
   5  -6   5   75.12    6.18
   6  -6   5   16.37    3.15
   7  -6   5    7.01    2.01
   8  -6   5   74.42    6.72
   9  -6   5    0.17    1.44
  10  -6   5    3.62    1.92
  11  -6   5   42.59    5.61
  12  -6   5   11.83    3.48
  -7  -5   5    7.23    4.38
  -6  -5   5   43.16    8.04
  -5  -5   5   25.87    6.48
  -4  -5   5   44.92    7.64
  -3  -5   5    8.56    3.56
  -2  -5   5    9.14    3.46
  -1  -5   5   75.04    9.06
   0  -5   5    5.99    3.03
   1  -5   5   12.52    3.85
   2  -5   5  105.42    4.64
   3  -5   5    5.07    1.64
   4  -5   5  190.17    7.94
   5  -5   5    3.94    1.58
   6  -5   5   28.51    3.78
   7  -5   5   24.71    3.65
   8  -5   5  216.58    9.48
   9  -5   5   22.08    3.72
  10  -5   5   14.54    2.94
  11  -5   5   31.20    4.83
  12  -5   5   23.86    4.45
  -8  -4   5  111.79   18.14
  -7  -4   5   19.17    5.71
  -6  -4   5    2.86    2.67
  -5  -4   5   22.61    5.62
  -4  -4   5   24.28    5.53
  -3  -4   5    9.98    3.63
  -2  -4   5    0.65    1.58
  -1  -4   5  197.97    9.50
   0  -4   5   10.33    2.18
   1  -4   5  321.47   10.59
   2  -4   5    2.91    1.11
   3  -4   5   10.57    2.20
   4  -4   5   10.71    2.25
   5  -4   5   15.48    2.67
   6  -4   5   21.91    3.34
   7  -4   5   22.14    3.48
   8  -4   5   16.41    3.11
   9  -4   5   37.68    4.87
  10  -4   5   26.03    4.32
  11  -4   5    1.64    1.77
  12  -4   5   24.10    4.75
  -7  -3   5    5.99    3.19
  -6  -3   5    1.04    2.36
  -5  -3   5  232.98   13.80
  -4  -3   5   23.07    5.10
  -3  -3   5  143.38    6.82
  -2  -3   5    2.96    1.33
  -1  -3   5   13.32    2.46
   0  -3   5   45.81    4.44
   1  -3   5   38.22    4.11
   2  -3   5   32.39    4.12
   3  -3   5   55.95    4.61
   4  -3   5  323.15   10.14
   5  -3   5   84.09    5.54
   6  -3   5  136.08    6.79
   7  -3   5    9.68    2.35
   8  -3   5    9.32    2.50
   9  -3   5   18.39    3.44
  10  -3   5   22.48    4.03
  11  -3   5   24.41    4.29
  -6  -2   5  102.80   10.59
  -5  -2   5   31.89    4.07
  -4  -2   5   24.03    3.43
  -3  -2   5   95.68    6.10
  -2  -2   5    2.01    1.38
  -1  -2   5   24.57    3.20
   0  -2   5  102.85    5.53
   1  -2   5   48.43    4.50
   2  -2   5   99.44    7.53
   3  -2   5   35.95    3.45
   4  -2   5    2.31    1.23
   5  -2   5    3.84    1.49
   6  -2   5   -0.98    0.79
   7  -2   5    5.55    1.88
   8  -2   5   11.34    2.58
   9  -2   5   72.11    6.58
  10  -2   5   18.15    3.61
  11  -2   5   25.44    4.51
  -7  -1   5   83.28    9.59
  -6  -1   5    3.35    1.67
  -5  -1   5   21.87    3.27
  -4  -1   5   14.64    2.74
  -3  -1   5  310.68   10.55
  -2  -1   5   36.80    4.06
  -1  -1   5   46.73    4.50
   0  -1   5   73.03    5.54
   1  -1   5   74.15    5.03
   2  -1   5   49.11    6.05
   3  -1   5   29.80    3.11
   4  -1   5   14.70    2.37
   5  -1   5  185.78    7.49
   6  -1   5   79.31    6.17
   7  -1   5  245.18    9.88
   8  -1   5   12.01    2.80
   9  -1   5   10.11    2.69
  10  -1   5    2.89    1.73
  11  -1   5    3.41    2.24
  -9   0   5    0.86    2.36
  -8   0   5    5.71    3.24
  -7   0   5    3.54    2.68
  -6   0   5   12.85    3.98
  -5   0   5    6.44    1.93
  -4   0   5    7.84    1.91
  -3   0   5   44.21    4.41
  -2   0   5   97.91    5.29
  -1   0   5   78.75    5.02
   0   0   5    0.29    0.83
   1   0   5   77.65    5.03
   2   0   5   87.57    6.75
   3   0   5   52.22    4.45
   4   0   5   10.39    2.08
   5   0   5   10.00    2.11
   6   0   5   13.35    2.68
   7   0   5    3.45    1.76
   8   0   5    2.74    1.50
   9   0   5    0.41    1.55
  10   0   5  122.73    9.58
 -11   1   5   11.97    4.91
 -10   1   5    1.36    2.92
  -9   1   5    8.57    3.80
  -8   1   5   14.40    4.45
  -7   1   5  252.61   15.35
  -6   1   5   60.43    8.42
  -5   1   5  170.82   11.84
  -4   1   5   12.35    2.41
  -3   1   5   32.33    3.70
  -2   1   5   53.11    4.69
  -1   1   5   79.46    4.65
   0   1   5   80.84    4.69
   1   1   5   49.88    4.60
   2   1   5   36.80    5.22
   3   1   5  322.33   14.31
   4   1   5   13.37    2.45
   5   1   5   27.10    3.44
   6   1   5    5.64    1.85
   7   1   5   94.02    7.42
   8   1   5   -0.38    1.33
   9   1   5   56.56    6.29
  10   1   5    9.33    2.98
 -11   2   5   25.55    6.41
 -10   2   5   11.29    4.54
  -9   2   5   78.82   10.39
  -8   2   5   12.78    4.42
  -7   2   5    1.92    2.51
  -6   2   5    0.81    1.78
  -5   2   5    4.08    2.42
  -4   2   5    1.44    1.86
  -3   2   5   46.01    7.11
  -2   2   5   97.10    5.35
  -1   2   5   45.15    4.23
   0   2   5   94.66    5.07
   1   2   5   28.10    3.49
   2   2   5    1.68    1.53
   3   2   5   86.34    7.07
   4   2   5   29.63    3.49
   5   2   5   25.42    3.50
   6   2   5   87.00    6.80
   7   2   5    0.05    1.36
   8   2   5   75.67    7.13
   9   2   5    6.09    2.40
 -12   3   5    3.61    4.42
 -11   3   5   35.68    7.90
 -10   3   5   27.00    6.78
  -9   3   5   15.20    4.91
  -8   3   5    1.67    2.35
  -7   3   5    9.87    3.72
  -6   3   5  156.49   11.86
  -5   3   5   95.00   10.38
  -4   3   5  334.84   17.24
  -3   3   5   47.99    7.44
  -2   3   5   25.63    5.52
  -1   3   5   44.40    4.10
   0   3   5   44.72    4.22
   1   3   5   12.46    2.34
   2   3   5    7.30    2.66
   3   3   5  151.96    9.57
   4   3   5   26.08    3.45
   5   3   5  224.31    9.08
   6   3   5   -0.36    1.19
   7   3   5    1.76    1.74
   8   3   5   10.66    2.98
   9   3   5    5.91    4.12
 -12   4   5   31.20    7.95
 -11   4   5    0.89    2.82
 -10   4   5   44.71    9.01
  -9   4   5   28.01    6.50
  -8   4   5   25.21    6.19
  -7   4   5   24.20    6.03
  -6   4   5   18.44    4.97
  -5   4   5   15.65    4.43
  -4   4   5   10.63    3.62
  -3   4   5    7.95    3.28
  -2   4   5    0.27    1.37
  -1   4   5  321.26   16.32
   0   4   5    6.97    1.73
   1   4   5  193.54    7.83
   2   4   5    2.49    1.86
   3   4   5   12.50    3.65
   4   4   5   22.08    4.69
   5   4   5   22.67    3.64
   6   4   5    1.85    1.58
   7   4   5   11.48    2.95
   8   4   5   95.05    8.30
 -12   5   5   29.78    7.43
 -11   5   5   33.58    7.96
 -10   5   5   14.86    5.07
  -9   5   5   16.47    5.34
  -8   5   5  186.12   14.15
  -7   5   5   24.05    5.79
  -6   5   5   25.91    6.01
  -5   5   5   10.06    3.92
  -4   5   5  176.80   12.56
  -3   5   5   -1.78    1.28
  -2   5   5   92.88   10.35
  -1   5   5   13.45    4.13
   0   5   5    5.60    2.81
   1   5   5   67.25    5.55
   2   5   5    2.17    1.56
   3   5   5   11.86    3.55
   4   5   5   29.45    5.74
   5   5   5   16.32    4.47
   6   5   5   47.66    5.41
   7   5   5    3.98    2.24
 -12   6   5   13.90    5.67
 -11   6   5   56.68    9.83
 -10   6   5   -1.50    2.01
  -9   6   5   -0.26    2.08
  -8   6   5   75.68   10.34
  -7   6   5   11.49    4.43
  -6   6   5   12.98    4.17
  -5   6   5   74.46   10.26
  -4   6   5    0.01    1.76
  -3   6   5  133.61   10.95
  -2   6   5   27.16    5.47
  -1   6   5   21.41    5.03
   0   6   5   13.26    4.11
   1   6   5  251.79   15.08
   2   6   5   10.62    2.43
   3   6   5   15.55    4.04
   4   6   5   38.11    6.36
   5   6   5   19.81    5.03
   6   6   5   13.91    4.52
 -12   7   5    4.85    4.31
 -11   7   5   13.37    5.37
 -10   7   5    2.72    3.00
  -9   7   5   -0.19    2.20
  -8   7   5   84.35   11.36
  -7   7   5    7.66    3.59
  -6   7   5  257.21   15.99
  -5   7   5    1.73    2.18
  -4   7   5    8.90    3.59
  -3   7   5   29.58    6.32
  -2   7   5   28.76    6.18
  -1   7   5    9.69    3.69
   0   7   5    5.95    2.84
   1   7   5   19.78    5.15
   2   7   5   62.02    9.01
   3   7   5   25.04    4.80
   4   7   5    0.04    2.15
   5   7   5   31.65    6.52
 -11   8   5    7.83    4.38
 -10   8   5   74.99   11.73
  -9   8   5    1.29    2.57
  -8   8   5    4.14    3.23
  -7   8   5   13.59    5.08
  -6   8   5   18.66    5.20
  -5   8   5    6.40    3.21
  -4   8   5   26.61    6.17
  -3   8   5  201.89   13.82
  -2   8   5   79.94   10.25
  -1   8   5   81.85   10.04
   0   8   5    6.31    2.29
 -11   9   5    0.65    1.99
 -10   9   5   53.84    9.84
  -9   9   5    1.28    2.81
  -8   9   5    8.78    4.03
  -7   9   5   63.48    9.37
  -6   9   5   19.35    5.17
  -5   9   5   35.84    6.98
  -4   9   5    9.81    3.82
  -3   9   5    1.57    2.44
  -2   9   5   -0.54    1.25
  -1   9   5   -1.10    1.97
   0   9   5    3.33    2.44
 -11  10   5    7.70    3.24
 -10  10   5  122.91   10.04
  -9  10   5    4.08    2.44
  -8  10   5   15.01    3.68
  -7  10   5   32.61    4.85
  -6  10   5   29.02    4.59
  -5  10   5   20.32    3.76
  -4  10   5    2.02    1.90
  -3  10   5    5.85    3.45
  -2  10   5   78.32   10.30
  -1  10   5   56.80    8.71
 -10  11   5   12.23    3.50
  -9  11   5   25.96    4.85
  -8  11   5   32.36    5.09
  -7  11   5    2.63    1.97
  -6  11   5   23.26    5.77
  -5  11   5   39.25    7.56
  -4  11   5   12.08    4.23
  -3  11   5   12.08    4.40
  -2  11   5    6.21    3.40
  -1  11   5   12.39    4.51
  -8  12   5   17.15    8.06
  -7  12   5   25.58    6.47
  -6  12   5   10.26    4.18
  -5  12   5    7.09    3.84
  -4  12   5   98.36   12.21
  -3  12   5    3.80    3.36
   7 -11   6  117.61   14.31
   2 -10   6   34.74    7.53
   3 -10   6   52.79    9.46
   4 -10   6   47.36    8.76
   5 -10   6   30.15    7.44
   6 -10   6    4.27    3.36
   7 -10   6    1.36    2.41
   8 -10   6   50.80    6.26
   9 -10   6   -0.87    2.59
   0  -9   6   15.33    5.53
   1  -9   6    0.72    2.53
   2  -9   6    2.45    2.91
   3  -9   6   25.76    6.37
   4  -9   6   11.03    4.17
   5  -9   6    7.92    3.78
   6  -9   6   33.46    7.14
   7  -9   6   10.75    3.17
   8  -9   6   60.59    6.84
   9  -9   6   19.57    3.87
  10  -9   6    5.39    3.01
  -2  -8   6   38.66    7.88
  -1  -8   6   78.55   11.27
   0  -8   6   52.38    8.89
   1  -8   6   37.66    7.69
   2  -8   6    3.26    3.12
   3  -8   6   29.67    6.68
   4  -8   6    9.10    3.68
   5  -8   6   45.73    7.94
   6  -8   6   -0.24    2.34
   7  -8   6   24.75    4.27
   8  -8   6   40.53    5.34
   9  -8   6    0.66    1.90
  10  -8   6   27.87    4.67
  -3  -7   6    6.84    4.33
  -2  -7   6    7.70    4.31
  -1  -7   6   19.50    5.21
   0  -7   6    9.24    3.76
   1  -7   6   -0.86    2.09
   2  -7   6   11.89    4.35
   3  -7   6   17.09    5.09
   4  -7   6   89.90   10.70
   5  -7   6   47.95    8.22
   6  -7   6   14.56    4.54
   7  -7   6   12.51    2.99
   8  -7   6   30.61    4.57
   9  -7   6    1.65    1.94
  10  -7   6   53.14    6.48
  11  -7   6   30.07    7.47
  -5  -6   6    3.45    3.75
  -4  -6   6    3.41    3.40
  -3  -6   6   34.11    7.12
  -2  -6   6   -1.86    1.93
  -1  -6   6   20.46    5.61
   0  -6   6    3.18    2.46
   1  -6   6  201.10   13.50
   2  -6   6    3.72    2.71
   3  -6   6   85.96   10.13
   4  -6   6    4.57    2.80
   5  -6   6   40.21    7.06
   6  -6   6    4.41    2.89
   7  -6   6   -1.77    1.17
   8  -6   6    5.04    2.32
   9  -6   6   36.98    5.19
  10  -6   6   51.24    6.20
  11  -6   6   11.54    4.90
  -6  -5   6   12.36    5.21
  -5  -5   6   41.64    8.35
  -4  -5   6   13.47    4.68
  -3  -5   6   38.26    7.42
  -2  -5   6   44.32    7.39
  -1  -5   6   37.53    7.03
   0  -5   6    1.79    2.30
   1  -5   6   17.08    4.72
   2  -5   6    9.40    3.56
   3  -5   6    3.66    1.75
   4  -5   6   30.50    6.06
   5  -5   6    4.35    3.15
   6  -5   6  192.51   13.18
   7  -5   6   14.88    3.16
   8  -5   6   28.77    4.27
   9  -5   6    2.19    1.90
  10  -5   6   19.01    3.90
  11  -5   6    2.46    3.25
  -6  -4   6   54.60    9.07
  -5  -4   6    6.03    3.44
  -4  -4   6   14.62    4.81
  -3  -4   6   88.53   10.62
  -2  -4   6    6.40    3.24
  -1  -4   6   46.80    7.34
   0  -4   6   12.41    4.01
   1  -4   6   37.40    4.50
   2  -4   6   36.22    4.47
   3  -4   6   68.31    6.29
   4  -4   6   19.90    4.81
   5  -4   6   17.14    4.38
   6  -4   6    3.21    2.79
   7  -4   6   18.57    3.30
   8  -4   6   10.43    2.32
   9  -4   6   11.16    3.00
  10  -4   6    3.43    2.30
  11  -4   6  103.72   13.07
  -5  -3   6   22.78    5.58
  -4  -3   6   18.67    5.00
  -3  -3   6   78.67    9.56
  -2  -3   6    5.46    1.93
  -1  -3   6   69.24    6.18
   0  -3   6   17.33    3.09
   1  -3   6    5.67    1.92
   2  -3   6  115.14    6.64
   3  -3   6   15.08    4.38
   4  -3   6   38.38    6.42
   5  -3   6    7.97    3.18
   6  -3   6   84.38   10.15
   7  -3   6   73.76    9.77
   8  -3   6   41.44    5.18
   9  -3   6   42.78    5.53
  10  -3   6    2.98    2.20
  -5  -2   6    3.24    4.57
  -4  -2   6    6.06    2.23
  -3  -2   6   12.76    2.78
  -2  -2   6   42.14    4.71
  -1  -2   6  126.60    6.85
   0  -2   6   72.43    6.12
   1  -2   6   75.11    6.23
   2  -2   6   60.32    5.71
   3  -2   6    4.58    2.72
   4  -2   6   58.06    8.03
   5  -2   6    3.37    2.42
   6  -2   6    6.41    2.97
   7  -2   6   47.72    7.89
   8  -2   6    3.80    2.49
   9  -2   6   13.53    3.38
  10  -2   6   51.57    6.30
  -6  -1   6    2.22    2.68
  -5  -1   6  198.95   13.31
  -4  -1   6   18.48    3.27
  -3  -1   6   38.77    4.66
  -2  -1   6    4.09    1.76
  -1  -1   6   80.02    6.43
   0  -1   6   16.43    2.95
   1  -1   6   18.13    3.05
   2  -1   6   74.35    6.26
   3  -1   6  129.64    9.40
   4  -1   6   70.54    8.73
   5  -1   6   51.63    7.57
   6  -1   6   39.47    6.91
   7  -1   6   16.06    4.90
   8  -1   6   30.81    6.48
   9  -1   6   57.26    7.42
  10  -1   6   -1.14    2.73
  -8   0   6   43.48    7.80
  -7   0   6   12.43    4.80
  -6   0   6    5.64    3.05
  -5   0   6    2.16    2.20
  -4   0   6   16.47    4.97
  -3   0   6   16.18    2.94
  -2   0   6   63.53    5.63
  -1   0   6   14.06    2.72
   0   0   6  155.50    7.38
   1   0   6   10.26    2.42
   2   0   6   72.79    6.21
   3   0   6   16.84    4.11
   4   0   6   12.31    3.82
   5   0   6    1.72    1.94
   6   0   6    3.71    2.41
   7   0   6   13.88    4.39
   8   0   6   60.42    9.03
   9   0   6   16.68    5.27
 -10   1   6   -0.28    3.10
  -9   1   6   61.65    9.95
  -8   1   6   40.46    7.78
  -7   1   6   23.00    5.86
  -6   1   6   34.37    6.85
  -5   1   6   36.26    6.76
  -4   1   6   88.62   10.99
  -3   1   6  125.59   10.50
  -2   1   6   71.41    6.01
  -1   1   6   13.59    2.66
   0   1   6   14.16    2.69
   1   1   6   74.30    6.06
   2   1   6    2.05    1.57
   3   1   6   34.21    5.60
   4   1   6   33.22    5.85
   5   1   6  198.67   12.48
   6   1   6    1.95    2.25
   7   1   6   30.46    6.29
   8   1   6    3.69    2.83
 -10   2   6   36.39    8.03
  -9   2   6    9.06    4.08
  -8   2   6    2.54    3.18
  -7   2   6   40.74    7.73
  -6   2   6    2.56    2.75
  -5   2   6    5.38    3.01
  -4   2   6   42.46    7.88
  -3   2   6    0.50    2.03
  -2   2   6   59.98    8.33
  -1   2   6   80.55    6.40
   0   2   6   65.22    5.73
   1   2   6  126.13    6.69
   2   2   6   46.14    5.07
   3   2   6   17.22    4.13
   4   2   6    2.49    2.15
   5   2   6    9.04    3.56
   6   2   6    6.56    3.29
   7   2   6    1.27    2.55
   8   2   6   26.42    6.37
 -10   3   6   -2.03    2.51
  -9   3   6   33.49    7.62
  -8   3   6   38.56    8.02
  -7   3   6   92.35   12.17
  -6   3   6   81.09   10.81
  -5   3   6   18.13    5.25
  -4   3   6   45.53    8.04
  -3   3   6   12.12    4.31
  -2   3   6  122.45   10.36
  -1   3   6    3.01    2.27
   0   3   6   18.37    3.79
   1   3   6   80.07    6.50
   2   3   6    7.26    1.96
   3   3   6  102.19   10.34
   4   3   6   10.87    3.60
   5   3   6   31.79    6.21
   6   3   6   31.34    6.38
   7   3   6   44.86    7.85
 -10   4   6    1.10    3.05
  -9   4   6   17.20    5.86
  -8   4   6   12.22    4.73
  -7   4   6   13.94    4.68
  -6   4   6    2.68    2.24
  -5   4   6   25.20    6.20
  -4   4   6   21.44    5.65
  -3   4   6   96.84   11.88
  -2   4   6   48.36    7.88
  -1   4   6   42.90    7.35
   0   4   6   25.46    5.73
   1   4   6   35.89    6.86
   2   4   6    5.14    2.07
   3   4   6   91.22    9.75
   4   4   6    9.92    3.61
   5   4   6    8.85    3.52
   6   4   6   51.65    8.31
   7   4   6   47.07   12.32
 -10   5   6   24.35    7.02
  -9   5   6   12.60    5.04
  -8   5   6   24.96    6.79
  -7   5   6    8.87    4.16
  -6   5   6  187.20   14.36
  -5   5   6    4.40    2.99
  -4   5   6   53.41    9.12
  -3   5   6    2.34    2.59
  -2   5   6    9.84    3.98
  -1   5   6   30.27    6.70
   0   5   6    0.51    1.84
   1   5   6   32.30    6.73
   2   5   6   48.18    8.34
   3   5   6   40.16    4.92
   4   5   6   21.69    5.21
   5   5   6   28.90    6.10
   6   5   6   11.23    4.46
 -10   6   6   55.90   10.56
  -9   6   6   30.30    7.78
  -8   6   6    6.04    3.75
  -7   6   6   -0.31    2.44
  -6   6   6   -2.60    1.61
  -5   6   6   35.34    7.57
  -4   6   6    4.44    3.19
  -3   6   6   72.59   10.26
  -2   6   6    2.99    2.58
  -1   6   6  201.29   14.18
   0   6   6    0.24    1.95
   1   6   6   15.07    4.78
   2   6   6   -0.29    2.46
   3   6   6   42.51    8.34
   4   6   6   -0.99    3.04
   5   6   6    0.46    2.16
 -10   7   6   51.17   10.18
  -9   7   6    1.59    3.12
  -8   7   6   37.47    8.15
  -7   7   6   11.68    4.84
  -6   7   6   20.52    5.74
  -5   7   6   48.25    8.91
  -4   7   6   81.78   11.06
  -3   7   6   23.43    5.81
  -2   7   6    7.38    3.51
  -1   7   6    0.01    1.97
   0   7   6    7.67    3.86
   1   7   6   16.56    5.16
   2   7   6   11.15    4.52
   3   7   6    2.98    3.32
 -10   8   6   30.27    7.74
  -9   8   6    0.94    3.12
  -8   8   6   63.61   10.32
  -7   8   6   20.79    5.92
  -6   8   6    4.54    3.18
  -5   8   6   42.66    8.25
  -4   8   6   13.66    4.94
  -3   8   6   19.44    5.33
  -2   8   6    6.06    3.76
  -1   8   6   24.66    6.01
   0   8   6   45.89    8.27
   1   8   6   58.03    9.37
  -9   9   6   17.15    6.43
  -8   9   6   53.36    9.48
  -7   9   6   16.44    5.80
  -6   9   6   48.59    8.67
  -5   9   6   16.82    5.27
  -4   9   6    7.90    3.91
  -3   9   6   37.39    7.82
  -2   9   6   -2.12    2.33
  -1   9   6    0.58    2.14
  -9  10   6    0.05    3.57
  -8  10   6   39.63    8.46
  -7  10   6    3.89    3.76
  -6  10   6    2.73    3.40
  -5  10   6   23.27    6.46
  -4  10   6   52.28    6.36
  -3  10   6   63.77    9.74
  -2  10   6   21.96    6.03
  -1  10   6    4.45    3.29
  -7  11   6   86.03   12.22
   1  -8   7   88.52   12.15
   2  -8   7   14.96    5.57
   3  -8   7   74.84   11.34
   4  -8   7   11.47    4.72
   5  -8   7    1.70    3.04
   6  -8   7   12.11    4.62
   7  -8   7    8.37    5.05
  -1  -7   7    4.64    3.60
   0  -7   7   12.84    4.59
   1  -7   7    5.50    3.45
   2  -7   7    2.04    3.09
   3  -7   7   12.68    4.57
   4  -7   7    1.85    2.43
   5  -7   7    4.66    3.65
   6  -7   7   88.04   11.58
   7  -7   7   13.70    4.90
   8  -7   7   59.54   12.27
  -3  -6   7   12.39    4.96
  -2  -6   7    4.67    3.48
  -1  -6   7   79.29   10.71
   0  -6   7   18.56    5.51
   1  -6   7    3.98    3.38
   2  -6   7   21.97    5.98
   3  -6   7   77.36   10.39
   4  -6   7    1.21    2.46
   5  -6   7   26.92    6.23
   6  -6   7   20.73    5.86
   7  -6   7   13.51    4.82
   8  -6   7   10.02    4.54
  -4  -5   7   63.93   10.32
  -3  -5   7    0.48    2.78
  -2  -5   7    1.26    2.88
  -1  -5   7   19.67    5.51
   0  -5   7   21.97    5.69
   1  -5   7   10.85    3.92
   2  -5   7   76.16   10.08
   3  -5   7    6.40    3.56
   4  -5   7   81.85    8.39
   5  -5   7   12.67    4.41
   6  -5   7    2.53    2.96
   7  -5   7    4.78    3.83
   8  -5   7   86.11   11.75
  -4  -4   7   13.33    4.85
  -3  -4   7    0.29    2.40
  -2  -4   7    3.38    2.85
  -1  -4   7   89.45   10.96
   0  -4   7   25.20    5.57
   1  -4   7  148.42   11.51
   2  -4   7    1.66    1.80
   3  -4   7    0.78    1.55
   4  -4   7   17.98    3.46
   5  -4   7    7.04    3.70
   6  -4   7   11.59    4.32
   7  -4   7   26.16    6.28
   8  -4   7   10.24    4.22
  -3  -3   7   88.38   10.79
  -2  -3   7    2.74    2.41
  -1  -3   7    0.43    2.21
   0  -3   7    9.46    2.68
   1  -3   7    4.08    2.09
   2  -3   7    1.02    1.49
   3  -3   7   11.48    2.98
   4  -3   7  130.59   13.14
   5  -3   7   67.28    9.63
   6  -3   7   71.52   10.06
   7  -3   7   -0.84    2.40
   8  -3   7    2.55    2.98
  -3  -2   7   45.41    7.87
  -2  -2   7    2.54    1.83
  -1  -2   7    0.25    1.30
   0  -2   7   59.53    5.94
   1  -2   7   14.85    3.05
   2  -2   7   70.38    6.68
   3  -2   7   11.98    3.09
   4  -2   7   -0.92    1.86
   5  -2   7    6.41    3.16
   6  -2   7    3.72    3.13
   7  -2   7    2.34    3.06
   8  -2   7   20.76    5.74
  -5  -1   7    1.98    2.89
  -4  -1   7   13.51    4.82
  -3  -1   7  153.74   12.44
  -2  -1   7    5.85    2.73
  -1  -1   7   17.74    3.46
   0  -1   7   33.02    4.41
   1  -1   7   40.52    4.99
   2  -1   7   22.18    3.88
   3  -1   7    1.14    1.74
   4  -1   7   -0.78    1.97
   5  -1   7   86.42   10.91
   6  -1   7   23.65    5.79
   7  -1   7  102.25   12.27
   8  -1   7   10.27    4.47
  -7   0   7    2.50    3.57
  -6   0   7   15.73    5.20
  -5   0   7   13.01    4.89
  -4   0   7   29.38    6.77
  -3   0   7   12.25    4.51
  -2   0   7   64.63    9.51
  -1   0   7   34.91    5.06
   0   0   7    1.01    1.45
   1   0   7   39.85    4.93
   2   0   7   67.37    6.31
   3   0   7    7.61    2.43
   4   0   7   12.85    4.05
   5   0   7   14.13    4.40
   6   0   7   15.55    4.74
   7   0   7   11.98    4.24
  -8   1   7    5.56    4.11
  -7   1   7   81.03   11.65
  -6   1   7   26.16    6.83
  -5   1   7   77.17   11.19
  -4   1   7    0.38    2.62
  -3   1   7    0.72    2.38
  -2   1   7   21.56    5.96
  -1   1   7   35.25    6.98
   0   1   7   41.39    7.57
   1   1   7   16.87    3.34
   2   1   7    5.33    2.15
   3   1   7  138.34    8.04
   4   1   7    9.55    3.93
   5   1   7    3.04    2.80
   6   1   7    8.09    3.78
   7   1   7   78.72   10.57
  -8   2   7   17.26    6.23
  -7   2   7    2.29    3.14
  -6   2   7    5.98    3.91
  -5   2   7    5.85    3.46
  -4   2   7    5.63    3.21
  -3   2   7    3.49    3.16
  -2   2   7   72.50   10.61
  -1   2   7   17.01    5.15
   0   2   7   57.84    9.23
   1   2   7   -0.48    2.64
   2   2   7    0.10    1.52
   3   2   7   51.05    5.83
   4   2   7   18.98    5.02
   5   2   7    6.61    3.38
   6   2   7    8.60    3.62
  -9   3   7   17.24    9.44
  -8   3   7    1.63    3.24
  -7   3   7    0.62    3.06
  -6   3   7   79.10   11.64
  -5   3   7   74.93   10.91
  -4   3   7  136.03   14.75
  -3   3   7   10.88    4.53
  -2   3   7   -0.05    2.11
  -1   3   7   11.85    4.43
   0   3   7    9.22    4.04
   1   3   7    0.36    2.33
   2   3   7    3.72    3.42
   3   3   7   76.91    7.27
   4   3   7   18.21    3.83
   5   3   7   69.84    9.48
   6   3   7   -0.04    2.51
  -8   4   7    6.08    4.41
  -7   4   7    8.82    4.45
  -6   4   7    6.58    3.78
  -5   4   7   11.59    4.26
  -4   4   7   18.67    5.40
  -3   4   7   -2.58    1.78
  -2   4   7    2.95    2.99
  -1   4   7  135.80   12.24
   0   4   7   22.90    5.85
   1   4   7   80.24   11.28
   2   4   7    4.11    3.14
   3   4   7   -1.93    2.18
   4   4   7   11.50    5.25
   5   4   7   11.51    3.77
  -8   5   7   58.75   10.69
  -7   5   7    4.78    4.11
  -6   5   7    4.19    3.14
  -5   5   7   22.19    6.10
  -4   5   7   63.84   10.09
  -3   5   7    3.05    3.14
  -2   5   7   59.80    9.44
  -1   5   7    7.99    3.85
   0   5   7   13.60    4.98
   1   5   7   21.50    6.10
   2   5   7    2.18    2.93
   3   5   7    0.64    2.95
   4   5   7   58.28   10.61
  -8   6   7    9.98    4.90
  -7   6   7   11.45    5.24
  -6   6   7   10.60    4.47
  -5   6   7   36.08    7.86
  -4   6   7    1.14    2.72
  -3   6   7   87.31   12.04
  -2   6   7   19.38    5.62
  -1   6   7    0.18    2.56
   0   6   7   14.26    5.17
   1   6   7   58.09    9.70
   2   6   7   12.03    5.03
   3   6   7   23.96    6.64
  -8   7   7  100.32   16.23
  -7   7   7   14.18    5.53
  -6   7   7   68.68   11.04
  -5   7   7    0.78    2.61
  -4   7   7    1.75    3.05
  -3   7   7   15.68    5.25
  -2   7   7   13.54    5.14
  -1   7   7   15.78    5.34
   0   7   7   16.70    5.42
   1   7   7    3.23    3.43
  -7   8   7    4.49    4.28
  -6   8   7    8.23    4.43
  -5   8   7   -3.08    2.63
  -4   8   7   15.00    5.45
  -3   8   7   63.62   10.31
  -2   8   7   10.34    4.78
  -1   8   7   71.82   11.16
   0   8   7    2.77    3.29
  -5   9   7   55.57    9.95
  -4   9   7    7.33    4.60
  -3   9   7    1.07    3.32
  -1  -5   8    2.50    3.29
   0  -5   8    2.16    2.97
   1  -5   8    3.94    3.37
   2  -5   8    6.34    4.28
   3  -5   8    1.65    2.58
   4  -5   8   28.72    6.91
   5  -5   8    2.96    2.98
  -2  -4   8   -1.89    4.36
  -1  -4   8   42.60    8.17
   0  -4   8    6.93    4.21
   1  -4   8    9.04    4.13
   2  -4   8   41.04    7.78
   3  -4   8   95.14   12.02
   4  -4   8    4.48    2.50
   5  -4   8    6.76    3.01
   6  -4   8    2.34    3.80
  -1  -3   8   85.88   11.24
   0  -3   8    8.26    3.83
   1  -3   8    2.94    2.04
   2  -3   8   54.65    6.44
   3  -3   8   13.66    3.33
   4  -3   8   12.03    3.42
   5  -3   8    4.47    2.68
   6  -3   8   19.55    9.04
  -1  -2   8   48.82    8.54
   0  -2   8    7.86    2.73
   1  -2   8   25.53    4.49
   2  -2   8    6.75    2.59
   3  -2   8    0.58    1.93
   4  -2   8   43.99    5.92
   5  -2   8    1.86    2.29
   6  -2   8   -2.20    4.01
  -3  -1   8   13.65    4.86
  -2  -1   8    0.30    2.92
  -1  -1   8   25.57    6.81
   0  -1   8    3.00    3.15
   1  -1   8    3.35    2.12
   2  -1   8   36.02    5.22
   3  -1   8   62.01    6.91
   4  -1   8   66.03    7.39
   5  -1   8   43.49    6.17
  -5   0   8    5.24    4.09
  -4   0   8    5.90    4.06
  -3   0   8   14.47    5.75
  -2   0   8    4.55    3.81
  -1   0   8   -0.72    2.25
   0   0   8  179.36   14.50
   1   0   8    2.12    3.05
   2   0   8   13.21    3.47
   3   0   8    5.33    2.47
   4   0   8    9.30    3.17
   5   0   8    6.51    3.93
  -6   1   8    4.37    4.00
  -5   1   8   48.81    9.40
  -4   1   8   54.60    9.44
  -3   1   8   61.57    9.79
  -2   1   8   30.15    7.34
  -1   1   8    0.40    2.82
   0   1   8    3.94    3.54
   1   1   8   34.09    7.62
   2   1   8   -0.11    2.95
   3   1   8    9.58    3.39
   4   1   8    8.03    3.07
   5   1   8  130.27   14.00
  -6   2   8   -1.46    3.22
  -5   2   8    1.49    3.03
  -4   2   8   34.55    7.80
  -3   2   8    0.77    3.00
  -2   2   8    8.95    4.73
  -1   2   8   26.49    6.52
   0   2   8    1.89    3.15
   1   2   8   49.00    8.94
   2   2   8   23.77    6.71
   3   2   8    3.18    3.89
  -6   3   8   44.09   13.89
  -5   3   8    3.82    3.56
  -4   3   8    7.72    4.04
  -3   3   8   16.40    5.62
  -2   3   8   51.74    9.80
  -1   3   8    1.68    3.06
   0   3   8    8.96    4.59
   1   3   8   77.70   11.45
   2   3   8    0.75    2.36
  -5   4   8    1.15    2.79
  -4   4   8    8.56    4.34
  -3   4   8   74.32   11.03
  -2   4   8   25.14    6.78
  -1   4   8    3.95    3.51
   0   4   8    4.23    3.57
   1   4   8   29.18    7.37
  -4   5   8   37.11    8.66
  -3   5   8   -0.86    2.71
  -2   5   8   10.13    4.89
  -1   5   8    7.33    4.33
   0   0   0    0.00    0.00
;
_shelx_hkl_checksum              76292
loop_
_space_group_symop_operation_xyz
'x, y, z'
'-y, x-y, z'
'-x+y, -x, z'
'-x, -y, z+1/2'
'y, -x+y, z+1/2'
'x-y, x, z+1/2'
loop_
_atom_site_label
_atom_site_type_symbol
_atom_site_fract_x
_atom_site_fract_y
_atom_site_fract_z
_atom_site_U_iso_or_equiv
_atom_site_adp_type
_atom_site_occupancy
_atom_site_site_symmetry_order
_atom_site_calc_flag
_atom_site_refinement_flags_posn
_atom_site_refinement_flags_adp
_atom_site_refinement_flags_occupancy
_atom_site_disorder_assembly
_atom_site_disorder_group
Sm Sm 0.12991(4) 0.35587(4) 0.02096(18) 0.01061(11) Uani 1 1 d . . . . .
NiA Ni 0.0000 0.0000 0.2483(12) 0.0109(10) Uani 0.475(5) 3 d S T P . .
NiB Ni 0.0000 0.0000 0.03(2) 0.0109(10) Uani 0.025(5) 3 d S T P . .
Ge Ge 0.3333 0.6667 0.6019(3) 0.0108(3) Uani 1 3 d S T P . .
S1 S 0.2442(2) 0.1544(2) 0.0000(6) 0.0151(4) Uani 1 1 d . . . . .
S2 S 0.5195(3) 0.1000(3) 0.2570(4) 0.0120(4) Uani 1 1 d . . . . .
S3 S 0.3333 0.6667 0.2248(7) 0.0115(7) Uani 1 3 d S T P . .
loop_
_atom_site_aniso_label
_atom_site_aniso_U_11
_atom_site_aniso_U_22
_atom_site_aniso_U_33
_atom_site_aniso_U_23
_atom_site_aniso_U_13
_atom_site_aniso_U_12
Sm 0.01110(18) 0.00935(18) 0.01127(19) 0.0010(3) 0.0006(3) 0.00504(14)
NiA 0.0097(10) 0.0097(10) 0.013(3) 0.000 0.000 0.0048(5)
NiB 0.0097(10) 0.0097(10) 0.013(3) 0.000 0.000 0.0048(5)
Ge 0.0120(5) 0.0120(5) 0.0082(7) 0.000 0.000 0.0060(2)
S1 0.0134(9) 0.0113(8) 0.0224(13) 0.0020(12) 0.0002(12) 0.0075(7)
S2 0.0111(10) 0.0116(10) 0.0125(11) 0.0001(9) -0.0009(9) 0.0051(9)
S3 0.0130(11) 0.0130(11) 0.0085(19) 0.000 0.000 0.0065(5)
loop_
_atom_type_symbol
_atom_type_description
_atom_type_scat_dispersion_real
_atom_type_scat_dispersion_imag
_atom_type_scat_source
S S 0.1246 0.1234 'International Tables Vol C Tables 4.2.6.8 and 6.1.1.4'
Ni Ni 0.3393 1.1124 'International Tables Vol C Tables 4.2.6.8 and 6.1.1.4'
Ge Ge 0.1547 1.8001 'International Tables Vol C Tables 4.2.6.8 and 6.1.1.4'
Sm Sm -0.1638 3.4418 'International Tables Vol C Tables 4.2.6.8 and 6.1.1.4'
loop_
_geom_angle_atom_site_label_1
_geom_angle_atom_site_label_2
_geom_angle_atom_site_label_3
_geom_angle
_geom_angle_site_symmetry_1
_geom_angle_site_symmetry_3
S1 Sm S1 84.13(9) 2 .
S1 Sm S2 105.84(8) 2 5_564
S1 Sm S2 142.51(9) . 5_564
S1 Sm S1 78.18(8) 2 6
S1 Sm S1 77.97(7) . 6
S2 Sm S1 139.06(7) 5_564 6
S1 Sm S2 140.13(9) 2 6_554
S1 Sm S2 74.49(7) . 6_554
S2 Sm S2 75.36(10) 5_564 6_554
S1 Sm S2 127.51(6) 6 6_554
S1 Sm S3 149.44(8) 2 .
S1 Sm S3 117.48(5) . .
S2 Sm S3 70.98(8) 5_564 .
S1 Sm S3 85.28(9) 6 .
S2 Sm S3 69.77(7) 6_554 .
S1 Sm S2 72.24(7) 2 2
S1 Sm S2 144.30(8) . 2
S2 Sm S2 71.42(4) 5_564 2
S1 Sm S2 71.36(7) 6 2
S2 Sm S2 139.69(6) 6_554 2
S3 Sm S2 78.21(6) . 2
S1 Sm NiB 42.3(2) 2 .
S1 Sm NiB 42.2(2) . .
S2 Sm NiB 139(2) 5_564 .
S1 Sm NiB 70(2) 6 .
S2 Sm NiB 112.0(14) 6_554 .
S3 Sm NiB 150(2) . .
S2 Sm NiB 108.0(12) 2 .
S1 Sm S1 74.34(7) 2 6_554
S1 Sm S1 74.16(7) . 6_554
S2 Sm S1 74.11(7) 5_564 6_554
S1 Sm S1 142.40(8) 6 6_554
S2 Sm S1 67.68(6) 6_554 6_554
S3 Sm S1 130.10(9) . 6_554
S2 Sm S1 122.06(6) 2 6_554
NiB Sm S1 73(2) . 6_554
S1 Sm NiA 48.25(7) 2 .
S1 Sm NiA 48.19(7) . .
S2 Sm NiA 154.08(7) 5_564 .
S1 Sm NiA 47.68(12) 6 .
S2 Sm NiA 122.64(6) 6_554 .
S3 Sm NiA 130.40(13) . .
S2 Sm NiA 96.64(8) 2 .
NiB Sm NiA 22(2) . .
S1 Sm NiA 94.72(12) 6_554 .
S1 Sm NiA 47.06(7) 2 4_554
S1 Sm NiA 47.02(7) . 4_554
S2 Sm NiA 115.50(11) 5_564 4_554
S1 Sm NiA 97.21(11) 6 4_554
S2 Sm NiA 95.47(8) 6_554 4_554
S3 Sm NiA 162.47(3) . 4_554
S2 Sm NiA 119.08(6) 2 4_554
NiB Sm NiA 28(2) . 4_554
S1 Sm NiA 45.19(11) 6_554 4_554
NiA Sm NiA 49.532(10) . 4_554
NiB NiA NiB 180.000(18) . 4
NiB NiA S1 56.22(14) . 3
NiB NiA S1 123.78(15) 4 3
NiB NiA S1 56.22(14) . 2
NiB NiA S1 123.78(14) 4 2
S1 NiA S1 92.1(2) 3 2
NiB NiA S1 56.22(14) . .
NiB NiA S1 123.78(14) 4 .
S1 NiA S1 92.1(2) 3 .
S1 NiA S1 92.1(2) 2 .
NiB NiA S1 124.14(14) . 6
NiB NiA S1 55.86(14) 4 6
S1 NiA S1 179.6(3) 3 6
S1 NiA S1 88.17(4) 2 6
S1 NiA S1 88.17(4) . 6
NiB NiA S1 124.14(14) . 5
NiB NiA S1 55.86(14) 4 5
S1 NiA S1 88.17(4) 3 5
S1 NiA S1 179.6(3) 2 5
S1 NiA S1 88.17(4) . 5
S1 NiA S1 91.6(2) 6 5
NiB NiA S1 124.14(14) . 4
NiB NiA S1 55.86(14) 4 4
S1 NiA S1 88.17(4) 3 4
S1 NiA S1 88.17(4) 2 4
S1 NiA S1 179.6(3) . 4
S1 NiA S1 91.6(2) 6 4
S1 NiA S1 91.6(2) 5 4
NiB NiA NiA 180.0 . 4
NiB NiA NiA 0.000(18) 4 4
S1 NiA NiA 123.78(14) 3 4
S1 NiA NiA 123.78(14) 2 4
S1 NiA NiA 123.78(14) . 4
S1 NiA NiA 55.86(14) 6 4
S1 NiA NiA 55.86(14) 5 4
S1 NiA NiA 55.86(14) 4 4
NiB NiA NiA 0.000(1) . 4_554
NiB NiA NiA 180.000(18) 4 4_554
S1 NiA NiA 56.22(14) 3 4_554
S1 NiA NiA 56.22(14) 2 4_554
S1 NiA NiA 56.22(14) . 4_554
S1 NiA NiA 124.14(14) 6 4_554
S1 NiA NiA 124.14(14) 5 4_554
S1 NiA NiA 124.14(14) 4 4_554
NiA NiA NiA 180.0 4 4_554
NiB NiA Sm 67.21(11) . 2
NiB NiA Sm 112.79(11) 4 2
S1 NiA Sm 53.08(7) 3 2
S1 NiA Sm 53.39(8) 2 2
S1 NiA Sm 123.4(2) . 2
S1 NiA Sm 126.95(6) 6 2
S1 NiA Sm 126.64(6) 5 2
S1 NiA Sm 56.93(7) 4 2
NiA NiA Sm 112.79(11) 4 2
NiA NiA Sm 67.21(11) 4_554 2
NiB NiA Sm 67.21(11) . 3
NiB NiA Sm 112.79(11) 4 3
S1 NiA Sm 53.39(8) 3 3
S1 NiA Sm 123.4(2) 2 3
S1 NiA Sm 53.08(7) . 3
S1 NiA Sm 126.64(6) 6 3
S1 NiA Sm 56.93(7) 5 3
S1 NiA Sm 126.95(6) 4 3
NiA NiA Sm 112.79(11) 4 3
NiA NiA Sm 67.21(11) 4_554 3
Sm NiA Sm 105.96(12) 2 3
NiA NiB NiA 180.0 . 4_554
NiA NiB S1 94(4) . 3
NiA NiB S1 86(4) 4_554 3
NiA NiB S1 94(4) . 2
NiA NiB S1 86(4) 4_554 2
S1 NiB S1 119.4(10) 3 2
NiA NiB S1 94(4) . .
NiA NiB S1 86(4) 4_554 .
S1 NiB S1 119.4(10) 3 .
S1 NiB S1 119.4(10) 2 .
NiA NiB NiB 0.000(1) . 4
NiA NiB NiB 180.0 4_554 4
S1 NiB NiB 94(4) 3 4
S1 NiB NiB 94(4) 2 4
S1 NiB NiB 94(4) . 4
NiA NiB NiB 180.0 . 4_554
NiA NiB NiB 0.0 4_554 4_554
S1 NiB NiB 86(4) 3 4_554
S1 NiB NiB 86(4) 2 4_554
S1 NiB NiB 86(4) . 4_554
NiB NiB NiB 180.000(10) 4 4_554
NiA NiB Sm 91(2) . 2
NiA NiB Sm 89(2) 4_554 2
S1 NiB Sm 59.84(11) 3 2
S1 NiB Sm 60.22(11) 2 2
S1 NiB Sm 175(6) . 2
NiB NiB Sm 91(2) 4 2
NiB NiB Sm 89(2) 4_554 2
NiA NiB Sm 91(2) . 3
NiA NiB Sm 89(2) 4_554 3
S1 NiB Sm 60.22(11) 3 3
S1 NiB Sm 175(6) 2 3
S1 NiB Sm 59.84(11) . 3
NiB NiB Sm 91(2) 4 3
NiB NiB Sm 89(2) 4_554 3
Sm NiB Sm 119.98(12) 2 3
NiA NiB Sm 91(2) . .
NiA NiB Sm 89(2) 4_554 .
S1 NiB Sm 175(6) 3 .
S1 NiB Sm 59.84(11) 2 .
S1 NiB Sm 60.22(11) . .
NiB NiB Sm 91(2) 4 .
NiB NiB Sm 89(2) 4_554 .
Sm NiB Sm 119.98(12) 2 .
Sm NiB Sm 119.98(13) 3 .
S3 Ge S2 113.62(8) . 4_665
S3 Ge S2 113.62(8) . 5_565
S2 Ge S2 105.02(9) 4_665 5_565
S3 Ge S2 113.62(8) . 6
S2 Ge S2 105.02(9) 4_665 6
S2 Ge S2 105.02(9) 5_565 6
NiB S1 NiA 29(4) . .
NiB S1 NiA 39(4) . 4_554
NiA S1 NiA 67.93(5) . 4_554
NiB S1 Sm 77.89(12) . 3
NiA S1 Sm 78.67(6) . 3
NiA S1 Sm 81.56(7) 4_554 3
NiB S1 Sm 77.58(12) . .
NiA S1 Sm 78.42(7) . .
NiA S1 Sm 81.30(7) 4_554 .
Sm S1 Sm 155.26(9) 3 .
NiB S1 Sm 114(4) . 5_554
NiA S1 Sm 143.32(16) . 5_554
NiA S1 Sm 75.39(15) 4_554 5_554
Sm S1 Sm 96.54(9) 3 5_554
Sm S1 Sm 96.24(8) . 5_554
NiB S1 Sm 104(4) . 5
NiA S1 Sm 74.28(15) . 5
NiA S1 Sm 142.21(16) 4_554 5
Sm S1 Sm 91.47(8) 3 5
Sm S1 Sm 91.22(8) . 5
Sm S1 Sm 142.40(8) 5_554 5
Ge S2 Sm 90.96(8) 4_664 6_655
Ge S2 Sm 88.65(8) 4_664 5
Sm S2 Sm 109.75(9) 6_655 5
Ge S2 Sm 120.05(10) 4_664 3
Sm S2 Sm 143.39(9) 6_655 3
Sm S2 Sm 91.26(7) 5 3
Ge S3 Sm 113.26(8) . .
Ge S3 Sm 113.26(8) . 3_565
Sm S3 Sm 105.44(9) . 3_565
Ge S3 Sm 113.26(8) . 2_665
Sm S3 Sm 105.44(9) . 2_665
Sm S3 Sm 105.44(9) 3_565 2_665
loop_
_geom_bond_atom_site_label_1
_geom_bond_atom_site_label_2
_geom_bond_distance
_geom_bond_site_symmetry_2
Sm S1 2.749(2) 2
Sm S1 2.762(2) .
Sm S2 2.840(2) 5_564
Sm S1 2.919(3) 6
Sm S2 2.929(2) 6_554
Sm S3 2.9652(18) .
Sm S2 2.990(2) 2
Sm NiB 3.108(2) .
Sm S1 3.147(3) 6_554
Sm NiA 3.371(3) .
Sm NiA 3.480(3) 4_554
NiA NiB 1.26(13) .
NiA NiB 1.61(13) 4
NiA S1 2.565(5) 3
NiA S1 2.565(5) 2
NiA S1 2.565(5) .
NiA S1 2.576(5) 6
NiA S1 2.576(5) 5
NiA S1 2.576(5) 4
NiA NiA 2.8718(3) 4
NiA NiA 2.8718(3) 4_554
NiA Sm 3.371(3) 2
NiA Sm 3.371(3) 3
NiB NiA 1.61(13) 4_554
NiB S1 2.138(11) 3
NiB S1 2.138(11) 2
NiB S1 2.138(11) .
NiB NiB 2.8718(3) 4
NiB NiB 2.8718(3) 4_554
NiB Sm 3.108(2) 2
NiB Sm 3.108(2) 3
Ge S3 2.166(4) .
Ge S2 2.222(3) 4_665
Ge S2 2.222(3) 5_565
Ge S2 2.222(2) 6
S1 NiA 2.576(5) 4_554
S1 Sm 2.749(2) 3
S1 Sm 2.919(3) 5_554
S1 Sm 3.147(3) 5
S2 Ge 2.222(2) 4_664
S2 Sm 2.840(2) 6_655
S2 Sm 2.929(2) 5
S2 Sm 2.990(2) 3
S3 Sm 2.9653(18) 3_565
S3 Sm 2.9653(18) 2_665
