#------------------------------------------------------------------------------
#$Date: 2021-02-22 10:09:13 +0200 (Mon, 22 Feb 2021) $
#$Revision: 262126 $
#$URL: file:///home/coder/svn-repositories/cod/cif/1/56/05/1560508.cif $
#------------------------------------------------------------------------------
#
# This file is available in the Crystallography Open Database (COD),
# http://www.crystallography.net/
#
# All data on this site have been placed in the public domain by the
# contributors.
#
data_1560508
loop_
_publ_author_name
'Konatham, Satish'
'Vidyasagar, Kanamaluru'
_publ_section_title
;
 Syntheses and structural characterization of vanado-tellurites and
 vanadyl-selenites: SrVTeO 5 (OH), Cd 2 V 2 Te 2 O 11 , Ca 3 VSe 4 O 13
 &#x00B7;H 2 O and Ba 2 VSe 3 O 10
;
_journal_name_full               'Journal of Solid State Chemistry'
_journal_page_first              39
_journal_page_last               45
_journal_paper_doi               10.1016/j.jssc.2017.02.017
_journal_volume                  249
_journal_year                    2017
_chemical_formula_moiety         'H O6 Sr Te V'
_chemical_formula_sum            'H O6 Sr Te V'
_chemical_formula_weight         363.17
_space_group_crystal_system      monoclinic
_space_group_IT_number           14
_space_group_name_Hall           '-P 2ybc'
_space_group_name_H-M_alt        'P 1 21/c 1'
_atom_sites_solution_hydrogens   difmap
_cell_angle_alpha                90
_cell_angle_beta                 100.351(2)
_cell_angle_gamma                90
_cell_formula_units_Z            4
_cell_length_a                   6.9891(3)
_cell_length_b                   6.8356(2)
_cell_length_c                   11.9257(5)
_cell_measurement_reflns_used    5351
_cell_measurement_temperature    296(2)
_cell_measurement_theta_max      37.11
_cell_measurement_theta_min      3.15
_cell_volume                     560.47(4)
_computing_cell_refinement       APEXII,Bruker,2004
_computing_data_collection       APEXII,Bruker,2004
_computing_data_reduction        SAINT,Bruker,2004
_computing_molecular_graphics    'ORTEP-3 (Farrugia, 1997)'
_computing_publication_material  'SHELXL-97 (Sheldrick, 1997)'
_computing_structure_refinement  'SHELXL-2014/7 (Sheldrick, 2014)'
_computing_structure_solution    'SHELXL-2014/7 (Sheldrick, 2014)'
_diffrn_ambient_temperature      296(2)
_diffrn_measured_fraction_theta_full 1.000
_diffrn_measured_fraction_theta_max 0.812
_diffrn_measurement_device_type  'Bruker ApexII ccd area detector'
_diffrn_measurement_method       'phi and omega scans'
_diffrn_radiation_type           MoK\a
_diffrn_radiation_wavelength     0.71073
_diffrn_reflns_av_R_equivalents  0.0311
_diffrn_reflns_av_unetI/netI     0.0364
_diffrn_reflns_Laue_measured_fraction_full 1.000
_diffrn_reflns_Laue_measured_fraction_max 0.812
_diffrn_reflns_limit_h_max       11
_diffrn_reflns_limit_h_min       -9
_diffrn_reflns_limit_k_max       11
_diffrn_reflns_limit_k_min       -9
_diffrn_reflns_limit_l_max       19
_diffrn_reflns_limit_l_min       -16
_diffrn_reflns_number            11018
_diffrn_reflns_point_group_measured_fraction_full 1.000
_diffrn_reflns_point_group_measured_fraction_max 0.812
_diffrn_reflns_theta_full        25.242
_diffrn_reflns_theta_max         37.369
_diffrn_reflns_theta_min         2.963
_diffrn_source                   'fine-focus sealed tube'
_exptl_absorpt_coefficient_mu    16.240
_exptl_absorpt_correction_type   multi-scan
_exptl_absorpt_process_details   SADABS(Bruker,2004)
_exptl_crystal_colour            yellow
_exptl_crystal_density_diffrn    4.304
_exptl_crystal_density_method    'not measured'
_exptl_crystal_description       block
_exptl_crystal_F_000             648
_exptl_crystal_size_max          0.250
_exptl_crystal_size_mid          0.200
_exptl_crystal_size_min          0.200
_exptl_transmission_factor_max   0.039
_exptl_transmission_factor_min   0.028
_refine_diff_density_max         1.223
_refine_diff_density_min         -1.232
_refine_diff_density_rms         0.263
_refine_ls_extinction_coef       .
_refine_ls_extinction_method     none
_refine_ls_goodness_of_fit_ref   1.067
_refine_ls_hydrogen_treatment    refall
_refine_ls_matrix_type           full
_refine_ls_number_parameters     86
_refine_ls_number_reflns         2379
_refine_ls_number_restraints     1
_refine_ls_restrained_S_all      1.067
_refine_ls_R_factor_all          0.0388
_refine_ls_R_factor_gt           0.0272
_refine_ls_shift/su_max          0.001
_refine_ls_shift/su_mean         0.000
_refine_ls_structure_factor_coef Fsqd
_refine_ls_weighting_details
'w=1/[\s^2^(Fo^2^)+(0.0220P)^2^+0.6703P] where P=(Fo^2^+2Fc^2^)/3'
_refine_ls_weighting_scheme      calc
_refine_ls_wR_factor_gt          0.0519
_refine_ls_wR_factor_ref         0.0544
_reflns_Friedel_coverage         0.000
_reflns_Friedel_fraction_full    .
_reflns_Friedel_fraction_max     .
_reflns_number_gt                1973
_reflns_number_total             2379
_reflns_threshold_expression     'I > 2\s(I)'
_cod_data_source_file            JSSC-2017-249-39.cif
_cod_data_source_block           SrVTeO5(OH)
_cod_original_sg_symbol_H-M      'P 21/c'
_cod_database_code               1560508
_shelx_space_group_comment
;
The symmetry employed for this shelxl refinement is uniquely defined
by the following loop, which should always be used as a source of
symmetry information in preference to the above space-group names.
They are only intended as comments.
;
_shelx_estimated_absorpt_t_min   0.106
_shelx_estimated_absorpt_t_max   0.140
_shelx_res_file
;
TITL 726A in P2(1)/c
    shelx.res
    created by SHELXL-2016/6 at 02:46:55 on 12-Dec-2016
CELL  0.71073   6.9891   6.8356  11.9257   90.000  100.351   90.000
ZERR     4.00   0.0003   0.0002   0.0005    0.000    0.002    0.000
LATT   1
SYMM  - X, 1/2 + Y, 1/2 - Z
SFAC  O    V    SR   TE   H
UNIT  24 4 4 4 4
MERG   2
DFIX 0.83 0.01 H1 O2
SIZE     0.20   0.20   0.25
L.S.   4
FMAP   2
PLAN   20
ACTA
TEMP    23.00
WGHT    0.022000    0.670300
FVAR       0.09217
SR1   3    0.593809    0.022464    0.338999    11.00000    0.00880    0.01007 =
         0.01030    0.00085    0.00324   -0.00013
V1    2    0.844144    0.160073    0.639899    11.00000    0.00607    0.00641 =
         0.00963    0.00005    0.00247    0.00018
TE1   4    0.193040    0.157047    0.924091    11.00000    0.00672    0.00758 =
         0.01160   -0.00055    0.00358   -0.00005
O1    1    0.335390    0.161260    0.078761    11.00000    0.02042    0.01011 =
         0.00982   -0.00303    0.00002    0.00066
O2    1    0.410009    0.136077    0.857446    11.00000    0.00918    0.01298 =
         0.01385   -0.00065    0.00647    0.00025
O3    1    0.283021    0.014250    0.449063    11.00000    0.01542    0.01153 =
         0.01289   -0.00289    0.00144   -0.00119
O4    1    0.853157    0.121216    0.057452    11.00000    0.02043    0.00666 =
         0.01621   -0.00141    0.00713   -0.00275
O5    1    0.715633    0.190895    0.742366    11.00000    0.01242    0.01454 =
         0.01635   -0.00194    0.00851   -0.00085
O6    1    0.062360    0.069819    0.693805    11.00000    0.00864    0.01993 =
         0.02695    0.00254    0.00288    0.00385
H1    5    0.479610    0.040697    0.880962    11.00000    0.20457
HKLF    4




REM  726A in P2(1)/c
REM R1 =  0.0272 for    1973 Fo > 4sig(Fo)  and  0.0388 for all    2379 data
REM     86 parameters refined using      1 restraints

END

WGHT      0.0218      0.6940

REM Highest difference peak  1.223,  deepest hole -1.232,  1-sigma level  0.263
Q1    1   0.3651  0.1501  0.9336  11.00000  0.05    1.22
Q2    1   0.1788  0.1743  0.8627  11.00000  0.05    1.01
Q3    1   0.0556  0.1506  0.9000  11.00000  0.05    0.99
Q4    1   0.7280  0.2782  0.7496  11.00000  0.05    0.95
Q5    1   0.7418  0.0446  0.7946  11.00000  0.05    0.90
Q6    1   0.5357  0.1846  0.9940  11.00000  0.05    0.89
Q7    1   0.7023  0.2039  0.6789  11.00000  0.05    0.86
Q8    1   0.2013  0.1459  0.6600  11.00000  0.05    0.83
Q9    1   0.1837  0.2955  0.7644  11.00000  0.05    0.83
Q10   1   0.7835 -0.0278  0.4261  11.00000  0.05    0.83
Q11   1   0.1018  0.1600  0.6467  11.00000  0.05    0.83
Q12   1   0.3529  0.2522  0.0384  11.00000  0.05    0.82
Q13   1   0.4236 -0.1565  0.9255  11.00000  0.05    0.80
Q14   1   0.3754  0.0300  0.0973  11.00000  0.05    0.78
Q15   1   0.0962 -0.0105  0.5883  11.00000  0.05    0.78
Q16   1   0.5833 -0.0274  0.2526  11.00000  0.05    0.78
Q17   1   0.1072  0.2789  0.7617  11.00000  0.05    0.78
Q18   1   0.7553  0.3066  0.6966  11.00000  0.05    0.78
Q19   1   0.8622 -0.0281  0.7032  11.00000  0.05    0.77
Q20   1   0.7179 -0.0614  0.3084  11.00000  0.05    0.77
;
_shelx_res_checksum              23515
_shelx_hkl_file
;
   1   0   0    0.86    0.15
   1   0   0    0.75    0.13
   1   0   0    0.89    0.16
   1   0   0    0.56    0.14
   1   0   0    0.93    0.17
  -1   0   0    0.77    0.16
  -1   0   0    0.61    0.13
  -1   0   0    0.48    0.13
   2   0   0  200.48    5.73
   2   0   0  193.92    5.66
   2   0   0  187.61    6.24
  -2   0   0  181.74    6.09
   2   0   0  189.57    6.09
  -2   0   0  196.02    5.65
   2   0   0  196.16    6.11
  -2   0   0  200.10    6.11
   3   0   0  169.58    5.77
   3   0   0  177.18    5.36
  -3   0   0  181.74    5.33
  -3   0   0  169.68    5.79
  -3   0   0  180.22    5.78
   3   0   0  182.38    5.45
   3   0   0  175.83    5.79
   3   0   0  175.96    5.91
   4   0   0   86.35    2.99
   4   0   0   83.56    3.22
  -4   0   0   84.97    3.26
   5   0   0  310.54   10.14
   5   0   0  316.24    9.42
  -5   0   0  306.18   10.18
  -6   0   0    5.40    0.86
   6   0   0    5.21    0.73
   6   0   0    5.41    0.87
   7   0   0    4.92    0.82
  -7   0   0    4.61    0.90
   7   0   0    5.35    0.94
   8   0   0   67.28    3.06
  -8   0   0   68.70    3.47
   8   0   0   64.64    3.27
   9   0   0   37.58    2.28
   9   0   0   39.11    2.56
   0  -1   0    0.03    0.05
   0  -1   0    0.13    0.03
   0  -1   0    0.14    0.03
   0   1   0    0.03    0.05
   0   1   0    0.13    0.02
   1  -1   0   52.76    1.74
  -1  -1   0   58.18    1.72
  -1  -1   0   51.46    1.74
  -1  -1   0   52.43    1.63
  -1  -1   0   50.20    1.75
  -1  -1   0   53.35    1.60
   1  -1   0   51.75    1.62
   1  -1   0   53.11    1.74
   1   1   0   54.40    1.63
   1   1   0   54.07    1.74
  -1   1   0   49.64    1.75
   1   1   0   50.65    1.75
   1   1   0   51.79    1.75
  -1   1   0   53.50    1.62
  -1   1   0   50.99    1.74
   2  -1   0    2.46    0.34
   2  -1   0    2.60    0.31
  -2  -1   0    3.22    0.35
  -2  -1   0    2.26    0.29
   2  -1   0    1.95    0.29
  -2  -1   0    2.26    0.32
  -2  -1   0    1.87    0.26
  -2  -1   0    1.97    0.25
   2   1   0    1.67    0.27
  -2   1   0    2.28    0.28
   2   1   0    2.26    0.28
   2   1   0    2.34    0.29
  -2   1   0    1.83    0.30
   2   1   0    2.15    0.30
   2   1   0    3.76    0.42
  -2   1   0    2.14    0.32
   3  -1   0   25.41    1.14
  -3  -1   0   26.67    1.11
  -3  -1   0   25.34    1.22
  -3  -1   0   29.43    1.30
   3  -1   0   24.80    1.22
   3  -1   0   25.64    1.18
   3   1   0   22.99    1.15
  -3   1   0   24.69    1.24
   3   1   0   26.51    1.27
   3   1   0   26.77    1.15
  -3   1   0   20.51    1.20
   3   1   0   27.65    1.30
  -4  -1   0   38.14    1.80
   4  -1   0   39.91    1.68
   4  -1   0   39.74    1.83
  -4  -1   0   37.92    1.83
   4   1   0   42.01    1.70
  -4   1   0   38.35    1.87
   4   1   0   40.06    1.86
  -5  -1   0    2.36    0.51
   5  -1   0    2.58    0.56
   5  -1   0    2.48    0.49
  -5   1   0    2.81    0.59
   5   1   0    2.53    0.51
   5   1   0    2.04    0.52
   6  -1   0   86.06    3.62
   6  -1   0   87.02    3.34
  -6  -1   0   89.59    3.69
  -6   1   0   88.28    3.75
   6   1   0   87.74    3.66
   6   1   0   86.97    3.33
  -7  -1   0   24.44    1.80
   7  -1   0   25.88    1.79
   7  -1   0   26.14    1.65
   7   1   0   25.21    1.81
  -7   1   0   30.81    2.01
   7   1   0   25.55    1.60
  -8  -1   0   30.45    2.16
   8  -1   0   30.39    2.08
   8  -1   0   31.65    1.95
   8   1   0   30.41    1.92
   8   1   0   28.89    2.09
  -8   1   0   31.69    2.25
   9  -1   0   41.36    2.70
   9  -1   0   41.98    2.48
  -9  -1   0   49.54    2.93
   9   1   0   44.38    2.52
  -9   1   0   50.03    3.02
   9   1   0   47.57    2.85
  10   1   0   -0.02    0.75
  11   1   0   15.83    1.98
   0  -2   0    6.42    0.25
   0  -2   0    6.66    0.25
   0  -2   0    7.74    0.42
   0   2   0    7.67    0.43
   0   2   0    6.45    0.26
   0   2   0    6.40    0.25
   1  -2   0  106.39    3.40
  -1  -2   0  113.30    3.17
   1  -2   0  114.58    3.60
  -1  -2   0  109.97    3.61
   1  -2   0  114.53    3.43
  -1  -2   0  113.68    3.21
  -1  -2   0  111.49    3.38
   1  -2   0  111.06    3.20
  -1  -2   0  105.24    3.44
  -1   2   0  111.78    3.59
   1   2   0  115.15    3.18
   1   2   0  110.76    3.60
   1   2   0  108.76    3.43
   1   2   0  105.13    3.20
  -1   2   0  108.42    3.17
  -1   2   0   93.79    3.41
   1   2   0  112.14    3.43
  -2  -2   0   93.84    2.97
  -2  -2   0   99.05    2.91
  -2  -2   0   91.76    3.16
  -2  -2   0   95.20    3.20
   2  -2   0   93.73    3.14
  -2  -2   0  100.65    3.10
   2  -2   0   96.90    2.95
   2  -2   0   95.87    3.16
  -2   2   0   94.58    3.22
   2   2   0   97.02    3.21
   2   2   0   91.73    2.94
  -2   2   0   96.95    2.91
  -2   2   0   87.83    3.17
   2   2   0   97.12    3.12
   2   2   0   92.61    2.94
   2   2   0   94.12    3.18
   2   2   0   92.33    3.19
   3  -2   0   68.13    2.42
  -3  -2   0   71.15    2.60
   3  -2   0   74.12    2.64
  -3  -2   0   73.05    2.39
  -3  -2   0   71.68    2.64
   3   2   0   70.28    2.68
   3   2   0   74.77    2.59
  -3   2   0   64.78    2.67
   3   2   0   68.02    2.67
  -3   2   0   71.55    2.68
   3   2   0   71.18    2.57
   3   2   0   72.75    2.45
   4  -2   0   16.25    0.97
  -4  -2   0   17.92    1.10
   4  -2   0   17.42    1.07
   4  -2   0   17.32    1.02
  -4  -2   0   16.12    1.01
   4   2   0   16.47    0.98
   4   2   0   15.83    1.07
  -4   2   0   16.45    1.06
  -4   2   0   16.05    1.13
  -5  -2   0    4.76    0.71
   5  -2   0    2.90    0.59
   5  -2   0    3.60    0.59
  -5  -2   0    4.93    0.74
  -5   2   0    3.67    0.69
   5   2   0    3.83    0.59
   5   2   0    3.33    0.63
   6  -2   0   89.68    3.73
   6  -2   0   90.40    3.47
  -6  -2   0   91.57    3.78
   6   2   0   94.18    3.47
  -6   2   0   91.91    3.95
   6   2   0   92.94    3.82
   7  -2   0   14.05    1.31
   7  -2   0   13.39    1.18
  -7  -2   0   14.26    1.35
  -7   2   0   11.31    1.42
   7   2   0   13.89    1.18
   7   2   0   14.53    1.50
   8  -2   0    7.73    1.10
  -8  -2   0    6.94    1.19
   8  -2   0    6.02    1.04
   8   2   0    5.18    1.03
  -8   2   0    7.50    1.32
   8   2   0    7.20    1.07
   8   2   0    5.22    0.99
  -9  -2   0    2.53    0.94
   9   2   0    2.72    0.85
   9   2   0    3.22    0.97
  10   2   0    3.65    1.09
  11   2   0   18.37    2.17
   0  -3   0   -0.46    0.18
   0  -3   0   -0.39    0.06
   0  -3   0   -0.36    0.14
   0  -3   0   -0.13    0.06
   0   3   0   -0.43    0.14
   0   3   0   -0.39    0.05
   0   3   0   -0.38    0.06
  -1  -3   0    1.25    0.19
   1  -3   0    1.29    0.15
   1  -3   0    1.57    0.19
  -1  -3   0    1.35    0.14
  -1  -3   0    1.51    0.30
   1  -3   0    1.57    0.18
  -1  -3   0    1.58    0.15
  -1  -3   0    1.33    0.18
  -1   3   0    1.47    0.12
   1   3   0    1.73    0.28
   1   3   0    1.62    0.20
   1   3   0    1.55    0.18
  -1   3   0    1.22    0.26
   1   3   0    1.55    0.16
  -1   3   0    1.34    0.22
   2  -3   0    8.45    0.50
  -2  -3   0    8.18    0.44
  -2  -3   0    7.80    0.52
   2  -3   0    8.39    0.51
  -2  -3   0    7.47    0.49
   2  -3   0    8.37    0.50
  -2  -3   0    8.08    0.57
  -2   3   0    7.95    0.54
   2   3   0    7.79    0.49
  -2   3   0    7.53    0.42
   2   3   0    8.41    0.54
  -2   3   0    8.12    0.59
   2   3   0    7.83    0.56
   2   3   0    8.58    0.55
   2   3   0    7.78    0.54
   3  -3   0   15.72    0.87
  -3  -3   0   14.92    0.74
  -3  -3   0   14.26    0.86
   3  -3   0   14.46    0.81
  -3  -3   0   14.30    0.83
   3   3   0   14.82    0.81
   3   3   0   12.03    0.85
  -3   3   0   13.90    0.88
   3   3   0   15.09    0.87
   3   3   0   14.63    0.93
  -3   3   0   13.32    0.88
  -4  -3   0    5.74    0.66
   4  -3   0    5.21    0.62
  -4  -3   0    3.94    0.56
   4  -3   0    5.51    0.67
   4  -3   0    5.25    0.63
   4   3   0    4.13    0.64
   4   3   0    5.94    0.70
  -4   3   0    4.42    0.61
   4   3   0    5.05    0.61
  -4   3   0    4.55    0.69
   4   3   0    4.27    0.67
   5  -3   0    2.07    0.52
  -5  -3   0    3.96    0.65
  -5  -3   0    1.30    0.42
   5  -3   0    2.77    0.56
  -5   3   0    2.93    0.67
   5   3   0    1.76    0.48
   5   3   0    2.75    0.62
   5   3   0    2.12    0.47
  -6  -3   0    1.38    0.51
  -6  -3   0    1.53    0.55
   6  -3   0    1.35    0.51
   6  -3   0    1.90    0.55
   6   3   0    1.14    0.55
  -6   3   0    1.02    0.55
   6   3   0    2.47    0.56
   6   3   0    1.77    0.57
   7  -3   0    9.32    1.08
  -7  -3   0    7.45    1.11
   7  -3   0    6.69    1.04
   7   3   0    7.05    0.97
   7   3   0    8.76    1.21
   7   3   0    7.77    1.07
  -8  -3   0    4.99    0.98
   8  -3   0    5.05    0.92
   8   3   0    5.32    1.07
   8   3   0    3.61    0.77
   8   3   0    3.74    0.91
   9   3   0    0.24    0.69
  10   3   0    1.02    0.86
  11   3   0   -0.11    0.96
   0  -4   0   54.91    2.29
   0  -4   0   58.11    1.68
   0   4   0   58.85    2.03
   0   4   0   55.91    1.78
   0   4   0   54.93    1.76
   0   4   0   57.08    2.19
  -1  -4   0  115.47    3.30
  -1  -4   0  115.04    3.22
   1  -4   0  112.93    3.25
  -1  -4   0  117.12    3.43
   1  -4   0  103.50    3.41
  -1  -4   0  116.32    3.98
  -1  -4   0   99.59    3.48
   1  -4   0  110.84    3.39
   1   4   0  117.53    3.16
   1   4   0  110.33    3.17
  -1   4   0  109.39    3.88
   1   4   0  113.87    3.54
   1   4   0  108.53    3.48
  -1   4   0  106.38    3.49
   1   4   0  113.76    3.68
  -1   4   0  115.16    3.64
  -2  -4   0   77.29    2.87
  -2  -4   0   78.68    2.37
  -2  -4   0   71.18    2.61
   2  -4   0   76.35    2.44
  -2  -4   0   77.63    2.49
   2  -4   0   80.08    2.53
  -2   4   0   78.16    2.28
  -2   4   0   71.96    2.63
   2   4   0   76.20    2.71
  -2   4   0   77.67    2.67
   2   4   0   75.20    2.61
  -2   4   0   75.38    2.86
   2   4   0   78.27    2.71
  -3  -4   0  128.78    4.14
  -3  -4   0  131.39    4.56
   3  -4   0  128.78    4.10
   3  -4   0  128.62    4.31
  -3  -4   0  130.83    3.99
  -3   4   0  130.89    4.62
   3   4   0  131.19    4.42
   3   4   0  127.05    4.42
   3   4   0  135.85    4.52
  -3   4   0  132.95    4.44
   3   4   0  128.32    4.07
   4  -4   0    1.84    0.43
  -4  -4   0    1.30    0.39
   4  -4   0    2.27    0.45
  -4  -4   0    1.78    0.35
  -4  -4   0    1.87    0.43
   4  -4   0    2.02    0.40
  -4   4   0    1.41    0.44
   4   4   0    1.40    0.35
   4   4   0    1.37    0.43
   4   4   0    0.86    0.38
  -4   4   0    2.61    0.49
   4   4   0    1.45    0.41
  -5  -4   0    9.49    0.99
  -5  -4   0    6.85    0.83
   5  -4   0    8.33    0.89
   5  -4   0    7.63    0.83
   5   4   0    6.28    0.74
   5   4   0    6.66    0.85
  -5   4   0    7.38    0.96
   5   4   0    7.05    0.91
  -6  -4   0   87.79    3.60
   6  -4   0   86.56    3.37
  -6  -4   0   85.95    3.58
   6   4   0   87.72    3.32
  -6   4   0   84.56    3.73
   6   4   0   90.27    3.73
   6   4   0   83.44    3.58
   7  -4   0   15.39    1.31
   7   4   0   18.26    1.55
  -7   4   0   10.61    1.37
   7   4   0   13.88    1.51
   8  -4   0   20.93    1.67
   8   4   0   19.37    1.82
   8   4   0   21.47    1.82
   9   4   0   -0.20    0.79
  10   4   0   -0.29    0.89
  11   4   0   13.22    1.88
   0  -5   0    0.09    0.08
   0  -5   0   -0.14    0.24
   0   5   0    0.46    0.21
   0   5   0   -0.01    0.23
  -1  -5   0   79.10    2.53
   1  -5   0   81.51    2.39
  -1  -5   0   82.65    2.47
  -1  -5   0   78.01    3.13
   1   5   0   80.13    2.56
  -1   5   0   77.36    2.46
  -1   5   0   83.90    3.09
  -1   5   0   83.39    2.83
   1   5   0   80.81    2.84
  -1   5   0   78.73    2.55
   1   5   0   81.31    2.66
  -2  -5   0   12.21    0.90
   2  -5   0   11.27    0.59
  -2  -5   0   11.55    0.52
   2  -5   0   10.88    0.50
  -2  -5   0   10.15    0.61
  -2  -5   0   10.98    0.64
   2   5   0   11.85    0.78
   2   5   0   12.54    0.75
   2   5   0   11.78    0.53
  -2   5   0   10.97    0.73
  -2   5   0   10.84    0.85
   2   5   0    8.43    0.57
  -2   5   0   11.32    0.63
   3  -5   0    0.77    0.25
  -3  -5   0    1.10    0.38
  -3  -5   0    0.99    0.27
   3   5   0    0.81    0.35
   3   5   0    0.60    0.30
  -3   5   0    0.67    0.35
  -3   5   0    0.66    0.26
   3   5   0    1.07    0.25
  -4  -5   0   98.51    3.74
   4  -5   0   96.37    3.36
   4   5   0   92.40    3.63
  -4   5   0  101.85    3.91
   4   5   0  101.26    3.74
  -5  -5   0    1.91    0.55
   5  -5   0    2.23    0.50
  -5   5   0    1.85    0.59
   5   5   0    1.59    0.57
   5   5   0    2.64    0.62
  -6  -5   0   77.08    3.31
   6  -5   0   76.83    3.09
   6   5   0   72.74    3.30
   6   5   0   81.78    3.47
  -6   5   0   76.37    3.53
   7  -5   0    2.12    0.65
   7   5   0    2.47    0.84
  -7   5   0    1.30    0.68
   7   5   0    2.04    0.75
   8   5   0    4.16    1.01
   9   5   0   74.74    3.85
  10   5   0   -0.67    0.91
   0  -6   0  334.34    9.35
   0  -6   0  351.02   11.17
   0   6   0  328.62   10.37
   0   6   0  323.96   10.87
  -1  -6   0    0.63    0.17
   1  -6   0    0.12    0.11
   1  -6   0    0.05    0.33
  -1  -6   0   -0.12    0.32
  -1   6   0    0.01    0.22
  -1   6   0    0.11    0.29
   1   6   0    0.09    0.25
   1   6   0    0.05    0.13
   1   6   0    0.20    0.11
  -2  -6   0   62.86    2.73
   2  -6   0   62.08    2.01
  -2   6   0   63.36    2.01
   2   6   0   63.78    2.29
   2   6   0   60.63    2.47
  -2   6   0   64.40    2.45
  -2   6   0   62.78    2.69
  -3  -6   0   68.52    2.95
   3  -6   0   71.50    2.38
   3   6   0   75.76    2.73
   3   6   0   64.05    2.72
  -3   6   0   68.01    2.96
   4  -6   0   10.76    0.83
  -4  -6   0   11.90    1.05
  -4   6   0   13.87    1.15
   4   6   0   10.27    0.96
   4   6   0   13.24    1.03
  -5  -6   0  101.12    4.07
   5  -6   0  102.32    3.67
  -5   6   0  100.33    4.24
   5   6   0  111.33    4.12
   5   6   0   98.96    4.02
   6  -6   0   14.05    1.17
   6   6   0   12.16    1.31
  -6   6   0   11.42    1.40
   6   6   0   10.44    1.29
   7  -6   0    1.23    0.57
   7   6   0    0.92    0.65
   7   6   0    1.07    0.75
   8   6   0   26.21    2.17
   9   6   0    8.63    1.57
  10   6   0   19.70    2.32
   0  -7   0   -0.11    0.40
   0   7   0    0.03    0.27
  -1  -7   0    0.57    0.46
   1  -7   0    1.23    0.53
  -1   7   0    1.83    0.52
   1   7   0    1.21    0.38
  -1   7   0    0.89    0.38
  -2  -7   0   29.25    1.79
   2  -7   0   29.02    1.93
   2  -7   0   29.69    1.04
   2   7   0   30.05    1.18
   2   7   0   29.56    1.52
  -2   7   0   30.29    1.51
  -2   7   0   27.19    1.68
  -3  -7   0   41.59    2.19
   3  -7   0   41.52    1.54
   3   7   0   42.67    1.80
   3   7   0   41.39    2.03
  -3   7   0   42.59    2.23
  -4  -7   0    0.99    0.52
   4  -7   0    0.16    0.29
   4   7   0    0.49    0.45
   4   7   0    0.03    0.35
  -4   7   0   -0.42    0.43
   5  -7   0   -0.22    0.35
   5   7   0    0.41    0.52
  -5   7   0   -0.08    0.56
   5   7   0    0.61    0.43
   6  -7   0    6.81    0.87
   6   7   0    5.04    0.88
   6   7   0    3.68    0.93
   7   7   0   21.39    1.88
   8   7   0   22.70    2.12
   9   7   0    1.80    1.04
   0  -8   0    2.39    0.75
   0   8   0    2.63    0.57
  -1  -8   0    5.19    0.90
   1  -8   0    5.89    1.05
   1   8   0    6.14    0.80
  -1   8   0    6.30    0.79
  -1   8   0    5.56    0.92
  -2  -8   0    2.27    0.70
   2  -8   0    1.39    0.69
  -2   8   0    0.76    0.48
   2   8   0    1.61    0.51
   3  -8   0    0.32    0.55
  -3  -8   0    0.38    0.52
  -3   8   0   -0.08    0.48
   3   8   0    0.68    0.46
   4   8   0    2.80    0.75
  -4   8   0    2.23    0.79
   5   8   0    2.68    0.79
   6   8   0    4.18    1.01
   7   8   0    1.19    0.88
   8   8   0   -0.47    0.93
   0  -9   0   -0.08    0.49
   1  -9   0    0.78    0.68
  -1  -9   0    1.16    0.66
  -2  -9   0   10.46    1.36
   4   9   0    0.25    0.56
   5   9   0    0.46    0.64
   6   9   0    2.25    0.91
   7   9   0   12.14    1.68
  -9   0   1   -0.43    0.61
   9   0  -1    0.42    0.66
   9   0  -1   -0.42    0.53
   8   0  -1   -0.03    0.45
   8   0  -1   -0.55    0.57
  -8   0   1   -0.10    0.49
   7   0  -1    0.44    0.44
   7   0  -1   -0.31    0.40
  -7   0   1   -0.06    0.42
   6   0  -1    0.40    0.37
   6   0  -1    0.04    0.40
  -6   0   1    0.11    0.36
  -5   0   1    0.73    0.36
   5   0  -1    0.41    0.28
   5   0  -1    0.10    0.30
   4   0  -1    0.49    0.26
   4   0  -1    0.55    0.31
  -4   0   1    0.54    0.26
  -3   0   1   -0.09    0.13
   3   0  -1    0.65    0.23
  -3   0   1   -0.20    0.10
   3   0  -1   -0.27    0.17
   3   0  -1    0.09    0.19
   3   0  -1   -0.04    0.17
  -3   0   1   -0.24    0.16
   3   0  -1   -0.12    0.17
  -2   0   1   -0.16    0.09
  -2   0   1   -0.29    0.12
   2   0  -1    0.03    0.18
  -2   0   1   -0.08    0.13
   2   0  -1    0.10    0.16
  -2   0   1   -0.34    0.14
   2   0  -1   -0.28    0.12
   2   0  -1    0.10    0.17
   2   0  -1   -0.02    0.12
  -2   0   1    0.06    0.14
   1   0  -1   -0.20    0.14
   0   0  -1   -0.02    0.02
   0   0  -1   -0.02    0.02
   0   0   1   -0.03    0.01
   0   0  -1   -0.03    0.01
   0   0   1   -0.02    0.01
   0   0   1   -0.01    0.02
   1   0   1    0.58    0.15
   1   0   1    0.62    0.14
  -1   0  -1    0.47    0.14
   1   0   1    0.02    0.10
   2   0   1    0.82    0.23
  -2   0  -1    0.72    0.22
  -2   0  -1   -0.02    0.12
   2   0   1    0.02    0.13
   2   0   1   -0.19    0.11
   2   0   1   -0.23    0.13
  -2   0  -1   -0.05    0.14
  -3   0  -1    0.03    0.21
   3   0   1    0.13    0.19
   3   0   1    0.16    0.17
   3   0   1    0.73    0.25
   3   0   1   -0.11    0.20
  -3   0  -1   -0.04    0.19
  -3   0  -1   -0.02    0.15
  -4   0  -1   -0.21    0.23
   4   0   1   -0.01    0.25
   4   0   1    0.13    0.22
  -5   0  -1    0.49    0.40
   5   0   1    0.11    0.31
   5   0   1    0.00    0.26
  -6   0  -1    0.16    0.44
   6   0   1    0.16    0.40
   6   0   1    0.53    0.38
   7   0   1    0.91    0.49
   7   0   1    0.33    0.50
  -7   0  -1    0.70    0.56
   8   0   1    0.05    0.45
   8   0   1    0.98    0.61
  -8   0  -1    0.05    0.63
   9   0   1    0.91    0.78
   9   0   1    0.08    0.60
  11   0   1   -0.76    0.78
  11   1  -1    1.57    1.06
   9  -1  -1   62.48    3.08
  -9  -1   1   63.62    3.37
   9  -1  -1   57.80    3.26
   9   1  -1   61.51    3.35
   9   1  -1   60.09    3.05
   8  -1  -1   38.14    2.15
  -8  -1   1   33.83    2.26
   8  -1  -1   39.58    2.38
  -8   1   1   38.51    2.43
   8   1  -1   36.05    2.32
   8   1  -1   36.88    2.12
   7  -1  -1    4.46    0.78
   7  -1  -1    6.14    0.99
  -7  -1   1    4.79    0.93
   7   1  -1    4.52    0.76
  -7   1   1    3.14    0.77
   7   1  -1    4.41    0.86
   6  -1  -1    0.41    0.40
  -6  -1   1   -0.24    0.34
   6  -1  -1    0.37    0.36
   6   1  -1    0.24    0.44
   6   1  -1   -0.03    0.29
  -6   1   1    0.27    0.37
   5  -1  -1    0.65    0.31
   5  -1  -1    0.58    0.36
  -5  -1   1    0.51    0.40
  -5  -1   1    0.38    0.34
  -5   1   1    0.42    0.37
   5   1  -1    0.76    0.35
   5   1  -1    0.95    0.46
  -4  -1   1  105.16    3.78
  -4  -1   1   99.76    3.86
   4  -1  -1  104.54    3.51
   4  -1  -1  108.80    3.84
   4   1  -1  102.82    3.52
   4   1  -1  101.67    3.84
  -4   1   1  108.90    3.85
   3  -1  -1  239.97    7.48
  -3  -1   1  254.96    7.49
  -3  -1   1  250.54    7.33
   3  -1  -1  252.67    8.05
   3  -1  -1  253.65    8.44
   3  -1  -1  256.70    7.47
  -3  -1   1  253.70    8.00
  -3  -1   1  256.19    8.22
   3   1  -1  252.30    7.45
  -3   1   1  256.59    8.05
   3   1  -1  246.57    8.03
  -3   1   1  254.72    7.93
   3   1  -1  258.15    8.04
   3   1  -1  255.65    8.20
  -2  -1   1    0.21    0.13
   2  -1  -1    0.29    0.15
  -2  -1   1    0.19    0.12
   2  -1  -1    1.06    0.24
  -2  -1   1    0.31    0.16
  -2  -1   1    0.61    0.19
   2  -1  -1    0.30    0.15
   2  -1  -1    0.69    0.17
  -2  -1   1    0.04    0.08
   2   1  -1    0.01    0.10
  -2   1   1    0.39    0.11
   2   1  -1    0.05    0.12
   2   1  -1    0.26    0.14
   2   1  -1    0.30    0.17
  -2   1   1    0.15    0.12
   2   1  -1    1.54    0.25
  -2   1   1    0.33    0.17
   1  -1  -1    1.07    0.11
  -1  -1   1    0.95    0.12
  -1  -1   1    0.87    0.13
  -1  -1   1    1.06    0.16
   1  -1  -1    0.90    0.12
  -1  -1   1    1.04    0.14
   1  -1  -1    0.73    0.12
  -1  -1   1    0.82    0.10
   1  -1  -1    1.07    0.14
   1   1  -1    1.08    0.17
   1   1  -1    0.92    0.13
   1   1  -1    0.88    0.12
  -1   1   1    1.16    0.15
  -1   1   1    1.10    0.14
   1   1  -1    0.95    0.14
  -1   1   1    0.94    0.11
  -1   1   1    1.12    0.09
  -1   1   1    1.00    0.15
   1   1  -1    0.92    0.11
   0  -1  -1    0.56    0.07
   0  -1  -1    0.58    0.11
   0  -1   1    0.56    0.12
   0  -1   1    0.62    0.10
   0  -1   1    0.85    0.10
   0  -1  -1    0.71    0.06
   0  -1   1    0.46    0.08
   0   1  -1    0.56    0.10
   0   1   1    0.59    0.07
   0   1  -1    0.53    0.13
   0   1  -1    0.48    0.09
   0   1   1    0.55    0.10
   0   1  -1    0.76    0.10
  -1  -1  -1  153.70    4.68
   1  -1   1  161.64    4.36
  -1  -1  -1  153.23    4.35
   1  -1   1  145.40    4.66
  -1  -1  -1  140.53    4.68
  -1  -1  -1  149.63    4.67
  -1   1  -1  147.78    4.35
   1   1   1  148.61    4.67
   1   1   1  154.39    4.69
  -1   1  -1  144.99    4.67
   1   1   1  155.26    4.67
   1   1   1  150.24    4.32
   2  -1   1  148.41    4.41
  -2  -1  -1  146.19    4.81
  -2  -1  -1  151.66    4.45
   2  -1   1  147.92    4.74
  -2  -1  -1  145.85    4.73
   2  -1   1  158.32    4.76
  -2  -1  -1  144.17    4.76
  -2   1  -1  145.75    4.42
   2   1   1  147.65    4.65
  -2   1  -1  143.47    4.76
   2   1   1  145.72    4.39
   2   1   1  140.66    4.73
   2   1   1  145.19    4.47
  -2   1  -1  143.54    4.79
   2   1   1  150.07    4.70
   2   1   1  143.06    4.77
  -3  -1  -1    8.10    0.59
  -3  -1  -1    6.53    0.56
   3  -1   1    6.91    0.61
   3  -1   1    7.67    0.56
  -3  -1  -1    5.59    0.65
   3   1   1    6.97    0.60
  -3   1  -1    8.30    0.71
   3   1   1    6.69    0.54
  -3   1  -1    7.27    0.63
   3   1   1    7.17    0.52
   3   1   1    6.79    0.62
   4  -1   1   20.71    1.08
   4  -1   1   17.19    1.11
  -4  -1  -1   17.79    1.16
  -4   1  -1   15.31    1.16
   4   1   1   19.01    1.15
   4   1   1   18.99    1.02
  -5  -1  -1   27.62    1.64
   5  -1   1   28.91    1.61
   5  -1   1   28.88    1.49
   5   1   1   28.32    1.62
   5   1   1   29.48    1.47
  -5   1  -1   26.27    1.70
   6  -1   1  115.30    4.55
   6  -1   1  124.59    4.28
  -6  -1  -1  121.84    4.71
   6   1   1  117.62    4.22
  -6   1  -1  115.46    4.77
   6   1   1  115.91    4.58
  -7  -1  -1   66.18    3.23
   7  -1   1   63.34    3.05
   7  -1   1   67.46    2.86
   7   1   1   60.93    3.04
  -7   1  -1   66.97    3.31
   7   1   1   61.79    2.78
  -8  -1  -1    0.10    0.56
   8  -1   1    1.60    0.64
   8  -1   1    1.32    0.66
   8   1   1    0.93    0.54
   8   1   1    0.66    0.60
   9  -1   1   12.06    1.47
   9  -1   1    8.90    1.36
   9   1   1   10.70    1.38
   9   1   1   10.26    1.43
   9   1   1    9.41    1.40
  10   1   1    3.89    1.14
  11   1   1   18.29    2.12
  11   2  -1   11.61    1.66
  10   2  -1    2.90    1.06
  -9  -2   1   57.02    3.14
   9   2  -1   51.46    3.25
  -8  -2   1   12.68    1.45
   8  -2  -1   12.06    1.42
   8  -2  -1    9.47    1.18
   8   2  -1    9.42    1.31
  -8   2   1    9.57    1.35
   8   2  -1   11.15    1.29
  -7  -2   1   25.08    1.73
   7  -2  -1   26.25    1.62
   7  -2  -1   26.05    1.76
   7   2  -1   22.32    1.54
   7   2  -1   27.61    1.88
  -7   2   1   24.95    1.83
   6  -2  -1  117.71    4.23
   6  -2  -1  116.75    4.56
  -6  -2   1  109.28    4.61
  -6  -2   1  125.33    4.59
   6   2  -1  119.45    4.25
   6   2  -1  118.25    4.64
  -6   2   1  123.79    4.71
   5  -2  -1    0.28    0.34
   5  -2  -1   -0.06    0.26
  -5  -2   1    0.84    0.41
  -5  -2   1    0.56    0.35
  -5   2   1    0.34    0.33
   5   2  -1   -0.05    0.35
   5   2  -1    0.44    0.32
   4  -2  -1  153.06    4.74
   4  -2  -1  148.02    4.70
  -4  -2   1  149.24    4.72
   4  -2  -1  147.87    5.05
  -4  -2   1  145.47    5.01
  -4  -2   1  144.89    5.10
   4   2  -1  141.44    5.10
  -4   2   1  139.93    5.07
   4   2  -1  143.76    4.69
  -4   2   1  148.70    4.94
  -3  -2   1  122.13    3.68
  -3  -2   1  121.04    4.14
   3  -2  -1  122.78    3.82
   3  -2  -1  123.70    3.80
  -3  -2   1  121.38    3.80
  -3  -2   1  122.07    4.07
   3  -2  -1  119.59    4.08
   3   2  -1  117.57    3.80
   3   2  -1  115.32    4.09
   3   2  -1  125.57    4.11
  -3   2   1  120.81    4.00
  -3   2   1  109.43    4.09
   2  -2  -1    0.74    0.19
  -2  -2   1    1.01    0.18
   2  -2  -1    0.91    0.25
   2  -2  -1    1.45    0.25
  -2  -2   1    0.92    0.23
  -2  -2   1    0.86    0.21
   2  -2  -1    1.00    0.21
  -2  -2   1    1.02    0.20
  -2  -2   1    0.29    0.16
  -2   2   1    0.82    0.15
  -2   2   1    0.77    0.22
  -2   2   1    0.86    0.24
   2   2  -1    1.32    0.27
   2   2  -1    0.91    0.21
   2   2  -1    1.10    0.23
  -2   2   1    1.20    0.21
   2   2  -1    1.18    0.22
   2   2  -1    0.93    0.25
   2   2  -1    0.76    0.20
  -1  -2   1  499.97   13.95
   1  -2  -1  442.49   13.64
  -1  -2   1  491.48   14.93
   1  -2  -1  526.41   15.06
  -1  -2   1  516.30   14.12
   1  -2  -1  475.08   14.75
  -1  -2   1  529.98   15.08
  -1  -2   1  479.29   15.20
  -1  -2   1  546.82   15.05
   1  -2  -1  494.59   13.89
   1  -2  -1  481.19   14.74
  -1   2   1  436.28   14.64
   1   2  -1  488.22   15.05
   1   2  -1  476.81   15.19
  -1   2   1  482.31   13.69
  -1   2   1  473.96   15.02
   1   2  -1  507.07   14.69
   1   2  -1  474.55   13.81
   1   2  -1  505.65   13.89
   0  -2   1  156.09    4.83
   0  -2   1  162.48    4.53
   0  -2   1  171.19    5.20
   0  -2  -1  154.01    5.05
   0   2   1  150.21    5.04
   0   2  -1  167.18    4.52
   0   2  -1  156.27    5.05
   0   2  -1  155.28    4.84
   0   2  -1  160.81    4.82
   1  -2   1   84.22    2.59
  -1  -2  -1   90.60    2.85
   1  -2   1   89.95    2.78
  -1  -2  -1   85.89    2.60
  -1  -2  -1   86.69    2.75
  -1  -2  -1   87.14    2.77
  -1   2  -1   91.23    2.92
  -1   2  -1   86.50    2.80
  -1   2  -1   87.57    2.60
   1   2   1   75.21    2.77
   1   2   1   84.83    2.56
   1   2   1   90.56    2.86
   1   2   1   83.19    2.77
  -2  -2  -1  113.22    3.88
  -2  -2  -1  117.66    3.86
   2  -2   1  120.11    3.62
  -2  -2  -1  122.37    3.65
   2  -2   1  119.76    3.87
  -2  -2  -1  118.51    3.84
   2  -2   1  125.54    3.88
  -2   2  -1  110.27    3.88
   2   2   1  107.38    3.60
  -2   2  -1  120.30    3.62
   2   2   1  118.67    3.83
   2   2   1  112.72    3.92
   2   2   1  117.27    3.82
   2   2   1  116.99    3.89
   2   2   1  120.44    3.58
  -3  -2  -1   25.37    1.14
   3  -2   1   25.52    1.24
  -3  -2  -1   26.11    1.17
  -3  -2  -1   22.97    1.22
   3  -2   1   24.90    1.14
   3   2   1   24.60    1.12
  -3   2  -1   26.68    1.31
   3   2   1   25.77    1.27
   3   2   1   24.56    1.09
   3   2   1   26.00    1.30
   3   2   1   25.07    1.19
  -4  -2  -1  146.51    4.90
   4  -2   1  140.84    4.89
  -4  -2  -1  135.16    4.91
   4  -2   1  139.21    4.55
   4   2   1  153.32    4.98
   4   2   1  141.48    4.81
   4   2   1  141.73    4.77
   4   2   1  141.94    4.52
  -4   2  -1  123.27    4.97
  -5  -2  -1   53.16    2.44
   5  -2   1   51.61    2.38
   5  -2   1   54.23    2.24
  -5  -2  -1   54.81    2.38
   5   2   1   51.53    2.32
  -5   2  -1   46.19    2.49
   5   2   1   53.10    2.19
   5   2   1   57.05    2.48
   6  -2   1    4.89    0.75
   6  -2   1    5.74    0.89
  -6  -2  -1    6.04    0.91
   6   2   1    5.63    0.85
  -6   2  -1    6.30    1.06
   6   2   1    5.93    0.83
   6   2   1    4.42    0.79
   7  -2   1   40.74    2.10
   7  -2   1   40.38    2.30
  -7  -2  -1   41.27    2.38
   7   2   1   38.76    2.27
   7   2   1   40.31    2.25
   7   2   1   37.69    2.03
   8  -2   1   14.67    1.47
   8  -2   1   16.08    1.63
  -8  -2  -1   14.87    1.68
   8   2   1   12.06    1.43
   8   2   1   13.57    1.39
   8   2   1   13.97    1.59
   9   2   1    9.29    1.40
   9   2   1   11.41    1.39
  10   2   1    5.31    1.27
  11   2   1    0.01    0.90
  11   3  -1    0.55    1.02
  10   3  -1   68.29    3.72
   9   3  -1    1.21    0.83
   8  -3  -1    0.48    0.52
  -8  -3   1   -0.78    0.45
   8   3  -1    0.41    0.59
  -8   3   1    0.19    0.62
   8   3  -1    0.85    0.69
   8   3  -1   -0.44    0.44
   7  -3  -1   67.04    2.95
  -7  -3   1   65.88    3.21
   7  -3  -1   68.35    3.14
  -7  -3   1   66.23    3.11
   7   3  -1   72.45    2.97
   7   3  -1   63.81    3.11
   7   3  -1   69.17    3.28
  -7   3   1   66.93    3.32
   6  -3  -1   10.95    1.11
  -6  -3   1   11.87    1.10
  -6  -3   1    9.52    1.06
   6  -3  -1   10.68    1.17
  -6   3   1    9.35    1.19
   6   3  -1    9.74    1.02
   6   3  -1    9.34    1.12
   6   3  -1   11.31    1.23
  -5  -3   1  101.20    3.84
   5  -3  -1  101.25    3.54
  -5  -3   1   98.88    3.78
   5  -3  -1   98.76    3.77
   5   3  -1   99.19    3.54
   5   3  -1  102.02    3.93
   5   3  -1   97.40    3.74
  -5   3   1   92.96    3.87
  -4  -3   1    1.02    0.36
   4  -3  -1    0.47    0.28
   4  -3  -1    0.90    0.31
   4  -3  -1    0.79    0.29
  -4  -3   1    0.84    0.32
  -4  -3   1    1.03    0.34
   4   3  -1    0.94    0.34
   4   3  -1    0.86    0.30
   4   3  -1    1.45    0.43
  -4   3   1    1.11    0.30
  -4   3   1    1.04    0.38
  -3  -3   1   14.28    0.89
   3  -3  -1   15.25    0.86
  -3  -3   1   15.52    0.72
  -3  -3   1   16.04    0.84
   3  -3  -1   15.52    0.84
  -3  -3   1   15.30    0.88
   3  -3  -1   14.85    0.81
   3   3  -1   14.72    0.90
  -3   3   1   15.54    0.82
   3   3  -1   16.01    0.87
   3   3  -1   16.30    0.93
   3   3  -1   15.19    0.84
  -3   3   1   15.73    0.92
  -3   3   1   11.70    0.86
   2  -3  -1  199.12    6.36
  -2  -3   1  205.83    6.46
   2  -3  -1  205.07    6.01
  -2  -3   1  207.89    5.93
   2  -3  -1  210.12    6.02
   2  -3  -1  209.75    6.41
  -2  -3   1  214.12    6.05
  -2  -3   1  208.23    6.76
  -2   3   1  206.67    6.45
   2   3  -1  206.10    6.48
   2   3  -1  210.96    6.43
  -2   3   1  205.61    6.48
   2   3  -1  219.91    6.48
  -2   3   1  192.88    6.36
  -2   3   1  208.77    6.69
  -2   3   1  203.37    5.83
   2   3  -1  199.75    6.03
  -1  -3   1   -0.23    0.07
   1  -3  -1   -0.15    0.09
   1  -3  -1   -0.10    0.05
  -1  -3   1   -0.10    0.11
  -1  -3   1   -0.15    0.08
   1  -3  -1    0.24    0.07
  -1  -3   1   -0.23    0.18
  -1  -3   1   -0.09    0.11
   1   3  -1    0.02    0.10
   1   3  -1   -0.29    0.06
   1   3  -1   -0.22    0.17
   1   3  -1   -0.09    0.11
  -1   3   1   -0.22    0.06
  -1   3   1    0.29    0.17
   1   3  -1   -0.08    0.10
  -1   3   1   -0.07    0.18
   0  -3  -1  377.91   11.53
   0  -3   1  358.88   10.93
   0  -3   1  368.57   11.59
   0  -3   1  374.94   10.22
   0   3  -1  367.68   11.39
   0   3  -1  370.23   10.22
   0   3  -1  366.12   10.92
   0   3  -1  367.48   10.20
   0   3   1  347.01   11.36
   0   3   1  355.43   11.03
  -1  -3  -1   29.17    1.22
   1  -3   1   29.08    1.02
  -1  -3  -1   28.51    0.97
   1  -3   1   28.69    1.05
  -1  -3  -1   28.42    0.98
  -1  -3  -1   27.56    1.04
   1   3   1   27.38    0.91
  -1   3  -1   29.37    1.11
   1   3   1   29.68    1.19
  -1   3  -1   30.69    1.02
   1   3   1   29.36    0.91
   1   3   1   27.70    1.07
  -2  -3  -1    1.72    0.28
  -2  -3  -1    1.73    0.26
   2  -3   1    1.41    0.25
   2  -3   1    1.36    0.26
  -2  -3  -1    1.08    0.24
  -2   3  -1    1.28    0.33
   2   3   1    1.61    0.28
   2   3   1    0.95    0.25
  -2   3  -1    1.67    0.30
   2   3   1    1.52    0.24
   2   3   1    1.65    0.30
   2   3   1    1.82    0.34
  -3  -3  -1  160.32    4.67
  -3  -3  -1  138.23    4.98
  -3  -3  -1  150.60    5.00
   3  -3   1  156.22    5.01
   3  -3   1  153.50    4.70
   3   3   1  150.52    4.62
  -3   3  -1  149.53    5.17
   3   3   1  149.35    4.97
  -3   3  -1  149.44    5.09
   3   3   1  135.25    5.03
   3   3   1  153.08    4.98
   3   3   1  156.21    5.07
  -4  -3  -1    0.53    0.29
   4  -3   1    0.77    0.34
  -4  -3  -1    1.10    0.33
   4  -3   1    0.33    0.27
   4   3   1    0.58    0.35
  -4   3  -1    0.59    0.35
   4   3   1    0.35    0.30
   4   3   1    0.10    0.24
   4   3   1    0.27    0.27
   5  -3   1  121.59    4.26
  -5  -3  -1  124.00    4.60
   5  -3   1  121.08    4.56
  -5  -3  -1  124.54    4.55
   5   3   1  127.51    4.65
   5   3   1  120.74    4.50
   5   3   1  130.15    4.25
   6  -3   1    7.68    0.98
  -6  -3  -1    7.69    1.04
   6  -3   1   10.42    1.08
  -6  -3  -1    7.77    0.96
   6   3   1    6.82    0.87
   6   3   1    8.57    1.10
   6   3   1    6.67    0.93
   7  -3   1    1.01    0.56
   7  -3   1    0.68    0.52
  -7  -3  -1    1.57    0.67
   7   3   1    1.66    0.54
   7   3   1    1.60    0.64
   7   3   1    0.79    0.55
  -8  -3  -1  147.41    5.88
   8  -3   1  140.43    5.28
   8   3   1  146.28    5.68
   8   3   1  134.96    5.65
   9   3   1    1.69    0.83
  10   3   1   36.08    2.68
  11   3   1   14.93    1.90
  11   4  -1    0.27    1.04
  10   4  -1    0.51    0.95
   9   4  -1   23.97    2.04
   8  -4  -1    7.95    1.12
  -8   4   1    5.61    1.06
   8   4  -1    7.74    1.23
   8   4  -1    5.61    1.15
   7  -4  -1   70.84    3.03
  -7  -4   1   71.47    3.29
  -7   4   1   65.11    3.27
   7   4  -1   73.40    3.42
   7   4  -1   69.09    3.25
  -6  -4   1   16.66    1.34
  -6  -4   1   18.68    1.33
   6  -4  -1   17.97    1.27
   6   4  -1   15.07    1.29
   6   4  -1   16.44    1.22
  -6   4   1   15.04    1.31
   6   4  -1   16.55    1.41
   5  -4  -1    5.99    0.76
  -5  -4   1    6.38    0.85
  -5  -4   1    5.21    0.73
   5  -4  -1    6.40    0.82
   5   4  -1    6.26    0.90
   5   4  -1    5.95    0.73
  -5   4   1    6.66    0.89
   5   4  -1    6.82    0.86
  -5   4   1    5.91    0.84
  -4  -4   1   69.92    2.71
   4  -4  -1   68.14    2.53
   4  -4  -1   68.30    2.50
  -4  -4   1   63.65    2.76
  -4  -4   1   67.79    2.56
   4  -4  -1   69.85    2.66
  -4  -4   1   70.28    2.39
   4   4  -1   66.57    2.75
  -4   4   1   67.88    2.82
   4   4  -1   70.86    2.88
  -4   4   1   68.90    2.58
   4   4  -1   71.02    2.56
   4   4  -1   70.45    2.70
  -3  -4   1  103.68    3.73
   3  -4  -1  104.22    3.27
  -3  -4   1   99.31    3.29
   3  -4  -1   98.42    3.26
  -3  -4   1   96.01    3.49
   3  -4  -1  102.24    3.42
  -3  -4   1  104.84    3.14
   3   4  -1  100.47    3.59
   3   4  -1  100.93    3.30
  -3   4   1   99.37    3.68
   3   4  -1   96.83    3.51
   3   4  -1  103.12    3.50
  -3   4   1  100.37    3.39
  -2  -4   1   18.14    0.82
   2  -4  -1   18.01    0.72
   2  -4  -1   17.12    0.76
   2  -4  -1   17.98    0.73
   2  -4  -1   16.70    0.75
  -2  -4   1   18.09    0.86
  -2  -4   1   17.79    0.72
  -2  -4   1   18.93    1.06
   2   4  -1   18.79    0.90
  -2   4   1   18.49    0.56
  -2   4   1   17.67    0.91
   2   4  -1   16.99    0.81
   2   4  -1   17.14    0.86
   2   4  -1   17.38    0.86
  -1  -4   1   74.37    2.87
   1  -4  -1   74.65    2.17
  -1  -4   1   73.41    2.30
  -1  -4   1   77.34    2.46
   1   4  -1   75.46    2.44
  -1   4   1   74.49    2.60
   1   4  -1   78.45    2.56
  -1   4   1   70.12    2.72
   1   4  -1   73.86    2.27
   1   4  -1   75.76    2.24
   0  -4   1  129.00    4.47
   0  -4   1  129.69    3.65
   0  -4  -1  117.69    4.37
   0  -4   1  127.87    3.86
   0   4   1  123.82    4.27
   0   4  -1  129.43    3.99
   0   4  -1  109.09    3.89
   0   4  -1  126.94    3.57
   0   4   1  129.40    4.11
   0   4  -1  128.78    3.54
   0   4  -1  128.69    4.30
   0   4  -1  124.96    3.86
  -1  -4  -1  131.12    3.85
   1  -4   1  131.96    4.01
  -1  -4  -1  125.73    3.64
   1  -4   1  127.93    3.95
   1  -4   1  129.06    3.76
  -1  -4  -1  118.34    4.36
   1   4   1  125.39    3.98
  -1   4  -1  132.09    3.70
   1   4   1  125.70    4.18
  -1   4  -1  125.51    4.36
  -1   4  -1  127.02    4.04
   1   4   1  124.16    3.92
  -2  -4  -1  150.26    5.16
   2  -4   1  151.26    4.62
   2  -4   1  161.46    4.88
  -2  -4  -1  152.32    4.92
  -2  -4  -1  161.53    4.55
  -2   4  -1  149.47    4.99
   2   4   1  156.22    5.04
  -2   4  -1  155.36    5.23
   2   4   1  147.86    4.96
   2   4   1  152.28    4.93
  -3  -4  -1    0.48    0.26
   3  -4   1    0.33    0.22
  -3  -4  -1   -0.04    0.18
  -3  -4  -1    0.38    0.19
   3  -4   1    0.50    0.25
   3   4   1    0.50    0.27
   3   4   1    0.33    0.18
   3   4   1    0.44    0.26
  -3   4  -1    0.27    0.28
  -3   4  -1    0.39    0.27
   3   4   1    0.27    0.24
   4  -4   1    8.48    0.75
   4  -4   1    6.98    0.71
  -4  -4  -1    6.37    0.66
  -4  -4  -1    6.10    0.74
  -4  -4  -1    6.83    0.67
  -4   4  -1    7.31    0.86
   4   4   1    6.31    0.80
   4   4   1    5.97    0.64
   4   4   1    8.40    0.90
  -4   4  -1    6.49    0.82
   4   4   1    8.01    0.84
   5  -4   1   83.73    3.32
   5  -4   1   79.11    3.10
  -5  -4  -1   81.79    3.25
  -5  -4  -1   86.44    3.38
   5   4   1   84.65    3.35
  -5   4  -1   84.23    3.53
   5   4   1   83.53    3.40
   5   4   1   81.33    3.04
   6  -4   1    5.54    0.79
  -6  -4  -1    5.99    1.02
  -6  -4  -1    6.25    0.87
  -6   4  -1    5.22    0.97
   6   4   1    5.10    0.84
   6   4   1    5.86    0.94
   7  -4   1   12.85    1.32
   7   4   1    9.89    1.31
   7   4   1   10.53    1.26
   8   4   1   -0.78    0.64
   9   4   1    0.07    0.79
  10   4   1   19.41    2.23
  10   5  -1    3.19    1.22
   9   5  -1   15.00    1.85
   8   5  -1    6.17    1.20
   7  -5  -1    1.79    0.60
   7   5  -1    1.35    0.68
   7   5  -1    1.79    0.81
  -7   5   1    0.53    0.56
  -6  -5   1    0.28    0.47
   6  -5  -1    0.09    0.42
  -6   5   1    1.21    0.58
   6   5  -1    0.60    0.53
   6   5  -1   -0.06    0.48
   5  -5  -1    1.16    0.41
  -5  -5   1    1.75    0.53
  -5   5   1    2.60    0.62
   5   5  -1    1.77    0.57
   5   5  -1    2.90    0.63
   4  -5  -1   41.76    1.76
  -4  -5   1   41.86    1.81
  -4  -5   1   42.06    2.03
   4   5  -1   42.46    1.94
   4   5  -1   41.81    2.04
  -4   5   1   40.82    2.04
  -3  -5   1   22.61    1.08
  -3  -5   1   21.66    1.31
  -3  -5   1   22.18    1.10
   3  -5  -1   20.30    0.98
   3   5  -1   20.33    1.13
   3   5  -1   21.32    1.20
  -3   5   1   19.99    1.24
   3   5  -1   22.01    1.03
   3   5  -1   20.81    1.20
  -2  -5   1    7.08    0.41
  -2  -5   1    7.90    0.77
   2  -5  -1    7.22    0.43
  -2  -5   1    8.38    0.54
  -2  -5   1    6.97    0.51
   2  -5  -1    6.54    0.42
   2   5  -1    6.70    0.46
   2   5  -1    7.83    0.60
   2   5  -1    6.94    0.50
  -2   5   1    7.71    0.71
  -2   5   1    7.37    0.62
  -2   5   1    7.16    0.36
   2   5  -1    7.06    0.57
  -1  -5   1    4.21    0.31
  -1  -5   1    3.60    0.31
   1  -5  -1    3.56    0.20
  -1  -5   1    3.26    0.56
   1   5  -1    3.67    0.32
  -1   5   1    3.82    0.48
  -1   5   1    3.21    0.52
   1   5  -1    3.34    0.22
   1   5  -1    4.06    0.46
   1   5  -1    3.72    0.21
   1   5  -1    3.47    0.29
   0  -5   1    9.74    0.47
   0  -5  -1    8.17    0.80
   0  -5   1   10.00    0.87
   0  -5   1    9.63    0.43
   0   5  -1    9.52    0.77
   0   5   1   10.87    0.82
   0   5  -1    9.38    0.45
   0   5   1   11.19    0.71
   0   5  -1   10.57    0.63
   0   5  -1   10.38    0.51
   1  -5   1   11.72    0.51
  -1  -5  -1   12.80    0.91
  -1  -5  -1   12.04    0.46
   1  -5   1   12.20    0.57
   1  -5   1   13.39    1.04
  -1   5  -1   11.19    0.61
  -1   5  -1   11.65    0.69
   1   5   1   11.49    0.51
   1   5   1   12.52    0.80
  -1   5  -1   12.41    0.87
   1   5   1   11.88    0.48
  -1   5  -1   11.92    0.53
   2  -5   1   29.78    1.16
  -2  -5  -1   28.84    1.44
   2  -5   1   29.43    1.11
  -2  -5  -1   29.99    1.04
   2   5   1   31.42    1.26
  -2   5  -1   22.74    1.19
   2   5   1   28.50    1.38
  -2   5  -1   26.48    1.45
   2   5   1   28.96    0.95
  -3  -5  -1    5.08    0.63
  -3  -5  -1    6.55    0.73
   3  -5   1    7.07    0.61
   3  -5   1    4.80    0.55
   3   5   1    7.22    0.71
   3   5   1    5.59    0.46
   3   5   1    5.37    0.69
  -3   5  -1    6.11    0.79
   4  -5   1    1.97    0.45
  -4  -5  -1    2.21    0.48
   4   5   1    2.08    0.49
   4   5   1    2.50    0.52
  -4   5  -1    2.55    0.60
   5  -5   1    0.17    0.35
  -5  -5  -1    0.00    0.31
   5   5   1   -0.10    0.35
  -5   5  -1    0.22    0.46
   5   5   1   -0.14    0.34
   6  -5   1   22.86    1.50
   6   5   1   26.31    1.68
   6   5   1   21.09    1.63
  -6   5  -1   24.04    1.79
   7  -5   1   25.68    1.72
  -7   5  -1   25.75    2.02
   7   5   1   28.95    1.95
   7   5   1   28.55    1.94
   8   5   1    0.45    0.77
   9   5   1    0.74    0.90
  10   5   1    1.11    1.07
  10   6  -1    2.60    1.28
   9   6  -1    3.86    1.23
   8   6  -1    4.14    1.12
   7  -6  -1   17.52    1.41
  -7   6   1   18.17    2.05
   7   6  -1   16.02    1.67
   7   6  -1   22.15    1.77
   6  -6  -1    0.61    0.46
  -6  -6   1    0.91    0.60
  -6   6   1    1.24    0.61
   6   6  -1    1.49    0.67
   6   6  -1    1.68    0.67
   5  -6  -1   25.77    1.37
  -5  -6   1   20.02    1.51
  -5   6   1   21.72    1.58
   5   6  -1   21.79    1.47
   5   6  -1   23.13    1.57
   4  -6  -1   16.26    0.98
  -4  -6   1   16.59    1.27
  -4   6   1   16.38    1.30
   4   6  -1   16.28    1.14
   4   6  -1   17.65    1.23
  -3  -6   1   22.83    1.16
  -3  -6   1   25.33    1.53
   3  -6  -1   22.38    1.02
   3   6  -1   24.65    1.35
   3   6  -1   24.01    1.32
  -3   6   1   23.62    1.46
   2  -6  -1   16.71    0.65
  -2  -6   1   15.89    0.82
  -2  -6   1   14.71    1.17
  -2   6   1   17.00    1.17
   2   6  -1   17.97    1.02
   2   6  -1   15.24    0.92
  -2   6   1   14.59    0.98
   1  -6  -1    1.87    0.56
  -1  -6   1    1.72    0.55
  -1  -6   1    1.74    0.26
   1   6  -1    1.61    0.36
  -1   6   1    1.83    0.42
  -1   6   1    2.03    0.48
   1   6  -1    1.26    0.24
   0  -6  -1   30.33    1.72
   0  -6   1   30.66    1.09
   0  -6   1   33.04    1.79
   0   6  -1   31.41    1.63
   0   6  -1   30.79    1.12
   0   6  -1   31.59    1.09
   0   6   1   31.55    1.46
   0   6  -1   29.92    1.36
  -1  -6  -1   27.80    1.56
   1  -6   1   25.75    1.67
   1  -6   1   27.21    1.00
  -1   6  -1   26.40    1.24
  -1   6  -1   28.83    1.56
  -1   6  -1   27.19    0.96
  -1   6  -1   27.22    1.08
   1   6   1   26.07    1.36
   2  -6   1    7.59    0.52
  -2  -6  -1    8.02    0.91
  -2   6  -1    7.95    0.45
   2   6   1    7.25    0.80
   2   6   1    6.83    0.50
  -2   6  -1    7.64    0.87
  -3  -6  -1    4.49    0.69
   3  -6   1    5.11    0.56
  -3   6  -1    4.95    0.76
   3   6   1    4.90    0.58
   3   6   1    5.00    0.72
  -4  -6  -1    3.88    0.65
   4  -6   1    5.31    0.66
  -4   6  -1    2.64    0.71
   4   6   1    4.85    0.67
   4   6   1    4.09    0.73
   5  -6   1   31.66    1.65
  -5   6  -1   30.75    2.00
   5   6   1   29.59    1.83
   5   6   1   32.66    1.79
   6  -6   1    9.93    1.08
   6   6   1    9.24    1.25
   6   6   1    8.33    1.08
  -6   6  -1    9.18    1.29
   7   6   1    2.29    0.88
   8   6   1   -0.63    0.72
   9   6   1    0.32    0.93
   9   7  -1   22.20    2.36
   8   7  -1   16.11    1.90
   7   7  -1   11.70    1.50
   6  -7  -1    0.40    0.47
   6   7  -1    0.55    0.57
   6   7  -1    0.93    0.64
  -5  -7   1    7.17    1.03
   5  -7  -1    7.50    0.80
   5   7  -1    4.85    0.87
   5   7  -1    8.16    0.99
  -5   7   1    6.73    1.09
   4  -7  -1   30.61    1.38
  -4  -7   1   32.09    1.94
   4   7  -1   35.33    1.79
  -4   7   1   32.34    2.01
   4   7  -1   33.19    1.78
  -3  -7   1   22.16    1.56
   3  -7  -1   19.68    0.88
   3   7  -1   23.80    1.27
  -3   7   1   20.88    1.46
   3   7  -1   19.67    1.28
  -2  -7   1    1.95    0.62
  -2  -7   1    3.66    0.44
   2  -7  -1    3.32    0.76
   2   7  -1    3.03    0.54
  -2   7   1    3.20    0.59
  -2   7   1    2.28    0.60
   2   7  -1    2.84    0.44
   1  -7  -1    0.57    0.44
  -1  -7   1    0.18    0.40
  -1  -7   1    0.23    0.16
   1   7  -1    0.14    0.15
  -1   7   1    0.21    0.34
   1   7  -1   -0.06    0.24
  -1   7   1    0.17    0.30
   0  -7   1   13.72    0.63
   0  -7  -1   16.89    1.30
   0  -7   1   16.54    1.33
   0   7  -1   15.72    0.95
   0   7   1   14.36    1.01
  -1  -7  -1   29.41    1.76
   1  -7   1   30.05    1.07
   1  -7   1   30.89    1.97
  -1   7  -1   29.91    1.45
   1   7   1   30.89    1.57
  -1   7  -1   31.98    1.76
   2  -7   1   39.39    1.41
  -2  -7  -1   41.21    2.09
   2  -7   1   39.42    2.32
  -2   7  -1   40.17    1.34
   2   7   1   39.48    1.90
  -2   7  -1   37.66    2.05
   3  -7   1   10.90    0.72
  -3  -7  -1   10.63    1.05
   3   7   1   10.82    0.75
  -3   7  -1   13.10    1.35
   3   7   1   12.60    1.06
   4  -7   1    4.88    0.62
   4   7   1    5.01    0.83
   4   7   1    4.18    0.63
  -4   7  -1    5.08    0.89
   5  -7   1   20.87    1.34
   5   7   1   23.88    1.50
  -5   7  -1   24.79    1.86
   5   7   1   21.02    1.62
   6  -7   1   28.88    1.70
   6   7   1   29.28    1.85
   6   7   1   27.54    2.00
   7   7   1   20.25    1.88
   8   7   1   13.60    1.83
   9   7   1    7.32    1.55
   8   8  -1   -0.01    0.92
   7   8  -1    4.21    1.10
   6   8  -1   96.37    4.17
   5   8  -1    4.55    0.93
  -4  -8   1   46.18    2.60
  -4   8   1   47.96    2.64
   4   8  -1   48.98    2.39
  -3  -8   1   32.61    2.06
   3  -8  -1   34.82    2.37
  -3   8   1   32.52    2.03
   3   8  -1   32.01    1.75
   2  -8  -1    1.39    0.69
  -2  -8   1    0.95    0.60
  -2   8   1    1.64    0.54
   2   8  -1    1.21    0.48
  -2   8   1    0.83    0.56
   1  -8  -1  192.62    7.20
  -1  -8   1  188.49    7.16
  -1   8   1  193.53    6.49
   0  -8  -1    2.41    0.70
   0  -8   1    1.73    0.72
   0   8   1    2.66    0.60
   1  -8   1   12.06    1.39
  -1  -8  -1   13.19    1.26
  -1   8  -1   12.34    1.31
   1   8   1   13.85    1.07
   2  -8   1   55.94    3.05
  -2  -8  -1   55.48    2.73
   2   8   1   51.11    2.44
  -2   8  -1   58.27    2.82
   3  -8   1   29.07    2.23
   3   8   1   28.91    1.75
  -3   8  -1   32.55    2.00
  -4   8  -1   79.62    4.02
   4   8   1   81.09    3.51
   5   8   1   14.57    1.56
   6   8   1    0.68    0.73
   7   8   1   20.87    2.12
   8   8   1    9.30    1.64
  -3  -9   1    0.86    0.67
  -2  -9   1   17.65    1.65
   2  -9  -1   20.57    1.84
  -1  -9   1    0.47    0.62
   1  -9  -1   -0.53    0.53
   0  -9   1   16.68    1.63
   0  -9  -1   16.57    1.57
   0   9   1   15.68    1.37
  -1  -9  -1    0.15    0.56
   1  -9   1   -0.24    0.51
   1   9   1    0.10    0.45
   2   9   1    4.52    0.82
   3   9   1   13.45    1.27
   4   9   1    1.00    0.66
   5   9   1   25.14    1.91
   6   9   1    8.76    1.40
   7   9   1    3.01    1.13
   9   0  -2    9.55    1.32
  -9   0   2    7.02    1.27
   9   0  -2    9.22    1.49
  -8   0   2    4.30    0.92
   8   0  -2    3.34    0.89
   8   0  -2    2.93    0.74
   7   0  -2  242.15    8.55
   7   0  -2  244.07    7.91
  -7   0   2  242.21    8.47
   6   0  -2   20.80    1.51
   6   0  -2   21.35    1.37
  -6   0   2   23.73    1.52
   5   0  -2  115.18    3.96
   5   0  -2  113.02    4.31
  -5   0   2  112.31    4.19
  -4   0   2  205.83    6.79
   4   0  -2  201.83    6.84
   4   0  -2  213.22    6.35
   3   0  -2   22.80    1.06
  -3   0   2   23.92    1.09
   3   0  -2   23.05    1.09
   3   0  -2   20.01    1.17
  -3   0   2   23.64    1.04
   3   0  -2   22.01    1.09
   3   0  -2   21.60    0.96
  -3   0   2   23.45    1.24
  -3   0   2   22.96    1.01
  -3   0   2   21.85    0.89
  -2   0   2  969.45   29.22
  -2   0   2  959.52   27.44
   2   0  -2  964.95   27.11
   2   0  -2  946.70   28.60
   2   0  -2  907.75   29.50
  -2   0   2 1000.00   29.67
  -2   0   2  960.78   27.28
   2   0  -2  973.74   27.44
  -2   0   2  939.79   30.23
   2   0  -2  953.69   28.81
   1   0  -2   87.41    2.75
   1   0  -2   89.81    2.94
  -1   0   2   88.22    2.78
   1   0  -2   87.26    2.60
   1   0  -2   88.48    2.78
   0   0  -2   15.30    0.59
   0   0  -2   15.57    0.62
   0   0   2   15.63    0.59
   0   0  -2   16.45    0.59
   0   0   2   15.44    0.60
   0   0   2   15.68    0.62
  -1   0  -2  381.96   11.74
   1   0   2  391.29   11.74
  -1   0  -2  384.82   10.93
   1   0   2  394.67   10.93
   2   0   2  145.17    4.38
   2   0   2  154.00    4.74
  -2   0  -2  141.20    4.75
   2   0   2  144.61    4.72
  -2   0  -2  140.69    4.39
   3   0   2  385.48   12.02
  -3   0  -2  366.80   12.09
   3   0   2  397.64   12.22
   3   0   2  392.69   11.17
   4   0   2   59.99    2.35
  -4   0  -2   50.91    2.44
   4   0   2   57.30    2.39
   4   0   2   57.16    2.19
   5   0   2   18.33    1.25
  -5   0  -2   15.28    1.28
   5   0   2   16.63    1.07
  -6   0  -2   66.79    3.16
   6   0   2   62.82    2.67
   6   0   2   65.17    2.95
   7   0   2   32.48    1.86
   7   0   2   32.42    2.01
   8   0   2   28.05    1.86
   8   0   2   31.02    2.13
   9   0   2    1.15    0.77
   9   0   2    0.45    0.62
  10   0   2    4.11    1.08
  11   0   2   13.78    1.76
  -9  -1   2    5.88    1.17
   9  -1  -2    5.16    0.99
   9  -1  -2    5.97    1.18
   9   1  -2    8.55    1.28
   9   1  -2    5.66    1.20
  -9   1   2    6.14    1.24
   8  -1  -2   28.63    1.86
  -8  -1   2   28.51    1.98
   8  -1  -2   28.05    2.06
  -8   1   2   29.73    2.07
   8   1  -2   27.70    1.84
   8   1  -2   27.88    2.09
  -7  -1   2    1.74    0.59
   7  -1  -2    1.42    0.63
   7  -1  -2    3.56    0.74
  -7   1   2    2.09    0.67
   7   1  -2    2.24    0.61
   7   1  -2    2.28    0.73
  -6  -1   2    4.42    0.72
   6  -1  -2    3.23    0.70
   6  -1  -2    3.41    0.65
   6   1  -2    4.46    0.84
   6   1  -2    4.57    0.75
  -6   1   2    4.78    0.78
   5  -1  -2   55.63    2.52
  -5  -1   2   53.36    2.56
   5  -1  -2   60.67    2.36
  -5  -1   2   56.91    2.45
  -5   1   2   57.37    2.49
   5   1  -2   55.15    2.56
   5   1  -2   55.21    2.31
   4  -1  -2    3.54    0.50
  -4  -1   2    2.72    0.46
  -4  -1   2    1.53    0.34
   4  -1  -2    2.77    0.50
   4   1  -2    2.48    0.47
   4   1  -2    2.50    0.43
  -4   1   2    2.70    0.47
   3  -1  -2   80.81    2.83
  -3  -1   2   88.03    3.01
   3  -1  -2   82.54    3.03
   3  -1  -2   83.83    2.76
  -3  -1   2   85.71    3.15
  -3  -1   2   88.09    2.69
  -3  -1   2   88.08    2.83
   3   1  -2   85.20    2.76
  -3   1   2   91.49    3.06
   3   1  -2   82.63    2.98
  -3   1   2   88.76    2.86
   3   1  -2   84.71    3.14
   3   1  -2   86.20    3.05
  -3   1   2   85.26    2.90
   2  -1  -2    3.67    0.53
  -2  -1   2    3.67    0.32
   2  -1  -2    3.65    0.27
  -2  -1   2    4.75    0.41
  -2  -1   2    3.96    0.26
   2  -1  -2    3.40    0.31
   2  -1  -2    3.86    0.32
   2  -1  -2    3.77    0.32
  -2  -1   2    3.39    0.27
  -2   1   2    4.01    0.32
   2   1  -2    4.14    0.36
  -2   1   2    3.43    0.23
   2   1  -2    3.47    0.28
  -2   1   2    3.93    0.28
   2   1  -2    3.93    0.31
   2   1  -2    3.97    0.33
   2   1  -2    3.03    0.39
  -2   1   2    3.62    0.32
   1  -1  -2   70.89    2.08
   1  -1  -2   69.02    2.20
  -1  -1   2   70.37    2.23
  -1  -1   2   69.78    2.39
   1  -1  -2   71.02    2.22
  -1  -1   2   69.90    2.27
  -1   1   2   70.00    2.25
   1   1  -2   70.12    2.13
   1   1  -2   70.83    2.24
   1   1  -2   71.55    2.28
  -1   1   2   66.83    2.18
   1   1  -2   68.41    2.38
  -1   1   2   69.16    2.22
   1   1  -2   72.13    2.08
  -1   1   2   70.61    2.08
   0  -1  -2   24.24    0.85
   0  -1   2   22.20    0.84
   0  -1   2   24.04    0.95
   0  -1   2   25.95    0.88
   0  -1  -2   24.62    0.79
   0  -1  -2   24.73    0.87
   0  -1   2   25.31    0.90
   0   1   2   23.97    0.85
   0   1   2   23.61    0.78
   0   1  -2   24.87    0.87
   0   1  -2   25.05    0.85
   0   1  -2   24.12    0.95
   0   1  -2   24.85    0.90
  -1  -1  -2  151.47    5.01
   1  -1   2  159.86    5.03
   1  -1   2  163.22    4.69
  -1  -1  -2  160.86    4.67
   1   1   2  148.82    4.99
   1   1   2  156.87    4.64
  -1   1  -2  163.45    4.70
  -1   1  -2  162.75    5.05
   1   1   2  177.71    5.05
   2  -1   2   35.18    1.34
  -2  -1  -2   36.01    1.37
  -2  -1  -2   32.71    1.46
   2  -1   2   33.00    1.43
  -2   1  -2   35.71    1.35
  -2   1  -2   35.13    1.47
   2   1   2   34.45    1.44
   2   1   2   37.59    1.26
   2   1   2   36.87    1.38
   2   1   2   38.71    1.49
   3  -1   2    0.81    0.26
   3  -1   2    0.67    0.28
  -3  -1  -2    0.73    0.26
  -3  -1  -2    0.83    0.31
   3   1   2    0.44    0.25
   3   1   2    0.81    0.24
   3   1   2    0.68    0.26
   3   1   2    0.81    0.26
   3   1   2    0.91    0.23
  -3   1  -2    0.59    0.29
  -4  -1  -2   66.21    2.88
   4  -1   2   73.90    2.63
   4  -1   2   73.39    2.86
   4   1   2   68.86    2.80
   4   1   2   69.48    2.64
   4   1   2   73.17    2.60
   5  -1   2   96.32    3.74
   5  -1   2   98.87    3.46
  -5  -1  -2   86.63    3.78
   5   1   2   97.61    3.75
   5   1   2   95.76    3.41
   6  -1   2   17.77    1.38
  -6  -1  -2   16.08    1.42
   6  -1   2   18.01    1.25
   6   1   2   17.23    1.21
   6   1   2   17.55    1.36
   7  -1   2   63.03    2.77
  -7  -1  -2   60.05    3.14
   7  -1   2   61.72    3.02
   7   1   2   60.00    2.99
   7   1   2   62.03    2.73
   8  -1   2   21.47    1.74
   8  -1   2   19.28    1.58
   8   1   2   21.57    1.72
   8   1   2   20.27    1.54
   8   1   2   17.53    1.59
   9  -1   2   16.09    1.78
   9   1   2   14.00    1.67
   9   1   2   12.73    1.41
  10   1   2   43.75    2.81
  11  -1   2    1.30    0.97
  11   1   2   -0.04    0.78
  11   2  -2    3.03    1.18
   9  -2  -2   12.36    1.65
  -9  -2   2   16.14    1.77
   9   2  -2   20.21    2.07
   9   2  -2   13.32    1.48
   8  -2  -2   42.64    2.34
  -8  -2   2   44.28    2.48
   8  -2  -2   46.16    2.61
   8   2  -2   44.13    2.38
  -8   2   2   45.22    2.64
   8   2  -2   41.34    2.63
  -7  -2   2    0.50    0.47
   7  -2  -2    0.86    0.58
   7  -2  -2    0.74    0.49
   7   2  -2    1.76    0.69
   7   2  -2    0.16    0.41
  -7   2   2    0.65    0.50
   6  -2  -2   37.52    2.02
   6  -2  -2   33.87    1.82
  -6  -2   2   37.06    2.08
  -6  -2   2   32.88    1.87
   6   2  -2   34.91    2.08
   6   2  -2   36.46    1.87
  -6   2   2   38.88    2.07
   5  -2  -2   52.24    2.35
  -5  -2   2   49.74    2.25
   5  -2  -2   50.29    2.15
  -5  -2   2   52.09    2.38
  -5   2   2   52.15    2.36
   5   2  -2   49.98    2.16
   5   2  -2   51.36    2.42
  -4  -2   2   56.11    2.36
   4  -2  -2   57.41    2.27
   4  -2  -2   60.91    2.28
  -4  -2   2   59.85    2.25
  -4  -2   2   67.65    2.56
   4  -2  -2   60.29    2.46
  -4   2   2   59.24    2.26
   4   2  -2   60.42    2.27
   4   2  -2   54.32    2.40
  -4   2   2   62.70    2.48
  -3  -2   2   99.04    3.01
   3  -2  -2   92.97    3.10
   3  -2  -2   88.27    3.12
   3  -2  -2   98.87    3.42
  -3  -2   2   96.63    3.48
  -3  -2   2   99.62    3.16
  -3  -2   2   99.05    3.35
   3   2  -2   97.53    3.34
   3   2  -2   99.87    3.42
  -3   2   2   99.40    3.40
  -3   2   2   94.29    3.22
   3   2  -2   98.19    3.10
  -2  -2   2   15.16    0.73
   2  -2  -2   14.23    0.73
   2  -2  -2   14.88    0.63
  -2  -2   2   14.78    0.62
  -2  -2   2   16.14    0.83
   2  -2  -2   15.27    0.68
  -2  -2   2   15.61    0.70
   2  -2  -2   15.03    0.67
   2   2  -2   14.98    0.69
   2   2  -2   14.44    0.64
  -2   2   2   15.04    0.56
  -2   2   2   14.42    0.73
  -2   2   2   14.92    0.74
   2   2  -2   15.35    0.76
   2   2  -2   14.77    0.81
  -2   2   2   15.31    0.64
  -2   2   2   15.72    0.74
  -1  -2   2  142.12    4.24
  -1  -2   2  143.31    4.65
   1  -2  -2  148.74    4.12
  -1  -2   2  151.75    4.51
  -1  -2   2  145.42    4.54
   1  -2  -2  155.03    4.68
   1  -2  -2  142.43    4.15
   1  -2  -2  138.94    4.44
  -1  -2   2  155.02    4.83
   1  -2  -2  143.21    4.42
   1   2  -2  144.44    4.24
  -1   2   2  147.77    4.57
   1   2  -2  147.15    4.52
   1   2  -2  147.29    4.80
  -1   2   2  146.10    4.65
   1   2  -2  143.93    4.19
  -1   2   2  147.80    4.46
   1   2  -2  141.61    4.55
   0  -2   2   37.32    1.28
   0  -2  -2   31.37    1.03
   0  -2  -2   33.47    1.26
   0  -2   2   33.73    1.19
   0  -2   2   32.30    1.36
   0  -2   2   34.66    1.14
   0  -2  -2   31.03    1.10
   0   2  -2   36.61    1.22
   0   2   2   30.79    1.09
   0   2  -2   38.06    1.20
   0   2   2   32.08    1.31
   0   2  -2   37.58    1.16
   0   2  -2   36.82    1.29
   0   2   2   30.29    0.98
   1  -2   2   84.44    2.78
  -1  -2  -2   85.33    2.74
   1  -2   2   81.25    2.60
  -1  -2  -2   80.94    2.57
  -1  -2  -2   84.25    2.79
   1   2   2   85.28    2.80
   1   2   2   88.02    2.79
   1   2   2   84.50    2.75
  -1   2  -2   80.97    2.59
  -1   2  -2   87.14    2.87
   1   2   2   82.96    2.51
  -1   2  -2   85.22    2.81
   2  -2   2    1.22    0.28
  -2  -2  -2    1.45    0.31
  -2  -2  -2    1.61    0.21
  -2  -2  -2    2.38    0.33
   2  -2   2    1.70    0.29
   2   2   2    1.25    0.22
   2   2   2    1.42    0.27
   2   2   2    1.56    0.20
   2   2   2    1.34    0.26
   2   2   2    2.00    0.33
  -2   2  -2    0.94    0.25
   2   2   2    1.24    0.27
   3  -2   2   27.22    1.22
   3  -2   2   26.51    1.30
  -3  -2  -2   26.18    1.14
  -3  -2  -2   27.63    1.28
  -3  -2  -2   23.09    1.28
   3   2   2   27.41    1.07
   3   2   2   26.71    1.26
   3   2   2   26.12    1.29
   3   2   2   26.36    1.16
   3   2   2   28.10    1.37
  -3   2  -2   24.92    1.33
   4  -2   2  165.11    5.18
   4  -2   2  166.04    5.57
  -4  -2  -2  157.90    5.47
  -4  -2  -2  149.09    5.56
   4   2   2  161.60    5.31
   4   2   2  163.27    5.54
   4   2   2  166.66    5.11
   4   2   2  158.09    5.41
   5  -2   2   25.87    1.43
   5  -2   2   25.41    1.54
  -5  -2  -2   24.43    1.58
   5   2   2   26.92    1.55
   5   2   2   24.19    1.44
   5   2   2   27.33    1.39
   6  -2   2    9.78    1.02
   6  -2   2   10.66    1.17
  -6  -2  -2   11.56    1.27
   6   2   2    7.56    0.97
   6   2   2   10.24    1.12
   6   2   2    7.88    0.88
   7  -2   2    6.87    1.09
   7  -2   2    4.90    0.88
  -7  -2  -2    6.44    1.11
   7   2   2    5.82    1.00
   7   2   2    5.07    0.87
   7   2   2    6.62    0.94
   8  -2   2    8.68    1.29
   8  -2   2    6.20    0.99
   8   2   2    7.49    1.19
   8   2   2    8.00    1.23
   8   2   2    9.66    1.18
   9   2   2   23.32    1.99
  10   2   2    4.89    1.27
  11   2   2    0.12    0.90
  11   3  -2   -0.59    0.91
  10   3  -2    7.41    1.43
   9   3  -2    4.06    1.09
  -8  -3   2    0.09    0.49
   8  -3  -2    0.19    0.52
   8   3  -2    0.91    0.64
   8   3  -2    0.69    0.72
   8   3  -2    0.30    0.51
  -8   3   2    0.22    0.62
   7  -3  -2    0.53    0.47
  -7  -3   2   -0.44    0.45
  -7  -3   2    0.05    0.42
   7  -3  -2    0.22    0.44
   7   3  -2   -0.10    0.50
  -7   3   2    0.39    0.49
   7   3  -2   -0.21    0.42
   6  -3  -2    0.31    0.41
  -6  -3   2   -0.03    0.38
   6  -3  -2    1.55    0.50
  -6  -3   2    0.57    0.37
   6   3  -2    0.99    0.55
   6   3  -2    0.98    0.45
  -6   3   2    0.96    0.47
  -5  -3   2   16.75    1.15
   5  -3  -2   18.69    1.18
  -5  -3   2   16.83    1.12
  -5  -3   2   21.48    1.32
   5  -3  -2   16.39    1.20
   5   3  -2   17.34    1.15
   5   3  -2   17.81    1.33
  -5   3   2   15.70    1.22
  -4  -3   2   13.63    0.99
  -4  -3   2   13.44    0.88
   4  -3  -2   15.97    0.99
   4  -3  -2   13.40    0.87
  -4  -3   2   14.87    0.95
   4  -3  -2   14.41    0.91
   4   3  -2   14.91    1.01
  -4   3   2   14.68    0.84
  -4   3   2   13.62    0.98
  -4   3   2   15.10    1.00
   4   3  -2   13.83    0.92
   4   3  -2   15.27    0.95
   3  -3  -2   -0.08    0.17
  -3  -3   2    0.26    0.20
  -3  -3   2   -0.07    0.15
   3  -3  -2    0.32    0.22
   3  -3  -2    0.03    0.16
  -3  -3   2    0.77    0.30
  -3  -3   2   -0.05    0.11
   3   3  -2   -0.02    0.17
   3   3  -2    0.82    0.26
   3   3  -2   -0.11    0.17
   3   3  -2   -0.12    0.16
  -3   3   2    0.21    0.15
  -3   3   2    0.05    0.19
  -3   3   2    0.36    0.23
   2  -3  -2    4.85    0.35
   2  -3  -2    5.46    0.40
  -2  -3   2    4.96    0.33
   2  -3  -2    4.72    0.33
  -2  -3   2    5.69    0.63
   2  -3  -2    3.93    0.35
  -2  -3   2    5.68    0.42
  -2  -3   2    5.74    0.43
  -2   3   2    3.45    0.40
  -2   3   2    4.73    0.24
  -2   3   2    3.39    0.43
   2   3  -2    5.16    0.44
   2   3  -2    4.72    0.40
   2   3  -2    5.36    0.38
   2   3  -2    5.83    0.42
  -2   3   2    4.78    0.31
  -2   3   2    4.73    0.44
  -1  -3   2   20.03    0.76
  -1  -3   2   20.59    0.80
   1  -3  -2   18.26    0.61
  -1  -3   2   17.83    0.99
  -1  -3   2   20.67    0.77
   1  -3  -2   17.78    0.61
   1   3  -2   18.12    0.69
  -1   3   2   19.30    0.91
   1   3  -2   18.72    0.76
   1   3  -2   17.94    0.79
  -1   3   2   18.84    0.62
  -1   3   2   15.35    0.66
   1   3  -2   20.81    0.75
  -1   3   2   20.11    0.90
   0  -3  -2   15.26    0.56
   0  -3   2   18.32    0.71
   0  -3   2   18.17    0.72
   0  -3   2   17.00    0.96
   0   3  -2   20.70    0.72
   0   3  -2   17.92    0.71
   0   3   2   15.34    0.81
   0   3  -2   18.99    0.76
   0   3   2   16.10    0.84
   0   3  -2   19.30    0.89
   0   3   2   15.23    0.55
   1  -3   2   31.41    1.18
  -1  -3  -2   30.26    1.25
  -1  -3  -2   31.35    1.12
  -1  -3  -2   30.19    1.10
   1  -3   2   32.09    1.16
  -1   3  -2   31.81    1.14
   1   3   2   32.11    1.30
   1   3   2   29.21    1.13
   1   3   2   29.36    0.98
  -1   3  -2   30.73    1.23
  -1   3  -2   30.41    1.31
   1   3   2   32.00    1.01
  -2  -3  -2    2.35    0.31
  -2  -3  -2    2.52    0.35
   2  -3   2    2.19    0.35
   2  -3   2    2.11    0.32
   2   3   2    2.78    0.41
   2   3   2    2.85    0.38
  -2   3  -2    1.78    0.33
   2   3   2    1.91    0.34
   2   3   2    2.44    0.29
  -2   3  -2    2.19    0.39
   3  -3   2    0.10    0.19
  -3  -3  -2    0.09    0.18
  -3  -3  -2    0.44    0.19
  -3  -3  -2    0.09    0.20
   3  -3   2    0.08    0.21
   3   3   2    0.01    0.13
   3   3   2    0.44    0.26
   3   3   2    0.19    0.20
  -3   3  -2   -0.01    0.22
   3   3   2    0.03    0.16
  -3   3  -2    0.26    0.25
   3   3   2    0.36    0.26
  -4  -3  -2    2.65    0.44
   4  -3   2    2.71    0.49
  -4  -3  -2    2.25    0.51
   4  -3   2    3.25    0.54
   4   3   2    2.42    0.37
   4   3   2    2.66    0.44
   4   3   2    2.65    0.51
   4   3   2    2.85    0.55
  -5  -3  -2   19.48    1.19
   5  -3   2   16.62    1.25
  -5  -3  -2   16.55    1.28
   5  -3   2   17.89    1.18
   5   3   2   20.11    1.16
   5   3   2   20.61    1.33
   5   3   2   17.04    1.22
   6  -3   2    7.72    0.92
   6  -3   2    9.40    1.11
  -6  -3  -2    7.94    1.08
   6   3   2    8.65    0.93
   6   3   2   11.78    1.11
   6   3   2    9.73    1.16
  -7  -3  -2    0.36    0.52
   7  -3   2    0.29    0.53
   7  -3   2    0.54    0.47
   7   3   2    1.14    0.59
   7   3   2    1.34    0.54
   7   3   2    0.12    0.49
   8  -3   2    1.08    0.62
   8   3   2    1.16    0.70
   8   3   2    1.76    0.76
   9   3   2    0.48    0.78
  10   3   2    7.61    1.53
  11   3   2    0.54    0.97
  11   4  -2   -0.05    0.99
  10   4  -2   12.19    1.83
   9   4  -2   21.32    1.98
  -8  -4   2   49.39    2.79
   8  -4  -2   48.72    2.52
  -8   4   2   46.36    2.78
  -8   4   2   40.37    2.59
   8   4  -2   49.58    2.88
   8   4  -2   51.49    2.79
   7  -4  -2    3.44    0.77
  -7  -4   2    2.78    0.82
   7   4  -2    4.08    0.95
  -7   4   2    4.00    0.87
  -7   4   2    3.45    0.89
   7   4  -2    4.02    0.87
  -6  -4   2   20.81    1.43
  -6  -4   2   20.39    1.49
   6  -4  -2   23.14    1.42
   6   4  -2   20.05    1.45
   6   4  -2   22.61    1.43
  -6   4   2   19.73    1.46
  -6   4   2   20.01    1.55
   6   4  -2   22.51    1.65
  -5  -4   2   77.08    2.87
  -5  -4   2   71.83    2.97
   5  -4  -2   70.80    2.78
   5  -4  -2   74.57    2.96
  -5  -4   2   72.56    3.10
   5   4  -2   76.54    3.22
  -5   4   2   73.71    3.09
   5   4  -2   78.11    2.88
  -5   4   2   67.03    3.04
   5   4  -2   72.77    2.96
  -4  -4   2  123.38    4.03
   4  -4  -2  118.88    3.96
  -4  -4   2  128.00    4.31
  -4  -4   2  123.16    4.50
   4  -4  -2  121.97    4.01
   4  -4  -2  126.88    4.25
  -4   4   2  125.62    4.44
  -4   4   2  103.49    4.26
  -4   4   2  118.46    4.06
   4   4  -2  124.66    4.09
   4   4  -2  127.48    4.43
   4   4  -2  120.57    4.49
   4   4  -2  121.45    4.25
   3  -4  -2   70.51    2.42
  -3  -4   2   69.91    2.46
  -3  -4   2   71.65    2.59
  -3  -4   2   74.00    2.31
   3  -4  -2   73.03    2.52
   3  -4  -2   67.40    2.36
  -3  -4   2   73.25    2.86
  -3   4   2   64.39    2.58
   3   4  -2   72.28    2.58
   3   4  -2   70.95    2.63
   3   4  -2   71.91    2.64
  -3   4   2   72.21    2.75
   3   4  -2   71.01    2.47
  -3   4   2   68.63    2.39
  -2  -4   2   18.10    0.84
   2  -4  -2   16.54    0.71
  -2  -4   2   20.14    1.13
  -2  -4   2   18.88    0.89
   2  -4  -2   18.06    0.77
  -2  -4   2   18.27    0.74
   2  -4  -2   18.95    0.73
   2  -4  -2   17.59    0.68
   2   4  -2   18.80    0.88
  -2   4   2   18.90    0.97
   2   4  -2   18.43    0.81
  -2   4   2   17.52    0.68
  -2   4   2   20.27    1.03
   2   4  -2   18.21    0.87
   2   4  -2   19.32    0.90
  -1  -4   2  169.09    5.34
  -1  -4   2  170.43    5.87
  -1  -4   2  180.15    5.02
  -1   4   2  167.87    5.49
  -1   4   2  167.56    5.66
   1   4  -2  168.41    5.36
   1   4  -2  169.83    5.32
   1   4  -2  172.51    4.94
   1   4  -2  176.35    5.34
   0  -4   2   58.57    2.01
   0  -4   2   64.44    2.52
   0  -4   2   59.19    1.93
   0   4  -2   59.74    2.07
   0   4  -2   60.08    2.32
   0   4  -2   64.46    1.96
   0   4   2   58.94    2.22
   0   4  -2   59.58    2.00
  -1  -4  -2  140.31    4.16
  -1  -4  -2  138.78    4.01
   1  -4   2  140.10    4.34
  -1  -4  -2  135.45    4.65
   1  -4   2  139.35    4.12
  -1   4  -2  134.70    4.67
   1   4   2  134.73    4.26
   1   4   2  135.21    4.26
   1   4   2  132.66    4.53
  -1   4  -2  140.90    4.44
  -2  -4  -2    0.24    0.18
   2  -4   2    0.12    0.18
  -2  -4  -2    0.02    0.14
  -2   4  -2    0.49    0.26
   2   4   2    0.53    0.22
   2   4   2    0.00    0.05
   2   4   2    0.19    0.18
   2   4   2    0.95    0.32
  -2   4  -2    0.14    0.18
   3  -4   2    1.75    0.37
  -3  -4  -2    1.09    0.29
  -3  -4  -2    1.46    0.32
   3  -4   2    1.77    0.38
  -3   4  -2    1.24    0.41
   3   4   2    1.12    0.36
   3   4   2    2.34    0.47
  -3   4  -2    0.95    0.38
   3   4   2    0.93    0.31
   3   4   2    1.43    0.28
   4  -4   2  191.99    6.03
  -4  -4  -2  182.16    6.39
   4  -4   2  197.68    6.41
  -4  -4  -2  187.57    6.34
  -4   4  -2  188.52    6.68
   4   4   2  192.30    5.88
   4   4   2  200.86    6.46
   4   4   2  181.86    6.39
  -5  -4  -2    9.97    0.86
   5  -4   2   11.39    1.01
  -5  -4  -2   10.65    1.01
   5  -4   2   10.54    0.94
   5   4   2   10.29    1.13
   5   4   2   10.17    0.85
   5   4   2   11.18    1.00
  -5   4  -2    9.91    1.15
   6  -4   2   25.39    1.59
   6   4   2   25.96    1.72
   6   4   2   27.33    1.73
   7  -4   2    0.11    0.48
   7   4   2   -0.11    0.47
   7   4   2   -0.27    0.45
   8   4   2    4.43    1.02
   9   4   2   26.03    2.23
  10   4   2    3.77    1.23
  10   5  -2    6.88    1.53
   9   5  -2    0.50    0.83
   8   5  -2   51.11    2.89
   7  -5  -2    2.79    0.68
  -7  -5   2    4.62    0.94
  -7   5   2    4.92    0.93
   7   5  -2    3.14    0.84
   7   5  -2    4.91    0.99
  -6  -5   2   32.97    2.02
   6  -5  -2   35.41    1.82
   6   5  -2   32.52    1.91
   6   5  -2   33.61    2.10
  -6   5   2   34.21    2.01
  -5  -5   2    4.08    0.74
  -5  -5   2    4.23    0.64
   5  -5  -2    5.12    0.70
   5   5  -2    6.97    0.86
   5   5  -2    4.53    0.79
  -5   5   2    3.99    0.75
  -4  -5   2    6.22    0.74
   4  -5  -2    7.43    0.73
  -4  -5   2    7.24    0.75
  -4  -5   2    7.17    0.87
   4   5  -2    7.47    0.80
   4   5  -2    6.60    0.71
  -4   5   2    6.21    0.82
   4   5  -2    5.71    0.77
  -3  -5   2   70.74    3.00
   3  -5  -2   72.53    2.42
  -3  -5   2   70.65    2.51
  -3  -5   2   78.26    2.71
  -3   5   2   70.93    2.88
  -3   5   2   67.92    2.74
   3   5  -2   73.57    2.67
   3   5  -2   71.50    2.73
   3   5  -2   72.67    2.55
   2  -5  -2    1.42    0.21
   2  -5  -2    1.25    0.18
  -2  -5   2    2.46    0.52
  -2  -5   2    1.63    0.28
  -2  -5   2    1.67    0.29
   2   5  -2    1.47    0.27
   2   5  -2    1.46    0.31
  -2   5   2    1.33    0.12
   2   5  -2    1.06    0.27
  -2   5   2    1.30    0.37
   2   5  -2    1.62    0.30
  -2   5   2    1.29    0.33
  -1  -5   2   92.06    3.54
  -1  -5   2   90.87    2.95
  -1  -5   2   91.44    2.80
   1   5  -2   91.97    2.98
   1   5  -2   89.92    3.01
  -1   5   2   87.09    3.18
  -1   5   2   84.46    3.30
   1   5  -2   89.46    2.94
   1   5  -2   89.76    2.71
   0  -5   2    0.29    0.16
   0  -5   2    0.30    0.31
   0  -5  -2    0.11    0.27
   0  -5   2    0.30    0.14
   0   5  -2    0.36    0.10
   0   5  -2    0.49    0.16
   0   5  -2    0.50    0.20
   0   5  -2    0.45    0.29
   0   5  -2    0.02    0.06
   0   5   2    0.37    0.26
  -1  -5  -2    1.70    0.41
   1  -5   2    1.56    0.47
   1  -5   2    1.79    0.25
  -1  -5  -2    1.24    0.15
   1  -5   2    1.63    0.27
   1   5   2    1.69    0.16
   1   5   2    1.36    0.34
  -1   5  -2    1.98    0.32
  -1   5  -2    1.63    0.24
   1   5   2    2.24    0.18
  -1   5  -2    1.71    0.42
  -1   5  -2    1.79    0.30
  -1   5  -2    2.14    0.18
   2  -5   2  112.05    3.54
  -2  -5  -2  108.12    3.96
  -2  -5  -2  118.81    3.40
   2  -5   2  115.03    3.67
   2   5   2  109.71    3.67
   2   5   2  106.43    3.91
  -2   5  -2  108.98    3.83
  -2   5  -2  112.64    4.11
   2   5   2  111.79    3.21
   3  -5   2    0.81    0.32
  -3  -5  -2    0.71    0.31
   3  -5   2    0.22    0.25
   3   5   2    0.19    0.22
  -3   5  -2    0.51    0.34
   3   5   2    0.34    0.33
   4  -5   2   76.90    2.87
  -4  -5  -2   77.13    2.97
   4   5   2   79.33    3.16
   4   5   2   75.88    3.02
  -4   5  -2   77.45    3.30
   5  -5   2   23.56    1.43
   5   5   2   23.40    1.56
  -5   5  -2   22.30    1.61
   5   5   2   24.82    1.51
   6  -5   2    1.68    0.57
   6   5   2    0.99    0.57
  -6   5  -2    1.98    0.70
   6   5   2    1.51    0.55
   7  -5   2  110.02    4.33
  -7   5  -2  104.49    4.85
   7   5   2  118.12    4.67
   7   5   2  113.57    4.75
   8   5   2    7.35    1.34
   9   5   2   14.24    1.91
  10   6  -2   25.47    2.59
   9   6  -2    5.99    1.37
   8   6  -2    5.93    1.20
   7  -6  -2  110.09    4.13
  -7   6   2  104.48    4.67
   7   6  -2  109.14    4.67
   7   6  -2  106.66    4.50
  -6  -6   2    0.20    0.52
   6  -6  -2   -0.08    0.39
   6   6  -2    0.76    0.56
   6   6  -2    0.70    0.55
  -6   6   2    0.51    0.51
  -5  -6   2   34.29    1.99
   5  -6  -2   31.85    1.62
   5   6  -2   34.26    2.00
  -5   6   2   35.15    2.02
   5   6  -2   32.53    1.81
  -4  -6   2   69.54    3.07
  -4  -6   2   64.37    2.55
   4  -6  -2   67.87    2.42
   4   6  -2   68.14    2.74
  -4   6   2   69.73    3.00
   4   6  -2   65.41    2.90
  -3  -6   2    5.36    0.80
  -3  -6   2    6.69    0.65
   3  -6  -2    5.41    0.48
  -3   6   2    6.17    0.83
   3   6  -2    6.24    0.73
   3   6  -2    6.27    0.71
  -3   6   2    5.82    0.75
  -2  -6   2  233.33    8.11
  -2  -6   2  234.86    6.90
   2  -6  -2  232.30    6.55
  -2   6   2  226.76    7.57
   2   6  -2  231.25    7.41
   2   6  -2  245.73    7.42
  -2   6   2  231.78    7.88
  -1  -6   2   21.21    0.90
  -1  -6   2   19.16    1.37
   1   6  -2   22.52    1.06
  -1   6   2   19.30    1.24
   1   6  -2   20.28    0.91
  -1   6   2   20.63    1.18
   0  -6   2   11.03    0.60
   0  -6   2   13.35    1.16
   0  -6  -2   10.65    0.96
   0   6  -2   11.98    0.59
   0   6  -2   11.46    0.95
   0   6   2   12.35    0.88
   0   6  -2   12.89    0.74
   1  -6   2  114.71    3.53
  -1  -6  -2  107.65    4.26
   1  -6   2  118.70    4.62
  -1   6  -2  115.95    4.31
  -1   6  -2  117.30    3.67
   1   6   2  112.66    4.09
  -1   6  -2  122.45    3.87
  -2  -6  -2   47.44    2.12
   2  -6   2   44.06    2.43
   2  -6   2   47.59    1.72
  -2   6  -2   45.85    2.21
   2   6   2   47.28    1.68
   2   6   2   46.63    2.10
  -3  -6  -2   72.53    2.91
   3  -6   2   69.61    2.56
   3   6   2   70.13    2.94
   3   6   2   76.67    2.70
  -3   6  -2   72.10    3.12
   4  -6   2   14.31    1.01
   4   6   2   15.01    1.06
  -4   6  -2   14.87    1.30
   4   6   2   14.61    1.20
   5  -6   2    2.27    0.57
   5   6   2    3.43    0.80
   5   6   2    1.82    0.52
  -5   6  -2    2.20    0.70
   6  -6   2   25.68    1.62
  -6   6  -2   22.69    1.85
   6   6   2   23.56    1.75
   6   6   2   25.80    1.72
   7   6   2   11.95    1.53
   8   6   2   12.69    1.71
   9   6   2    1.09    1.04
   9   7  -2   10.26    1.67
   8   7  -2    1.89    0.94
   7   7  -2    1.13    0.78
   6  -7  -2    1.04    0.49
   6   7  -2    1.06    0.67
  -6   7   2    1.56    0.79
   6   7  -2    1.70    0.70
  -5  -7   2   27.84    1.89
   5  -7  -2   26.63    1.39
  -5   7   2   24.76    1.79
   5   7  -2   26.97    1.69
   5   7  -2   32.27    1.88
  -4  -7   2   15.83    1.41
  -4  -7   2   16.75    1.10
   4  -7  -2   17.25    0.92
  -4   7   2   19.38    1.50
   4   7  -2   18.81    1.35
   4   7  -2   16.82    1.22
  -3  -7   2    1.47    0.54
  -3  -7   2    1.85    0.41
   3   7  -2    1.51    0.46
   3   7  -2    1.43    0.46
  -3   7   2    0.83    0.47
  -2  -7   2    0.66    0.47
  -2  -7   2    0.86    0.28
   2   7  -2    0.64    0.33
  -2   7   2    0.34    0.42
   2   7  -2    0.30    0.28
  -2   7   2    0.35    0.35
  -1  -7   2    7.87    0.52
   1  -7  -2    7.26    1.00
  -1  -7   2    6.49    0.96
   1   7  -2    8.05    0.54
  -1   7   2    7.14    0.87
  -1   7   2    8.08    0.97
   0  -7  -2   30.86    1.85
   0  -7   2   33.63    1.25
   0  -7   2   32.68    2.01
   0   7  -2   34.47    1.87
   0   7   2   33.56    1.69
   0   7  -2   34.38    1.23
   1  -7   2   60.49    3.06
   1  -7   2   64.02    2.10
  -1  -7  -2   60.56    2.80
   1   7   2   64.36    2.67
  -1   7  -2   67.70    2.12
  -1   7  -2   63.33    2.84
   2  -7   2    1.72    0.64
  -2  -7  -2    1.19    0.47
   2  -7   2    1.44    0.30
  -2   7  -2    1.27    0.24
  -2   7  -2    0.74    0.52
   2   7   2    1.64    0.50
  -3  -7  -2    1.75    0.53
   3  -7   2    2.34    0.42
   3  -7   2    1.92    0.72
   3   7   2    1.64    0.33
   3   7   2    1.57    0.53
  -3   7  -2    1.23    0.56
   4  -7   2    7.68    0.82
   4   7   2    6.29    0.72
   4   7   2    7.58    1.03
  -4   7  -2    7.31    1.08
   5  -7   2   39.80    1.94
   5   7   2   36.96    2.20
  -5   7  -2   39.11    2.43
   5   7   2   39.64    2.01
   6  -7   2   14.66    1.36
   6   7   2   15.77    1.70
   6   7   2   16.35    1.39
   7   7   2    1.66    0.88
   8   7   2   13.00    1.85
   9   7   2    0.90    1.05
   8   8  -2    1.59    0.91
   7   8  -2    1.07    0.78
   6   8  -2    0.81    0.67
   5   8  -2    2.97    0.74
   5   8  -2    2.46    0.74
  -4  -8   2    2.75    0.78
  -4   8   2    0.94    0.57
  -3  -8   2    2.14    0.43
  -3  -8   2    1.70    0.70
  -3   8   2    1.39    0.62
   2  -8  -2    3.48    0.85
  -2  -8   2    3.49    0.88
  -2   8   2    3.37    0.68
  -2   8   2    3.32    0.76
  -1  -8   2    3.80    0.91
   1  -8  -2    3.92    0.84
  -1   8   2    4.14    0.72
   0  -8   2   -0.23    0.46
   0  -8  -2    0.27    0.46
   0   8   2    0.61    0.44
  -1  -8  -2    0.00    0.46
   1  -8   2    0.50    0.58
   1   8   2   -0.04    0.39
  -1   8  -2    0.76    0.50
   2  -8   2   -0.06    0.51
  -2  -8  -2    0.93    0.53
  -2   8  -2   -0.28    0.40
   2   8   2    0.59    0.48
   3  -8   2    1.51    0.75
  -3   8  -2    1.27    0.61
   3   8   2    1.07    0.57
   4   8   2    6.14    1.04
   5   8   2    2.02    0.79
   6   8   2    0.40    0.75
   7   8   2    0.04    0.83
   8   8   2    0.21    0.93
  -3  -9   2    0.81    0.68
  -2  -9   2   -0.31    0.55
   2  -9  -2    0.34    0.65
  -2   9   2    0.15    0.47
  -1  -9   2   -0.01    0.61
   1  -9  -2   -0.15    0.52
  -1   9   2   -0.16    0.43
   0  -9  -2   31.02    2.09
   0  -9   2   34.22    2.33
   0   9   2   33.27    1.91
   1   9   2   28.49    1.79
   2   9   2    0.54    0.54
   3   9   2    0.85    0.62
   4   9   2    2.38    0.83
   5   9   2   22.34    1.88
   6   9   2   19.75    2.09
   7   9   2    1.22    1.05
   3  10   2    6.30    1.11
   4  10   2   26.27    2.04
   5  10   2   -1.12    0.64
   9   0  -3    0.59    0.64
  -9   0   3   -0.12    0.58
   9   0  -3    0.26    0.72
   8   0  -3   -0.11    0.59
  -8   0   3    0.23    0.49
   8   0  -3    0.10    0.53
   7   0  -3   -0.38    0.40
  -7   0   3    0.15    0.43
   7   0  -3    0.03    0.53
  -6   0   3    0.22    0.36
   6   0  -3    0.30    0.45
   6   0  -3    0.34    0.39
   5   0  -3    0.64    0.38
  -5   0   3   -0.12    0.20
  -5   0   3   -0.20    0.24
   5   0  -3    0.38    0.30
  -4   0   3   -0.06    0.19
   4   0  -3    0.48    0.25
  -4   0   3    0.08    0.29
   4   0  -3    0.07    0.23
  -4   0   3    0.32    0.23
  -3   0   3    0.07    0.13
  -3   0   3    0.18    0.28
  -3   0   3    0.43    0.20
   3   0  -3    0.30    0.18
  -3   0   3    0.10    0.17
   3   0  -3   -0.07    0.16
   3   0  -3   -0.06    0.17
   2   0  -3    0.14    0.11
   2   0  -3    0.02    0.17
  -2   0   3   -0.06    0.10
   2   0  -3   -0.04    0.11
  -2   0   3    1.21    0.30
  -2   0   3    0.02    0.12
   2   0  -3    0.00    0.11
   2   0  -3   -0.11    0.11
  -2   0   3    0.12    0.08
  -2   0   3    0.02    0.09
   1   0  -3   -0.22    0.09
   1   0  -3   -0.21    0.10
  -1   0   3   -0.30    0.10
   1   0  -3   -0.37    0.11
   1   0  -3    0.08    0.13
  -1   0   3   -0.18    0.15
  -1   0   3   -0.15    0.10
  -1   0   3   -0.02    0.13
   0   0  -3   -0.04    0.08
   0   0   3    0.01    0.09
   0   0  -3    0.28    0.09
   0   0   3    0.04    0.10
   0   0   3    0.19    0.09
   0   0  -3    0.01    0.08
   1   0   3   -0.13    0.07
   1   0   3   -0.12    0.12
  -1   0  -3   -0.09    0.12
   1   0   3   -0.26    0.12
  -1   0  -3   -0.13    0.10
   2   0   3   -0.01    0.15
  -2   0  -3    0.25    0.18
  -2   0  -3    0.03    0.17
   2   0   3   -0.18    0.10
   2   0   3    0.10    0.18
   2   0   3    0.07    0.15
   3   0   3    1.35    0.37
   3   0   3   -0.01    0.17
   4   0   3   -0.09    0.21
   4   0   3    0.12    0.25
   4   0   3    0.29    0.28
   5   0   3    0.15    0.37
   5   0   3    0.04    0.29
   6   0   3    0.00    0.39
   6   0   3    0.15    0.35
   7   0   3    0.44    0.52
   7   0   3   -0.59    0.34
   8   0   3   -0.05    0.55
   8   0   3    0.27    0.52
   8   0   3    0.28    0.59
   9   0   3    0.24    0.61
   9   0   3    0.34    0.65
  10   0   3    1.31    0.87
  11   0   3   -0.26    0.87
   9  -1  -3    0.54    0.66
  -9  -1   3    0.36    0.60
   9  -1  -3    0.51    0.72
   9   1  -3    1.82    0.76
  -9   1   3    0.53    0.62
   9   1  -3    0.67    0.80
   8  -1  -3    0.29    0.51
  -8  -1   3    0.24    0.52
   8  -1  -3    0.54    0.65
   8   1  -3   -0.42    0.52
   8   1  -3    0.31    0.64
  -8   1   3    0.64    0.55
  -7  -1   3    1.02    0.52
   7  -1  -3    0.19    0.47
   7  -1  -3    0.91    0.52
  -7   1   3    0.73    0.48
   7   1  -3    1.37    0.57
   7   1  -3    0.36    0.55
   6  -1  -3   68.44    2.89
   6  -1  -3   72.30    3.20
  -6  -1   3   73.89    3.07
  -6  -1   3   71.57    3.29
  -6   1   3   73.36    3.10
   6   1  -3   69.75    3.21
   6   1  -3   71.09    2.94
   5  -1  -3   74.86    2.83
   5  -1  -3   73.36    3.12
  -5  -1   3   75.30    3.22
  -5  -1   3   81.09    3.04
  -5  -1   3   79.22    2.86
   5   1  -3   73.46    3.08
  -5   1   3   72.89    3.00
   5   1  -3   72.63    2.81
   4  -1  -3    1.49    0.30
  -4  -1   3    1.41    0.34
  -4  -1   3    1.09    0.39
   4  -1  -3    1.20    0.35
  -4  -1   3    1.56    0.35
   4   1  -3    2.15    0.38
  -4   1   3    1.45    0.37
  -4   1   3    1.57    0.36
   4   1  -3    1.67    0.37
  -3  -1   3    0.24    0.12
  -3  -1   3   -0.15    0.19
  -3  -1   3   -0.07    0.14
  -3  -1   3    0.15    0.15
   3  -1  -3    0.09    0.14
   3  -1  -3    0.34    0.16
   3  -1  -3    0.04    0.16
   3   1  -3    0.46    0.18
  -3   1   3    0.33    0.14
   3   1  -3    0.16    0.17
  -3   1   3    0.15    0.16
  -3   1   3    0.50    0.18
   3   1  -3    0.25    0.19
   2  -1  -3    1.63    0.37
   2  -1  -3    1.53    0.20
  -2  -1   3    1.95    0.33
   2  -1  -3    1.68    0.24
  -2  -1   3    1.39    0.22
  -2  -1   3    1.32    0.23
  -2  -1   3    1.48    0.20
   2  -1  -3    1.38    0.22
   2  -1  -3    1.20    0.20
   2   1  -3    2.35    0.29
   2   1  -3    2.08    0.31
   2   1  -3    1.55    0.31
  -2   1   3    1.61    0.24
  -2   1   3    1.31    0.19
  -2   1   3    1.86    0.19
  -2   1   3    1.54    0.24
   2   1  -3    1.70    0.25
   2   1  -3    1.76    0.22
  -1  -1   3   94.34    2.92
  -1  -1   3   92.58    2.77
  -1  -1   3   87.20    3.08
  -1  -1   3   93.11    2.88
   1  -1  -3   96.24    2.87
   1  -1  -3   93.29    2.89
   1  -1  -3   80.29    3.14
   1  -1  -3   89.78    2.71
  -1  -1   3   93.92    2.96
   1  -1  -3   90.31    2.89
   1   1  -3   92.43    2.92
  -1   1   3   93.88    2.88
   1   1  -3   88.24    2.76
  -1   1   3   94.72    2.87
   1   1  -3   91.44    3.08
  -1   1   3   88.07    2.70
  -1   1   3   91.25    2.90
   0  -1  -3  235.47    7.02
   0  -1  -3  216.02    7.17
   0  -1  -3  226.54    6.53
   0  -1   3  222.90    7.25
   0  -1   3  248.03    7.08
   0  -1   3  236.01    6.61
   0   1  -3  227.84    7.06
   0   1  -3  227.73    7.25
   0   1  -3  231.13    6.60
   0   1   3  234.98    6.52
   0   1   3  227.36    7.01
   0   1  -3  225.93    7.08
  -1  -1  -3    8.46    0.48
   1  -1   3    8.48    0.55
  -1  -1  -3    8.07    0.51
   1  -1   3   10.19    0.54
   1  -1   3    9.40    0.53
   1   1   3    9.16    0.48
   1   1   3    8.91    0.49
   1   1   3    9.00    0.53
  -1   1  -3    9.43    0.52
  -1   1  -3    9.64    0.56
  -2  -1  -3   50.35    1.85
   2  -1   3   52.65    1.99
   2  -1   3   49.49    1.83
   2   1   3   51.45    1.67
  -2   1  -3   54.52    2.03
   2   1   3   47.51    1.78
   2   1   3   53.57    1.98
  -2   1  -3   51.35    1.86
   2   1   3   52.49    1.88
   3  -1   3   16.11    0.99
   3  -1   3   16.54    0.91
   3   1   3   16.29    0.90
   3   1   3   18.29    1.04
   3   1   3   17.13    0.90
   3   1   3   16.16    0.76
   3   1   3   16.87    1.00
   4  -1   3  215.52    7.18
   4  -1   3  217.77    6.66
   4   1   3  207.26    7.14
   4   1   3  215.26    6.98
   4   1   3  222.12    6.64
   4   1   3  211.23    6.97
   5  -1   3   42.63    2.12
   5  -1   3   45.25    1.97
   5   1   3   39.93    1.96
   5   1   3   42.03    1.91
   5   1   3   42.15    2.09
   6  -1   3    2.52    0.56
   6  -1   3    1.74    0.57
   6   1   3    3.10    0.61
   6   1   3    2.20    0.63
   6   1   3    2.64    0.62
   7  -1   3   25.39    1.63
   7  -1   3   25.17    1.81
   7   1   3   23.40    1.57
   7   1   3   23.42    1.72
   7   1   3   24.61    1.68
   8  -1   3    1.51    0.76
   8  -1   3    3.36    0.79
   8   1   3    3.19    0.83
   8   1   3    1.60    0.62
   8   1   3    3.20    0.85
   9  -1   3   46.82    2.85
   9   1   3   44.80    2.65
  10  -1   3    2.39    0.91
  10   1   3    2.53    0.99
  11  -1   3    1.19    0.93
  11   1   3   -0.14    0.88
  11   2  -3   26.24    2.62
  -9  -2   3    3.15    0.86
   9   2  -3    2.26    0.95
   9   2  -3    3.33    0.91
  -8  -2   3  126.99    4.97
   8  -2  -3  118.04    5.00
   8  -2  -3  117.20    4.64
   8   2  -3  118.45    5.14
  -8   2   3  121.97    5.03
   7  -2  -3    7.95    1.03
   7  -2  -3    6.06    1.00
  -7  -2   3    8.03    1.08
  -7  -2   3    6.71    1.11
   7   2  -3    5.77    0.88
   7   2  -3    5.68    1.02
  -7   2   3    6.87    1.01
  -6  -2   3   57.70    2.57
  -6  -2   3   53.62    2.69
  -6  -2   3   55.88    2.41
   6  -2  -3   53.96    2.42
   6  -2  -3   53.77    2.63
   6   2  -3   53.02    2.46
  -6   2   3   60.17    2.68
   6   2  -3   53.06    2.74
  -5  -2   3  211.67    6.58
   5  -2  -3  208.97    6.63
  -5  -2   3  209.94    7.33
   5  -2  -3  205.89    7.13
  -5  -2   3  211.89    7.03
   5   2  -3  206.30    7.13
   5   2  -3  204.04    6.59
  -5   2   3  218.04    7.11
  -4  -2   3   30.27    1.32
   4  -2  -3   25.83    1.25
   4  -2  -3   26.60    1.43
   4  -2  -3   26.32    1.28
  -4  -2   3   27.61    1.34
  -4  -2   3   28.24    1.49
  -4   2   3   27.18    1.21
   4   2  -3   26.11    1.24
  -4   2   3   25.96    1.36
   4   2  -3   26.49    1.37
  -3  -2   3  322.55   10.51
  -3  -2   3  327.63    9.47
  -3  -2   3  333.96   10.13
   3  -2  -3  330.01   10.14
   3  -2  -3  312.34    9.35
  -3  -2   3  321.69    9.31
   3  -2  -3  327.32    9.44
   3   2  -3  321.87    9.39
   3   2  -3  339.82   10.21
  -3   2   3  335.16   10.25
  -3   2   3  332.81   10.12
  -3   2   3  313.34    9.44
   3   2  -3  322.44   10.10
  -3   2   3  325.62    9.96
   2  -2  -3   54.58    1.78
   2  -2  -3   55.62    1.87
   2  -2  -3   52.91    1.87
  -2  -2   3   55.05    1.74
  -2  -2   3   55.39    1.84
  -2  -2   3   55.74    1.96
   2  -2  -3   55.93    1.72
  -2  -2   3   53.92    2.11
  -2   2   3   56.06    1.91
  -2   2   3   55.04    1.97
   2   2  -3   55.34    1.93
   2   2  -3   54.68    1.78
   2   2  -3   55.25    1.99
  -2   2   3   51.96    1.80
  -2   2   3   53.35    1.93
  -2   2   3   52.91    1.79
   1  -2  -3    0.09    0.07
   1  -2  -3    0.01    0.09
  -1  -2   3    0.42    0.12
  -1  -2   3    0.35    0.17
  -1  -2   3   -0.02    0.10
   1  -2  -3    0.08    0.07
   1  -2  -3    0.22    0.08
  -1  -2   3    0.17    0.11
  -1  -2   3    0.13    0.11
  -1   2   3    0.25    0.10
   1   2  -3    0.35    0.17
  -1   2   3    0.09    0.10
   1   2  -3    0.13    0.11
  -1   2   3    0.12    0.06
  -1   2   3   -0.08    0.11
   1   2  -3    0.06    0.08
   1   2  -3    0.21    0.12
   1   2  -3    0.06    0.10
   0  -2  -3  116.21    3.68
   0  -2  -3  108.18    3.29
   0  -2  -3  112.33    3.53
   0  -2   3  111.83    3.62
   0  -2   3  109.54    3.40
   0  -2   3  110.15    3.84
   0  -2   3  119.34    3.68
   0   2  -3  116.04    3.61
   0   2  -3  115.03    3.68
   0   2   3  111.23    3.52
   0   2  -3  111.68    3.64
   0   2  -3  113.72    3.41
   0   2   3  113.28    3.66
  -1  -2  -3  106.14    3.34
  -1  -2  -3  102.48    3.45
   1  -2   3  106.98    3.66
   1  -2   3  105.52    3.27
  -1  -2  -3  100.74    3.19
   1  -2   3  106.96    3.48
  -1   2  -3  107.89    3.27
   1   2   3  105.97    3.47
  -1   2  -3  104.70    3.51
  -1   2  -3  103.45    3.52
   1   2   3  105.78    3.15
   1   2   3  114.34    3.47
   1   2   3  101.45    3.41
  -2  -2  -3   77.50    2.50
   2  -2   3   76.60    2.58
   2  -2   3   75.98    2.75
  -2  -2  -3   75.16    2.57
   2   2   3   81.82    2.78
   2   2   3   79.71    2.51
   2   2   3   76.21    2.72
  -2   2  -3   74.81    2.79
   2   2   3   76.64    2.70
   3  -2   3   73.50    2.84
   3  -2   3   74.77    2.66
  -3  -2  -3   73.63    2.69
   3   2   3   74.68    2.57
   3   2   3   75.49    2.49
   3   2   3   76.58    2.84
   3   2   3   78.18    2.90
   4  -2   3   10.57    0.90
   4  -2   3   11.96    0.88
   4   2   3   11.03    0.81
   4   2   3   12.34    0.89
   4   2   3   13.46    0.96
   4   2   3   11.23    0.65
   5  -2   3   52.50    2.25
   5  -2   3   53.14    2.45
   5   2   3   55.19    2.37
   5   2   3   51.68    2.18
   5   2   3   51.49    2.39
   5   2   3   46.60    2.11
   6  -2   3   11.38    1.14
   6  -2   3    8.59    1.11
   6   2   3   10.96    1.10
   6   2   3    9.92    1.12
   6   2   3    8.67    1.09
   7  -2   3   21.44    1.67
   7  -2   3   18.30    1.42
   7   2   3   20.28    1.62
   7   2   3   22.29    1.47
   7   2   3   16.10    1.41
   8  -2   3    1.89    0.78
   8  -2   3    3.18    0.83
   8   2   3    2.13    0.66
   8   2   3    2.85    0.87
   8   2   3    2.27    0.80
   9   2   3    0.68    0.79
  10   2   3   14.27    1.83
  11  -2   3    1.99    0.96
  11   2   3    1.53    1.05
  11   3  -3    2.69    1.21
  10   3  -3    3.29    1.13
  -9  -3   3   52.79    2.97
   9   3  -3   53.20    3.06
   8  -3  -3    1.16    0.60
  -8  -3   3    2.83    0.87
  -8  -3   3    0.38    0.51
  -8   3   3    2.62    0.81
   8   3  -3    2.00    0.80
   8   3  -3    1.38    0.65
  -7  -3   3   39.42    2.34
  -7  -3   3   42.52    2.25
   7  -3  -3   38.35    2.09
  -7   3   3   39.77    2.29
   7   3  -3   39.01    2.42
   7   3  -3   38.45    2.11
   6  -3  -3    7.52    0.98
   6  -3  -3    4.58    0.72
  -6  -3   3    5.61    0.85
  -6  -3   3    5.92    0.79
  -6  -3   3    6.79    0.98
  -6   3   3    6.06    0.87
   6   3  -3    6.90    0.92
   6   3  -3    6.30    1.00
  -5  -3   3   34.08    1.73
   5  -3  -3   35.12    1.81
  -5  -3   3   37.28    1.92
   5  -3  -3   33.79    1.67
  -5  -3   3   34.47    1.64
   5   3  -3   35.00    1.71
  -5   3   3   35.96    1.83
   5   3  -3   31.01    1.79
  -4  -3   3  136.17    4.94
  -4  -3   3  135.67    4.69
   4  -3  -3  142.92    4.79
  -4  -3   3  140.99    4.43
   4  -3  -3  132.19    4.42
   4  -3  -3  133.56    4.38
  -4   3   3  134.67    4.75
   4   3  -3  142.27    4.43
  -4   3   3  134.18    4.49
   4   3  -3  136.66    4.75
  -4   3   3  139.65    4.79
   3  -3  -3    0.55    0.21
  -3  -3   3    1.06    0.21
   3  -3  -3    0.51    0.24
  -3  -3   3    0.67    0.23
   3  -3  -3    0.78    0.22
  -3  -3   3    0.80    0.33
  -3  -3   3    1.32    0.29
  -3   3   3    0.50    0.22
   3   3  -3    0.94    0.29
  -3   3   3    0.38    0.15
  -3   3   3    0.66    0.24
   3   3  -3    0.75    0.27
   3   3  -3    0.13    0.21
   3   3  -3    0.39    0.19
   2  -3  -3  240.97    6.60
   2  -3  -3  229.15    7.16
   2  -3  -3  228.85    6.62
  -2  -3   3  218.76    7.59
   2  -3  -3  229.01    7.04
  -2  -3   3  232.59    6.75
  -2  -3   3  235.25    7.23
   2   3  -3  235.13    7.25
   2   3  -3  235.19    7.20
  -2   3   3  227.54    7.01
  -2   3   3  227.04    7.14
  -2   3   3  233.67    7.38
  -2   3   3  230.80    7.25
   2   3  -3  234.12    6.68
  -1  -3   3    2.17    0.39
   1  -3  -3    2.20    0.16
   1  -3  -3    1.68    0.32
  -1  -3   3    1.70    0.25
   1  -3  -3    2.03    0.17
   1  -3  -3    1.88    0.16
   1  -3  -3    2.17    0.15
  -1  -3   3    1.80    0.27
   1   3  -3    1.58    0.21
  -1   3   3    1.97    0.31
  -1   3   3    1.81    0.18
   1   3  -3    2.01    0.29
  -1   3   3    1.54    0.30
   1   3  -3    1.41    0.29
   1   3  -3    1.61    0.24
   0  -3   3    2.51    0.30
   0  -3   3    2.49    0.41
   0  -3   3    2.14    0.28
   0  -3  -3    2.44    0.15
   0  -3  -3    3.20    0.21
   0   3   3    2.54    0.19
   0   3   3    2.65    0.38
   0   3  -3    2.99    0.34
   0   3  -3    3.02    0.38
   0   3  -3    2.61    0.29
   1  -3   3  524.61   14.04
   1  -3   3  474.10   13.10
   1  -3   3  453.89   14.62
  -1  -3  -3  465.79   13.01
  -1  -3  -3  415.13   13.94
  -1  -3  -3  466.46   14.29
   1   3   3  430.98   12.94
   1   3   3  440.56   13.88
   1   3   3  462.45   14.01
  -1   3  -3  475.55   14.35
  -1   3  -3  470.30   14.06
   1   3   3  456.32   13.95
  -2  -3  -3    0.25    0.18
   2  -3   3    0.20    0.20
   2  -3   3    0.61    0.24
  -2  -3  -3    0.34    0.14
   2   3   3    0.26    0.20
   2   3   3    0.37    0.22
   2   3   3    0.26    0.19
  -2   3  -3    1.88    0.36
   2   3   3    0.28    0.15
  -2   3  -3    0.26    0.21
  -3  -3  -3  180.17    5.69
   3  -3   3  183.01    6.02
  -3  -3  -3  184.23    5.84
   3  -3   3  175.57    5.62
   3   3   3  183.92    5.50
   3   3   3  175.13    5.96
  -3   3  -3  179.26    6.11
   3   3   3  182.59    6.08
   3   3   3  178.98    5.98
   3   3   3  188.52    5.79
   4  -3   3   28.69    1.57
  -4  -3  -3   31.54    1.39
   4  -3   3   29.74    1.51
   4   3   3   32.24    1.42
   4   3   3   28.80    1.54
   4   3   3   29.32    1.56
   4   3   3   31.22    1.25
   5  -3   3   16.43    1.17
   5  -3   3   17.07    1.27
   5   3   3   16.92    1.08
   5   3   3   16.26    1.21
   5   3   3   16.85    1.21
   6  -3   3  194.64    6.44
   6  -3   3  190.42    6.88
   6   3   3  197.04    6.30
   6   3   3  195.04    6.87
   6   3   3  186.68    6.78
   7  -3   3   19.61    1.47
   7  -3   3   16.05    1.50
   7   3   3   15.54    1.41
   7   3   3   17.96    1.54
   7   3   3   17.73    1.33
   8  -3   3    7.19    1.16
   8   3   3    5.79    1.07
   8   3   3    5.79    1.15
   9   3   3   33.80    2.46
  10   3   3   35.84    2.67
  11   4  -3   18.69    2.26
  10   4  -3   15.12    1.93
   9   4  -3   16.98    1.89
   8  -4  -3   20.18    1.61
  -8  -4   3   20.25    1.80
  -8   4   3   19.42    1.73
   8   4  -3   20.03    2.07
  -8   4   3   17.58    1.63
   8   4  -3   18.18    1.83
  -7  -4   3   28.17    1.81
   7  -4  -3   27.75    1.74
  -7  -4   3   28.92    1.97
  -7   4   3   28.39    1.93
  -7   4   3   25.79    1.78
   7   4  -3   29.41    1.88
   7   4  -3   26.92    2.01
  -6  -4   3   30.61    1.77
  -6  -4   3   28.20    1.85
  -6  -4   3   31.66    1.71
   6  -4  -3   32.58    1.74
   6   4  -3   31.72    1.80
   6   4  -3   31.67    1.76
  -6   4   3   31.29    1.87
  -6   4   3   31.17    1.81
   6   4  -3   31.05    2.01
   5  -4  -3   94.81    3.48
  -5  -4   3   97.81    3.91
  -5  -4   3   99.43    3.70
  -5  -4   3   95.68    3.46
  -5   4   3   97.84    3.78
   5   4  -3   95.62    3.85
   5   4  -3   95.56    3.65
   5   4  -3   96.49    3.56
  -5   4   3   99.27    3.79
  -4  -4   3    6.99    0.70
  -4  -4   3    7.19    0.68
   4  -4  -3    6.72    0.70
  -4  -4   3    7.08    0.83
  -4   4   3    7.64    0.82
  -4   4   3    6.55    0.74
   4   4  -3    7.66    0.81
   4   4  -3    8.68    0.72
  -4   4   3    5.93    0.50
   4   4  -3    6.74    0.70
  -3  -4   3   60.85    2.20
   3  -4  -3   61.10    2.16
  -3  -4   3   64.87    2.35
  -3  -4   3   64.17    2.06
  -3  -4   3   63.01    2.62
   3  -4  -3   61.08    2.08
   3  -4  -3   62.93    2.26
   3   4  -3   61.96    2.39
  -3   4   3   60.87    2.42
  -3   4   3   55.75    2.27
   3   4  -3   65.54    2.29
  -3   4   3   61.03    2.09
   3   4  -3   59.85    2.34
   3   4  -3   64.51    2.19
  -3   4   3   56.59    2.36
  -2  -4   3  132.19    3.98
  -2  -4   3  127.90    4.23
  -2  -4   3  131.32    4.66
   2  -4  -3  130.88    3.85
   2  -4  -3  132.84    4.03
   2  -4  -3  124.82    3.77
   2  -4  -3  128.63    3.95
   2   4  -3  133.98    4.23
  -2   4   3  131.50    4.44
   2   4  -3  130.65    3.91
   2   4  -3  129.57    4.26
   2   4  -3  133.38    4.14
  -2   4   3  129.19    4.34
  -2   4   3  114.25    4.09
  -2   4   3  131.37    3.96
   1  -4  -3   26.89    0.86
  -1  -4   3   29.86    1.15
  -1  -4   3   26.35    1.44
   1  -4  -3   27.41    0.86
  -1  -4   3   31.88    1.12
   1   4  -3   26.90    1.15
  -1   4   3   26.92    1.28
  -1   4   3   28.47    1.30
   1   4  -3   26.67    0.99
   1   4  -3   28.58    1.12
   0  -4   3  115.94    3.69
   0  -4  -3   95.92    3.27
   0  -4   3  113.68    4.19
   0  -4   3  125.83    3.52
   0   4   3   95.99    3.80
   0   4  -3  115.99    3.36
   0   4  -3  120.09    3.99
   0   4  -3  116.44    3.67
   0   4  -3  130.68    3.79
  -1  -4  -3   17.73    0.91
  -1  -4  -3   17.74    0.77
  -1  -4  -3   17.87    0.70
   1  -4   3   17.47    0.84
   1  -4   3   17.55    0.84
   1  -4   3   19.85    1.20
  -1   4  -3   18.40    0.93
   1   4   3   17.61    1.00
   1   4   3   16.32    0.78
   1   4   3   17.74    0.74
  -1   4  -3   18.08    1.01
  -2  -4  -3    1.53    0.32
   2  -4   3    1.21    0.29
   2  -4   3    1.70    0.34
  -2  -4  -3    1.46    0.28
   2   4   3    1.22    0.30
  -2   4  -3    1.53    0.35
   2   4   3    0.79    0.31
   2   4   3    1.95    0.32
  -2   4  -3    1.68    0.38
  -3  -4  -3  101.27    3.59
  -3  -4  -3  110.40    3.60
   3  -4   3  101.71    3.54
   3  -4   3  107.78    3.77
   3   4   3  111.69    3.76
   3   4   3  101.90    3.80
  -3   4  -3  106.57    3.97
   3   4   3  104.70    3.36
  -3   4  -3  103.52    3.87
   3   4   3  106.70    3.81
   4  -4   3    2.87    0.53
  -4  -4  -3    2.97    0.44
   4  -4   3    2.68    0.54
   4   4   3    2.98    0.46
   4   4   3    1.92    0.50
   4   4   3    3.43    0.57
  -4   4  -3    2.43    0.59
   5  -4   3   23.34    1.44
   5  -4   3   26.91    1.58
   5   4   3   21.77    1.37
   5   4   3   26.21    1.61
  -5   4  -3   22.83    1.61
   5   4   3   24.36    1.51
   6  -4   3    1.56    0.59
   6   4   3    0.69    0.48
   6   4   3    1.53    0.64
   7  -4   3   -0.09    0.47
   7   4   3   -0.60    0.55
   7   4   3    1.30    0.59
   8   4   3   17.83    1.88
   9   4   3    0.31    0.83
  10   4   3    1.69    1.09
  10   5  -3    7.18    1.52
   9   5  -3    0.38    0.85
   8   5  -3    0.19    0.69
  -8   5   3   -0.03    0.59
  -7  -5   3    3.19    0.88
   7  -5  -3    5.24    0.86
  -7   5   3    3.67    0.83
   7   5  -3    2.27    0.73
  -7   5   3    3.81    0.86
   7   5  -3    2.44    0.82
   6  -5  -3   25.79    1.48
  -6  -5   3   21.98    1.67
  -6  -5   3   21.89    1.43
   6   5  -3   22.80    1.77
   6   5  -3   21.69    1.51
  -6   5   3   22.19    1.59
  -6   5   3   21.97    1.56
  -5  -5   3   15.12    1.09
   5  -5  -3   18.06    1.14
  -5  -5   3   16.56    1.31
  -5   5   3   16.08    1.20
   5   5  -3   17.64    1.37
   5   5  -3   15.85    1.16
  -5   5   3   17.76    1.30
   4  -5  -3    6.22    0.66
  -4  -5   3    6.13    0.71
  -4  -5   3    9.12    1.04
  -4  -5   3    7.09    0.74
   4   5  -3    6.60    0.74
   4   5  -3    5.62    0.75
  -4   5   3    6.31    0.80
  -4   5   3    6.58    0.72
   4   5  -3    7.18    0.75
   3  -5  -3    0.77    0.25
  -3  -5   3    0.88    0.28
  -3  -5   3    0.87    0.43
  -3  -5   3    0.78    0.28
   3   5  -3    0.32    0.24
  -3   5   3    0.82    0.35
  -3   5   3    0.24    0.29
   3   5  -3    0.56    0.28
  -3   5   3    1.21    0.19
   3   5  -3    0.65    0.28
   2  -5  -3    1.65    0.18
  -2  -5   3    1.42    0.43
   2  -5  -3    1.77    0.23
  -2  -5   3    2.27    0.34
  -2  -5   3    1.51    0.30
   2   5  -3    1.82    0.32
   2   5  -3    1.48    0.27
   2   5  -3    1.56    0.30
   2   5  -3    1.63    0.31
  -2   5   3    1.74    0.41
  -2   5   3    2.27    0.47
  -1  -5   3   36.54    1.91
  -1  -5   3   40.68    1.40
  -1  -5   3   39.50    1.44
  -1   5   3   36.54    1.65
   1   5  -3   38.48    1.42
  -1   5   3   33.21    1.63
   1   5  -3   34.08    1.44
   1   5  -3   34.80    1.37
   1   5  -3   36.04    1.27
   0  -5   3   38.86    1.44
   0  -5  -3   36.08    1.75
   0  -5   3   39.45    1.42
   0  -5   3   38.87    1.95
   0   5  -3   38.89    1.43
   0   5  -3   41.41    1.55
   0   5   3   34.70    1.67
   0   5  -3   36.25    1.74
  -1  -5  -3   10.97    0.49
   1  -5   3    9.90    1.09
   1  -5   3   10.68    0.62
   1  -5   3   10.09    0.64
  -1  -5  -3   10.27    0.77
   1   5   3   10.60    0.45
  -1   5  -3    9.74    0.84
  -1   5  -3   10.69    0.70
   1   5   3    9.53    0.45
  -1   5  -3    9.31    0.59
   1   5   3   10.77    0.81
   2  -5   3    3.82    0.75
  -2  -5  -3    3.60    0.49
   2  -5   3    3.81    0.45
   2  -5   3    4.69    0.53
   2   5   3    3.68    0.41
  -2   5  -3    2.77    0.53
   2   5   3    3.84    0.24
   2   5   3    4.36    0.64
  -2   5  -3    4.08    0.57
   3  -5   3    1.24    0.39
  -3  -5  -3    1.21    0.33
   3   5   3    0.98    0.32
  -3   5  -3    1.29    0.45
   3   5   3    1.37    0.46
   4  -5   3   27.07    1.45
   4   5   3   27.03    1.59
   4   5   3   27.11    1.47
  -4   5  -3   25.84    1.65
   5  -5   3   28.69    1.63
   5   5   3   29.39    1.70
  -5   5  -3   30.27    1.91
   5   5   3   30.38    1.83
   6  -5   3    0.78    0.51
   6   5   3    0.54    0.47
  -6   5  -3    0.95    0.66
   6   5   3    0.47    0.60
   7  -5   3    6.92    1.01
  -7   5  -3    8.42    1.36
   7   5   3    6.87    1.17
   7   5   3    7.42    1.11
   8   5   3    0.72    0.86
   9   5   3    9.23    1.61
  10   5   3    2.76    1.24
  10   6  -3    8.71    1.67
   9   6  -3   12.84    1.76
   8   6  -3    1.21    0.83
   7  -6  -3    8.98    1.07
  -7  -6   3    8.40    1.36
   7   6  -3    8.76    1.32
   7   6  -3   12.17    1.43
  -7   6   3    7.46    1.18
   6  -6  -3    3.71    0.67
  -6  -6   3    4.96    0.94
   6   6  -3    3.35    0.84
  -6   6   3    4.03    0.83
   6   6  -3    6.53    0.98
  -5  -6   3   15.78    1.16
   5  -6  -3   15.97    1.10
  -5  -6   3   20.50    1.53
   5   6  -3   16.08    1.44
   5   6  -3   19.35    1.31
  -5   6   3   17.93    1.36
   4  -6  -3    3.62    0.50
  -4  -6   3    3.50    0.57
  -4  -6   3    3.60    0.71
   4   6  -3    3.58    0.67
  -4   6   3    3.16    0.67
   4   6  -3    3.57    0.60
   3  -6  -3    0.96    0.24
  -3  -6   3    1.50    0.53
  -3  -6   3    0.61    0.28
   3   6  -3    1.10    0.37
  -3   6   3    1.18    0.46
   3   6  -3    0.87    0.34
  -3   6   3    1.49    0.46
  -2  -6   3   51.24    1.88
  -2  -6   3   51.94    2.52
   2   6  -3   51.62    1.97
  -2   6   3   50.95    2.22
  -2   6   3   50.42    2.29
   2   6  -3   51.56    2.00
  -1  -6   3    4.86    0.48
  -1  -6   3    6.58    0.95
  -1   6   3    5.34    0.71
  -1   6   3    5.53    0.71
   1   6  -3    6.03    0.49
   0  -6   3   23.79    1.58
   0  -6   3   21.70    0.98
   0  -6  -3   21.43    1.36
   0   6  -3   21.87    1.33
   0   6  -3   24.04    0.98
   0   6   3   20.53    1.23
   1  -6   3    3.43    0.42
  -1  -6  -3    2.14    0.52
   1  -6   3    2.06    0.65
   1   6   3    3.34    0.59
  -1   6  -3    2.97    0.58
  -1   6  -3    2.91    0.35
   2  -6   3    2.52    0.71
   2  -6   3    2.95    0.45
  -2  -6  -3    4.33    0.61
   2   6   3    2.92    0.61
  -2   6  -3    2.91    0.62
   2   6   3    3.41    0.35
  -3  -6  -3   17.85    1.14
   3  -6   3   20.09    1.61
   3  -6   3   19.80    1.12
   3   6   3   20.97    1.07
   3   6   3   21.09    1.37
  -3   6  -3   18.73    1.40
   4  -6   3    7.43    0.82
   4   6   3    7.26    0.98
   4   6   3    8.66    0.81
  -4   6  -3    8.45    1.08
   5  -6   3    2.10    0.59
  -5   6  -3    1.24    0.64
   5   6   3    2.25    0.72
   5   6   3    1.94    0.56
   6  -6   3    1.05    0.54
   6   6   3    0.41    0.49
   6   6   3    1.06    0.64
  -6   6  -3    1.13    0.68
   7   6   3    1.67    0.85
   8   6   3   11.12    1.70
   9   6   3    2.34    1.18
   9   7  -3    9.04    1.60
   8   7  -3    2.71    1.00
   7   7  -3    2.55    0.85
  -6  -7   3   21.06    1.77
   6  -7  -3   21.70    1.36
   6   7  -3   19.86    1.57
   6   7  -3   21.81    1.78
  -6   7   3   20.48    1.67
   5  -7  -3   14.31    0.98
  -5  -7   3   14.61    1.12
  -5  -7   3   15.41    1.62
  -5   7   3   12.67    1.41
   5   7  -3   14.27    1.21
   5   7  -3   14.73    1.38
  -4  -7   3   10.20    0.87
  -4  -7   3   11.07    1.36
   4   7  -3   11.78    1.21
   4   7  -3   10.50    1.02
  -4   7   3    8.67    1.08
  -3  -7   3    0.40    0.28
  -3  -7   3    0.84    0.50
  -3   7   3    1.08    0.48
  -3   7   3    0.25    0.44
   3   7  -3    0.51    0.36
  -2  -7   3   18.75    1.54
  -2  -7   3   20.57    1.02
  -2   7   3   20.27    1.40
   2   7  -3   20.77    1.10
  -2   7   3   20.54    1.33
  -1  -7   3   32.30    1.28
  -1  -7   3   31.49    2.03
   1  -7  -3   30.33    1.85
  -1   7   3   29.68    1.64
   1   7  -3   31.75    1.32
   0  -7  -3   22.40    1.47
   0  -7   3   20.34    0.98
   0  -7   3   22.34    1.64
   0   7  -3   21.74    1.45
   0   7   3   23.09    1.38
   0   7  -3   23.97    1.00
  -1  -7  -3   15.30    1.16
   1  -7   3   16.86    1.49
   1  -7   3   15.64    0.83
   1   7   3   12.46    1.09
  -1   7  -3   16.54    1.25
  -1   7  -3   16.45    0.78
   2  -7   3    9.93    0.71
  -2  -7  -3    9.70    0.92
   2  -7   3    7.36    1.14
  -2   7  -3   10.51    0.65
   2   7   3    9.18    1.05
  -2   7  -3    8.27    1.05
   3  -7   3   16.45    1.78
   3  -7   3   18.70    1.08
   3   7   3   18.21    0.95
  -3   7  -3   17.21    1.47
   3   7   3   17.00    1.36
   4  -7   3   70.33    3.60
   4  -7   3   67.65    2.67
  -4   7  -3   69.07    3.32
   4   7   3   69.76    2.70
   4   7   3   66.78    3.13
   5  -7   3   10.68    1.09
  -5   7  -3    9.23    1.36
   5   7   3    9.91    1.30
   5   7   3    7.68    0.92
   6   7   3   27.96    1.79
   6   7   3   29.87    2.15
   7   7   3   19.47    2.07
   8   7   3    1.57    1.02
  -5  -8   3   45.79    2.73
   5   8  -3   48.70    2.52
  -4  -8   3   12.59    0.99
  -4  -8   3   13.56    1.59
   4   8  -3   12.22    1.25
  -4   8   3   11.71    1.35
  -3  -8   3  159.52    6.24
  -3  -8   3  154.69    5.00
  -3   8   3  157.07    5.72
  -3   8   3  148.50    5.87
   3   8  -3  164.88    5.57
  -2  -8   3    8.57    1.29
  -2  -8   3    8.35    0.67
   2  -8  -3    7.81    1.19
  -2   8   3    6.86    0.98
  -2   8   3    9.26    1.08
  -1  -8   3    1.22    0.66
  -1  -8   3    0.41    0.23
   1  -8  -3    0.44    0.50
  -1   8   3    0.22    0.45
   0  -8   3   50.59    2.84
   0  -8  -3   50.23    2.57
   0   8   3   51.59    2.41
   1  -8   3   53.84    2.94
  -1  -8  -3   51.81    2.56
  -1   8  -3   50.22    2.61
   1   8   3   54.44    2.51
   2  -8   3   53.21    3.03
   2   8   3   53.89    2.57
  -2   8  -3   53.12    2.74
   3  -8   3    8.44    0.77
   3  -8   3    8.32    1.38
   3   8   3    6.99    1.00
  -3   8  -3    5.60    1.03
   4  -8   3    8.61    0.89
   4   8   3    6.49    1.06
   5   8   3   24.72    1.97
   6   8   3   14.72    1.79
   7   8   3   16.77    1.95
   8   8   3   -1.25    0.86
  -2  -9   3   15.04    1.69
   2  -9  -3   14.71    1.68
  -2   9   3   15.40    1.33
  -1  -9   3    2.37    0.82
   1  -9  -3    0.80    0.59
  -1   9   3    2.05    0.67
   0  -9   3    1.65    0.82
   0  -9  -3    3.14    0.81
   0   9   3    1.68    0.64
   1   9   3   29.95    1.87
   2   9   3    0.70    0.56
   3   9   3   27.30    1.94
   4   9   3   16.25    1.72
   5   9   3    0.82    0.81
   6   9   3   33.39    2.52
  -1  10   3    8.20    1.17
   0  10   3    8.45    1.18
   1  10   3    1.32    0.69
   2  10   3    2.95    0.85
   3  10   3   33.12    2.20
   4  10   3    1.66    0.88
   5  10   3    0.10    0.77
  -9   0   4  168.08    6.45
   9   0  -4  164.10    6.64
   9   0  -4  158.72    6.10
   8   0  -4    0.84    0.65
  -8   0   4    0.48    0.53
   8   0  -4   -0.23    0.50
   7   0  -4   21.21    1.76
   7   0  -4   21.14    1.56
  -7   0   4   22.91    1.58
  -6   0   4  123.29    4.23
   6   0  -4  119.54    4.27
  -6   0   4  115.39    4.45
   6   0  -4  117.36    4.66
   5   0  -4  150.60    4.88
  -5   0   4  152.65    4.91
  -5   0   4  149.72    5.21
   5   0  -4  147.18    5.30
  -5   0   4  150.73    5.69
  -4   0   4  475.30   15.90
   4   0  -4  504.01   14.12
  -4   0   4  509.55   15.22
   4   0  -4  477.18   15.19
  -4   0   4  499.47   14.20
  -3   0   4   55.28    2.00
   3   0  -4   56.97    2.09
   3   0  -4   55.50    1.90
  -3   0   4   55.87    2.38
  -3   0   4   54.32    1.98
  -3   0   4   59.39    2.13
   3   0  -4   57.54    2.03
   2   0  -4   19.42    0.86
  -2   0   4   18.91    0.88
   2   0  -4   19.16    0.85
  -2   0   4   19.71    0.82
   2   0  -4   19.42    0.90
   2   0  -4   21.74    0.80
  -2   0   4   19.24    1.04
   2   0  -4   19.56    1.04
  -2   0   4   18.31    0.83
   1   0  -4  243.48    7.56
  -1   0   4  245.59    7.83
  -1   0   4  241.54    7.05
   1   0  -4  251.56    7.53
   1   0  -4  240.46    7.81
  -1   0   4  256.49    7.53
   1   0  -4  241.16    7.05
  -1   0   4  248.40    7.57
   0   0  -4  286.57    8.13
   0   0  -4  282.50    8.83
   0   0   4  279.02    8.85
   0   0  -4  283.16    8.70
   0   0   4  288.46    8.71
   1   0   4  352.67   11.16
  -1   0  -4  366.01   10.41
   1   0   4  362.79   10.40
  -1   0  -4  375.82   11.19
   1   0   4  362.29   11.22
   2   0   4   25.33    1.26
   2   0   4   27.97    1.13
   2   0   4   28.68    1.20
  -2   0  -4   26.85    1.20
   3   0   4   64.87    2.34
   3   0   4   60.89    2.30
   3   0   4   64.17    2.53
   4   0   4   31.03    1.41
   4   0   4   27.55    1.41
   4   0   4   29.30    1.43
   4   0   4   28.82    1.58
   5   0   4   62.11    2.60
   5   0   4   63.12    2.56
   5   0   4   63.39    2.79
   6   0   4   56.32    2.72
   6   0   4   55.76    2.46
   6   0   4   53.97    2.51
   7   0   4    1.19    0.61
   7   0   4    0.33    0.42
   7   0   4    1.09    0.59
   8   0   4   11.13    1.31
   8   0   4   13.01    1.52
   8   0   4   15.05    1.50
   9   0   4   29.98    2.15
  10   0   4    9.74    1.42
  11   0   4   28.72    2.41
   9  -1  -4    6.21    1.21
   9  -1  -4    4.56    0.98
  -9  -1   4    3.85    0.99
  -9   1   4    2.59    0.85
   9   1  -4    4.30    1.18
   9   1  -4    4.27    1.06
  -8  -1   4   12.26    1.45
   8  -1  -4   12.98    1.36
   8  -1  -4   13.79    1.61
   8   1  -4   11.51    1.35
  -8   1   4   12.24    1.42
   8   1  -4   15.25    1.77
   7  -1  -4   23.29    1.59
   7  -1  -4   21.55    1.73
  -7  -1   4   22.37    1.58
   7   1  -4   22.02    1.59
   7   1  -4   25.01    1.88
  -7   1   4   21.61    1.55
  -6  -1   4    6.22    1.00
  -6  -1   4    5.63    0.79
   6  -1  -4    6.39    0.86
  -6  -1   4    5.59    0.76
   6  -1  -4    6.49    0.96
  -6   1   4    6.56    0.89
   6   1  -4    5.18    0.85
   6   1  -4    5.54    0.78
  -5  -1   4   22.75    1.25
  -5  -1   4   22.22    1.30
   5  -1  -4   22.35    1.41
   5  -1  -4   22.27    1.24
  -5  -1   4   24.38    1.53
   5   1  -4   24.01    1.41
  -5   1   4   22.43    1.26
  -5   1   4   23.90    1.34
   5   1  -4   24.24    1.27
  -4  -1   4    5.11    0.58
   4  -1  -4    4.64    0.50
   4  -1  -4    5.74    0.65
  -4  -1   4    5.84    0.64
  -4  -1   4    7.25    0.87
  -4   1   4    6.42    0.60
   4   1  -4    6.00    0.67
  -4   1   4    6.30    0.63
   4   1  -4    6.03    0.54
   3  -1  -4   54.07    2.06
  -3  -1   4   53.74    2.30
  -3  -1   4   57.08    2.12
  -3  -1   4   58.93    2.01
   3  -1  -4   56.38    1.90
   3  -1  -4   55.50    1.99
  -3   1   4   55.40    2.09
  -3   1   4   58.52    1.99
  -3   1   4   57.20    1.99
   3   1  -4   56.64    2.10
   3   1  -4   55.85    1.92
   2  -1  -4   29.46    1.16
   2  -1  -4   29.04    1.13
  -2  -1   4   27.55    1.13
  -2  -1   4   29.79    1.33
   2  -1  -4   27.86    1.09
   2  -1  -4   28.68    1.04
   2  -1  -4   24.51    1.36
  -2  -1   4   30.42    1.21
  -2  -1   4   30.43    1.14
  -2   1   4   29.62    1.17
  -2   1   4   28.86    1.09
  -2   1   4   29.80    1.10
   2   1  -4   30.55    1.16
  -2   1   4   27.98    1.17
   2   1  -4   30.04    1.18
  -2   1   4   30.01    1.06
   2   1  -4   29.61    1.22
  -1  -1   4   23.54    0.83
   1  -1  -4   23.82    0.89
  -1  -1   4   23.04    1.06
   1  -1  -4   24.06    0.92
  -1  -1   4   24.00    1.00
   1  -1  -4   21.92    1.08
  -1  -1   4   22.26    0.93
  -1  -1   4   24.44    0.97
   1  -1  -4   23.76    0.94
   1  -1  -4   25.53    0.85
  -1   1   4   21.73    1.10
  -1   1   4   25.18    0.92
   1   1  -4   23.86    1.00
   1   1  -4   24.03    0.97
   1   1  -4   23.87    1.06
   1   1  -4   23.00    0.93
  -1   1   4   23.47    0.97
  -1   1   4   22.68    0.94
  -1   1   4   24.55    0.89
  -1   1   4   24.29    0.83
   0  -1  -4  106.80    3.16
   0  -1   4  105.77    3.22
   0  -1  -4  103.95    3.38
   0  -1   4  101.68    3.48
   0  -1   4  102.43    3.41
   0  -1  -4  103.20    3.37
   0   1  -4  103.01    3.42
   0   1   4  106.55    3.14
   0   1   4  109.52    3.37
   0   1  -4  104.66    3.21
   0   1  -4  102.65    3.31
   0   1  -4  102.96    3.48
   1  -1   4   91.28    2.92
  -1  -1  -4   89.51    2.86
   1  -1   4   89.10    3.10
  -1  -1  -4   92.03    3.09
   1  -1   4   88.77    3.07
   1   1   4   88.00    3.05
   1   1   4   92.92    3.01
  -1   1  -4   95.62    2.93
   1   1   4   88.10    2.84
  -1   1  -4   94.31    3.14
   2  -1   4  123.78    3.87
   2  -1   4  121.35    4.13
  -2  -1  -4  117.05    3.82
   2  -1   4  121.06    3.85
   2   1   4  120.50    3.97
   2   1   4  120.72    3.79
   2   1   4  117.41    4.08
  -2   1  -4  117.99    4.16
   2   1   4  130.53    4.14
   3  -1   4  168.11    5.59
   3  -1   4  165.81    5.18
   3   1   4  163.11    5.22
   3   1   4  164.68    5.37
   3   1   4  170.41    5.14
   3   1   4  156.22    5.51
   4  -1   4    4.71    0.66
   4  -1   4    5.56    0.74
   4   1   4    6.14    0.70
   4   1   4    6.04    0.73
   4   1   4    6.62    0.83
   4   1   4    5.69    0.49
   5  -1   4   78.86    3.30
   5  -1   4   83.45    3.09
   5   1   4   79.63    3.14
   5   1   4   75.92    3.26
   5   1   4   77.32    2.99
   6  -1   4   42.45    2.06
   6  -1   4   42.73    2.26
   6   1   4   42.69    2.24
   6   1   4   33.85    1.98
   6   1   4   42.27    2.02
   7  -1   4    6.71    0.96
   7  -1   4    6.85    1.11
   7   1   4    7.05    0.97
   7   1   4    6.09    0.95
   7   1   4    7.23    1.12
   8  -1   4   51.01    2.88
   8  -1   4   47.80    2.58
   8  -1   4   49.19    2.60
   8   1   4   50.01    2.84
   8   1   4   52.64    2.60
   8   1   4   52.26    2.74
   9  -1   4   16.57    1.71
   9   1   4   11.00    1.41
   9   1   4   14.82    1.72
  10  -1   4    6.97    1.25
  10   1   4    7.55    1.47
  11  -1   4   26.03    2.24
  11   1   4   21.58    2.31
  -9  -2   4    0.95    0.69
   9   2  -4    0.56    0.68
   9   2  -4    2.36    0.94
   8  -2  -4   39.76    2.50
   8  -2  -4   40.77    2.33
  -8  -2   4   42.54    2.42
   8   2  -4   39.16    2.31
   8   2  -4   39.65    2.66
  -8   2   4   41.55    2.42
  -7  -2   4   14.99    1.64
  -7  -2   4   14.30    1.27
   7  -2  -4   14.33    1.49
   7  -2  -4   14.27    1.26
  -7   2   4   15.76    1.34
   7   2  -4   11.76    1.25
   7   2  -4   12.79    1.54
   6  -2  -4   43.79    2.24
  -6  -2   4   53.02    2.64
  -6  -2   4   51.14    2.39
  -6  -2   4   52.77    2.28
   6  -2  -4   51.57    2.55
  -6   2   4   53.02    2.45
   6   2  -4   51.12    2.57
   6   2  -4   50.17    2.31
   5  -2  -4   15.58    1.20
   5  -2  -4   15.99    1.05
  -5  -2   4   19.76    1.12
  -5  -2   4   14.92    1.04
  -5  -2   4   16.41    1.26
   5   2  -4   17.56    1.20
  -5   2   4   15.73    1.11
   5   2  -4   15.47    1.04
   4  -2  -4    0.55    0.24
  -4  -2   4    1.55    0.35
   4  -2  -4    1.26    0.33
  -4  -2   4    1.57    0.38
   4  -2  -4    0.32    0.26
  -4  -2   4    0.44    0.31
   4   2  -4    1.30    0.38
  -4   2   4    0.73    0.29
  -4   2   4    0.87    0.28
  -4   2   4    1.24    0.27
   4   2  -4    1.29    0.32
   3  -2  -4  166.85    5.03
  -3  -2   4  162.29    5.70
   3  -2  -4  164.69    4.94
  -3  -2   4  167.64    5.07
  -3  -2   4  171.67    5.42
   3  -2  -4  168.38    5.37
  -3   2   4  163.70    5.22
   3   2  -4  169.40    5.00
   3   2  -4  167.17    5.40
  -3   2   4  167.45    5.39
  -3   2   4  166.25    5.04
  -3   2   4  161.23    5.37
  -2  -2   4   39.50    1.51
  -2  -2   4   38.23    1.41
   2  -2  -4   38.25    1.33
   2  -2  -4   37.75    1.39
  -2  -2   4   38.13    1.65
   2  -2  -4   38.82    1.28
  -2  -2   4   38.15    1.40
   2   2  -4   39.16    1.35
   2   2  -4   35.93    1.45
  -2   2   4   36.40    1.33
  -2   2   4   38.12    1.41
  -2   2   4   36.11    1.32
  -2   2   4   40.18    1.52
  -2   2   4   37.64    1.42
   2   2  -4   37.25    1.51
   1  -2  -4   12.80    0.56
  -1  -2   4   14.06    0.62
   1  -2  -4   13.86    0.64
  -1  -2   4   13.71    0.79
   1  -2  -4   13.27    0.57
  -1  -2   4   13.00    0.69
   1  -2  -4   13.25    0.59
  -1  -2   4   13.70    0.67
   1  -2  -4   10.68    0.82
  -1   2   4   13.31    0.61
   1   2  -4   14.25    0.68
  -1   2   4   12.62    0.55
   1   2  -4   13.15    0.70
   1   2  -4   13.58    0.65
  -1   2   4   12.66    0.61
  -1   2   4   12.32    0.71
   0  -2  -4    3.85    0.29
   0  -2  -4    3.38    0.30
   0  -2   4    3.03    0.41
   0  -2   4    3.92    0.41
   0  -2  -4    3.54    0.30
   0  -2   4    2.31    0.30
   0   2  -4    3.32    0.30
   0   2  -4    3.89    0.42
   0   2  -4    3.64    0.45
   0   2   4    4.48    0.46
   0   2   4    3.17    0.25
   0   2  -4    2.95    0.34
   0   2   4    2.98    0.28
   0   2  -4    3.03    0.37
  -1  -2  -4   88.11    2.74
  -1  -2  -4   73.88    2.75
   1  -2   4   84.36    2.81
   1  -2   4   90.97    3.00
  -1  -2  -4   87.93    2.71
   1  -2   4   90.46    3.13
   1   2   4   87.16    2.68
  -1   2  -4   85.29    3.01
   1   2   4   89.34    2.97
   1   2   4   85.17    2.91
  -1   2  -4   90.95    3.00
   2  -2   4  137.91    4.53
   2  -2   4  152.09    4.90
  -2  -2  -4  141.88    4.53
   2   2   4  140.19    4.77
   2   2   4  147.21    4.45
   2   2   4  162.24    4.90
  -2   2  -4  142.18    4.92
   2   2   4  145.72    4.82
   3  -2   4   13.58    0.92
  -3  -2  -4   14.01    0.89
   3  -2   4   11.65    0.83
   3   2   4   13.74    0.93
   3   2   4   12.29    0.77
   3   2   4   12.23    0.48
   3   2   4   13.90    0.87
   3   2   4   12.14    0.87
   4  -2   4    8.88    0.93
   4  -2   4    7.02    0.79
   4   2   4    8.34    0.47
   4   2   4    7.34    0.83
   4   2   4    8.55    0.72
   4   2   4    6.56    0.76
   5  -2   4    0.77    0.40
   5  -2   4    0.59    0.41
   5   2   4    0.11    0.31
   5   2   4    0.63    0.34
   5   2   4    0.11    0.31
   6  -2   4    9.60    1.09
   6  -2   4   10.73    1.21
   6   2   4   11.21    0.99
   6   2   4   11.41    1.24
   6   2   4   10.24    1.14
   7  -2   4   36.93    2.11
   7  -2   4   39.49    2.33
   7   2   4   38.81    2.28
   7   2   4   37.55    2.02
   7   2   4   37.46    2.19
   8  -2   4   15.57    1.68
   8  -2   4   11.84    1.37
   8   2   4   13.79    1.58
   8   2   4   12.98    1.49
   8   2   4   10.69    1.22
   9   2   4    1.14    0.82
  10  -2   4    0.78    0.80
  10   2   4    0.84    0.92
  11   3  -4    1.22    1.06
  10   3  -4    0.19    0.90
  -9  -3   4   -0.24    0.62
   8  -3  -4    0.69    0.58
  -8  -3   4    0.60    0.63
  -8  -3   4   -0.13    0.53
  -8   3   4    2.16    0.77
   8   3  -4   -0.07    0.66
   8   3  -4    0.63    0.59
  -7  -3   4   14.23    1.56
  -7  -3   4   14.20    1.20
   7  -3  -4   12.08    1.29
  -7  -3   4   14.03    1.44
  -7   3   4   12.69    1.36
   7   3  -4   14.95    1.46
   7   3  -4   11.50    1.45
  -6  -3   4    2.79    0.58
  -6  -3   4    5.62    0.84
   6  -3  -4    3.54    0.71
   6  -3  -4    2.38    0.57
  -6  -3   4    2.80    0.74
  -6   3   4    3.15    0.67
   6   3  -4    2.76    0.60
   6   3  -4    3.13    0.74
   5  -3  -4    0.06    0.34
  -5  -3   4    0.05    0.38
  -5  -3   4    0.73    0.34
   5  -3  -4    0.23    0.31
  -5  -3   4    0.76    0.33
  -5   3   4    0.09    0.27
  -5   3   4    0.56    0.34
   5   3  -4    0.95    0.45
   5   3  -4    0.33    0.30
  -4  -3   4    6.83    0.83
  -4  -3   4    8.23    0.67
   4  -3  -4    6.75    0.76
   4  -3  -4    6.49    0.65
   4  -3  -4    6.42    0.64
  -4  -3   4    5.36    0.62
  -4   3   4    7.06    0.51
  -4   3   4    7.17    0.67
   4   3  -4    6.58    0.72
  -4   3   4    7.23    0.65
   4   3  -4    6.29    0.63
  -3  -3   4    0.28    0.21
   3  -3  -4    0.02    0.14
   3  -3  -4    0.13    0.15
  -3  -3   4    0.30    0.20
  -3  -3   4    0.23    0.26
   3  -3  -4    0.03    0.18
   3   3  -4    0.10    0.19
  -3   3   4    0.01    0.15
  -3   3   4   -0.03    0.19
  -3   3   4    0.16    0.19
   3   3  -4    0.10    0.16
  -3   3   4    0.13    0.12
   3   3  -4    0.78    0.29
   2  -3  -4   11.43    0.52
  -2  -3   4   10.88    0.68
  -2  -3   4   10.96    0.81
   2  -3  -4   10.88    0.54
   2  -3  -4   11.93    0.59
  -2  -3   4   10.69    0.65
  -2   3   4   11.46    0.52
   2   3  -4   11.17    0.66
   2   3  -4   10.60    0.69
  -2   3   4   11.51    0.60
  -2   3   4   11.45    0.67
   2   3  -4   12.27    0.60
  -2   3   4   11.02    0.73
   1  -3  -4   30.62    1.05
   1  -3  -4   29.68    1.01
   1  -3  -4   29.96    1.36
   1  -3  -4   30.29    1.07
  -1  -3   4   28.77    1.22
  -1  -3   4   28.83    1.44
  -1  -3   4   29.32    1.18
  -1   3   4   30.11    0.98
   1   3  -4   30.73    1.26
   1   3  -4   29.89    1.28
   1   3  -4   32.44    1.22
  -1   3   4   31.09    1.26
   1   3  -4   29.83    1.09
  -1   3   4   30.25    1.33
  -1   3   4   30.01    1.08
   0  -3  -4    0.29    0.09
   0  -3   4    0.41    0.19
   0  -3   4    0.60    0.27
   0  -3  -4    0.36    0.14
   0  -3  -4    0.43    0.13
   0  -3   4    0.47    0.19
   0   3  -4    0.11    0.15
   0   3  -4    0.57    0.23
   0   3  -4    0.26    0.19
   0   3   4    0.68    0.25
   0   3   4    0.39    0.10
   0   3   4    0.23    0.12
   1  -3   4    6.51    0.64
   1  -3   4    7.72    0.56
   1  -3   4    7.05    0.55
  -1  -3  -4    7.80    0.48
  -1  -3  -4    7.66    0.45
   1   3   4    7.49    0.41
   1   3   4    6.82    0.48
  -1   3  -4    7.58    0.59
   1   3   4    8.43    0.54
   1   3   4    7.84    0.62
  -1   3  -4    7.69    0.59
   2  -3   4    0.31    0.28
   2  -3   4    0.41    0.25
  -2  -3  -4   -0.12    0.14
  -2  -3  -4    0.10    0.11
   2  -3   4    0.20    0.24
   2   3   4    0.34    0.26
   2   3   4    0.18    0.19
  -2   3  -4    0.08    0.20
   2   3   4    0.26    0.22
   2   3   4    0.28    0.17
  -2   3  -4    1.37    0.35
   3  -3   4    6.09    0.66
  -3  -3  -4    6.59    0.70
   3  -3   4    7.10    0.77
  -3  -3  -4    6.88    0.43
   3   3   4    7.66    0.81
   3   3   4    6.01    0.66
   3   3   4    6.95    0.57
   3   3   4    6.47    0.73
   4  -3   4    6.73    0.80
   4  -3   4    7.08    0.89
   4   3   4    6.00    0.65
   4   3   4    6.93    0.46
   4   3   4    6.02    0.78
   4   3   4    7.15    0.85
   5  -3   4    1.17    0.48
   5  -3   4    2.58    0.56
   5   3   4    1.16    0.44
   5   3   4    1.48    0.48
   5   3   4    0.84    0.38
   6  -3   4    4.68    0.86
   6  -3   4    4.40    0.79
   6   3   4    3.44    0.63
   6   3   4    2.99    0.76
   6   3   4    5.12    0.87
   7  -3   4    1.93    0.69
   7  -3   4    1.19    0.62
   7   3   4    1.34    0.64
   7   3   4    2.38    0.81
   8   3   4    9.14    1.39
   9   3   4   -0.10    0.80
  10  -3   4    0.26    0.73
  10   3   4    0.82    0.96
  11   4  -4   13.07    1.99
  10   4  -4   13.52    1.89
  -9  -4   4    4.94    1.15
   9   4  -4    5.31    1.23
   8  -4  -4   40.61    2.34
  -8  -4   4   46.09    2.76
  -8   4   4   44.32    2.56
   8   4  -4   43.87    2.55
   8   4  -4   43.02    2.80
  -8   4   4   39.63    2.42
   7  -4  -4   33.47    1.94
  -7  -4   4   35.34    2.21
  -7  -4   4   33.33    1.87
  -7  -4   4   32.44    1.94
   7   4  -4   33.22    2.29
   7   4  -4   31.01    1.98
  -7   4   4   32.33    2.03
   7   4  -4   32.10    2.00
  -7   4   4   31.40    1.96
  -6  -4   4   69.32    2.99
  -6  -4   4   67.56    3.22
  -6  -4   4   72.60    2.88
   6  -4  -4   72.32    2.90
  -6   4   4   68.51    3.03
  -6   4   4   67.22    3.03
   6   4  -4   67.06    2.99
   6   4  -4   69.52    2.97
   6   4  -4   72.35    3.28
  -5  -4   4    4.01    0.76
  -5  -4   4    5.30    0.73
   5  -4  -4    5.04    0.69
  -5  -4   4    5.41    0.67
   5   4  -4    7.27    0.84
   5   4  -4    5.10    0.77
   5   4  -4    4.98    0.72
  -5   4   4    4.65    0.69
  -5   4   4    4.80    0.70
  -4  -4   4    7.65    0.69
  -4  -4   4    9.11    0.77
   4  -4  -4    9.13    0.78
   4  -4  -4    8.50    0.72
  -4  -4   4    9.48    1.05
  -4   4   4    8.80    0.76
  -4   4   4    8.46    0.77
   4   4  -4   10.38    0.75
   4   4  -4    8.95    0.79
   4   4  -4   10.13    0.77
  -3  -4   4  139.39    5.11
  -3  -4   4  139.69    4.71
  -3  -4   4  141.93    4.43
   3  -4  -4  138.97    4.26
   3  -4  -4  136.96    4.29
   3  -4  -4  143.93    4.65
  -3   4   4  142.77    4.66
   3   4  -4  144.96    4.73
   3   4  -4  143.82    4.58
  -3   4   4  140.09    4.81
  -3   4   4  136.90    4.42
  -3   4   4  142.18    4.82
   3   4  -4  137.47    4.77
   3   4  -4  142.87    4.37
   2  -4  -4   42.72    1.43
  -2  -4   4   43.43    1.71
  -2  -4   4   41.85    2.01
   2  -4  -4   45.44    1.58
  -2  -4   4   43.15    1.64
   2  -4  -4   42.32    1.42
   2   4  -4   41.87    1.74
  -2   4   4   43.65    1.58
  -2   4   4   44.27    1.80
   2   4  -4   45.01    1.71
  -2   4   4   43.86    1.85
   2   4  -4   43.60    1.56
  -2   4   4   45.01    1.46
   2   4  -4   43.08    1.54
   1  -4  -4   52.64    1.60
  -1  -4   4   49.45    1.90
   1  -4  -4   54.71    1.57
  -1  -4   4   51.82    1.84
  -1  -4   4   56.43    2.34
   1   4  -4   53.68    1.97
  -1   4   4   49.70    2.06
   1   4  -4   49.59    1.71
  -1   4   4   49.30    1.68
  -1   4   4   54.55    2.06
   1   4  -4   52.88    1.90
   1   4  -4   52.15    2.10
   0  -4   4    9.06    0.60
   0  -4  -4    8.85    0.34
   0  -4  -4    8.43    0.41
   0  -4  -4    8.36    0.43
   0  -4   4   10.42    0.61
   0  -4   4    9.02    0.80
   0   4  -4    9.84    0.69
   0   4  -4   10.24    0.59
   0   4   4    9.27    0.46
   0   4   4    9.17    0.71
   0   4   4    8.53    0.40
   0   4  -4    9.88    0.64
   1  -4   4    3.63    0.45
  -1  -4  -4    4.05    0.40
  -1  -4  -4    5.01    0.44
   1  -4   4    3.15    0.58
   1  -4   4    4.03    0.45
   1   4   4    4.10    0.24
   1   4   4    3.77    0.27
   1   4   4    4.64    0.60
  -1   4  -4    4.04    0.52
  -1   4  -4    4.45    0.58
   1   4   4    4.06    0.34
   2  -4   4  199.06    6.21
   2  -4   4  207.88    7.10
   2  -4   4  206.69    6.56
  -2  -4  -4  205.83    6.50
  -2  -4  -4  207.31    6.18
  -2   4  -4  202.52    6.69
  -2   4  -4  193.92    6.81
   2   4   4  204.07    5.93
   2   4   4  215.38    6.62
   2   4   4  197.37    6.46
   2   4   4  198.84    6.66
   3  -4   4    6.81    0.75
   3  -4   4    6.13    0.69
  -3  -4  -4    7.13    0.49
   3   4   4    5.54    0.64
  -3   4  -4    6.10    0.80
   3   4   4    6.48    0.77
   3   4   4    7.39    0.84
   3   4   4    6.89    0.55
   4  -4   4   16.69    1.14
   4  -4   4   14.25    1.11
   4   4   4   16.32    1.16
  -4   4  -4   14.51    1.21
   4   4   4   15.69    0.96
   4   4   4   18.51    1.16
   5  -4   4    1.61    0.54
   5  -4   4    1.63    0.51
   5   4   4    2.09    0.57
  -5   4  -4    2.17    0.67
   5   4   4    1.95    0.59
   6  -4   4    1.54    0.57
   6   4   4    2.07    0.63
   6   4   4    1.90    0.66
   7  -4   4   35.49    2.13
   7   4   4   36.58    2.29
   7   4   4   38.95    2.29
   8   4   4    7.06    1.34
   9   4   4    1.67    1.06
  10   4   4    0.88    0.99
  10   5  -4   23.74    2.42
   9   5  -4    9.80    1.54
  -8  -5   4   21.64    1.93
   8   5  -4   20.06    1.82
  -8   5   4   18.06    1.60
   7  -5  -4    1.57    0.57
  -7  -5   4    0.99    0.66
   7   5  -4    0.20    0.58
   7   5  -4    1.15    0.63
  -7   5   4   -0.04    0.42
  -7   5   4    0.55    0.54
  -6  -5   4    2.14    0.73
  -6  -5   4    2.80    0.62
   6  -5  -4    2.16    0.59
  -6   5   4    2.19    0.64
   6   5  -4    3.59    0.76
   6   5  -4    2.26    0.75
  -6   5   4    1.39    0.56
  -5  -5   4   64.99    2.62
   5  -5  -4   67.82    2.62
  -5  -5   4   67.62    3.09
  -5   5   4   63.69    2.75
   5   5  -4   64.79    2.71
   5   5  -4   65.22    2.93
  -5   5   4   66.60    2.85
  -4  -5   4    3.06    0.68
  -4  -5   4    1.70    0.41
   4  -5  -4    1.84    0.40
  -4  -5   4    2.01    0.42
   4   5  -4    1.42    0.42
  -4   5   4    1.63    0.41
   4   5  -4    1.99    0.44
   4   5  -4    1.86    0.44
  -4   5   4    1.61    0.45
  -3  -5   4   98.48    3.28
  -3  -5   4  100.39    3.48
   3  -5  -4   96.90    3.15
  -3  -5   4   98.15    3.95
  -3   5   4   94.15    3.30
  -3   5   4   97.36    3.63
   3   5  -4  100.35    3.50
   3   5  -4   99.73    3.24
  -3   5   4   96.28    3.65
   3   5  -4   97.28    3.34
   2  -5  -4    2.34    0.22
   2  -5  -4    2.60    0.29
  -2  -5   4    1.91    0.35
  -2  -5   4    2.20    0.37
  -2  -5   4    1.76    0.50
   2   5  -4    2.70    0.40
  -2   5   4    2.11    0.42
  -2   5   4    1.84    0.46
   2   5  -4    2.60    0.35
   2   5  -4    2.47    0.41
   2   5  -4    2.51    0.34
  -1  -5   4    3.67    0.43
  -1  -5   4    3.83    0.43
   1  -5  -4    3.96    0.20
  -1  -5   4    5.34    0.79
  -1   5   4    3.48    0.51
   1   5  -4    4.19    0.51
  -1   5   4    4.72    0.63
   1   5  -4    4.22    0.35
   1   5  -4    3.58    0.42
   0  -5   4  152.30    5.58
   0  -5   4  150.62    4.91
   0  -5  -4  132.65    4.36
   0  -5   4  157.37    4.67
   0   5  -4  174.98    5.08
   0   5   4  129.42    5.09
   0   5  -4  154.80    4.49
   0   5  -4  156.06    4.90
   0   5  -4  168.85    5.35
   1  -5   4   14.76    0.81
  -1  -5  -4   13.90    0.88
   1  -5   4   18.47    0.90
  -1  -5  -4   15.70    0.74
   1  -5   4   15.22    1.20
  -1   5  -4   15.19    1.04
  -1   5  -4   14.98    0.81
   1   5   4   14.17    0.68
   1   5   4   13.47    0.62
   1   5   4   14.46    0.98
  -1   5  -4   14.32    0.90
   2  -5   4   90.09    3.79
  -2  -5  -4   92.01    3.26
   2  -5   4   96.49    3.26
   2  -5   4   94.32    3.16
   2   5   4   92.15    3.13
  -2   5  -4   94.22    3.58
   2   5   4   85.16    3.43
   3  -5   4   54.53    2.24
  -3  -5  -4   58.38    2.15
   3   5   4   57.25    2.25
  -3   5  -4   55.77    2.56
   3   5   4   54.40    2.46
   4  -5   4    9.94    1.00
  -4   5  -4    9.72    1.13
   4   5   4   12.24    0.96
   4   5   4   12.08    1.23
   5  -5   4  135.88    4.85
  -5   5  -4  139.73    5.48
   5   5   4  138.08    5.07
   5   5   4  138.70    5.25
   6  -5   4   25.43    1.72
  -6   5  -4   28.18    2.03
   6   5   4   29.14    1.82
   6   5   4   28.57    1.95
   7   5   4    5.27    1.04
   8   5   4   24.48    2.06
   9   5   4   26.19    2.36
  10   6  -4    0.34    0.97
   9   6  -4   72.90    3.81
   8   6  -4    4.28    1.05
   7  -6  -4    8.87    1.07
  -7  -6   4   10.59    1.46
  -7   6   4    9.31    1.23
   7   6  -4   10.74    1.29
  -6  -6   4   58.75    2.61
  -6  -6   4   59.65    3.04
   6  -6  -4   58.52    2.51
  -6   6   4   55.20    2.83
   6   6  -4   58.29    2.70
   6   6  -4   58.46    3.06
  -5  -6   4   28.20    1.92
  -5  -6   4   30.26    1.58
   5  -6  -4   28.91    1.50
  -5   6   4   30.90    1.79
   5   6  -4   29.34    1.86
   5   6  -4   28.93    1.62
   4  -6  -4  149.08    4.79
  -4  -6   4  155.61    5.00
  -4  -6   4  152.89    5.87
  -4   6   4  154.04    5.58
   4   6  -4  153.27    5.19
   4   6  -4  153.98    5.41
   3  -6  -4   46.83    1.61
  -3  -6   4   45.15    2.39
  -3  -6   4   43.00    1.81
  -3   6   4   44.66    2.12
  -3   6   4   44.26    2.09
   3   6  -4   44.96    1.96
  -2  -6   4    0.23    0.22
  -2  -6   4    0.00    0.43
  -2   6   4    0.26    0.30
  -2   6   4    0.33    0.29
   2   6  -4    0.31    0.24
  -1  -6   4   75.81    3.37
  -1  -6   4   80.65    2.60
  -1   6   4   71.18    3.00
   1   6  -4   78.37    2.71
   0  -6  -4   70.81    3.02
   0  -6   4   74.83    2.56
   0  -6   4   77.70    3.40
   0   6  -4   79.89    2.65
   0   6  -4   85.01    3.18
   0   6   4   68.51    2.95
  -1  -6  -4   48.91    2.14
   1  -6   4   49.03    2.52
   1  -6   4   48.78    1.85
  -1   6  -4   51.71    1.89
  -1   6  -4   48.54    2.26
   1   6   4   47.76    2.21
   2  -6   4    8.28    0.71
   2  -6   4    6.97    1.02
  -2  -6  -4    7.68    0.71
   2   6   4    7.35    0.49
  -2   6  -4    8.10    0.64
   2   6   4    7.69    0.91
  -2   6  -4    8.18    0.97
   3  -6   4    7.12    1.07
   3  -6   4    6.46    0.73
  -3   6  -4    6.97    0.97
   3   6   4    7.52    0.97
   3   6   4    6.48    0.62
   4  -6   4   21.85    1.33
   4  -6   4   20.42    1.69
   4   6   4   19.19    1.22
   4   6   4   20.19    1.50
  -4   6  -4   18.85    1.48
   5  -6   4   20.14    1.40
   5   6   4   18.29    1.56
   5   6   4   18.13    1.32
  -5   6  -4   17.49    1.56
   6  -6   4   11.66    1.24
   6   6   4   13.80    1.29
   6   6   4   12.21    1.48
   7   6   4    0.83    0.73
   8   6   4    2.36    1.08
   9   6   4   14.21    1.99
   9   7  -4    0.15    0.86
   8   7  -4    0.72    0.80
   7   7  -4   15.93    1.62
  -6  -7   4   16.20    1.56
   6  -7  -4   14.92    1.30
  -6  -7   4   19.68    1.74
   6   7  -4   16.61    1.71
  -6   7   4   16.19    1.67
  -5  -7   4   -0.06    0.35
  -5  -7   4    0.06    0.57
   5   7  -4   -0.11    0.48
  -5   7   4    0.11    0.48
  -4  -7   4    0.03    0.29
  -4  -7   4    0.14    0.49
  -4   7   4    0.24    0.40
   4   7  -4   -0.10    0.37
  -3  -7   4    2.15    0.44
  -3  -7   4    2.44    0.76
   3   7  -4    2.10    0.48
  -3   7   4    2.76    0.65
  -3   7   4    2.31    0.57
  -2  -7   4   38.50    1.65
  -2  -7   4   43.67    2.40
  -2   7   4   42.14    2.08
   2   7  -4   42.88    1.79
  -2   7   4   39.13    2.03
  -1  -7   4   39.09    2.32
  -1  -7   4   43.48    1.63
   1  -7  -4   38.51    2.13
  -1   7   4   38.88    2.01
   1   7  -4   42.18    1.67
   0  -7   4    6.41    0.56
   0  -7  -4    5.07    0.77
   0  -7   4    5.69    1.01
   0   7  -4    5.89    0.54
   0   7   4    4.51    0.73
   0   7  -4    6.10    0.90
   1  -7   4   15.15    0.90
  -1  -7  -4   15.01    1.13
   1  -7   4   14.80    1.61
  -1   7  -4   15.20    1.26
  -1   7  -4   15.56    0.83
   1   7   4   15.94    1.20
   2  -7   4   10.22    1.36
   2  -7   4   12.16    0.85
  -2   7  -4   12.54    0.79
  -2   7  -4   11.86    1.26
   2   7   4   12.34    1.14
   3  -7   4   76.42    3.74
   3  -7   4   75.50    2.81
  -3   7  -4   76.62    3.46
   3   7   4   73.17    3.27
   4  -7   4   15.06    1.16
   4  -7   4   14.01    1.71
   4   7   4   14.52    1.50
  -4   7  -4   16.05    1.52
   4   7   4   16.01    1.04
   5  -7   4    2.64    0.65
   5   7   4    2.95    0.62
   5   7   4    3.09    0.81
   6   7   4   22.51    1.95
   7   7   4   -0.13    0.82
   8   7   4   29.97    2.54
  -5  -8   4    0.40    0.68
  -5  -8   4    0.52    0.47
   5   8  -4   -0.47    0.49
  -4  -8   4    1.79    0.49
  -4  -8   4    2.94    0.94
  -4   8   4    2.78    0.77
   4   8  -4    1.12    0.59
  -3  -8   4    5.29    1.06
  -3  -8   4    4.55    0.62
  -3   8   4    4.71    0.88
  -3   8   4    3.34    0.78
   3   8  -4    4.39    0.74
  -2  -8   4    0.99    0.67
   2  -8  -4    0.50    0.55
  -2  -8   4    0.76    0.34
   2   8  -4    0.77    0.37
  -2   8   4    0.36    0.47
   1  -8  -4    0.40    0.47
  -1  -8   4    0.08    0.23
  -1  -8   4    0.69    0.65
  -1   8   4    0.09    0.44
   0  -8   4    1.07    0.64
   0  -8  -4    1.55    0.59
   0  -8   4    1.78    0.37
   0   8   4    3.89    0.76
   1  -8   4    9.83    0.73
   1  -8   4    9.34    1.41
  -1   8  -4    9.12    1.14
   1   8   4    8.77    1.11
   2  -8   4    3.66    0.55
   2  -8   4    2.89    0.89
  -2   8  -4    3.24    0.81
   2   8   4    4.24    0.86
   3  -8   4    0.22    0.34
   3  -8   4    0.57    0.76
   3   8   4    0.68    0.61
  -3   8  -4   -0.32    0.54
   4  -8   4    0.59    0.46
   4   8   4    0.74    0.65
   5   8   4    1.54    0.79
   6   8   4    0.19    0.80
   7   8   4    2.45    1.11
  -3   9   4    1.24    0.68
   2  -9  -4   26.85    2.05
  -2   9   4   31.72    1.98
   1  -9  -4   20.51    1.68
  -1   9   4   23.47    1.65
   0   9   4    0.20    0.53
   1   9   4    6.27    1.04
   2   9   4    2.81    0.84
   3   9   4   25.55    1.90
   4   9   4    7.98    1.27
   5   9   4    0.55    0.77
   6   9   4   19.57    2.17
  -2  10   4    1.00    0.68
  -1  10   4   20.06    1.69
   0  10   4   13.81    1.54
   1  10   4    2.24    0.84
   2  10   4   24.11    1.89
   3  10   4    0.39    0.67
   4  10   4    7.81    1.37
   5  10   4    0.33    0.86
   9   0  -5   -0.34    0.74
  -9   0   5   -0.38    0.50
   9   0  -5    0.56    0.69
   8   0  -5    1.52    0.82
   8   0  -5    0.10    0.60
  -8   0   5    0.31    0.52
  -7   0   5    0.09    0.37
   7   0  -5    0.02    0.46
   7   0  -5   -0.16    0.50
   6   0  -5    0.21    0.42
  -6   0   5   -0.29    0.23
  -6   0   5   -0.22    0.29
   6   0  -5   -0.16    0.32
  -5   0   5   -0.17    0.23
  -5   0   5    0.11    0.41
  -5   0   5   -0.03    0.25
   5   0  -5   -0.03    0.21
   5   0  -5   -0.07    0.30
  -4   0   5   -0.06    0.17
   4   0  -5   -0.04    0.21
  -4   0   5    0.15    0.32
   4   0  -5    0.10    0.21
  -4   0   5    0.18    0.24
  -3   0   5    0.24    0.19
   3   0  -5   -0.27    0.13
  -3   0   5   -0.01    0.18
  -3   0   5   -0.11    0.23
   3   0  -5   -0.09    0.13
  -2   0   5    0.15    0.15
  -2   0   5    0.11    0.12
  -2   0   5    0.09    0.14
   2   0  -5    0.01    0.11
   2   0  -5   -0.18    0.11
   2   0  -5   -0.01    0.12
  -2   0   5    0.57    0.28
   2   0  -5    0.32    0.23
  -1   0   5   -0.21    0.11
   1   0  -5    0.29    0.15
   1   0  -5    0.00    0.13
   1   0  -5    0.27    0.16
  -1   0   5   -0.01    0.16
  -1   0   5    0.16    0.15
   1   0  -5    0.21    0.18
   0   0  -5   -0.02    0.14
   0   0   5    0.09    0.14
   0   0  -5   -0.24    0.10
   0   0  -5    0.47    0.16
   0   0   5   -0.10    0.15
   0   0   5    0.13    0.16
   1   0   5   -0.06    0.15
  -1   0  -5    0.05    0.15
   1   0   5   -0.02    0.12
   1   0   5    0.17    0.12
   1   0   5   -0.04    0.16
   2   0   5   -0.23    0.19
   2   0   5   -0.05    0.10
   2   0   5   -0.23    0.20
   2   0   5   -0.04    0.15
   3   0   5   -0.13    0.25
   3   0   5    0.23    0.20
   3   0   5    0.08    0.23
   4   0   5   -0.07    0.29
   4   0   5    0.14    0.25
   4   0   5    0.34    0.30
   4   0   5    0.14    0.24
   5   0   5   -0.20    0.26
   5   0   5    0.20    0.37
   5   0   5    0.81    0.37
   6   0   5   -0.27    0.38
   6   0   5   -0.22    0.36
   6   0   5   -0.09    0.33
   7   0   5   -0.19    0.40
   7   0   5    0.30    0.54
   7   0   5    0.38    0.47
   8   0   5    0.29    0.63
   8   0   5    0.35    0.56
   8   0   5   -0.25    0.44
   9   0   5    0.19    0.69
  10   0   5   -0.55    0.75
   9  -1  -5    1.77    0.93
   9  -1  -5    1.41    0.74
  -9  -1   5    2.07    0.82
  -9   1   5    0.28    0.60
   9   1  -5    1.07    0.79
   9   1  -5    0.20    0.76
  -8  -1   5   68.71    3.22
   8  -1  -5   66.68    3.46
   8  -1  -5   67.26    3.17
  -8   1   5   72.59    3.33
   8   1  -5   62.74    3.45
   8   1  -5   63.66    3.15
   7  -1  -5   38.94    2.17
  -7  -1   5   41.65    2.09
   7  -1  -5   38.82    2.41
  -7  -1   5   39.19    2.45
  -7  -1   5   43.50    2.23
  -7   1   5   40.44    2.20
   7   1  -5   41.02    2.43
   7   1  -5   40.92    2.20
  -6  -1   5    0.50    0.37
  -6  -1   5    0.12    0.33
   6  -1  -5    0.07    0.33
   6  -1  -5    0.63    0.47
  -6  -1   5    0.73    0.55
  -6   1   5    0.35    0.31
   6   1  -5   -0.37    0.40
  -6   1   5    0.38    0.37
   6   1  -5    1.24    0.47
  -5  -1   5   -0.17    0.38
  -5  -1   5    0.42    0.31
   5  -1  -5    0.49    0.28
  -5  -1   5    0.45    0.28
   5  -1  -5    0.49    0.35
  -5   1   5    0.85    0.34
  -5   1   5    0.42    0.28
   5   1  -5    0.11    0.24
   5   1  -5    0.44    0.34
   4  -1  -5   12.36    0.77
  -4  -1   5   15.11    0.87
   4  -1  -5   12.68    0.87
  -4  -1   5   13.36    1.06
  -4  -1   5   13.00    0.88
  -4   1   5   14.14    0.84
  -4   1   5   13.86    0.88
   4   1  -5   13.67    0.81
   4   1  -5   13.26    0.90
  -3  -1   5  117.76    4.40
   3  -1  -5  126.90    4.09
   3  -1  -5  122.13    3.86
  -3  -1   5  123.55    3.88
   3  -1  -5  125.43    3.77
  -3  -1   5  122.14    4.13
   3   1  -5  124.28    4.12
   3   1  -5  124.01    3.79
  -3   1   5  120.99    3.97
  -3   1   5  121.00    3.84
  -3   1   5  123.04    4.10
  -2  -1   5  240.71    7.87
   2  -1  -5  245.30    6.92
   2  -1  -5  247.16    7.01
  -2  -1   5  242.34    7.54
   2  -1  -5  225.52    7.94
  -2  -1   5  239.59    7.38
   2  -1  -5  244.36    7.44
  -2  -1   5  233.53    7.03
  -2   1   5  234.13    7.99
  -2   1   5  235.81    6.97
   2   1  -5  240.71    7.49
   2   1  -5  247.50    6.96
  -2   1   5  241.17    7.49
  -2   1   5  236.59    7.44
  -2   1   5  238.26    7.38
  -2   1   5  252.35    7.41
  -1  -1   5    0.51    0.19
   1  -1  -5    1.00    0.13
   1  -1  -5    1.03    0.28
   1  -1  -5    0.72    0.18
  -1  -1   5    0.86    0.24
   1  -1  -5    1.06    0.21
   1  -1  -5    0.61    0.16
  -1  -1   5    0.87    0.20
   1   1  -5    1.02    0.23
   1   1  -5    1.63    0.31
  -1   1   5    0.54    0.18
  -1   1   5    1.12    0.23
   1   1  -5    0.83    0.20
  -1   1   5    1.03    0.20
  -1   1   5    0.57    0.25
   1   1  -5    0.90    0.22
   0  -1   5  122.36    3.78
   0  -1  -5  122.61    3.93
   0  -1   5  122.59    4.07
   0  -1  -5  116.33    4.05
   0  -1  -5  120.04    3.71
   0  -1   5  121.35    4.02
   0   1  -5  120.26    4.06
   0   1   5  114.16    3.99
   0   1   5  127.37    3.95
   0   1  -5  120.00    4.02
   0   1  -5  130.09    3.88
   0   1   5  124.37    3.69
   0   1   5  124.07    3.98
   0   1  -5  120.99    3.77
   1  -1   5    0.43    0.22
   1  -1   5    0.23    0.16
   1  -1   5   -0.10    0.15
  -1  -1  -5   -0.03    0.13
  -1   1  -5    0.02    0.18
   1   1   5    0.63    0.21
   1   1   5    0.16    0.17
   1   1   5    0.12    0.16
   2  -1   5  282.64    8.46
   2  -1   5  287.71    9.08
  -2  -1  -5  282.98    8.45
   2  -1   5  293.91    8.71
   2  -1   5  289.26    9.08
   2   1   5  283.18    8.85
   2   1   5  273.54    9.01
   2   1   5  292.03    8.41
   3  -1   5   33.77    1.58
   3  -1   5   37.19    1.77
   3  -1   5   38.76    1.52
   3   1   5   36.12    1.26
   3   1   5   37.60    1.24
   3   1   5   36.82    1.58
   3   1   5   34.88    1.58
   3   1   5   38.22    1.75
   4  -1   5    1.27    0.45
   4  -1   5    2.12    0.47
   4  -1   5    1.34    0.36
   4   1   5    2.41    0.47
   4   1   5    1.34    0.42
   4   1   5    1.83    0.28
   4   1   5    1.06    0.37
   5  -1   5   96.82    3.57
   5  -1   5   95.36    3.54
   5  -1   5   93.09    3.83
   5   1   5   93.38    3.62
   5   1   5   95.27    3.50
   5   1   5   93.76    3.80
   6  -1   5    1.50    0.63
   6  -1   5    0.18    0.41
   6  -1   5    0.83    0.47
   6   1   5    0.30    0.38
   6   1   5    0.85    0.45
   6   1   5    1.72    0.57
   7  -1   5   66.56    2.96
   7  -1   5   64.87    3.23
   7  -1   5   67.34    3.00
   7   1   5   65.84    3.21
   7   1   5   64.87    2.90
   7   1   5   62.76    3.01
   8  -1   5    0.82    0.67
   8  -1   5    0.43    0.59
   8  -1   5    1.81    0.71
   8   1   5    1.36    0.66
   8   1   5    0.69    0.69
   8   1   5    1.49    0.72
   9  -1   5    6.18    1.16
   9   1   5    7.99    1.33
  10  -1   5   20.51    2.04
  10   1   5   19.36    2.06
  -9  -2   5   22.04    1.86
   9   2  -5   23.23    1.92
   9   2  -5   23.76    2.25
   8  -2  -5    8.76    1.45
  -8  -2   5   10.27    1.51
   8  -2  -5   10.02    1.30
  -8  -2   5   11.33    1.30
  -8   2   5   12.77    1.48
   8   2  -5    9.49    1.48
   8   2  -5   10.50    1.32
  -7  -2   5  119.08    4.53
  -7  -2   5  113.06    4.25
   7  -2  -5  110.22    4.67
   7  -2  -5  114.84    4.38
  -7  -2   5  113.59    4.86
  -7   2   5  111.61    4.51
   7   2  -5  114.06    4.81
   7   2  -5  113.82    4.39
   6  -2  -5   40.12    2.00
  -6  -2   5   41.70    2.33
  -6  -2   5   42.33    1.97
   6  -2  -5   39.31    2.22
  -6  -2   5   43.55    2.08
   6   2  -5   41.65    2.01
   6   2  -5   42.39    2.24
  -6   2   5   41.16    2.08
   5  -2  -5   79.67    3.22
  -5  -2   5   82.40    3.15
  -5  -2   5   81.75    2.97
  -5  -2   5   78.60    3.37
   5  -2  -5   78.27    2.90
   5   2  -5   76.62    3.16
  -5   2   5   78.28    3.12
  -5   2   5   83.97    2.96
   5   2  -5   79.26    2.91
   4  -2  -5  127.54    4.10
  -4  -2   5  129.32    4.13
  -4  -2   5  130.31    4.39
  -4  -2   5  124.71    4.67
   4  -2  -5  123.77    3.98
   4  -2  -5  123.18    4.34
  -4   2   5  123.19    4.33
  -4   2   5  132.34    4.29
   4   2  -5  127.06    4.04
  -4   2   5  119.19    4.13
   4   2  -5  126.87    4.38
  -4   2   5  125.47    4.06
   3  -2  -5    2.12    0.32
  -3  -2   5    1.58    0.33
  -3  -2   5    1.76    0.41
   3  -2  -5    2.05    0.29
  -3  -2   5    2.04    0.36
   3  -2  -5    2.22    0.35
  -3   2   5    1.42    0.32
  -3   2   5    1.91    0.27
   3   2  -5    1.87    0.30
   3   2  -5    1.18    0.29
  -3   2   5    2.03    0.29
  -3   2   5    2.01    0.33
  -3   2   5    2.08    0.33
  -2  -2   5  124.98    4.21
   2  -2  -5  125.81    3.85
  -2  -2   5  131.03    4.10
   2  -2  -5  127.44    3.79
   2  -2  -5  131.99    4.09
  -2  -2   5  130.06    4.49
  -2  -2   5  123.08    3.95
  -2   2   5  122.49    3.83
  -2   2   5  131.19    4.11
   2   2  -5  127.75    4.26
  -2   2   5  125.09    4.12
   2   2  -5  125.96    4.18
  -2   2   5  130.50    4.05
  -2   2   5  126.97    4.20
  -1  -2   5  134.94    4.26
  -1  -2   5  128.78    3.98
   1  -2  -5  135.68    4.08
   1  -2  -5  108.69    4.46
  -1  -2   5  132.49    4.14
   1  -2  -5  124.14    3.84
  -1  -2   5  127.12    4.45
   1  -2  -5  135.77    4.17
  -1   2   5  132.72    4.25
  -1   2   5  132.21    4.13
  -1   2   5  128.37    3.83
   1   2  -5  132.59    4.17
   1   2  -5  126.13    4.24
   0  -2   5    6.45    0.51
   0  -2   5    6.96    0.57
   0  -2  -5    7.39    0.43
   0  -2  -5    6.30    0.41
   0  -2   5    6.87    0.54
   0  -2  -5    5.81    0.46
   0  -2  -5    6.36    0.43
   0   2   5    5.96    0.51
   0   2   5    5.94    0.44
   0   2  -5    6.79    0.52
   0   2  -5    6.29    0.43
   0   2  -5    5.84    0.51
   0   2   5    6.34    0.40
  -1  -2  -5   76.48    2.45
   1  -2   5   72.80    2.73
   1  -2   5   71.43    2.65
   1  -2   5   72.46    2.52
   1   2   5   77.42    2.65
   1   2   5   74.01    2.39
  -1   2  -5   71.22    2.69
   1   2   5   72.25    2.58
  -1   2  -5   73.12    2.61
   2  -2   5    7.03    0.63
  -2  -2  -5    7.27    0.60
   2  -2   5    7.35    0.63
   2  -2   5    7.42    0.63
   2   2   5    7.93    0.64
   2   2   5    8.15    0.59
   2   2   5    8.14    0.62
   2   2   5    7.32    0.62
   3  -2   5   18.66    1.17
   3  -2   5   17.33    1.07
   3   2   5   19.85    1.03
   3   2   5   17.72    1.11
   3   2   5   19.53    1.11
   4  -2   5    4.89    0.66
   4  -2   5    4.80    0.75
   4   2   5    4.36    0.64
   4   2   5    4.37    0.65
   4   2   5    4.98    0.66
   5  -2   5   13.66    1.10
   5  -2   5   12.39    1.17
   5   2   5   13.57    1.02
   5   2   5   13.89    1.16
   5   2   5   11.63    1.01
   6  -2   5    9.98    1.21
   6  -2   5   14.49    1.21
   6   2   5   11.37    1.26
   6   2   5   10.27    1.08
   6   2   5   10.43    1.16
   7  -2   5    0.61    0.56
   7  -2   5   -0.13    0.48
   7   2   5   -0.12    0.49
   7   2   5    1.13    0.54
   7   2   5    0.24    0.57
   8  -2   5   22.37    1.68
   8  -2   5   22.04    1.89
   8   2   5   22.52    1.81
   9  -2   5    5.18    1.02
   9   2   5    3.95    1.02
  10  -2   5    9.05    1.38
  10   2   5    9.41    1.56
  11   3  -5   20.35    2.30
  -9  -3   5   17.35    1.86
   8  -3  -5    0.08    0.52
  -8  -3   5    0.99    0.73
  -8  -3   5    0.77    0.52
   8   3  -5   -0.22    0.57
  -8   3   5    0.39    0.49
   8   3  -5    0.25    0.69
  -7  -3   5    8.49    1.03
   7  -3  -5    6.14    0.97
  -7  -3   5    7.22    0.99
  -7  -3   5    6.12    1.12
  -7   3   5    7.60    1.04
   7   3  -5    5.32    0.91
   7   3  -5    7.43    1.15
  -7   3   5    8.19    1.00
  -6  -3   5   92.20    3.77
   6  -3  -5  100.25    4.00
  -6  -3   5   95.88    4.09
  -6  -3   5   94.70    3.58
   6  -3  -5   92.08    3.65
   6   3  -5   96.16    4.00
   6   3  -5  102.19    3.71
  -6   3   5  102.13    3.80
  -6   3   5   96.20    3.84
  -5  -3   5    0.33    0.39
  -5  -3   5    0.40    0.32
   5  -3  -5    0.59    0.40
   5  -3  -5    0.14    0.27
  -5  -3   5    0.28    0.30
   5   3  -5    0.18    0.31
   5   3  -5    0.24    0.35
  -5   3   5    0.12    0.29
  -5   3   5    0.39    0.29
   4  -3  -5  118.02    3.93
   4  -3  -5  121.62    4.29
   4  -3  -5  119.27    3.89
  -4  -3   5  120.50    4.25
  -4  -3   5  130.65    4.07
  -4  -3   5  124.83    4.62
   4   3  -5  122.11    3.96
  -4   3   5  120.88    4.01
  -4   3   5  120.04    4.22
   4   3  -5  124.91    4.31
  -4   3   5  120.39    4.21
   3  -3  -5    6.70    0.49
  -3  -3   5    7.66    0.60
   3  -3  -5    7.57    0.56
  -3  -3   5    6.96    0.62
  -3  -3   5    7.50    0.84
   3  -3  -5    8.19    0.54
   3   3  -5    7.26    0.54
  -3   3   5    7.54    0.58
  -3   3   5    7.39    0.46
  -3   3   5    7.87    0.54
  -3   3   5    8.37    0.69
   3   3  -5    7.31    0.61
  -3   3   5    6.90    0.54
  -2  -3   5    5.37    0.50
  -2  -3   5    6.12    0.52
  -2  -3   5    6.41    0.74
   2  -3  -5    6.30    0.42
   2  -3  -5    5.63    0.40
   2  -3  -5    5.46    0.36
  -2   3   5    5.37    0.38
   2   3  -5    5.66    0.61
  -2   3   5    6.08    0.37
  -2   3   5    5.45    0.45
  -2   3   5    5.66    0.43
   2   3  -5    5.55    0.50
   2   3  -5    5.08    0.42
  -2   3   5    5.88    0.63
  -1  -3   5  330.45   10.76
   1  -3  -5  339.73   10.04
   1  -3  -5  343.89   10.55
   1  -3  -5  322.15    9.42
  -1  -3   5  337.29   10.27
  -1  -3   5  339.09    9.63
   1   3  -5  327.96   10.23
  -1   3   5  333.28   10.31
   1   3  -5  319.48   10.28
  -1   3   5  331.16   10.09
   1   3  -5  333.63   10.43
   0  -3   5   40.58    1.80
   0  -3   5   37.99    1.52
   0  -3   5   39.26    1.60
   0  -3  -5   40.59    1.40
   0  -3  -5   38.87    1.38
   0   3  -5   39.56    1.59
   0   3   5   40.87    1.69
   0   3  -5   38.04    1.58
   0   3   5   40.30    1.46
   0   3  -5   38.89    1.63
  -1  -3  -5  119.09    3.78
  -1  -3  -5  122.72    3.93
   1  -3   5  127.01    4.16
   1  -3   5  121.55    3.92
   1  -3   5  121.49    4.40
   1   3   5  122.52    4.19
  -1   3  -5  125.74    4.23
  -1   3  -5  120.23    4.19
   1   3   5  124.81    3.70
   1   3   5  123.43    4.03
  -2  -3  -5  140.81    4.40
   2  -3   5  135.12    4.45
   2  -3   5  139.99    4.93
   2  -3   5  137.17    4.70
  -2   3  -5  132.32    4.76
   2   3   5  136.60    4.24
   2   3   5  137.14    4.69
   2   3   5  148.58    4.70
   2   3   5  135.76    4.61
   3  -3   5   56.35    2.41
  -3  -3  -5   52.65    2.23
   3  -3   5   56.42    2.27
   3   3   5   54.84    2.31
   3   3   5   55.63    2.35
   3   3   5   63.75    2.44
   3   3   5   56.85    2.10
   4  -3   5  212.58    7.38
   4  -3   5  218.15    6.94
   4   3   5  221.02    7.31
   4   3   5  221.70    6.75
   4   3   5  216.97    7.32
   5  -3   5   49.29    2.42
   5  -3   5   46.26    2.23
   5   3   5   48.51    2.33
   5   3   5   47.30    2.10
   5   3   5   47.70    2.33
   6  -3   5    0.45    0.50
   6  -3   5    0.67    0.49
   6   3   5    1.02    0.52
   6   3   5    0.81    0.47
   6   3   5    0.62    0.56
   7  -3   5   33.49    2.07
   7  -3   5   34.86    2.23
   7   3   5   36.63    2.20
   7   3   5   33.02    2.16
   8   3   5   70.21    3.49
   9  -3   5   27.21    1.94
   9   3   5   25.30    2.21
  10  -3   5   14.78    1.66
  10   3   5   17.20    2.08
  11   4  -5    3.97    1.36
  10   4  -5   10.06    1.66
   9   4  -5   22.15    2.00
   8  -4  -5   11.06    1.29
  -8  -4   5   11.93    1.61
   8   4  -5   14.08    1.59
   8   4  -5   12.74    1.74
  -8   4   5   10.48    1.30
  -8   4   5   11.65    1.39
   7  -4  -5   51.90    2.57
  -7  -4   5   59.15    2.61
  -7  -4   5   55.96    2.96
  -7  -4   5   52.38    2.63
   7   4  -5   56.92    2.74
   7   4  -5   49.88    2.65
  -7   4   5   55.67    2.66
   7   4  -5   53.11    2.99
  -7   4   5   53.58    2.68
  -6  -4   5    1.86    0.53
  -6  -4   5    1.79    0.54
   6  -4  -5    1.60    0.53
  -6  -4   5    1.22    0.64
   6   4  -5    2.41    0.71
   6   4  -5    2.01    0.62
   6   4  -5    1.46    0.58
  -6   4   5    1.08    0.47
  -6   4   5    1.86    0.55
  -5  -4   5    7.61    0.83
  -5  -4   5    7.48    1.00
  -5  -4   5    5.97    0.74
   5  -4  -5    7.89    0.85
  -5   4   5    8.03    0.89
  -5   4   5    7.50    0.83
   5   4  -5    6.05    0.75
   5   4  -5    7.12    0.84
   5   4  -5    6.37    0.83
  -4  -4   5  161.00    5.22
  -4  -4   5  168.74    6.01
   4  -4  -5  164.53    5.13
  -4  -4   5  160.23    5.54
   4  -4  -5  169.15    5.72
  -4   4   5  162.49    5.51
   4   4  -5  165.90    5.17
   4   4  -5  162.93    5.59
  -4   4   5  161.35    5.58
   4   4  -5  165.43    5.42
  -3  -4   5    0.70    0.39
  -3  -4   5    0.32    0.25
   3  -4  -5    0.21    0.17
   3  -4  -5    0.18    0.15
  -3  -4   5    0.44    0.25
   3  -4  -5    0.16    0.21
  -3   4   5    0.15    0.24
  -3   4   5    0.39    0.28
  -3   4   5   -0.02    0.19
   3   4  -5    0.26    0.19
  -3   4   5    0.13    0.13
   3   4  -5    0.86    0.26
   3   4  -5    0.17    0.24
   2  -4  -5   57.20    1.88
   2  -4  -5   61.25    2.03
  -2  -4   5   58.13    2.56
  -2  -4   5   58.68    2.22
  -2  -4   5   60.26    2.12
   2  -4  -5   58.18    1.86
  -2   4   5   56.27    2.34
   2   4  -5   56.05    2.25
  -2   4   5   57.47    2.23
   2   4  -5   59.62    2.00
   2   4  -5   58.65    2.20
  -2   4   5   60.42    2.05
   1  -4  -5   11.83    0.50
  -1  -4   5   11.59    0.92
  -1  -4   5   11.39    0.71
   1  -4  -5   11.33    0.53
  -1  -4   5   12.33    0.73
   1   4  -5   12.05    0.72
  -1   4   5   11.33    0.81
   1   4  -5   11.88    0.76
   1   4  -5   10.96    0.60
  -1   4   5   11.39    0.54
   1   4  -5   11.60    0.79
   0  -4  -5    1.25    0.16
   0  -4   5    0.52    0.24
   0  -4  -5    0.52    0.16
   0  -4   5    1.06    0.28
   0  -4   5    0.95    0.39
   0   4  -5    0.79    0.28
   0   4  -5    0.66    0.24
   0   4   5    0.82    0.17
   0   4   5    0.74    0.10
   0   4   5    0.66    0.33
   0   4  -5    0.68    0.26
   1  -4   5  108.75    3.54
  -1  -4  -5  104.14    3.36
   1  -4   5  107.96    4.10
  -1  -4  -5  107.73    3.61
   1  -4   5  108.20    3.70
   1   4   5  105.45    3.51
   1   4   5  106.90    3.84
  -1   4  -5  109.01    3.80
   1   4   5  104.90    3.16
   1   4   5  116.32    3.64
  -1   4  -5  102.02    3.81
  -2  -4  -5    7.04    0.42
  -2  -4  -5    5.85    0.63
   2  -4   5    5.56    0.63
   2  -4   5    6.18    0.66
   2  -4   5    5.74    0.83
   2   4   5    6.07    0.56
   2   4   5    7.18    0.80
  -2   4  -5    4.65    0.64
   2   4   5    7.00    0.62
  -2   4  -5    6.83    0.78
   2   4   5    5.12    0.43
   3  -4   5   11.82    1.05
   3  -4   5   11.10    0.91
   3  -4   5   13.12    0.98
   3   4   5   11.62    0.95
   3   4   5   12.82    0.90
   3   4   5   11.97    0.75
  -3   4  -5   11.87    1.02
   4  -4   5    0.09    0.37
   4  -4   5    1.47    0.50
  -4   4  -5    0.88    0.45
   4   4   5    0.97    0.39
   4   4   5    0.77    0.42
   5  -4   5    3.78    0.76
   5  -4   5    5.30    0.82
  -5   4  -5    5.18    0.98
   5   4   5    4.23    0.78
   5   4   5    4.09    0.74
   6  -4   5   21.74    1.58
   6   4   5   22.45    1.66
   6   4   5   21.62    1.59
   7  -4   5    3.02    0.80
   7   4   5    2.78    0.80
   7   4   5    2.66    0.90
   8   4   5    5.87    1.20
   9   4   5    1.17    0.88
  10   4   5    0.93    0.98
  10   5  -5    0.96    1.00
   9   5  -5    1.75    0.93
  -8  -5   5   19.33    2.13
  -8   5   5   14.88    1.63
   8   5  -5   16.33    1.69
  -7  -5   5   14.62    1.68
  -7  -5   5   11.42    1.27
   7  -5  -5   13.84    1.36
  -7   5   5   13.15    1.24
   7   5  -5   12.92    1.58
   7   5  -5   13.75    1.44
  -7   5   5   14.53    1.34
  -6  -5   5   -0.16    0.51
   6  -5  -5    0.63    0.46
  -6  -5   5   -0.20    0.33
   6   5  -5    0.04    0.44
  -6   5   5    0.59    0.43
  -6   5   5   -0.07    0.35
   6   5  -5    0.37    0.53
  -5  -5   5    0.30    0.35
   5  -5  -5    0.84    0.39
  -5  -5   5    0.37    0.47
   5   5  -5    0.14    0.39
  -5   5   5    0.71    0.37
  -5   5   5    1.34    0.49
   5   5  -5    0.63    0.39
  -4  -5   5    0.16    0.29
  -4  -5   5   -0.12    0.34
  -4  -5   5    0.08    0.27
   4  -5  -5    0.65    0.32
   4   5  -5    0.08    0.28
  -4   5   5    0.52    0.28
  -4   5   5    0.42    0.36
   4   5  -5    1.96    0.43
   4   5  -5    0.56    0.35
  -3  -5   5   14.22    0.90
  -3  -5   5   15.10    0.94
   3  -5  -5   15.71    0.82
  -3  -5   5   15.28    1.27
   3   5  -5   15.43    0.97
  -3   5   5   14.92    1.09
   3   5  -5   14.64    0.81
  -3   5   5   15.36    1.00
   3   5  -5   14.95    0.87
  -3   5   5   15.73    0.84
   2  -5  -5   28.24    0.98
  -2  -5   5   27.05    1.65
  -2  -5   5   27.41    1.27
  -2  -5   5   24.61    1.21
  -2   5   5   25.91    1.02
   2   5  -5   26.94    1.13
  -2   5   5   24.30    1.40
  -2   5   5   27.03    1.36
   2   5  -5   26.28    1.26
  -1  -5   5   17.27    0.93
   1  -5  -5   17.19    0.62
  -1  -5   5   16.55    0.92
   1  -5  -5   17.16    0.66
  -1  -5   5   21.56    1.39
   1   5  -5   16.66    0.91
  -1   5   5   16.77    1.10
   1   5  -5   17.95    1.00
   1   5  -5   16.51    0.79
   1   5  -5   19.14    1.13
   0  -5  -5    7.35    0.44
   0  -5   5    7.53    0.60
   0  -5   5    6.63    0.87
   0  -5   5    7.61    0.63
   0   5  -5    9.39    0.77
   0   5   5    8.00    0.88
   0   5  -5    9.18    0.70
   0   5  -5    8.20    0.49
   0   5   5    7.22    0.35
   0   5   5    7.33    0.40
   0   5  -5    7.82    0.59
   1  -5   5    0.51    0.26
   1  -5   5    1.10    0.50
   1  -5   5    0.55    0.28
  -1  -5  -5    2.09    0.37
  -1   5  -5    0.26    0.23
   1   5   5    0.73    0.37
   1   5   5    0.64    0.22
   1   5   5    0.51    0.17
  -1   5  -5    0.27    0.30
   2  -5   5   42.52    1.84
  -2  -5  -5   44.82    1.72
   2  -5   5   43.71    2.31
   2  -5   5   44.30    1.85
   2   5   5   42.67    1.72
  -2   5  -5   44.47    2.06
   2   5   5   42.64    2.07
   3  -5   5   10.81    0.99
   3  -5   5    8.87    1.11
   3   5   5    7.70    0.71
   3   5   5    8.90    0.99
  -3   5  -5    7.53    0.95
   4  -5   5    0.26    0.36
   4  -5   5   -0.25    0.40
  -4   5  -5    0.77    0.48
   4   5   5    0.32    0.34
   4   5   5    0.41    0.43
   5  -5   5   13.15    1.29
  -5   5  -5   15.98    1.47
   5   5   5   13.56    1.42
   5   5   5   13.91    1.17
   6  -5   5    0.33    0.52
   6   5   5    0.77    0.51
  -6   5  -5    0.76    0.69
   6   5   5    1.98    0.75
   7   5   5    6.46    1.18
   8   5   5    3.09    1.06
   9   5   5    1.00    0.98
  10   6  -5   -0.99    0.91
   9   6  -5   13.94    1.79
   8   6  -5    5.35    1.14
   7  -6  -5   19.46    1.46
  -7  -6   5   20.44    1.85
  -7   6   5   18.02    1.51
   7   6  -5   16.69    1.48
   6  -6  -5    3.47    0.66
  -6  -6   5    3.73    0.93
  -6  -6   5    2.59    0.62
   6   6  -5    4.31    0.78
   6   6  -5    3.72    0.90
  -6   6   5    3.13    0.77
  -6   6   5    2.88    0.65
   5  -6  -5    2.88    0.55
  -5  -6   5    1.86    0.51
  -5  -6   5    2.62    0.78
  -5   6   5    2.71    0.54
   5   6  -5    2.06    0.61
  -5   6   5    2.30    0.58
   5   6  -5    3.18    0.63
  -4  -6   5   48.78    2.11
  -4  -6   5   49.83    2.68
   4  -6  -5   50.76    1.98
   4   6  -5   51.07    2.32
  -4   6   5   52.31    2.38
   3  -6  -5    2.40    0.36
  -3  -6   5    2.01    0.44
  -3  -6   5    1.86    0.61
  -3   6   5    2.37    0.53
   3   6  -5    2.89    0.51
  -3   6   5    1.59    0.48
  -2  -6   5    7.39    0.69
  -2  -6   5    6.82    1.03
  -2   6   5    5.44    0.69
   2   6  -5    6.33    0.66
  -2   6   5    6.05    0.83
  -1  -6   5    0.25    0.40
  -1  -6   5    1.22    0.33
  -1   6   5    0.42    0.39
   1   6  -5    0.89    0.30
   0  -6   5   17.26    1.40
   0  -6  -5   16.69    1.15
   0  -6   5   19.44    1.02
   0   6   5   16.55    1.21
   0   6  -5   22.00    1.02
   0   6  -5   21.49    1.30
  -1  -6  -5   46.73    2.01
   1  -6   5   46.46    2.49
   1  -6   5   46.40    1.86
   1   6   5   45.71    2.18
  -1   6  -5   47.45    2.21
  -1   6  -5   46.63    1.87
   2  -6   5    8.02    0.80
   2  -6   5    6.94    1.07
   2   6   5    8.46    0.55
   2   6   5    8.71    1.05
  -2   6  -5    8.72    1.03
  -2   6  -5    8.07    0.71
   3  -6   5    0.65    0.52
   3  -6   5    1.36    0.46
   3   6   5    1.36    0.59
  -3   6  -5    1.16    0.52
   3   6   5    1.50    0.35
   4  -6   5    0.82    0.48
   4  -6   5    1.20    0.66
   4   6   5    1.03    0.40
   4   6   5   -0.02    0.52
  -4   6  -5    0.56    0.50
   5  -6   5    5.20    1.08
   5  -6   5    6.75    0.98
   5   6   5    4.30    0.73
   5   6   5    3.83    0.91
  -5   6  -5    5.65    1.04
   6  -6   5   15.45    1.83
   6   6   5   18.36    1.71
   6   6   5   15.92    1.39
   7   6   5    6.82    1.32
   8   6   5    0.54    0.91
   9   6   5    0.04    0.95
  -6  -7   5    7.26    1.31
  -6   7   5    8.33    1.21
  -5  -7   5    2.44    0.56
  -5  -7   5    2.78    0.90
  -5   7   5    0.94    0.48
   5   7  -5    1.70    0.67
  -4  -7   5   11.73    1.43
  -4  -7   5   12.07    0.98
   4   7  -5   11.89    1.11
  -4   7   5   11.59    1.13
  -3  -7   5   49.45    2.03
  -3  -7   5   48.79    2.74
  -3   7   5   48.12    2.41
  -3   7   5   48.34    2.34
   3   7  -5   50.23    2.20
  -2  -7   5   24.44    1.23
  -2  -7   5   23.88    1.83
  -2   7   5   25.36    1.59
   2   7  -5   25.11    1.30
   1  -7  -5   13.13    1.18
  -1  -7   5   17.15    0.95
  -1  -7   5   14.11    1.39
   1   7  -5   16.54    0.95
  -1   7   5   12.36    1.17
   0  -7   5   27.64    1.90
   0  -7  -5   22.35    1.47
   0  -7   5   26.08    1.24
   0   7  -5   26.83    1.23
   0   7  -5   28.99    1.69
   0   7   5   21.50    1.50
   1  -7   5   16.57    1.51
   1  -7   5   15.96    1.00
  -1   7  -5   16.53    0.94
  -1   7  -5   19.19    1.39
   1   7   5   16.00    1.31
   2  -7   5  106.15    4.70
   2  -7   5  108.68    3.68
  -2   7  -5  108.97    3.77
   2   7   5  107.72    4.26
  -2   7  -5  107.77    4.36
   3  -7   5    1.90    0.79
   3  -7   5    1.07    0.47
  -3   7  -5    0.79    0.56
  -3   7  -5    1.24    0.41
   3   7   5    1.26    0.61
   4  -7   5   11.72    1.15
   4  -7   5    9.69    1.41
   4   7   5   12.26    1.45
   4   7   5   10.98    0.88
  -4   7  -5   11.69    1.44
   5   7   5   43.73    2.64
   5   7   5   47.87    2.23
   6   7   5    0.95    0.83
   7   7   5   32.47    2.44
   8   7   5    1.08    1.04
   5   8  -5   82.62    4.08
  -4  -8   5   14.90    1.11
  -4  -8   5   15.58    1.85
   4   8  -5   14.52    1.35
  -4   8   5   14.45    1.35
  -3  -8   5    3.67    0.94
  -3  -8   5    3.58    0.58
   3   8  -5    3.10    0.64
  -3   8   5    2.47    0.71
  -3   8   5    4.02    0.77
  -2  -8   5   27.52    1.38
  -2  -8   5   29.48    2.18
   2   8  -5   29.10    1.50
  -2   8   5   29.98    1.85
  -1  -8   5   57.70    2.11
  -1  -8   5   54.64    3.04
   1  -8  -5   51.04    2.65
   1   8  -5   53.72    2.16
  -1   8   5   53.09    2.62
   0  -8   5   27.97    1.32
   0  -8   5   29.68    2.14
   0   8   5   24.14    1.72
   0   8  -5   27.09    1.30
   1  -8   5    5.51    0.65
   1  -8   5    5.71    1.14
  -1   8  -5    4.99    0.91
  -1   8  -5    7.78    0.70
   1   8   5    7.60    1.06
   2  -8   5   13.98    1.02
   2  -8   5   13.20    1.62
   2   8   5   14.86    1.50
  -2   8  -5   14.94    0.92
  -2   8  -5   14.66    1.55
   3  -8   5   19.53    1.25
   3   8   5   17.85    1.53
  -3   8  -5   19.22    1.16
   4   8   5   16.82    1.74
  -4   8  -5   14.14    1.11
   5   8   5   16.49    1.86
   6   8   5    0.86    0.96
   7   8   5    2.46    1.11
  -3   9   5    8.11    1.20
   2  -9  -5   -0.47    0.54
  -2   9   5   -0.43    0.48
  -1   9   5   38.33    2.24
   0   9   5    8.13    1.17
   1   9   5   15.88    1.50
   2   9   5   28.79    2.00
   3   9   5    2.49    0.86
   4   9   5   33.31    2.35
   5   9   5   16.05    1.85
   6   9   5   -1.00    0.81
  -2  10   5    9.90    1.35
  -1  10   5    0.03    0.64
   0  10   5    2.19    0.85
   1  10   5   24.68    1.97
   2  10   5    3.47    1.00
   3  10   5    0.66    0.80
   4  10   5    0.20    0.85
  -1  11   5    0.68    0.81
   0  11   5   -0.58    0.69
   1  11   5   -0.06    0.70
   2  11   5    0.62    0.77
   9   0  -6   -0.19    0.74
  -9   0   6    0.73    0.71
   9   0  -6    0.93    0.72
   8   0  -6   64.94    3.17
   8   0  -6   66.01    3.54
  -8   0   6   64.34    3.14
   7   0  -6   75.12    3.61
  -7   0   6   80.18    3.41
   7   0  -6   79.00    3.32
  -7   0   6   77.95    3.19
   6   0  -6  153.06    5.08
  -6   0   6  151.46    5.38
   6   0  -6  148.42    5.52
  -6   0   6  147.36    5.03
   5   0  -6    9.85    0.86
  -5   0   6   11.56    1.28
  -5   0   6    7.39    0.76
  -5   0   6    9.23    0.84
   5   0  -6    8.52    0.72
  -4   0   6   52.35    2.06
   4   0  -6   57.66    2.04
   4   0  -6   53.52    2.20
   3   0  -6  146.79    4.43
  -3   0   6  144.29    4.82
   3   0  -6  142.32    4.78
  -3   0   6  143.02    4.50
  -3   0   6  150.05    5.23
   2   0  -6  330.24    9.22
   2   0  -6  329.11    9.92
  -2   0   6  323.78    9.79
  -2   0   6  314.40    9.28
  -2   0   6  323.21   10.40
  -2   0   6  306.71    9.94
  -1   0   6  144.51    4.44
   1   0  -6  143.08    4.86
   1   0  -6  153.83    4.74
  -1   0   6  145.16    4.92
  -1   0   6  148.43    4.59
  -1   0   6  145.87    4.77
   1   0  -6  141.55    4.44
   0   0   6   16.63    0.82
   0   0  -6   15.21    0.82
   0   0   6   16.91    0.85
   0   0  -6   15.91    0.78
   0   0   6   16.69    0.90
   0   0   6   18.32    0.79
   1   0   6   50.53    1.79
   1   0   6   50.95    1.81
   1   0   6   48.64    1.99
   1   0   6   47.64    1.85
   2   0   6  123.76    4.03
   2   0   6  123.46    4.04
   2   0   6  127.45    4.09
   2   0   6  122.40    4.35
   3   0   6   18.57    1.19
   3   0   6   18.56    1.00
   3   0   6   18.10    0.84
   3   0   6   19.27    1.09
   4   0   6   79.51    2.81
   4   0   6   72.15    3.11
   4   0   6   73.63    2.86
   4   0   6   76.90    2.91
   5   0   6    1.40    0.46
   5   0   6    1.26    0.49
   5   0   6    1.96    0.55
   6   0   6   38.82    2.02
   6   0   6   38.79    2.26
   6   0   6   42.04    2.11
   7   0   6   39.90    2.40
   7   0   6   39.32    2.20
   7   0   6   40.14    2.21
   8   0   6   16.87    1.65
   8   0   6   18.17    2.00
   8   0   6   12.83    1.44
   9   0   6   22.75    1.89
  10   0   6    4.19    1.14
   9  -1  -6   12.10    1.68
  -9  -1   6   15.46    1.67
   9  -1  -6    8.89    1.43
   9   1  -6   13.27    1.84
   9   1  -6   15.62    1.74
  -8  -1   6    0.61    0.53
   8  -1  -6   -0.02    0.51
   8  -1  -6    0.61    0.70
  -8   1   6    0.36    0.50
   8   1  -6    0.82    0.62
   8   1  -6    0.47    0.71
  -7  -1   6   35.78    2.33
  -7  -1   6   35.83    2.01
  -7  -1   6   33.97    1.87
   7  -1  -6   33.36    1.97
   7  -1  -6   33.05    2.20
  -7   1   6   33.60    1.97
   7   1  -6   34.41    2.22
   7   1  -6   35.12    1.99
   6  -1  -6    6.74    0.84
  -6  -1   6    5.65    0.80
  -6  -1   6    8.48    0.93
   6  -1  -6    8.00    1.03
  -6  -1   6    7.43    1.16
   6   1  -6    8.12    1.04
   6   1  -6    8.10    0.91
  -6   1   6    6.81    0.81
  -6   1   6    7.71    0.95
  -5  -1   6   45.70    2.07
  -5  -1   6   46.76    2.38
   5  -1  -6   44.53    2.10
  -5  -1   6   43.89    1.94
   5  -1  -6   46.05    1.90
  -5   1   6   46.93    2.08
   5   1  -6   44.52    2.10
  -5   1   6   45.89    1.94
   5   1  -6   46.51    1.93
   4  -1  -6   97.35    3.50
   4  -1  -6   97.67    3.21
  -4  -1   6  100.36    3.87
  -4  -1   6   96.77    3.31
  -4  -1   6   94.97    3.51
  -4   1   6   96.60    3.50
   4   1  -6   99.72    3.54
  -4   1   6   95.17    3.27
   4   1  -6   99.89    3.25
   3  -1  -6    7.21    0.57
  -3  -1   6    8.55    0.66
   3  -1  -6    7.28    0.52
  -3  -1   6    8.54    0.62
   3  -1  -6    7.08    0.57
  -3  -1   6    6.25    0.75
  -3   1   6    6.81    0.50
   3   1  -6    7.94    0.63
  -3   1   6    7.45    0.41
   3   1  -6    7.06    0.54
  -3   1   6    7.43    0.56
  -3   1   6    6.84    0.85
  -3   1   6    7.24    0.58
  -2  -1   6  119.40    3.80
   2  -1  -6  120.50    3.96
  -2  -1   6  126.63    3.76
   2  -1  -6  117.51    3.75
   2  -1  -6  121.27    3.67
  -2  -1   6  118.66    4.05
  -2  -1   6  117.87    4.27
   2   1  -6  123.27    3.71
  -2   1   6  122.85    3.75
  -2   1   6  117.96    3.73
  -2   1   6  125.83    3.93
   2   1  -6  122.16    4.03
  -2   1   6  120.64    4.01
  -2   1   6  119.77    3.97
  -2   1   6  117.98    4.37
  -1  -1   6   63.70    2.19
   1  -1  -6   63.95    2.13
  -1  -1   6   61.94    2.40
  -1  -1   6   61.80    2.32
   1  -1  -6   65.66    2.03
   1  -1  -6   67.24    2.24
  -1   1   6   61.69    2.26
  -1   1   6   63.49    2.11
   1   1  -6   62.89    2.29
  -1   1   6   57.26    2.39
  -1   1   6   64.93    2.25
   0  -1  -6   13.24    0.71
   0  -1  -6   12.01    0.61
   0  -1   6   12.55    0.75
   0  -1   6   12.57    0.79
   0  -1   6   13.01    0.76
   0   1   6   14.32    0.77
   0   1  -6   12.48    0.58
   0   1   6   12.21    0.69
   0   1  -6   13.16    0.73
   0   1   6   14.53    0.75
   0   1   6   11.87    0.67
   1  -1   6  183.08    6.18
  -1  -1  -6  194.44    5.78
   1  -1   6  191.63    5.82
   1  -1   6  188.73    6.20
   1   1   6  190.27    6.16
   1   1   6  190.07    5.96
   1   1   6  192.72    5.74
   1   1   6  194.01    6.06
   2  -1   6    8.40    0.59
   2  -1   6    7.87    0.71
   2  -1   6    9.01    0.55
   2  -1   6    8.93    0.71
   2   1   6    8.86    0.73
   2   1   6    8.08    0.66
   2   1   6    8.88    0.65
   3  -1   6   65.48    2.45
   3  -1   6   58.40    2.57
   3  -1   6   61.52    2.34
   3  -1   6   63.38    2.29
   3   1   6   59.43    2.39
   3   1   6   60.69    2.55
   3   1   6   64.26    2.38
   4  -1   6   95.18    3.43
   4  -1   6   97.05    3.81
   4  -1   6   96.68    3.51
   4   1   6   94.93    3.44
   4   1   6   95.64    3.55
   4   1   6   96.63    3.09
   4   1   6   96.70    3.76
   5  -1   6    2.15    0.49
   5  -1   6    2.98    0.64
   5  -1   6    2.99    0.68
   5   1   6    2.50    0.59
   5   1   6    2.63    0.59
   5   1   6    2.11    0.58
   6  -1   6   71.74    2.94
   6  -1   6   68.07    2.98
   6  -1   6   68.10    3.25
   6   1   6   67.17    3.01
   6   1   6   67.71    3.20
   6   1   6   70.80    2.95
   7  -1   6   26.66    1.97
   7  -1   6   26.97    1.79
   7  -1   6   25.43    1.64
   7   1   6   26.72    1.93
   7   1   6   26.09    1.73
   7   1   6   24.89    1.72
   8  -1   6    3.37    0.85
   8  -1   6    2.01    0.88
   8  -1   6    3.50    0.83
   8   1   6    3.72    0.91
   8   1   6    2.41    0.75
   9  -1   6   21.28    1.84
   9   1   6   22.74    1.96
  10  -1   6    2.45    0.94
  10   1   6    1.35    0.91
  -9  -2   6    7.67    1.29
   9   2  -6    7.68    1.33
  -8  -2   6   28.26    1.92
   8  -2  -6   28.60    1.98
  -8  -2   6   32.66    2.36
   8   2  -6   27.26    2.27
  -8   2   6   28.99    1.96
   8   2  -6   29.55    2.03
  -7  -2   6    3.37    0.74
   7  -2  -6    2.59    0.82
  -7  -2   6    1.97    0.55
   7  -2  -6    3.07    0.73
  -7  -2   6    2.80    0.87
   7   2  -6    2.22    0.79
   7   2  -6    2.77    0.72
  -7   2   6    2.81    0.69
   6  -2  -6    6.89    0.87
  -6  -2   6    4.67    0.71
   6  -2  -6    5.79    0.90
  -6  -2   6    6.47    1.06
  -6  -2   6    7.36    0.92
   6   2  -6    5.43    0.77
   6   2  -6    6.46    0.96
  -6   2   6    5.34    0.78
  -5  -2   6  101.57    3.56
  -5  -2   6  102.31    4.12
  -5  -2   6   99.10    3.76
   5  -2  -6   96.02    3.78
   5  -2  -6  100.99    3.47
  -5   2   6  101.61    3.51
   5   2  -6  102.47    3.86
  -5   2   6   96.01    3.70
  -5   2   6  104.88    3.62
   5   2  -6  100.91    3.50
  -4  -2   6    4.96    0.61
  -4  -2   6    5.81    0.79
   4  -2  -6    5.89    0.58
  -4  -2   6    4.74    0.57
   4  -2  -6    7.15    0.73
  -4   2   6    5.38    0.48
  -4   2   6    6.47    0.66
  -4   2   6    5.55    0.63
   4   2  -6    7.10    0.76
   4   2  -6    5.72    0.59
   3  -2  -6    3.74    0.45
   3  -2  -6    4.33    0.49
  -3  -2   6    3.12    0.46
  -3  -2   6    3.98    0.51
   3  -2  -6    4.23    0.44
  -3  -2   6    3.08    0.54
  -3  -2   6    3.72    0.32
  -3   2   6    3.29    0.37
   3   2  -6    2.79    0.43
  -3   2   6    3.54    0.42
  -3   2   6    3.29    0.33
  -3   2   6    3.90    0.53
  -3   2   6    3.13    0.42
   3   2  -6    3.53    0.42
  -2  -2   6    1.87    0.35
  -2  -2   6    2.27    0.38
   2  -2  -6    1.12    0.23
  -2  -2   6    1.97    0.24
   2  -2  -6    1.77    0.25
   2  -2  -6    1.55    0.27
  -2  -2   6    1.86    0.41
  -2   2   6    1.84    0.36
  -2   2   6    1.76    0.27
  -2   2   6    1.63    0.22
  -2   2   6    1.67    0.29
   2   2  -6    2.03    0.32
  -2   2   6    1.75    0.27
   2   2  -6    1.77    0.34
  -1  -2   6   59.47    2.11
   1  -2  -6   54.27    2.32
   1  -2  -6   63.34    2.09
  -1  -2   6   59.65    2.38
   1  -2  -6   59.55    2.00
  -1  -2   6   60.11    2.24
   1  -2  -6   62.22    2.07
  -1   2   6   58.18    1.96
  -1   2   6   58.59    2.12
  -1   2   6   59.57    2.23
   1   2  -6   60.30    2.21
   1   2  -6   59.01    2.06
   0  -2  -6  166.78    4.88
   0  -2   6  162.10    4.99
   0  -2  -6  157.21    5.23
   0  -2  -6  167.37    5.14
   0  -2   6  155.98    5.44
   0  -2  -6  160.46    5.16
   0  -2   6  165.60    5.32
   0   2   6  165.70    5.20
   0   2  -6  155.07    5.17
   0   2   6  164.08    4.81
   0   2  -6  154.08    5.25
   0   2   6  164.85    5.27
   1  -2   6   10.56    0.74
  -1  -2  -6   10.71    0.67
   1  -2   6   12.04    0.81
   1  -2   6    9.53    0.72
   1   2   6   10.76    0.63
  -1   2  -6   10.11    0.66
   1   2   6    9.36    0.68
   1   2   6    9.73    0.70
   2  -2   6    4.61    0.57
   2  -2   6    4.40    0.36
   2  -2   6    4.61    0.61
  -2  -2  -6    4.10    0.57
   2  -2   6    4.08    0.60
   2   2   6    3.76    0.48
   2   2   6    3.86    0.54
   2   2   6    4.38    0.56
   3  -2   6    0.66    0.36
   3  -2   6    1.20    0.29
   3  -2   6    2.03    0.51
   3  -2   6    0.60    0.30
   3   2   6    0.84    0.37
   3   2   6    1.21    0.36
   3   2   6    0.57    0.30
   4  -2   6   16.65    1.15
   4  -2   6   15.00    1.19
   4  -2   6   16.23    0.93
   4   2   6   15.63    1.15
   4   2   6   14.38    1.01
   4   2   6   15.24    1.10
   5  -2   6   49.31    2.25
   5  -2   6   44.26    2.35
   5  -2   6   46.14    2.00
   5   2   6   45.67    2.09
   5   2   6   45.89    2.31
   5   2   6   41.82    2.14
   6  -2   6   19.94    1.47
   6  -2   6   18.97    1.58
   6  -2   6   20.96    1.33
   6   2   6   19.21    1.48
   6   2   6   18.95    1.36
   6   2   6   18.62    1.50
   7  -2   6    0.75    0.48
   7  -2   6    0.85    0.62
   7  -2   6    0.81    0.55
   7   2   6    0.75    0.65
   7   2   6    1.00    0.62
   7   2   6    0.34    0.50
   8  -2   6   -0.01    0.61
   8  -2   6    0.10    0.51
   8   2   6    1.24    0.75
   9  -2   6    1.92    0.77
   9   2   6    1.01    0.89
  10  -2   6   17.36    1.81
  10   2   6   16.51    1.96
  11   3  -6    0.46    1.04
  -9  -3   6    6.72    1.19
   9   3  -6    7.55    1.39
  -8  -3   6    2.00    0.67
   8  -3  -6    2.42    0.77
  -8  -3   6    2.43    0.73
  -8  -3   6    3.71    1.06
   8   3  -6    2.63    0.98
  -8   3   6    3.08    0.75
   8   3  -6    1.83    0.79
  -8   3   6    2.64    0.76
  -7  -3   6   -0.10    0.37
   7  -3  -6    0.31    0.50
  -7  -3   6    0.22    0.60
  -7  -3   6    0.27    0.44
  -7   3   6   -0.23    0.36
  -7   3   6   -0.23    0.35
   7   3  -6    0.69    0.59
   7   3  -6    0.96    0.70
  -6  -3   6    0.74    0.52
  -6  -3   6   -0.06    0.33
  -6  -3   6    0.20    0.35
   6  -3  -6    0.30    0.40
  -6   3   6   -0.20    0.30
   6   3  -6    0.17    0.35
  -6   3   6    0.04    0.32
   6   3  -6    0.29    0.45
   5  -3  -6    0.27    0.29
  -5  -3   6   -0.18    0.41
  -5  -3   6    0.01    0.30
  -5  -3   6    0.05    0.28
   5  -3  -6    0.01    0.34
  -5   3   6   -0.06    0.23
   5   3  -6   -0.35    0.23
   5   3  -6   -0.23    0.28
  -5   3   6    0.30    0.26
   4  -3  -6   20.83    1.08
  -4  -3   6   21.45    1.40
  -4  -3   6   20.59    1.15
   4  -3  -6   22.03    1.18
   4  -3  -6   18.87    1.02
  -4  -3   6   21.68    1.22
  -4   3   6   21.41    1.08
   4   3  -6   22.98    1.27
   4   3  -6   21.71    1.11
  -4   3   6   20.41    1.05
  -4   3   6   20.36    1.14
  -4   3   6   20.07    0.98
   3  -3  -6    1.20    0.29
  -3  -3   6    2.32    0.43
  -3  -3   6    2.12    0.52
   3  -3  -6    2.12    0.31
   3  -3  -6    2.42    0.36
  -3   3   6    1.57    0.31
  -3   3   6    2.06    0.33
   3   3  -6    2.24    0.36
  -3   3   6    1.64    0.39
  -3   3   6    1.91    0.28
   3   3  -6    1.92    0.39
  -3   3   6    2.04    0.33
   2  -3  -6    0.34    0.16
   2  -3  -6    0.10    0.14
  -2  -3   6    0.39    0.23
  -2  -3   6    0.19    0.21
   2  -3  -6   -0.06    0.12
  -2  -3   6    0.58    0.35
   2   3  -6    0.07    0.19
  -2   3   6    0.30    0.15
   2   3  -6    0.96    0.24
  -2   3   6    0.31    0.13
  -2   3   6   -0.06    0.13
  -2   3   6   -0.03    0.23
  -2   3   6    0.21    0.17
  -1  -3   6   12.31    0.77
   1  -3  -6   13.05    0.63
   1  -3  -6   10.32    0.91
  -1  -3   6   13.91    0.83
  -1  -3   6   11.44    0.90
   1  -3  -6   13.32    0.65
  -1   3   6   14.75    0.90
   1   3  -6   13.28    0.75
  -1   3   6   13.35    0.61
  -1   3   6   13.39    0.69
   1   3  -6   13.72    0.80
   0  -3  -6    1.85    0.27
   0  -3   6    2.06    0.39
   0  -3   6    1.44    0.38
   0  -3   6    1.31    0.33
   0  -3  -6    1.79    0.37
   0  -3  -6    1.92    0.30
   0   3   6    1.92    0.25
   0   3   6    2.23    0.42
   0   3  -6    1.72    0.33
   0   3  -6    2.24    0.39
   0   3   6    1.74    0.29
   1  -3   6   13.06    0.86
  -1  -3  -6   14.84    0.63
   1  -3   6   13.12    0.88
  -1  -3  -6   14.08    0.78
   1  -3   6   14.83    1.01
  -1  -3  -6   13.92    0.58
  -1   3  -6   14.35    0.85
   1   3   6   13.49    0.80
   1   3   6   13.99    0.91
   1   3   6   14.24    0.70
   2  -3   6   13.28    0.95
   2  -3   6   11.83    0.89
  -2  -3  -6   13.94    0.87
   2  -3   6   12.03    0.96
   2   3   6   13.93    0.93
   2   3   6   12.74    0.87
   2   3   6   12.42    0.76
  -2   3  -6   13.33    0.93
   2   3   6   16.27    0.95
   3  -3   6    0.04    0.33
   3  -3   6    0.16    0.18
   3  -3   6    0.12    0.31
   3  -3   6   -0.12    0.25
   3   3   6    0.00    0.22
   3   3   6    0.25    0.33
   3   3   6    0.45    0.30
   4  -3   6    3.52    0.63
   4  -3   6    4.65    0.77
   4  -3   6    3.57    0.64
   4  -3   6    5.35    0.59
   4   3   6    3.73    0.64
   4   3   6    3.99    0.59
   4   3   6    4.49    0.75
   5  -3   6   -0.16    0.41
   5  -3   6   -0.39    0.30
   5   3   6    0.14    0.38
   5   3   6    0.11    0.36
   5   3   6    1.09    0.42
   6  -3   6    6.10    0.79
   6  -3   6    6.61    1.00
   6  -3   6    6.75    1.08
   6   3   6    4.68    0.84
   6   3   6    5.29    0.94
   7  -3   6    0.31    0.51
   7  -3   6    0.07    0.65
   7  -3   6   -0.03    0.46
   7   3   6    0.60    0.58
   7   3   6    0.95    0.72
   8  -3   6    2.31    0.74
   8   3   6    0.88    0.73
   9  -3   6    3.67    0.95
   9   3   6    1.23    0.96
  10   3   6   -0.79    0.82
  11   4  -6    2.56    1.31
  10   4  -6   31.88    2.59
   9   4  -6    3.77    1.08
   8  -4  -6   48.44    2.58
  -8  -4   6   44.32    2.87
  -8   4   6   48.00    2.61
  -8   4   6   43.81    2.43
   8   4  -6   48.73    2.70
   7  -4  -6   -0.09    0.45
  -7  -4   6    0.61    0.52
  -7  -4   6    0.43    0.45
  -7  -4   6    0.91    0.71
   7   4  -6   -0.04    0.59
  -7   4   6    0.66    0.46
  -7   4   6    0.72    0.46
   7   4  -6    0.62    0.57
  -6  -4   6    0.80    0.44
   6  -4  -6    0.40    0.42
  -6  -4   6    0.03    0.32
  -6  -4   6    1.75    0.72
   6   4  -6    0.55    0.41
  -6   4   6    0.79    0.45
   6   4  -6    1.21    0.59
  -6   4   6    0.96    0.44
  -5  -4   6   98.19    3.69
  -5  -4   6   94.45    4.03
   5  -4  -6   93.30    3.41
  -5  -4   6   95.56    3.47
  -5   4   6   98.79    3.66
  -5   4   6   94.52    3.58
   5   4  -6   95.16    3.45
   5   4  -6   96.18    3.77
  -4  -4   6    7.84    0.82
  -4  -4   6    7.11    0.77
   4  -4  -6    7.23    0.68
  -4  -4   6    7.63    1.02
   4   4  -6    8.11    0.69
   4   4  -6    7.18    0.73
  -4   4   6    7.50    0.68
   4   4  -6    6.45    0.76
  -4   4   6    7.43    0.67
   3  -4  -6   36.89    1.51
  -3  -4   6   37.68    1.94
  -3  -4   6   34.69    1.55
   3  -4  -6   35.83    1.36
  -3  -4   6   35.37    1.63
   3   4  -6   35.03    1.62
   3   4  -6   35.63    1.46
  -3   4   6   36.07    1.56
   3   4  -6   34.97    1.41
  -3   4   6   34.03    1.71
  -3   4   6   34.83    1.36
  -3   4   6   35.78    1.50
   2  -4  -6    0.70    0.20
  -2  -4   6    0.61    0.27
  -2  -4   6    0.90    0.45
  -2  -4   6    0.80    0.30
   2  -4  -6    1.02    0.19
   2  -4  -6    0.66    0.20
  -2   4   6    0.55    0.20
  -2   4   6    0.87    0.18
   2   4  -6    0.29    0.18
  -2   4   6    4.17    0.62
   2   4  -6    0.92    0.30
  -2   4   6    1.14    0.30
  -1  -4   6   14.70    0.91
   1  -4  -6   16.66    0.70
  -1  -4   6   15.90    1.13
   1  -4  -6   16.25    0.73
  -1  -4   6   15.85    0.94
   1   4  -6   16.30    0.80
  -1   4   6   15.97    0.75
   1   4  -6   16.34    0.97
   1   4  -6   16.74    0.91
   1   4  -6   17.10    1.08
  -1   4   6   17.11    0.63
  -1   4   6   17.15    1.09
   0  -4   6  136.33    4.24
   0  -4   6  132.16    4.89
   0  -4  -6  136.57    4.14
   0  -4  -6  125.52    3.98
   0  -4   6  136.58    4.47
   0   4   6  132.93    4.59
   0   4  -6  124.28    4.51
   0   4   6  130.00    3.82
   0   4  -6  135.55    4.56
   0   4  -6  131.98    4.42
   0   4   6  127.86    4.20
   1  -4   6    1.59    0.38
  -1  -4  -6    2.35    0.37
   1  -4   6    1.83    0.47
   1  -4   6    1.59    0.39
   1   4   6    2.23    0.37
  -1   4  -6    1.94    0.43
   1   4   6    1.16    0.39
   1   4   6    1.83    0.32
   2  -4   6   20.65    1.20
   2  -4   6   22.60    1.41
   2  -4   6   19.79    1.17
  -2   4  -6   20.32    1.24
   2   4   6   18.14    1.04
   2   4   6   19.45    1.22
   2   4   6   20.44    0.92
   3  -4   6    2.17    0.57
   3  -4   6    1.80    0.47
   3  -4   6    1.39    0.45
   3   4   6    1.79    0.43
   3   4   6    1.64    0.53
  -3   4  -6    0.77    0.40
   4  -4   6    3.64    0.74
   4  -4   6    1.98    0.57
   4  -4   6    3.26    0.63
   4   4   6    3.87    0.64
  -4   4  -6    3.31    0.71
   4   4   6    3.16    0.67
   5  -4   6   67.48    3.01
   5  -4   6   60.55    2.77
   5   4   6   62.12    2.91
   5   4   6   63.78    2.84
  -5   4  -6   57.48    3.03
   6  -4   6    6.75    1.00
   6   4   6    5.53    1.01
  -6   4  -6    6.32    1.21
   6   4   6    5.81    0.98
   7   4   6    6.10    1.16
   8   4   6    0.44    0.80
   9   4   6    0.19    0.87
  10   5  -6   11.50    1.75
   9   5  -6    0.62    0.85
   8   5  -6    5.50    1.11
  -8   5   6    2.64    0.76
  -7  -5   6   71.69    3.15
   7  -5  -6   72.62    3.20
  -7  -5   6   73.73    3.72
   7   5  -6   72.83    3.29
  -7   5   6   80.52    3.41
  -7   5   6   72.12    3.27
   7   5  -6   77.95    3.77
  -6  -5   6    2.97    0.62
  -6  -5   6    4.87    1.01
   6  -5  -6    4.69    0.78
  -6   5   6    4.08    0.75
  -6   5   6    3.88    0.71
   6   5  -6    5.06    0.84
   6   5  -6    4.58    0.92
  -5  -5   6   53.27    2.75
  -5  -5   6   48.60    2.19
   5  -5  -6   49.20    2.19
   5   5  -6   51.41    2.44
  -5   5   6   50.30    2.30
   5   5  -6   48.83    2.18
  -5   5   6   52.78    2.29
  -4  -5   6   14.23    1.32
  -4  -5   6   15.22    1.05
   4  -5  -6   14.54    0.94
  -4  -5   6   15.16    1.03
   4   5  -6   14.42    0.97
  -4   5   6   15.38    1.19
  -4   5   6   17.76    1.03
  -4   5   6   16.71    1.09
   4   5  -6   16.92    1.14
  -3  -5   6    8.37    0.75
   3  -5  -6    8.66    0.58
  -3  -5   6    8.04    1.03
  -3  -5   6    8.36    0.73
  -3   5   6   10.04    0.65
  -3   5   6    9.44    1.01
   3   5  -6    8.96    0.68
  -3   5   6    8.94    0.75
   3   5  -6    8.19    0.76
  -2  -5   6  164.11    6.06
  -2  -5   6  158.63    5.11
  -2  -5   6  164.13    5.44
   2  -5  -6  166.49    4.78
   2   5  -6  165.22    4.99
  -2   5   6  166.15    5.15
   2   5  -6  161.74    5.42
  -2   5   6  165.15    5.56
  -2   5   6  161.19    5.65
  -1  -5   6   25.53    1.26
  -1  -5   6   24.97    1.24
  -1  -5   6   27.70    1.67
   1  -5  -6   26.58    0.91
  -1   5   6   26.24    0.97
   1   5  -6   24.27    1.22
   1   5  -6   25.09    1.40
   1   5  -6   24.45    1.07
  -1   5   6   24.98    1.46
   0  -5   6   31.14    1.40
   0  -5   6   30.10    1.39
   0  -5   6   29.36    1.78
   0   5  -6   30.60    1.38
   0   5  -6   28.74    1.52
   0   5   6   29.31    1.57
   0   5   6   29.03    1.10
   1  -5   6   91.94    3.85
   1  -5   6   93.59    3.23
   1  -5   6   98.32    3.38
  -1  -5  -6   93.19    3.26
   1   5   6   92.49    3.08
   1   5   6   89.86    3.54
  -1   5  -6   93.41    3.35
  -1   5  -6   90.63    3.55
   2  -5   6   64.50    2.58
   2  -5   6   68.95    3.04
   2  -5   6   66.73    2.54
   2   5   6   59.56    2.72
  -2   5  -6   64.26    2.76
   2   5   6   64.47    2.39
   3  -5   6  104.52    4.36
   3  -5   6  106.72    3.81
   3   5   6  107.43    3.81
   3   5   6  105.21    4.11
  -3   5  -6  105.86    4.19
   4  -5   6   36.16    1.92
   4  -5   6   38.51    2.22
   4   5   6   36.28    2.05
  -4   5  -6   35.18    2.13
   4   5   6   39.13    1.90
   5  -5   6    0.20    0.53
   5  -5   6    0.07    0.45
   5   5   6    0.96    0.47
   5   5   6    1.61    0.70
  -5   5  -6    0.66    0.52
   6  -5   6   32.40    2.04
   6  -5   6   32.33    2.21
   6   5   6   32.45    2.18
   6   5   6   34.69    2.04
  -6   5  -6   27.25    2.21
   7  -5   6   43.23    2.92
   7   5   6   48.40    2.81
   8   5   6   15.77    1.88
   9   5   6   10.64    1.69
  10   6  -6   10.02    1.69
   9   6  -6    2.29    1.01
   8   6  -6   45.99    2.64
   7  -6  -6   37.33    2.04
  -7   6   6   33.03    2.13
  -7   6   6   40.12    2.18
  -6  -6   6   52.93    2.45
  -6  -6   6   55.06    3.06
   6  -6  -6   53.49    2.39
  -6   6   6   47.65    2.53
  -6   6   6   55.57    2.50
   6   6  -6   53.23    2.83
   5  -6  -6   23.96    1.37
  -5  -6   6   23.50    1.43
  -5  -6   6   20.89    1.74
  -5   6   6   23.80    1.53
  -5   6   6   25.27    1.37
   5   6  -6   21.70    1.56
  -4  -6   6   22.05    1.29
  -4  -6   6   23.19    1.76
   4  -6  -6   21.98    1.16
   4   6  -6   21.38    1.40
  -4   6   6   20.26    1.34
  -4   6   6   21.22    1.10
  -4   6   6   21.90    1.54
  -3  -6   6   30.58    1.51
  -3  -6   6   30.14    2.03
   3  -6  -6   34.41    1.35
  -3   6   6   32.50    1.28
   3   6  -6   33.05    1.62
  -3   6   6   32.20    1.67
  -3   6   6   30.12    1.80
  -2  -6   6   68.13    2.61
   2  -6  -6   76.71    2.26
  -2  -6   6   73.37    3.37
   2   6  -6   70.62    2.74
  -2   6   6   70.82    3.04
  -1  -6   6   31.17    1.44
   1  -6  -6   30.91    1.01
  -1  -6   6   34.46    2.01
  -1   6   6   29.53    1.70
   1   6  -6   33.91    1.49
   0  -6   6   13.48    1.31
   0  -6  -6   14.02    0.98
   0  -6   6   13.44    0.91
   0   6  -6   15.11    0.89
   0   6   6   10.31    0.99
   0   6  -6   12.19    1.05
   1  -6   6   15.02    1.36
   1  -6   6   14.25    0.96
   1   6   6   12.60    1.12
  -1   6  -6   13.58    0.90
   1   6   6   13.86    0.62
  -1   6  -6   13.75    1.12
   2  -6   6   26.91    1.44
   2  -6   6   27.66    1.91
  -2   6  -6   26.78    1.67
  -2   6  -6   27.40    1.41
   2   6   6   24.61    1.62
   2   6   6   27.91    1.18
   3  -6   6    9.28    1.22
   3  -6   6    9.80    0.98
  -3   6  -6    8.31    1.07
   3   6   6    9.63    0.75
   3   6   6    7.59    1.02
   4  -6   6   13.99    1.58
   4  -6   6   14.25    1.20
   4   6   6   14.43    1.48
  -4   6  -6   12.26    1.37
   4   6   6   12.98    1.03
   5  -6   6    0.42    0.56
   5  -6   6   -0.16    0.47
   5   6   6    1.51    0.54
  -5   6  -6    0.29    0.65
   5   6   6   -0.01    0.60
   6   6   6    4.65    1.06
   7   6   6   21.77    2.05
   8   6   6    7.61    1.49
  -6   7   6    2.37    0.72
  -5  -7   6    4.38    0.70
  -5  -7   6    3.89    0.96
  -5   7   6    4.08    0.81
   5   7  -6    3.29    0.78
  -4  -7   6   43.82    2.66
  -4  -7   6   42.51    1.97
   4   7  -6   42.99    2.17
  -4   7   6   42.58    2.21
  -3  -7   6   30.88    1.53
  -3  -7   6   30.81    2.13
  -3   7   6   30.08    1.86
   3   7  -6   30.13    1.61
  -3   7   6   29.84    1.69
  -2  -7   6    3.23    0.53
  -2  -7   6    3.24    0.87
   2   7  -6    4.56    0.62
  -2   7   6    4.71    0.85
  -1  -7   6   27.89    1.99
  -1  -7   6   31.35    1.45
  -1   7   6   27.70    1.77
   1   7  -6   31.25    1.47
   0  -7   6    6.85    0.73
   0  -7   6    5.86    1.04
   0   7   6    5.71    0.87
   0   7  -6    8.16    0.99
   0   7  -6    8.45    0.73
   1  -7   6   84.88    3.86
   1  -7   6   79.91    2.91
  -1   7  -6   82.44    2.97
   1   7   6   76.22    3.37
  -1   7  -6   78.05    3.41
   2  -7   6    3.93    0.65
   2  -7   6    4.40    0.95
  -2   7  -6    4.10    0.86
   2   7   6    3.97    0.84
  -2   7  -6    4.55    0.62
   3  -7   6    0.70    0.64
   3  -7   6    0.38    0.43
  -3   7  -6    1.15    0.41
  -3   7  -6    0.71    0.56
   3   7   6    0.59    0.55
   4  -7   6   46.27    2.86
   4  -7   6   44.49    2.21
  -4   7  -6   46.15    2.68
   4   7   6   44.82    2.60
   5   7   6    1.52    0.51
   5   7   6    1.75    0.76
   6   7   6   25.53    2.19
   7   7   6    2.26    1.01
   8   7   6    2.12    1.16
  -4  -8   6    0.34    0.43
  -4   8   6    1.12    0.60
   4   8  -6    0.21    0.46
  -3  -8   6    0.14    0.69
  -3  -8   6    0.39    0.36
   3   8  -6    0.40    0.39
  -3   8   6    0.55    0.60
  -2  -8   6    0.33    0.32
  -2  -8   6    1.58    0.86
  -2   8   6    0.48    0.55
   2   8  -6    0.60    0.36
  -1  -8   6   12.53    1.63
  -1  -8   6   14.44    0.98
   1   8  -6   13.37    0.97
  -1   8   6   11.51    1.34
   0  -8   6    4.14    0.60
   0  -8   6    4.15    1.05
   0   8  -6    4.16    0.59
   0   8   6    3.58    0.88
   1  -8   6    2.44    0.86
   1  -8   6    1.99    0.50
   1   8   6    1.62    0.70
  -1   8  -6    0.81    0.56
  -1   8  -6    2.07    0.45
   2  -8   6    1.01    0.46
  -2   8  -6    1.47    0.72
   2   8   6    1.43    0.63
  -2   8  -6    1.05    0.40
   3  -8   6    1.12    0.51
  -3   8  -6    0.99    0.46
   3   8   6    0.87    0.71
   4   8   6    0.79    0.68
   5   8   6    1.48    0.93
   6   8   6    3.52    1.18
   7   8   6    0.82    1.05
  -3   9   6    7.46    1.20
  -2   9   6    1.22    0.69
  -1   9   6   13.57    1.52
   0   9   6    0.97    0.73
   1   9   6   44.23    2.55
   2   9   6    7.23    1.21
   3   9   6   -0.40    0.64
   4   9   6   13.55    1.72
   5   9   6    0.15    0.89
   6   9   6   13.83    1.90
  -3  10   6   11.90    1.56
  -2  10   6    8.59    1.32
  -1  10   6   -0.18    0.63
   0  10   6   11.18    1.48
   1  10   6    0.82    0.74
   2  10   6    6.05    1.21
   3  10   6    3.50    1.08
   4  10   6    0.61    0.90
  -2  11   6   53.30    3.08
  -1  11   6    8.21    1.38
   0  11   6   12.08    1.63
   1  11   6   19.93    2.02
   9   0  -7    1.50    0.85
   9   0  -7    1.28    0.87
   8   0  -7    1.13    0.77
  -8   0   7    0.67    0.53
   8   0  -7    0.51    0.65
   7   0  -7   -0.35    0.49
  -7   0   7    0.08    0.39
   7   0  -7    0.08    0.43
  -7   0   7    0.01    0.31
   6   0  -7    0.42    0.37
  -6   0   7    1.76    0.67
  -6   0   7    0.00    0.32
   6   0  -7    0.14    0.41
  -6   0   7    0.07    0.31
  -5   0   7   -0.16    0.21
  -5   0   7   -0.42    0.31
  -5   0   7    0.22    0.30
   5   0  -7    0.03    0.29
   5   0  -7    0.24    0.30
   4   0  -7   -0.19    0.18
  -4   0   7    0.42    0.36
  -4   0   7    0.22    0.26
   4   0  -7    0.14    0.27
  -4   0   7   -0.11    0.19
  -3   0   7    0.08    0.23
  -3   0   7   -0.02    0.19
   3   0  -7   -0.30    0.17
   3   0  -7    0.20    0.20
  -3   0   7    0.66    0.35
  -2   0   7   -0.19    0.20
  -2   0   7    0.05    0.18
  -2   0   7    0.06    0.14
  -2   0   7    0.01    0.21
   2   0  -7   -0.23    0.16
   1   0  -7   -0.05    0.18
  -1   0   7    0.01    0.21
   1   0  -7   -0.19    0.16
  -1   0   7   -0.15    0.17
  -1   0   7   -0.24    0.13
  -1   0   7   -0.13    0.20
   0   0  -7    0.11    0.16
   0   0   7   -0.11    0.19
   0   0   7    0.22    0.19
   0   0   7    0.11    0.17
   0   0  -7   -0.12    0.17
   0   0   7   -0.25    0.15
   1   0   7    0.26    0.22
   1   0   7    0.00    0.22
   1   0   7    0.31    0.19
   1   0   7   -0.05    0.14
   2   0   7   -0.10    0.25
   2   0   7    0.50    0.17
   2   0   7    0.31    0.27
   2   0   7    0.06    0.18
   3   0   7    0.04    0.29
   3   0   7    0.02    0.21
   3   0   7    0.16    0.15
   3   0   7    0.36    0.33
   4   0   7    0.26    0.37
   4   0   7    0.08    0.16
   4   0   7    0.19    0.27
   4   0   7    0.05    0.30
   5   0   7    0.25    0.44
   5   0   7    0.02    0.37
   5   0   7    0.03    0.33
   6   0   7   -0.26    0.37
   6   0   7    0.51    0.52
   6   0   7    0.52    0.43
   7   0   7    0.28    0.52
   7   0   7    0.03    0.47
   7   0   7    0.14    0.53
   8   0   7   -0.19    0.59
   8   0   7    1.06    0.71
   9   0   7   -0.12    0.65
  10   0   7    0.45    0.85
  -9  -1   7   15.68    1.71
   9   1  -7   14.35    1.78
   9   1  -7   17.67    2.12
   8  -1  -7   -0.46    0.58
  -8  -1   7    0.89    0.58
  -8  -1   7    0.88    0.47
   8  -1  -7    0.86    0.61
   8   1  -7    0.01    0.56
   8   1  -7    0.97    0.80
  -8   1   7   -0.14    0.46
   7  -1  -7    9.28    1.29
  -7  -1   7    8.08    0.95
   7  -1  -7    8.22    1.02
  -7  -1   7    9.06    1.08
  -7  -1   7   12.36    1.60
   7   1  -7    6.95    1.17
  -7   1   7    6.71    0.95
  -7   1   7    7.46    0.92
   7   1  -7   11.43    1.24
   6  -1  -7    9.68    1.15
  -6  -1   7    9.88    1.07
   6  -1  -7    8.98    0.95
  -6  -1   7   11.49    1.44
  -6  -1   7   10.15    0.99
   6   1  -7    8.77    1.05
   6   1  -7    8.54    0.91
  -6   1   7    8.93    0.95
  -6   1   7   10.33    0.96
   5  -1  -7  112.43    4.16
  -5  -1   7  116.31    3.92
  -5  -1   7  112.85    4.56
  -5  -1   7  114.19    4.14
   5  -1  -7  108.85    3.79
   5   1  -7  114.43    3.85
  -5   1   7  109.85    4.10
   5   1  -7  114.61    4.21
  -5   1   7  112.72    3.86
  -4  -1   7   56.11    2.62
   4  -1  -7   58.14    2.13
   4  -1  -7   54.73    2.30
  -4  -1   7   56.50    2.36
  -4  -1   7   57.69    2.22
  -4   1   7   58.08    2.04
   4   1  -7   56.55    2.34
   4   1  -7   60.08    2.17
  -4   1   7   58.64    2.33
  -4   1   7   58.42    2.19
  -3  -1   7    0.48    0.33
   3  -1  -7    0.87    0.25
  -3  -1   7    0.45    0.28
   3  -1  -7    0.30    0.22
  -3  -1   7    0.46    0.25
   3   1  -7    0.55    0.23
  -3   1   7    0.54    0.23
  -3   1   7    1.11    0.32
   3   1  -7    0.33    0.25
  -3   1   7    0.13    0.31
  -3   1   7    1.22    0.16
  -2  -1   7   78.58    3.09
  -2  -1   7   82.42    2.76
  -2  -1   7   80.49    2.93
   2  -1  -7   77.58    2.68
   2  -1  -7   83.38    2.83
   2   1  -7   78.13    2.64
   2   1  -7   80.36    2.89
  -2   1   7   80.05    2.87
  -2   1   7   85.34    2.81
  -2   1   7   80.14    3.19
  -2   1   7   80.11    2.83
  -2   1   7   80.32    2.67
  -1  -1   7    5.51    0.58
  -1  -1   7    5.29    0.56
   1  -1  -7    5.43    0.47
   1  -1  -7    4.80    0.26
   1  -1  -7    6.16    0.52
   1  -1  -7    5.13    0.46
  -1  -1   7    4.84    0.56
  -1   1   7    5.33    0.51
   1   1  -7    4.34    0.51
  -1   1   7    4.60    0.48
  -1   1   7    6.29    0.68
  -1   1   7    4.13    0.49
   0  -1   7  185.99    6.08
   0  -1   7  192.29    5.71
   0  -1  -7  182.71    5.92
   0  -1  -7  180.53    5.62
   0  -1   7  189.09    6.14
   0  -1  -7  184.48    5.95
   0   1  -7  184.46    6.03
   0   1  -7  180.63    5.81
   0   1   7  179.62    6.04
   0   1   7  188.01    6.02
   0   1   7  189.79    5.60
   0   1   7  188.47    5.92
   1  -1   7    9.99    0.80
   1  -1   7    9.45    0.66
   1  -1   7   11.06    0.59
   1  -1   7   10.32    0.75
   1   1   7   10.92    0.72
   1   1   7    9.34    0.73
   1   1   7   10.89    0.72
   1   1   7   10.60    0.53
   2  -1   7    1.21    0.29
   2  -1   7    1.81    0.32
   2  -1   7    0.64    0.36
   2  -1   7    2.11    0.46
   2   1   7    1.54    0.37
   2   1   7    0.88    0.32
   2   1   7    0.66    0.32
   3  -1   7  163.37    5.07
   3  -1   7  149.92    5.47
   3  -1   7  157.66    5.20
   3  -1   7  152.78    5.10
   3   1   7  149.01    5.40
   3   1   7  153.38    5.03
   3   1   7  155.55    5.21
   4  -1   7    5.01    0.59
   4  -1   7    4.74    0.77
   4  -1   7    4.75    0.71
   4  -1   7    4.50    0.60
   4   1   7    8.96    0.97
   4   1   7    5.75    0.75
   4   1   7    5.45    0.76
   5  -1   7   55.63    2.73
   5  -1   7   54.97    2.29
   5  -1   7   58.41    2.39
   5  -1   7   57.04    2.52
   5   1   7   55.59    2.69
   5   1   7   54.59    2.45
   5   1   7   53.53    2.47
   6  -1   7    0.20    0.43
   6  -1   7    0.20    0.39
   6  -1   7    0.68    0.53
   6   1   7    0.38    0.44
   6   1   7    1.49    0.58
   6   1   7    0.49    0.48
   7  -1   7    8.49    1.08
   7  -1   7   12.28    1.49
   7  -1   7   10.60    1.34
   7   1   7    9.75    1.17
   7   1   7    9.08    1.18
   7   1   7   10.59    1.39
   8  -1   7   27.08    1.85
   8   1   7   29.95    2.00
   8   1   7   26.00    1.98
   9  -1   7    0.07    0.65
   9   1   7    1.39    0.84
  10  -1   7    2.76    1.01
  10   1   7    4.40    1.18
  -9  -2   7   44.54    2.67
   9   2  -7   47.68    2.85
  -8  -2   7   47.87    2.46
  -8  -2   7   48.19    2.97
   8  -2  -7   46.70    2.64
  -8  -2   7   49.49    2.64
  -8   2   7   46.48    2.58
   8   2  -7   50.04    2.72
   8   2  -7   47.90    2.94
  -7  -2   7   48.85    2.42
   7  -2  -7   46.45    2.66
  -7  -2   7   43.40    2.69
  -7  -2   7   48.66    2.29
   7  -2  -7   46.08    2.37
   7   2  -7   46.98    2.38
  -7   2   7   46.82    2.40
   7   2  -7   45.12    2.60
  -6  -2   7   61.08    2.66
  -6  -2   7   54.64    2.88
   6  -2  -7   57.31    2.72
  -6  -2   7   56.00    2.44
   6  -2  -7   55.13    2.43
  -6   2   7   57.51    2.43
   6   2  -7   55.35    2.71
  -6   2   7   59.72    2.40
  -6   2   7   57.62    2.57
   6   2  -7   59.60    2.49
  -5  -2   7   10.56    1.23
  -5  -2   7   10.38    0.88
   5  -2  -7   10.19    0.83
  -5  -2   7   10.63    0.90
   5  -2  -7   10.03    0.93
  -5   2   7   10.85    0.74
   5   2  -7    9.83    0.93
   5   2  -7   11.18    0.87
  -5   2   7   11.59    0.86
  -5   2   7   12.23    0.94
  -4  -2   7   26.16    1.41
  -4  -2   7   27.79    1.35
   4  -2  -7   26.17    1.23
   4  -2  -7   28.87    1.38
  -4  -2   7   27.18    1.64
  -4   2   7   27.45    1.28
   4   2  -7   26.79    1.28
   4   2  -7   27.75    1.42
  -4   2   7   25.51    1.34
  -4   2   7   26.76    1.15
   3  -2  -7  130.91    4.35
  -3  -2   7  132.18    4.19
  -3  -2   7  129.43    4.79
  -3  -2   7  129.51    4.23
   3  -2  -7  133.09    4.04
   3  -2  -7  125.19    4.10
  -3  -2   7  133.48    4.50
   3   2  -7  133.06    4.12
  -3   2   7  125.06    4.44
  -3   2   7  129.90    4.27
  -3   2   7  129.60    4.09
  -3   2   7  130.50    4.19
  -3   2   7  130.34    4.39
   3   2  -7  130.73    4.47
   2  -2  -7    0.73    0.23
  -2  -2   7    0.93    0.32
  -2  -2   7    0.98    0.37
  -2  -2   7    0.70    0.29
  -2  -2   7    1.01    0.18
   2  -2  -7    1.15    0.27
   2  -2  -7    0.86    0.22
   2   2  -7    0.70    0.25
  -2   2   7    0.85    0.27
   2   2  -7    0.83    0.28
  -2   2   7    0.99    0.27
  -2   2   7    0.77    0.23
  -1  -2   7   18.34    1.12
   1  -2  -7   20.09    0.94
  -1  -2   7   20.20    1.09
   1  -2  -7   18.53    0.91
   1  -2  -7   19.56    1.08
   1  -2  -7   21.75    0.87
  -1   2   7   18.98    0.97
  -1   2   7   19.99    0.91
   1   2  -7   21.36    1.07
   1   2  -7   19.69    0.85
  -1   2   7   20.94    1.07
   0  -2   7   22.49    1.14
   0  -2  -7   22.77    1.04
   0  -2   7   21.99    1.18
   0  -2  -7   21.93    0.94
   0  -2  -7   21.99    1.04
   0  -2   7   20.15    1.15
   0  -2  -7   22.91    0.97
   0   2   7   21.13    1.07
   0   2   7   20.49    0.96
   0   2  -7   21.03    1.15
   0   2  -7   22.44    0.97
   0   2   7   22.95    1.15
   1  -2   7   27.74    1.39
   1  -2   7   23.96    1.29
  -1  -2  -7   26.92    1.22
   1  -2   7   24.88    1.27
   1   2   7   26.95    1.28
   1   2   7   28.90    1.35
  -1   2  -7   24.63    1.19
   1   2   7   26.62    1.18
   2  -2   7   25.41    1.34
   2  -2   7   23.91    1.40
   2  -2   7   26.12    1.33
   2  -2   7   27.60    1.07
   2   2   7   27.00    1.25
   2   2   7   24.75    1.33
   2   2   7   25.87    1.34
   3  -2   7   26.78    1.54
   3  -2   7   27.82    1.41
   3  -2   7   29.12    1.22
   3  -2   7   27.62    1.50
   3   2   7   27.45    1.38
   3   2   7   26.69    1.45
   3   2   7   26.42    1.50
   4  -2   7    9.75    0.84
   4  -2   7   11.33    1.11
   4  -2   7   10.32    1.17
   4  -2   7    9.56    0.73
   4   2   7    9.88    0.92
   4   2   7    7.80    0.85
   4   2   7    8.81    0.98
   5  -2   7    3.57    0.74
   5  -2   7    3.57    0.60
   5  -2   7    3.22    0.60
   5  -2   7    3.53    0.80
   5   2   7    3.57    0.72
   5   2   7    2.06    0.58
   5   2   7    3.75    0.68
   6  -2   7   30.80    2.03
   6  -2   7   26.02    1.58
   6  -2   7   31.63    1.87
   6   2   7   30.99    1.96
   6   2   7   27.99    1.73
   6   2   7   29.75    1.88
   7  -2   7   12.43    1.16
   7  -2   7   11.70    1.45
   7  -2   7   14.68    1.57
   7   2   7   14.45    1.57
   7   2   7   12.67    1.49
   8  -2   7   16.77    1.50
   8   2   7   13.40    1.64
   9  -2   7   17.71    1.70
   9   2   7   12.30    1.69
  10  -2   7    5.64    1.18
  10   2   7    6.03    1.35
  -9  -3   7    6.82    1.16
   9   3  -7    6.58    1.37
  -8  -3   7   59.43    3.40
  -8  -3   7   62.29    2.90
  -8  -3   7   59.51    3.00
   8  -3  -7   58.65    3.00
   8   3  -7   59.53    3.41
  -8   3   7   59.68    3.01
   8   3  -7   60.67    3.09
  -7  -3   7    4.98    0.80
   7  -3  -7    4.19    0.84
  -7  -3   7    5.28    1.07
  -7  -3   7    5.74    0.89
  -7   3   7    4.43    0.72
  -7   3   7    6.02    0.90
   7   3  -7    5.59    1.02
   7   3  -7    3.69    0.76
  -6  -3   7   55.24    2.57
  -6  -3   7   54.81    2.88
   6  -3  -7   54.57    2.43
  -6  -3   7   55.29    2.45
   6   3  -7   56.44    2.72
  -6   3   7   54.98    2.35
   6   3  -7   53.87    2.43
  -6   3   7   59.57    2.60
   5  -3  -7   11.95    0.90
  -5  -3   7   13.16    1.00
  -5  -3   7   13.55    0.99
  -5  -3   7   12.75    1.19
   5  -3  -7   12.28    1.03
   5   3  -7   12.37    1.07
   5   3  -7   12.40    0.94
  -5   3   7   11.67    0.88
  -5   3   7   12.13    0.95
  -5   3   7   11.23    0.82
  -4  -3   7   46.37    1.98
  -4  -3   7   47.39    2.35
   4  -3  -7   46.97    2.00
   4  -3  -7   45.76    1.82
  -4  -3   7   47.53    2.08
   4   3  -7   49.77    2.14
  -4   3   7   48.88    1.89
   4   3  -7   49.43    1.93
  -4   3   7   47.76    2.01
  -4   3   7   46.17    1.86
  -3  -3   7  310.51    9.01
   3  -3  -7  308.04    8.74
  -3  -3   7  295.34   10.08
   3  -3  -7  308.67    9.41
  -3  -3   7  305.31    9.59
   3  -3  -7  288.93    8.78
  -3   3   7  297.59    9.43
   3   3  -7  304.74    9.57
  -3   3   7  296.14    9.44
  -3   3   7  295.07    9.28
  -3   3   7  306.83    8.79
   3   3  -7  307.22    8.87
  -3   3   7  292.17    9.58
  -2  -3   7   87.67    3.46
  -2  -3   7   83.90    2.97
   2  -3  -7   83.28    2.79
   2  -3  -7   88.59    2.74
   2  -3  -7   88.61    2.95
  -2  -3   7   88.25    3.18
   2   3  -7   85.39    3.13
   2   3  -7   86.27    2.86
  -2   3   7   90.48    2.78
  -2   3   7   87.68    3.00
  -2   3   7   83.19    3.19
  -1  -3   7   70.64    2.91
  -1  -3   7   74.38    2.73
  -1  -3   7   70.70    2.57
   1  -3  -7   67.91    2.37
   1  -3  -7   75.46    2.48
   1   3  -7   72.47    2.59
   1   3  -7   72.74    2.68
  -1   3   7   72.72    2.32
  -1   3   7   69.88    2.52
  -1   3   7   72.34    2.77
   0  -3   7  119.90    4.14
   0  -3  -7  115.43    4.05
   0  -3   7  113.33    4.31
   0  -3   7  116.23    3.90
   0  -3  -7  126.61    3.89
   0  -3  -7  117.70    3.72
   0   3  -7  116.50    4.09
   0   3   7  119.42    3.96
   0   3   7  121.63    4.17
   0   3   7  117.30    3.62
   0   3  -7  118.55    4.03
  -1  -3  -7  140.10    4.33
   1  -3   7  131.36    4.46
   1  -3   7  140.10    4.91
   1  -3   7  137.08    4.72
   1   3   7  137.97    4.72
   1   3   7  134.97    4.57
  -1   3  -7  131.86    4.64
   1   3   7  137.32    4.20
   2  -3   7  181.36    5.78
   2  -3   7  179.42    6.26
  -2  -3  -7  170.06    5.64
   2  -3   7  181.50    6.13
   2   3   7  210.11    6.14
   2   3   7  176.39    5.97
  -2   3  -7  171.84    6.10
   2   3   7  180.01    5.51
   2   3   7  171.18    6.03
   3  -3   7   50.94    2.33
   3  -3   7   48.92    2.28
   3  -3   7   50.88    2.23
  -3   3  -7   49.49    2.32
   3   3   7   47.93    2.22
   3   3   7   55.78    2.08
   3   3   7   48.26    2.20
   4  -3   7   12.12    1.04
   4  -3   7   10.83    1.11
   4  -3   7   10.50    1.14
   4   3   7   10.73    1.15
   4   3   7   13.03    1.08
   4   3   7   11.13    0.92
   5  -3   7   15.64    1.24
   5  -3   7   17.34    1.36
   5  -3   7   19.54    1.53
   5   3   7   16.26    1.31
   5   3   7   15.83    1.32
   6  -3   7  148.98    5.45
   6  -3   7  156.36    5.68
   6  -3   7  150.58    5.82
   6   3   7  150.20    5.71
   6   3   7  138.04    5.59
   7   3   7   19.41    1.67
   8   3   7   11.20    1.55
   9   3   7    9.05    1.51
  11   4  -7   29.27    2.67
  10   4  -7    2.90    1.11
   9   4  -7   39.55    2.63
  -8  -4   7    9.38    1.55
  -7  -4   7    0.49    0.51
   7  -4  -7    0.88    0.57
  -7  -4   7    0.95    0.51
  -7  -4   7    0.58    0.63
   7   4  -7    1.33    0.65
   7   4  -7    0.52    0.65
  -7   4   7    0.44    0.46
  -7   4   7    0.76    0.48
  -6  -4   7   67.95    3.36
  -6  -4   7   65.43    2.93
   6  -4  -7   66.74    2.85
  -6  -4   7   70.02    2.85
  -6   4   7   64.77    2.90
  -6   4   7   69.47    2.82
   6   4  -7   68.65    2.86
   6   4  -7   66.29    3.12
  -5  -4   7    0.78    0.42
  -5  -4   7    0.04    0.47
  -5  -4   7    0.24    0.32
   5  -4  -7   -0.24    0.27
  -5   4   7    0.05    0.27
   5   4  -7    0.31    0.38
  -5   4   7    0.56    0.32
   5   4  -7    0.34    0.32
  -4  -4   7    6.43    0.73
   4  -4  -7    8.21    0.66
  -4  -4   7    9.03    0.81
  -4  -4   7    9.40    1.13
   4   4  -7    6.92    0.79
   4   4  -7    7.00    0.66
  -4   4   7    9.53    1.06
  -4   4   7    7.48    0.67
   4   4  -7    6.27    0.68
  -4   4   7    7.18    0.68
  -3  -4   7   10.70    1.16
  -3  -4   7    9.68    0.79
  -3  -4   7    9.11    0.80
   3  -4  -7   10.48    0.63
   3   4  -7    9.47    0.80
  -3   4   7    9.30    0.68
  -3   4   7    9.09    0.96
  -3   4   7    8.98    0.68
   3   4  -7   10.44    0.72
   2  -4  -7    7.95    0.52
   2  -4  -7    8.12    0.49
  -2  -4   7    8.08    0.78
  -2  -4   7    8.07    0.71
  -2  -4   7    8.53    0.97
  -2   4   7    7.89    0.88
   2   4  -7    7.56    0.58
  -2   4   7    7.51    0.55
   2   4  -7    6.96    0.67
  -1  -4   7   98.77    3.51
   1  -4  -7   93.47    3.15
  -1  -4   7   97.03    3.33
   1  -4  -7  101.02    3.18
  -1  -4   7   98.77    3.87
  -1   4   7   97.58    3.64
   1   4  -7   96.28    3.14
  -1   4   7   99.39    3.25
   1   4  -7   96.66    3.50
   1   4  -7   97.38    3.46
  -1   4   7   97.92    2.96
   0  -4  -7    0.10    0.29
   0  -4   7    0.06    0.28
   0  -4  -7    0.03    0.14
   0  -4   7    1.30    0.37
   0  -4   7    0.56    0.32
   0   4   7    0.51    0.21
   0   4  -7   -0.06    0.24
   0   4  -7    0.45    0.27
   0   4   7    0.45    0.36
   1  -4   7    9.20    0.80
   1  -4   7    9.86    1.05
  -1  -4  -7   10.46    0.53
   1  -4   7   10.30    0.84
  -1   4  -7    9.21    0.78
   1   4   7   10.81    0.71
   1   4   7   10.18    0.58
  -1   4  -7    9.03    0.77
   1   4   7    9.93    0.86
   2  -4   7    2.07    0.53
   2  -4   7    1.38    0.43
   2  -4   7    2.09    0.51
   2   4   7    1.42    0.46
  -2   4  -7    2.28    0.53
   2   4   7    2.31    0.45
   3  -4   7    0.00    0.36
   3  -4   7    0.54    0.39
   3  -4   7    0.78    0.44
  -3   4  -7   -0.02    0.31
   3   4   7    0.06    0.28
   3   4   7   -0.22    0.30
   4  -4   7   30.56    1.77
   4  -4   7   31.49    1.85
   4  -4   7   33.07    1.90
   4   4   7   31.07    1.84
  -4   4  -7   30.81    1.92
   4   4   7   31.75    1.74
   5  -4   7    5.64    0.91
   5  -4   7    6.37    0.91
   5   4   7    4.44    0.81
  -5   4  -7    3.11    0.82
   5   4   7    5.59    0.97
   6  -4   7    7.83    1.10
   6  -4   7   10.53    1.28
  -6   4  -7    7.67    1.25
   6   4   7    7.73    1.19
   6   4   7    9.56    1.20
   7   4   7    7.09    1.26
   8   4   7    0.03    0.75
   9   4   7   17.38    2.03
  10   5  -7    6.97    1.52
   9   5  -7    7.98    1.42
   8   5  -7    1.52    0.80
  -7  -5   7    3.59    0.93
  -7  -5   7    3.82    0.78
   7  -5  -7    4.45    0.86
  -7   5   7    2.77    0.69
   7   5  -7    3.87    0.86
   7   5  -7    3.96    0.95
  -7   5   7    4.59    0.84
  -6  -5   7    0.59    0.64
   6  -5  -7    0.16    0.43
  -6  -5   7    0.53    0.39
  -6   5   7    0.51    0.45
  -6   5   7   -0.08    0.33
   6   5  -7    0.41    0.54
   6   5  -7    0.11    0.43
  -5  -5   7   29.67    1.61
   5  -5  -7   29.23    1.57
  -5  -5   7   28.11    1.96
  -5   5   7   31.59    1.61
  -5   5   7   30.53    1.61
   5   5  -7   27.80    1.75
   4  -5  -7   19.33    1.06
  -4  -5   7   19.72    1.54
  -4  -5   7   19.97    1.25
  -4  -5   7   19.93    1.22
  -4   5   7   20.05    1.14
  -4   5   7   22.75    1.48
   4   5  -7   18.45    1.27
  -4   5   7   20.19    1.18
   4   5  -7   19.65    1.19
  -3  -5   7    2.53    0.52
  -3  -5   7    3.17    0.70
   3  -5  -7    2.27    0.34
  -3  -5   7    2.26    0.46
  -3   5   7    1.77    0.53
   3   5  -7    2.23    0.48
   3   5  -7    1.83    0.39
  -3   5   7    1.72    0.33
  -3   5   7    1.44    0.39
  -2  -5   7   14.35    1.26
   2  -5  -7   13.43    0.64
  -2  -5   7   12.51    0.90
  -2  -5   7   13.13    0.92
   2   5  -7   11.76    0.76
  -2   5   7   13.31    0.71
  -2   5   7   13.87    1.11
   2   5  -7   13.80    0.92
  -1  -5   7    0.18    0.24
  -1  -5   7    0.06    0.28
  -1  -5   7    0.22    0.35
  -1   5   7    0.16    0.33
   1   5  -7    0.30    0.22
   1   5  -7    0.55    0.35
   1   5  -7    0.33    0.28
  -1   5   7   -0.02    0.14
   0  -5   7   35.72    1.98
   0  -5   7   34.27    1.60
   0  -5   7   34.17    1.58
   0   5   7   33.02    1.31
   0   5  -7   33.08    1.68
   0   5  -7   33.08    1.56
   0   5   7   35.76    1.80
   1  -5   7    8.81    1.10
   1  -5   7    8.85    0.80
   1  -5   7    9.10    0.88
  -1   5  -7    8.75    0.82
  -1   5  -7    8.41    0.76
   1   5   7    7.90    0.58
   1   5   7    8.19    0.95
   2  -5   7   13.07    1.25
   2  -5   7   13.69    1.05
  -2   5  -7   13.66    1.10
   2   5   7   13.13    0.86
   2   5   7   13.88    1.13
   3  -5   7   16.35    1.40
   3  -5   7   15.57    1.21
  -3   5  -7   16.42    1.31
   3   5   7   15.67    1.05
   3   5   7   16.11    1.28
   4  -5   7    0.79    0.51
   4  -5   7    2.46    0.75
  -4   5  -7   -0.05    0.52
   4   5   7    1.25    0.44
   4   5   7    0.58    0.48
   5  -5   7   15.07    1.43
   5  -5   7   15.43    1.48
   5   5   7   14.23    1.25
   5   5   7   11.77    1.46
  -5   5  -7   12.43    1.51
   6  -5   7    2.70    0.80
   6   5   7    1.16    0.71
   7   5   7    3.00    1.02
   8   5   7    4.99    1.28
   9   5   7   -0.35    0.90
   7  -6  -7    2.26    0.80
  -7   6   7    3.32    0.75
  -6  -6   7   33.18    1.88
  -6  -6   7   33.25    2.41
   6  -6  -7   34.78    1.87
  -6   6   7   37.11    1.90
   6   6  -7   35.27    2.23
  -6   6   7   33.35    1.95
  -5  -6   7    0.82    0.60
   5  -6  -7    0.43    0.40
  -5  -6   7    0.64    0.44
  -5   6   7    0.82    0.39
  -5   6   7    0.73    0.42
   5   6  -7    0.22    0.44
  -4  -6   7    3.63    0.62
  -4  -6   7    4.74    0.99
   4  -6  -7    2.55    0.51
   4   6  -7    3.45    0.69
  -4   6   7    3.01    0.60
  -4   6   7    3.78    0.52
  -4   6   7    4.02    0.80
   3  -6  -7    1.86    0.34
  -3  -6   7    0.90    0.38
  -3  -6   7    0.81    0.56
  -3   6   7    0.83    0.39
  -3   6   7    0.72    0.53
   3   6  -7    1.71    0.47
  -2  -6   7    5.54    0.68
   2  -6  -7    5.33    0.39
  -2  -6   7    5.22    0.94
  -2   6   7    6.01    0.90
   2   6  -7    4.69    0.64
  -1  -6   7   39.95    1.75
   1  -6  -7   38.95    1.29
  -1  -6   7   42.19    2.35
  -1   6   7   38.80    2.03
   1   6  -7   38.59    1.75
   0  -6   7    5.69    0.71
   0  -6   7    5.85    0.95
   0   6  -7    5.97    0.83
   0   6  -7    4.80    0.61
   0   6   7    5.26    0.84
   1  -6   7    0.84    0.52
   1  -6   7   -0.24    0.29
  -1   6  -7    0.20    0.36
  -1   6  -7   -0.20    0.27
   1   6   7    0.14    0.16
   1   6   7    0.09    0.38
   2  -6   7    0.00    0.34
   2  -6   7    0.02    0.47
   2   6   7    0.76    0.53
   2   6   7    0.66    0.26
  -2   6  -7    0.51    0.35
  -2   6  -7    0.73    0.44
   3  -6   7    5.43    1.02
   3  -6   7    4.62    0.78
   3   6   7    4.14    0.59
   3   6   7    3.26    0.75
  -3   6  -7    3.49    0.79
   4  -6   7   11.10    1.40
   4  -6   7   14.56    1.27
   4   6   7   15.38    1.12
   4   6   7   15.01    1.58
  -4   6  -7   12.16    1.43
   5  -6   7    3.41    0.95
   5   6   7    3.96    0.71
  -5   6  -7    3.91    1.02
   5   6   7    4.02    0.95
   6   6   7    0.13    0.72
   7   6   7    0.13    0.87
   8   6   7   -0.50    0.84
  -5  -7   7   30.90    2.30
  -5  -7   7   33.31    1.84
  -5   7   7   33.35    1.92
   5   7  -7   32.38    2.03
  -4  -7   7    7.24    0.88
  -4  -7   7    8.42    1.38
   4   7  -7    7.54    0.99
  -4   7   7    8.41    1.02
  -4   7   7    8.23    1.16
  -3  -7   7   13.05    1.63
  -3  -7   7   14.34    1.03
   3   7  -7   13.15    1.08
  -3   7   7   11.72    1.31
  -2  -7   7   40.43    1.86
  -2  -7   7   46.62    2.69
  -2   7   7   42.15    2.29
   2   7  -7   42.51    1.97
  -1  -7   7    6.58    1.12
  -1  -7   7    6.46    0.75
  -1   7   7    5.04    0.91
   1   7  -7    4.78    0.65
   0  -7   7   93.60    3.34
   0  -7   7   93.48    4.25
   0   7   7   86.07    3.80
   0   7  -7   99.00    3.90
   0   7  -7   96.01    3.44
   1  -7   7    5.73    1.05
   1  -7   7    5.60    0.74
  -1   7  -7    3.64    0.76
  -1   7  -7    4.84    0.65
   1   7   7    5.36    0.94
   2  -7   7    4.17    0.94
   2  -7   7    5.64    0.79
   2   7   7    5.97    0.94
  -2   7  -7    4.31    0.85
  -2   7  -7    3.87    0.64
   3  -7   7   58.99    2.61
   3  -7   7   64.33    3.35
  -3   7  -7   60.03    3.06
   3   7   7   59.58    2.97
  -3   7  -7   59.14    2.63
   4   7   7    0.71    0.64
   5   7   7   32.79    2.36
   6   7   7    8.41    1.46
   7   7   7    0.61    0.95
   4   8  -7   12.07    1.41
  -4   8   7   14.43    1.32
  -3  -8   7   43.20    1.99
  -3   8   7   42.03    2.45
   3   8  -7   43.60    2.16
  -2  -8   7   16.16    1.14
  -2   8   7   18.87    1.57
   2   8  -7   19.19    1.26
  -1  -8   7    1.99    0.50
  -1  -8   7    1.36    0.78
   1   8  -7    2.03    0.50
  -1   8   7    0.84    0.64
   0  -8   7   16.64    2.04
   0  -8   7   18.10    1.18
   0   8  -7   20.31    1.20
   0   8   7   16.33    1.50
   1  -8   7   15.65    1.13
   1   8   7   15.56    1.58
  -1   8  -7   13.79    1.03
  -1   8  -7   14.42    1.41
   2  -8   7   16.59    1.23
  -2   8  -7   14.45    1.73
   2   8   7   15.27    1.62
  -2   8  -7   15.61    1.12
   3   8   7   17.42    1.80
   4   8   7   -0.64    0.59
   5   8   7    7.36    1.40
   6   8   7   27.13    2.41
  -3   9   7   35.08    2.33
  -2   9   7   23.74    1.86
  -1   9   7    4.81    1.04
   0   9   7   35.68    2.31
   1   9   7   13.25    1.59
   2   9   7   20.40    1.76
   3   9   7   19.14    1.97
   4   9   7    3.39    1.07
   5   9   7    9.58    1.56
  -3  10   7   -0.09    0.72
  -2  10   7    9.08    1.42
  -1  10   7   20.39    1.87
   0  10   7    2.90    0.94
   1  10   7    0.91    0.84
   2  10   7   -0.52    0.67
   3  10   7    3.54    1.13
   9   0  -8   68.66    3.95
   8   0  -8   47.77    2.96
   8   0  -8   51.53    2.72
  -8   0   8   46.78    2.59
   7   0  -8   18.50    1.41
   7   0  -8   17.38    1.56
  -7   0   8   15.82    1.32
  -7   0   8   16.12    1.24
  -6   0   8   39.48    1.92
   6   0  -8   42.25    2.19
   6   0  -8   42.13    1.97
  -6   0   8   43.04    2.53
  -6   0   8   37.36    2.02
   5   0  -8   23.23    1.42
  -5   0   8   23.08    1.74
  -5   0   8   24.85    1.35
   5   0  -8   27.04    1.36
  -5   0   8   25.31    1.45
   4   0  -8  110.20    3.68
   4   0  -8  114.48    4.04
  -4   0   8  110.28    4.02
  -4   0   8  114.57    3.78
  -4   0   8  110.26    4.47
   3   0  -8   41.17    1.61
  -3   0   8   40.38    2.02
  -3   0   8   40.43    1.67
   3   0  -8   39.90    1.75
  -3   0   8   38.98    1.77
  -2   0   8    2.23    0.35
  -2   0   8    1.59    0.42
  -2   0   8    1.65    0.36
  -2   0   8    1.69    0.36
   2   0  -8    1.32    0.32
   1   0  -8   22.68    1.18
  -1   0   8   24.41    1.17
  -1   0   8   25.70    1.28
  -1   0   8   25.06    1.09
  -1   0   8   23.48    1.24
   0   0   8   88.10    3.00
   0   0  -8   85.97    3.06
   0   0   8   90.85    3.15
   0   0  -8   82.76    3.14
   0   0   8   87.29    3.22
   0   0   8   88.98    2.97
   1   0   8   58.12    2.27
   1   0   8   57.28    2.42
   1   0   8   59.34    2.18
   1   0   8   62.14    2.22
   2   0   8   61.63    2.63
   2   0   8   63.89    2.39
   2   0   8   63.78    2.47
   2   0   8   65.40    2.28
   3   0   8    1.92    0.42
   3   0   8    2.66    0.32
   3   0   8    3.37    0.58
   3   0   8    2.71    0.56
   4   0   8   44.52    1.98
   4   0   8   43.47    2.25
   4   0   8   43.36    2.09
   5   0   8   59.96    2.68
   5   0   8   63.09    2.96
   5   0   8   58.42    2.58
   6   0   8   40.88    2.12
   6   0   8   40.02    2.19
   6   0   8   41.63    2.43
   7   0   8   24.48    1.77
   7   0   8   23.54    1.68
   7   0   8   25.90    1.98
   8   0   8   10.91    1.38
   9   0   8   27.84    2.09
   9   1  -8   19.91    2.30
   8  -1  -8   12.20    1.60
   8  -1  -8   12.39    1.47
  -8  -1   8    9.99    1.22
  -8  -1   8   12.13    1.43
  -8   1   8   10.71    1.31
   8   1  -8    8.86    1.43
   8   1  -8    8.93    1.32
   7  -1  -8   14.70    1.55
   7  -1  -8   14.74    1.27
  -7  -1   8   15.47    1.24
  -7  -1   8   18.12    1.69
  -7  -1   8   16.66    1.31
   7   1  -8   15.72    1.29
  -7   1   8   14.82    1.21
  -7   1   8   15.38    1.30
   7   1  -8   16.04    1.67
   6  -1  -8   78.22    3.33
  -6  -1   8   78.61    3.07
   6  -1  -8   75.02    2.98
  -6  -1   8   76.89    3.64
  -6  -1   8   72.51    3.19
   6   1  -8   79.92    3.37
   6   1  -8   77.53    3.03
  -6   1   8   76.50    2.99
  -6   1   8   76.78    3.21
   5  -1  -8    2.51    0.51
  -5  -1   8    2.05    0.51
   5  -1  -8    1.98    0.53
  -5  -1   8    2.53    0.50
  -5  -1   8    2.95    0.70
   5   1  -8    3.01    0.54
  -5   1   8    1.93    0.45
  -5   1   8    2.09    0.51
  -5   1   8    2.19    0.34
   5   1  -8    1.94    0.54
  -4  -1   8   35.85    1.73
   4  -1  -8   34.30    1.51
   4  -1  -8   35.10    1.68
  -4  -1   8   37.16    1.99
  -4  -1   8   38.39    1.66
  -4   1   8   36.12    1.58
  -4   1   8   34.93    1.29
  -4   1   8   34.78    1.68
  -4   1   8   37.95    2.12
   4   1  -8   35.33    1.55
   4   1  -8   35.46    1.73
  -3  -1   8  167.30    4.99
   3  -1  -8  161.35    5.40
  -3  -1   8  167.57    5.19
   3  -1  -8  165.18    5.02
  -3  -1   8  161.80    5.50
  -3  -1   8  167.67    5.89
   3   1  -8  165.49    5.48
  -3   1   8  162.91    5.08
   3   1  -8  157.18    5.03
  -3   1   8  156.94    5.43
  -3   1   8  166.52    6.00
  -3   1   8  159.75    5.40
  -2  -1   8    1.48    0.41
  -2  -1   8    1.02    0.36
   2  -1  -8    1.06    0.29
  -2  -1   8    1.60    0.36
   2   1  -8    1.32    0.36
  -2   1   8    1.19    0.29
  -2   1   8    1.38    0.44
  -2   1   8    1.66    0.36
  -2   1   8    1.34    0.31
  -1  -1   8  226.15    7.61
  -1  -1   8  230.76    6.96
   1  -1  -8  213.61    7.59
   1  -1  -8  229.88    7.00
  -1  -1   8  227.00    7.43
  -1  -1   8  232.76    7.05
   1  -1  -8  225.49    7.29
  -1   1   8  227.85    7.62
  -1   1   8  239.99    7.28
   1   1  -8  225.79    7.38
  -1   1   8  238.01    6.88
  -1   1   8  236.45    7.39
   0  -1   8   29.31    1.48
   0  -1  -8   28.77    1.21
   0  -1  -8   28.27    1.37
   0  -1   8   29.94    1.40
   0  -1   8   30.18    1.40
   0  -1   8   30.81    1.17
   0   1   8   29.38    1.43
   0   1   8   31.31    1.37
   0   1   8   31.43    1.36
   0   1  -8   27.16    1.43
   0   1  -8   29.30    1.14
   0   1   8   30.61    1.33
   1  -1   8   19.25    1.02
   1  -1   8   19.34    0.89
   1  -1   8   19.52    1.12
   1  -1   8   18.80    1.17
   1   1   8   17.64    1.02
   1   1   8   18.75    1.04
   1   1   8   19.53    0.86
   2  -1   8  118.77    3.76
   2  -1   8  109.80    3.88
   2  -1   8  111.49    3.90
   2  -1   8  110.06    4.14
   2   1   8  112.70    3.81
   2   1   8  112.06    4.10
   2   1   8  111.16    3.91
   3  -1   8   15.60    0.90
   3  -1   8   14.34    1.08
   3  -1   8   13.24    0.85
   3  -1   8   14.75    1.18
   3   1   8   15.70    1.01
   3   1   8   15.48    1.07
   3   1   8   14.94    1.16
   4  -1   8   27.78    1.75
   4  -1   8   25.88    1.56
   4  -1   8   27.19    1.38
   4  -1   8   25.66    1.28
   4   1   8   26.37    1.48
   4   1   8   28.22    1.68
   4   1   8   26.24    1.51
   5  -1   8   35.04    1.71
   5  -1   8   33.49    1.89
   5  -1   8   30.26    1.96
   5   1   8   32.93    1.99
   5   1   8   33.21    1.82
   5   1   8   33.10    1.82
   6  -1   8    1.52    0.62
   6  -1   8    0.73    0.62
   6  -1   8    1.77    0.59
   6   1   8    1.05    0.55
   6   1   8    1.25    0.59
   6   1   8    0.60    0.49
   7  -1   8   28.06    1.92
   7  -1   8   28.10    1.76
   7  -1   8   26.97    2.08
   7   1   8   28.70    1.94
   7   1   8   28.62    1.88
   8  -1   8    4.25    0.94
   8   1   8    4.54    1.05
   9  -1   8    2.27    0.86
   9   1   8    1.17    0.87
   9   2  -8    1.69    0.96
  -8  -2   8   11.99    1.39
  -8  -2   8   11.12    1.68
   8  -2  -8    9.69    1.33
  -8  -2   8   12.88    1.40
  -8   2   8   11.29    1.34
   8   2  -8   11.14    1.44
   8   2  -8   11.94    1.65
  -7  -2   8   68.58    2.96
   7  -2  -8   68.87    3.04
  -7  -2   8   71.41    3.15
  -7  -2   8   70.68    3.56
   7   2  -8   69.52    3.36
   7   2  -8   64.73    2.97
  -7   2   8   70.19    3.14
  -6  -2   8    7.94    0.98
  -6  -2   8    8.63    1.20
   6  -2  -8    6.27    0.97
  -6  -2   8    7.21    0.88
   6  -2  -8    7.17    0.89
   6   2  -8    8.59    0.98
  -6   2   8    7.83    0.85
  -6   2   8    7.88    0.69
   6   2  -8    7.08    1.01
  -6   2   8    7.41    0.88
  -5  -2   8    5.81    0.79
   5  -2  -8    4.99    0.72
  -5  -2   8    4.67    0.88
  -5  -2   8    4.12    0.64
   5  -2  -8    4.68    0.64
   5   2  -8    5.41    0.70
  -5   2   8    4.23    0.61
  -5   2   8    5.05    0.53
  -5   2   8    4.64    0.69
   5   2  -8    6.48    0.87
  -4  -2   8    2.69    0.52
  -4  -2   8    5.34    0.87
  -4  -2   8    4.02    0.60
   4  -2  -8    2.56    0.43
   4  -2  -8    2.62    0.48
  -4   2   8    2.66    0.44
  -4   2   8    3.41    0.37
   4   2  -8    3.00    0.55
  -4   2   8    2.97    0.50
   4   2  -8    2.75    0.47
   3  -2  -8   35.56    1.52
  -3  -2   8   32.46    1.61
   3  -2  -8   33.07    1.37
  -3  -2   8   33.90    1.55
  -3  -2   8   32.16    1.77
  -3  -2   8   34.93    1.24
   3   2  -8   35.77    1.63
   3   2  -8   33.28    1.44
  -3   2   8   33.78    1.59
  -3   2   8   32.29    1.52
  -3   2   8   34.21    1.24
  -3   2   8   33.12    1.42
  -2  -2   8   77.43    2.77
  -2  -2   8   77.22    2.94
   2  -2  -8   73.66    2.62
   2  -2  -8   77.05    2.75
  -2  -2   8   76.01    3.11
   2   2  -8   80.31    2.66
  -2   2   8   79.78    2.91
   2   2  -8   77.54    2.91
  -2   2   8   77.93    2.82
  -2   2   8   77.45    2.61
  -1  -2   8   10.87    0.82
   1  -2  -8   10.84    0.70
  -1  -2   8   10.24    0.79
   1  -2  -8   10.13    0.76
   1  -2  -8   12.33    0.58
  -1  -2   8   11.26    0.88
   1  -2  -8   11.43    0.71
  -1   2   8   11.73    0.83
   1   2  -8   11.06    0.57
   1   2  -8   10.52    0.80
  -1   2   8   11.27    0.76
  -1   2   8   11.19    0.69
   0  -2  -8    2.79    0.41
   0  -2  -8    2.82    0.44
   0  -2   8    2.63    0.47
   0  -2  -8    2.75    0.33
   0  -2   8    3.46    0.54
   0  -2  -8    3.28    0.36
   0  -2   8    2.25    0.47
   0   2   8    2.48    0.43
   0   2   8    2.88    0.40
   0   2  -8    2.61    0.47
   0   2  -8    3.13    0.36
   0   2   8    2.35    0.45
   1  -2   8    0.36    0.32
   1  -2   8    0.07    0.25
   1  -2   8    0.28    0.29
   1   2   8    0.33    0.29
  -1   2  -8    0.08    0.21
   1   2   8    0.17    0.24
   1   2   8    0.25    0.21
   2  -2   8   20.08    1.18
   2  -2   8   21.77    1.28
   2  -2   8   22.40    0.97
   2  -2   8   20.90    1.32
   2   2   8   20.79    1.20
   2   2   8   20.57    1.12
   2   2   8   21.20    1.25
   3  -2   8   89.22    3.00
   3  -2   8   83.29    3.27
   3  -2   8   88.49    3.30
   3  -2   8   88.77    3.52
   3   2   8   84.89    3.31
   3   2   8   85.19    3.13
   3   2   8   82.64    3.39
   4  -2   8   16.02    1.22
   4  -2   8   16.89    1.07
   4  -2   8   16.47    0.96
   4  -2   8   15.16    1.30
   4   2   8   15.69    1.12
   4   2   8   15.21    1.17
   4   2   8   13.24    1.17
   5  -2   8    3.00    0.80
   5  -2   8    2.99    0.56
   5  -2   8    2.81    0.67
   5   2   8    2.75    0.72
   5   2   8    1.44    0.53
   5   2   8    3.14    0.66
   6  -2   8    3.08    0.64
   6  -2   8    2.26    0.79
   6  -2   8    2.43    0.72
   6   2   8    2.97    0.75
   6   2   8    3.66    0.80
   7  -2   8    2.50    0.85
   7  -2   8    2.05    0.63
   7   2   8    1.55    0.74
   8  -2   8   24.07    1.75
   8   2   8   24.39    1.98
   9   2   8    4.34    1.15
  -8  -3   8    2.19    0.94
   8  -3  -8    2.30    0.84
  -8  -3   8    2.48    0.77
  -8  -3   8    2.29    0.69
  -8   3   8    2.14    0.67
   8   3  -8    3.06    1.03
   8   3  -8    3.32    0.96
  -7  -3   8    0.29    0.58
  -7  -3   8    0.57    0.48
  -7  -3   8   -0.35    0.39
   7  -3  -8    0.03    0.46
   7   3  -8   -0.01    0.53
   7   3  -8    0.42    0.50
  -7   3   8    0.01    0.38
  -6  -3   8   22.18    1.70
  -6  -3   8   20.31    1.35
  -6  -3   8   21.84    1.47
   6  -3  -8   17.25    1.27
  -6   3   8   20.64    1.18
   6   3  -8   19.91    1.55
   6   3  -8   20.53    1.37
  -6   3   8   20.20    1.38
  -5  -3   8    2.41    0.54
   5  -3  -8    2.47    0.51
  -5  -3   8    1.91    0.55
  -5  -3   8    1.71    0.60
  -5   3   8    1.93    0.39
  -5   3   8    2.34    0.50
   5   3  -8    2.00    0.56
   5   3  -8    1.49    0.44
   4  -3  -8    2.98    0.47
  -4  -3   8    3.59    0.74
   4  -3  -8    2.63    0.50
  -4  -3   8    2.52    0.49
  -4  -3   8    3.18    0.58
  -4   3   8    3.36    0.52
   4   3  -8    3.50    0.62
  -4   3   8    3.23    0.40
   4   3  -8    2.91    0.49
  -4   3   8    3.34    0.48
  -3  -3   8    9.29    1.06
  -3  -3   8    8.47    0.87
   3  -3  -8    9.35    0.64
   3  -3  -8    9.33    0.69
  -3  -3   8    9.88    0.80
  -3   3   8    9.48    0.66
  -3   3   8   10.15    0.74
   3   3  -8    8.97    0.81
   3   3  -8    9.48    0.71
  -3   3   8    9.02    0.57
  -3   3   8    9.08    0.86
  -2  -3   8   -0.21    0.25
  -2  -3   8   -0.09    0.25
  -2  -3   8    0.44    0.36
   2  -3  -8    0.01    0.19
   2  -3  -8   -0.16    0.17
   2  -3  -8    1.40    0.31
  -2  -3   8    0.10    0.17
  -2   3   8    0.09    0.21
   2   3  -8    0.17    0.28
   2   3  -8    0.09    0.24
  -2   3   8   -0.06    0.17
  -2   3   8    0.16    0.27
  -1  -3   8   14.16    0.94
   1  -3  -8   14.34    0.81
  -1  -3   8   13.95    0.98
  -1  -3   8   15.71    1.09
   1  -3  -8   14.77    0.78
   1   3  -8   13.67    0.79
  -1   3   8   14.71    1.00
  -1   3   8   14.76    0.86
  -1   3   8   14.93    0.76
   1   3  -8   14.99    0.98
   0  -3  -8    2.81    0.42
   0  -3  -8    3.05    0.40
   0  -3   8    3.32    0.58
   0  -3  -8    3.97    0.45
   0  -3   8    4.01    0.60
   0  -3   8    4.04    0.60
   0   3   8    4.01    0.62
   0   3   8    3.20    0.39
   0   3  -8    2.66    0.49
   0   3   8    3.57    0.48
   0   3  -8    3.25    0.45
   1  -3   8    4.80    0.67
   1  -3   8    5.31    0.72
   1  -3   8    4.41    0.64
   1   3   8    3.57    0.52
   1   3   8    4.00    0.64
  -1   3  -8    4.95    0.59
   1   3   8    5.29    0.54
   2  -3   8   13.55    1.10
   2  -3   8   17.41    1.14
   2  -3   8   15.07    1.09
   2   3   8   14.48    0.90
   2   3   8   16.16    1.05
   2   3   8   14.16    1.06
  -2   3  -8   14.81    1.04
   3  -3   8    1.17    0.51
   3  -3   8    0.85    0.42
   3  -3   8    0.99    0.43
   3   3   8    0.82    0.36
   3   3   8    0.66    0.40
  -3   3  -8    0.53    0.41
   3   3   8    1.25    0.43
   4  -3   8    2.69    0.59
   4  -3   8    3.10    0.72
   4  -3   8    2.40    0.62
   4   3   8    2.86    0.63
   4   3   8    3.56    0.75
   5  -3   8    3.15    0.80
   5  -3   8    1.34    0.50
   5  -3   8    1.44    0.60
   5   3   8    1.53    0.58
   5   3   8    1.98    0.61
   6  -3   8    1.72    0.74
   6  -3   8    0.72    0.62
   6   3   8    2.63    0.78
   6   3   8    2.19    0.67
   7   3   8    5.50    1.13
   8   3   8   -1.03    0.62
   9   3   8    1.80    0.99
  10   4  -8   18.54    2.12
  -7  -4   8   77.40    3.27
   7  -4  -8   73.56    3.34
  -7  -4   8   80.89    3.45
  -7  -4   8   76.15    3.89
  -7   4   8   80.36    3.43
   7   4  -8   79.44    3.74
   7   4  -8   69.77    3.56
  -6  -4   8    2.92    0.70
  -6  -4   8    3.09    0.68
   6  -4  -8    3.52    0.69
  -6  -4   8    2.00    0.77
  -6   4   8    2.95    0.63
   6   4  -8    2.31    0.63
  -6   4   8    3.44    0.59
   6   4  -8    2.74    0.75
   5  -4  -8    7.04    0.78
  -5  -4   8    8.76    0.98
  -5  -4   8    9.31    1.24
  -5  -4   8    7.08    0.87
   5   4  -8    8.09    0.88
  -5   4   8    6.95    0.73
   5   4  -8    6.26    0.88
  -5   4   8    9.10    0.84
  -4  -4   8    0.52    0.47
  -4  -4   8   -0.04    0.34
  -4  -4   8    0.22    0.31
   4  -4  -8    0.48    0.29
   4   4  -8    0.38    0.32
  -4   4   8    0.82    0.47
  -4   4   8    1.00    0.31
  -4   4   8    0.55    0.30
   4   4  -8    0.76    0.41
  -3  -4   8   18.72    1.15
   3  -4  -8   17.78    0.89
  -3  -4   8   19.32    1.43
  -3  -4   8   19.01    1.17
   3   4  -8   17.20    1.00
  -3   4   8   18.09    1.00
  -3   4   8   17.69    0.95
  -3   4   8   19.52    1.29
   3   4  -8   16.98    1.13
   2  -4  -8  102.07    3.13
  -2  -4   8   99.26    3.46
  -2  -4   8  106.19    4.08
  -2  -4   8   94.69    3.61
   2   4  -8   97.08    3.60
  -2   4   8  100.56    3.41
   2   4  -8   99.30    3.29
  -2   4   8   95.53    3.75
  -1  -4   8   13.63    0.97
  -1  -4   8   14.78    1.00
  -1  -4   8   13.36    1.16
  -1   4   8   14.52    0.81
  -1   4   8   13.62    1.07
   1   4  -8   13.10    0.93
   1   4  -8   14.42    0.90
   0  -4   8    4.59    0.64
   0  -4   8    4.51    0.73
   0  -4   8    4.19    0.60
   0   4   8    5.13    0.53
   0   4  -8    6.04    0.73
   0   4  -8    4.45    0.59
   0   4   8    6.56    0.85
   1  -4   8    2.31    0.55
   1  -4   8    3.71    0.59
   1  -4   8    3.70    0.63
  -1   4  -8    3.29    0.57
   1   4   8    2.85    0.58
   1   4   8    3.06    0.46
  -1   4  -8    2.76    0.51
   2  -4   8    5.03    0.72
   2  -4   8    5.61    0.82
   2  -4   8    6.24    0.79
   2   4   8    5.49    0.64
  -2   4  -8    4.70    0.70
   2   4   8    5.20    0.78
   3  -4   8  102.20    3.94
   3  -4   8   92.45    3.59
   3  -4   8   91.68    3.74
   3   4   8   95.75    3.79
   3   4   8   93.85    3.57
  -3   4  -8   87.98    3.73
   4  -4   8    6.16    0.91
   4  -4   8    5.38    0.89
   4  -4   8    6.44    0.92
  -4   4  -8    6.27    1.01
   4   4   8    5.90    0.81
   4   4   8    6.57    0.99
   5  -4   8    5.55    0.94
   5  -4   8    6.26    0.99
   5   4   8    6.03    1.06
  -5   4  -8    4.01    0.95
   5   4   8    4.86    0.88
   6   4   8    8.22    1.22
  -6   4  -8    7.74    1.35
   7   4   8    1.50    0.87
   8   4   8   36.85    2.65
   9   4   8   -0.72    0.83
   7  -5  -8   24.93    1.78
  -7   5   8   25.84    1.72
  -6  -5   8   27.61    2.05
  -6  -5   8   26.55    1.66
   6  -5  -8   26.90    1.69
  -6   5   8   26.74    1.62
   6   5  -8   28.20    1.91
   5  -5  -8   14.35    1.09
  -5  -5   8   15.30    1.18
  -5  -5   8   16.24    1.57
   5   5  -8   18.30    1.37
  -5   5   8   17.12    1.14
  -5   5   8   16.72    1.11
  -4  -5   8   94.80    3.53
   4  -5  -8   99.71    3.30
  -4  -5   8   96.48    4.23
  -4   5   8  100.59    3.98
  -4   5   8   98.35    3.54
   4   5  -8   95.33    3.77
  -4   5   8   97.33    3.60
   3  -5  -8   76.19    2.54
  -3  -5   8   77.52    3.50
  -3  -5   8   77.46    2.89
  -3  -5   8   75.67    3.00
  -3   5   8   77.56    2.77
   3   5  -8   77.19    3.03
  -3   5   8   75.86    2.89
  -3   5   8   72.38    3.19
   3   5  -8   73.25    2.72
  -2  -5   8    3.07    0.56
  -2  -5   8    2.46    0.67
   2  -5  -8    3.00    0.35
  -2  -5   8    2.50    0.52
  -2   5   8    2.50    0.36
   2   5  -8    3.11    0.47
   2   5  -8    2.08    0.49
  -2   5   8    2.61    0.62
  -1  -5   8   79.04    3.39
  -1  -5   8   76.93    2.93
  -1  -5   8   73.61    2.80
  -1   5   8   75.06    3.13
   1   5  -8   74.14    2.60
   1   5  -8   73.39    2.87
  -1   5   8   73.32    2.58
   0  -5   8  104.80    4.20
   0  -5   8  100.09    3.71
   0  -5   8  100.52    3.56
   0   5  -8   99.01    3.66
   0   5   8   97.41    3.85
   0   5  -8   99.34    3.76
   0   5   8  101.56    3.38
   1  -5   8   49.84    2.16
   1  -5   8   48.93    2.51
   1  -5   8   45.12    2.05
   1   5   8   45.24    2.25
  -1   5  -8   47.46    2.11
  -1   5  -8   43.98    2.14
   1   5   8   47.21    1.86
   2  -5   8   54.42    2.70
   2  -5   8   51.99    2.33
   2   5   8   53.73    2.52
   2   5   8   53.57    2.16
  -2   5  -8   51.13    2.43
   3  -5   8    9.93    1.10
   3  -5   8    8.81    1.13
   3   5   8   11.64    1.28
   3   5   8    9.59    0.88
  -3   5  -8    9.81    1.18
   4  -5   8   14.76    1.33
   4  -5   8   17.26    1.47
  -4   5  -8   16.91    1.50
   4   5   8   16.13    1.22
   4   5   8   15.56    1.40
   5  -5   8   80.56    3.65
   5  -5   8   79.90    3.42
   5   5   8   71.58    3.50
   5   5   8   76.57    3.32
  -5   5  -8   71.06    3.63
   6   5   8    4.55    1.10
   7   5   8   11.64    1.66
   8   5   8    5.98    1.37
  -7   6   8   12.81    1.36
   6  -6  -8   17.05    1.36
  -6   6   8   17.35    1.27
  -5  -6   8   10.77    1.13
   5  -6  -8   14.04    1.12
  -5  -6   8   13.84    1.70
  -5   6   8   13.60    0.99
  -5   6   8   12.35    1.02
   5   6  -8   10.30    1.24
  -4  -6   8   44.10    2.62
  -4  -6   8   43.06    2.05
   4  -6  -8   45.48    1.86
  -4   6   8   43.85    2.07
  -4   6   8   46.22    2.44
  -4   6   8   45.50    1.88
   4   6  -8   41.61    2.17
  -3  -6   8    8.49    0.89
   3  -6  -8    7.70    0.60
  -3  -6   8   10.96    1.43
  -3   6   8    9.27    1.16
   3   6  -8    9.08    0.97
  -2  -6   8    8.45    1.17
  -2  -6   8    6.96    0.80
   2  -6  -8    5.99    0.45
   2   6  -8    7.49    0.84
  -2   6   8    6.78    0.99
   1  -6  -8   18.75    0.77
  -1  -6   8   19.16    1.20
  -1  -6   8   18.11    1.57
   1   6  -8   16.84    1.12
  -1   6   8   18.17    1.37
   0  -6   8   16.80    1.47
   0  -6   8   18.18    1.20
   0   6  -8   18.01    1.27
   0   6   8   18.05    1.34
   0   6  -8   17.16    1.13
   0   6   8   17.42    0.79
   1  -6   8   13.63    1.52
   1  -6   8    9.84    1.00
  -1   6  -8    9.52    0.90
   1   6   8   10.78    1.23
  -1   6  -8    9.73    1.08
   1   6   8   10.34    0.65
   2  -6   8   18.48    1.59
   2  -6   8   17.27    1.27
  -2   6  -8   18.11    1.36
   2   6   8   17.73    0.98
   2   6   8   17.62    1.45
  -2   6  -8   15.36    1.19
   3  -6   8    0.57    0.62
   3  -6   8    2.31    0.67
   3   6   8    1.57    0.63
  -3   6  -8    1.26    0.61
   3   6   8    2.15    0.47
   4  -6   8    8.87    1.30
   4  -6   8    9.55    1.18
   4   6   8    7.42    1.21
  -4   6  -8    8.38    1.21
   4   6   8    8.53    0.93
   5  -6   8   27.94    2.28
   5   6   8   29.67    2.17
   6   6   8   21.03    2.13
   7   6   8    7.93    1.49
   8   6   8    6.00    1.38
  -4  -7   8    1.32    0.49
  -4  -7   8    0.75    0.70
  -4   7   8    1.37    0.52
  -4   7   8    0.86    0.64
   4   7  -8    1.04    0.51
  -3  -7   8   40.57    1.91
  -3  -7   8   42.86    2.66
  -3   7   8   39.04    2.30
   3   7  -8   37.62    1.99
  -2  -7   8    0.54    0.40
  -2  -7   8    0.47    0.64
  -2   7   8    0.20    0.47
   2   7  -8    0.16    0.37
  -1  -7   8   88.59    3.29
  -1  -7   8   94.05    4.26
   1   7  -8   90.37    3.43
  -1   7   8   87.43    3.81
   0  -7   8    1.00    0.62
   0  -7   8    0.19    0.40
   0   7  -8    0.35    0.37
   0   7   8    1.26    0.57
   0   7  -8    1.62    0.54
   1  -7   8    0.50    0.42
   1  -7   8    0.49    0.64
  -1   7  -8    0.58    0.52
  -1   7  -8    0.40    0.37
   1   7   8    0.14    0.53
   2  -7   8   40.46    2.04
   2  -7   8   44.05    2.69
   2   7   8   42.03    2.42
  -2   7  -8   41.88    2.33
  -2   7  -8   43.55    2.08
   3  -7   8    3.31    0.79
   3  -7   8    3.77    1.09
  -3   7  -8    3.55    0.91
   3   7   8    2.79    0.90
  -3   7  -8    4.17    0.76
   4   7   8   16.16    1.78
   5   7   8    2.27    0.95
   6   7   8    9.06    1.54
   7   7   8   14.57    1.96
  -4   8   8    0.02    0.64
  -3   8   8    5.81    1.09
   3   8  -8    5.11    0.83
  -2  -8   8    0.53    0.40
   2   8  -8    0.34    0.42
  -2   8   8    0.71    0.65
  -1  -8   8    0.71    0.41
   1   8  -8    0.05    0.38
  -1   8   8    0.55    0.62
   0  -8   8    1.50    0.50
   0   8  -8    1.51    0.51
   0   8   8    0.66    0.65
   1  -8   8    0.41    0.45
   1   8   8   -0.28    0.57
  -1   8  -8   -0.21    0.35
  -1   8  -8    0.17    0.55
   2   8   8    2.85    0.86
   3   8   8    0.27    0.73
   4   8   8    1.18    0.84
   5   8   8   -1.25    0.73
   6   8   8    0.92    0.98
  -3   9   8   23.57    1.98
  -2   9   8   -0.09    0.64
  -1   9   8   28.95    2.12
   0   9   8    1.59    0.82
   1   9   8    3.67    1.05
   2   9   8   20.84    2.03
   3   9   8    0.87    0.86
   4   9   8   11.15    1.69
   5   9   8    0.38    0.92
  -3  10   8    0.45    0.78
  -2  10   8   16.65    1.93
  -1  10   8    0.21    0.78
   0  10   8    4.51    1.13
   1  10   8    2.92    0.99
   2  10   8    0.62    0.82
   3  10   8    9.56    1.54
   9   0  -9   -0.20    0.91
  -8   0   9    0.68    0.56
  -8   0   9   -0.40    0.37
   8   0  -9    0.84    0.64
   8   0  -9    0.01    0.66
   7   0  -9    0.92    0.51
  -7   0   9   -0.02    0.40
   7   0  -9   -0.22    0.52
  -7   0   9    0.05    0.39
  -6   0   9    0.37    0.42
  -6   0   9   -0.03    0.34
   6   0  -9   -0.50    0.33
   6   0  -9   -0.18    0.41
  -6   0   9    0.03    0.43
   5   0  -9   -0.17    0.27
   5   0  -9   -0.17    0.35
  -5   0   9    0.05    0.32
  -5   0   9    0.02    0.26
  -5   0   9    0.34    0.45
   4   0  -9   -0.28    0.29
  -4   0   9   -0.25    0.24
  -4   0   9    0.02    0.27
   4   0  -9    1.50    0.40
  -4   0   9    0.20    0.39
   3   0  -9   -0.13    0.26
  -3   0   9   -0.24    0.30
  -3   0   9   -0.23    0.27
  -3   0   9    0.05    0.29
   3   0  -9   -0.33    0.20
  -2   0   9    0.10    0.24
  -2   0   9    0.08    0.25
  -2   0   9    0.35    0.31
   2   0  -9   -0.11    0.21
  -2   0   9    0.11    0.19
  -1   0   9    0.04    0.25
  -1   0   9    0.11    0.19
  -1   0   9   -0.10    0.23
  -1   0   9    0.08    0.24
   1   0  -9   -0.36    0.20
   0   0   9    0.37    0.28
   0   0   9    0.55    0.23
   0   0   9    0.15    0.24
   0   0  -9    0.17    0.26
   0   0   9    0.58    0.28
   1   0   9    0.11    0.22
   1   0   9   -0.21    0.26
   1   0   9   -0.11    0.17
   1   0   9    0.20    0.27
   2   0   9    0.04    0.32
   2   0   9    0.00    0.29
   2   0   9    0.12    0.21
   2   0   9    0.12    0.24
   3   0   9    0.92    0.39
   4   0   9    0.08    0.39
   4   0   9    0.00    0.43
   4   0   9    0.46    0.34
   5   0   9    0.18    0.40
   5   0   9    0.51    0.48
   5   0   9   -0.04    0.40
   6   0   9   -0.02    0.42
   6   0   9   -0.33    0.49
   6   0   9   -0.17    0.53
   7   0   9    0.05    0.54
   7   0   9   -0.07    0.52
   8   0   9   -0.02    0.63
   9   0   9   -0.06    0.73
   8  -1  -9    1.24    0.90
  -8  -1   9    0.58    0.51
   8  -1  -9   -0.34    0.50
  -8  -1   9    0.04    0.49
  -8   1   9    0.61    0.54
   8   1  -9    0.56    0.58
   8   1  -9    0.43    0.76
  -7  -1   9   80.02    4.03
   7  -1  -9   78.74    3.71
  -7  -1   9   86.22    3.59
  -7  -1   9   78.83    3.31
   7  -1  -9   83.49    3.41
   7   1  -9   83.90    3.43
  -7   1   9   78.09    3.47
  -7   1   9   80.04    3.26
   7   1  -9   84.09    3.78
  -6  -1   9   19.05    1.28
   6  -1  -9   17.44    1.24
   6  -1  -9   18.22    1.41
  -6  -1   9   15.93    1.29
  -6  -1   9   18.31    1.62
   6   1  -9   17.55    1.40
  -6   1   9   19.13    1.25
   6   1  -9   15.26    1.20
  -6   1   9   16.73    1.29
  -5  -1   9    0.94    0.42
  -5  -1   9    1.23    0.41
   5  -1  -9    1.95    0.55
  -5  -1   9    1.71    0.60
   5  -1  -9    0.74    0.38
  -5   1   9    1.61    0.47
   5   1  -9    1.22    0.41
  -5   1   9    1.17    0.39
   5   1  -9    1.07    0.48
  -4  -1   9   52.35    2.30
  -4  -1   9   53.43    2.17
  -4  -1   9   53.00    2.58
   4  -1  -9   50.88    2.23
   4  -1  -9   50.94    2.04
  -4   1   9   49.80    2.22
   4   1  -9   54.83    2.11
  -4   1   9   51.31    1.69
   4   1  -9   51.83    2.29
  -4   1   9   53.42    2.11
  -4   1   9   51.93    2.68
  -3  -1   9    0.07    0.26
   3  -1  -9    0.07    0.21
   3  -1  -9    0.12    0.25
  -3  -1   9    0.00    0.27
  -3  -1   9    0.29    0.38
   3   1  -9   -0.27    0.19
  -3   1   9    0.57    0.43
  -3   1   9    0.44    0.29
   3   1  -9    0.27    0.32
  -3   1   9    0.40    0.29
  -3   1   9   -0.42    0.19
  -2  -1   9  162.83    5.11
   2  -1  -9  161.23    5.30
  -2  -1   9  163.00    5.45
  -2  -1   9  159.61    5.67
  -2   1   9  160.00    5.73
   2   1  -9  153.45    5.36
  -2   1   9  157.90    5.26
  -2   1   9  155.83    4.97
  -2   1   9  157.97    5.37
  -1  -1   9    1.38    0.27
   1  -1  -9    2.01    0.41
  -1  -1   9    1.37    0.43
  -1  -1   9    1.63    0.40
  -1  -1   9    1.86    0.43
   1   1  -9    1.78    0.43
  -1   1   9    2.16    0.48
  -1   1   9    2.49    0.47
  -1   1   9    2.16    0.42
  -1   1   9    1.94    0.40
   0  -1   9   20.92    0.90
   0  -1   9   17.74    1.09
   0  -1  -9   18.56    0.92
   0  -1   9   18.61    1.19
   0  -1   9   18.39    1.10
   0  -1  -9   19.47    1.11
   0   1  -9   19.94    0.83
   0   1  -9   20.09    1.19
   0   1   9   18.25    1.04
   0   1   9   19.42    1.06
   0   1   9   19.92    1.05
   0   1   9   18.21    1.13
   1  -1   9  137.18    4.50
   1  -1   9  132.67    4.32
   1  -1   9  139.97    4.65
   1  -1   9  128.41    4.75
   1   1   9  130.54    4.36
   1   1   9  130.24    4.53
   1   1   9  129.10    4.70
   1   1   9  139.08    4.41
   2  -1   9   20.44    1.32
   2  -1   9   21.00    1.02
   2  -1   9   18.57    1.05
   2  -1   9   20.12    1.22
   2   1   9   18.99    1.13
   2   1   9   18.55    1.15
   2   1   9   18.12    1.24
   3  -1   9   47.05    2.34
   3  -1   9   48.51    1.96
   3  -1   9   45.35    2.16
   3  -1   9   48.36    1.96
   3   1   9   48.91    2.14
   3   1   9   46.03    2.09
   3   1   9   50.14    2.34
   4  -1   9    0.05    0.46
   4  -1   9    0.16    0.43
   4  -1   9    0.15    0.29
   4   1   9   -0.23    0.41
   4   1   9    0.44    0.40
   4   1   9    0.78    0.42
   5  -1   9   17.36    1.40
   5  -1   9   17.13    1.52
   5  -1   9   17.45    1.20
   5   1   9   15.95    1.42
   5   1   9   18.40    1.37
   5   1   9   16.73    1.29
   6  -1   9   38.89    2.23
   6  -1   9   36.67    1.96
   6  -1   9   35.90    2.35
   6   1   9   35.45    2.09
   6   1   9   39.82    2.16
   6   1   9   35.42    2.28
   7  -1   9    2.31    0.72
   7   1   9    1.51    0.71
   8  -1   9    1.52    0.73
   8   1   9    2.05    0.82
   9  -1   9    0.53    0.70
   9   1   9    0.23    0.77
  -8  -2   9   30.24    2.43
   8  -2  -9   27.55    2.04
  -8  -2   9   30.64    1.91
  -8  -2   9   27.27    1.95
  -8   2   9   29.63    1.97
   8   2  -9   29.71    2.35
   8   2  -9   31.30    2.10
  -7  -2   9   29.85    1.75
  -7  -2   9   31.12    2.25
   7  -2  -9   27.03    1.74
  -7  -2   9   25.96    1.74
   7   2  -9   25.32    1.96
   7   2  -9   27.18    1.76
  -7   2   9   27.21    1.75
  -6  -2   9   19.65    1.64
   6  -2  -9   16.87    1.25
  -6  -2   9   19.16    1.40
   6  -2  -9   17.80    1.42
  -6  -2   9   19.20    1.30
  -6   2   9   18.21    1.32
   6   2  -9   17.54    1.28
  -6   2   9   17.75    1.21
   6   2  -9   19.35    1.52
  -5  -2   9   45.67    2.17
   5  -2  -9   45.88    1.96
   5  -2  -9   44.85    2.16
  -5  -2   9   45.70    2.07
  -5  -2   9   44.20    2.48
   5   2  -9   42.44    1.98
  -5   2   9   45.82    1.99
   5   2  -9   47.04    2.26
  -5   2   9   45.52    2.11
   4  -2  -9    2.05    0.40
   4  -2  -9    1.87    0.45
  -4  -2   9    1.65    0.46
  -4  -2   9    1.12    0.39
  -4  -2   9    1.24    0.50
  -4   2   9    2.01    0.46
   4   2  -9    1.66    0.48
   4   2  -9    1.17    0.36
  -4   2   9    1.11    0.21
  -4   2   9    1.00    0.34
   3  -2  -9   20.47    1.12
  -3  -2   9   19.71    1.23
  -3  -2   9   17.59    1.31
   3  -2  -9   18.95    0.99
  -3  -2   9   19.89    1.16
  -3   2   9   19.10    1.02
   3   2  -9   18.77    1.05
  -3   2   9   18.57    1.11
  -3   2   9   19.08    1.17
   3   2  -9   20.27    1.22
  -2  -2   9   13.74    1.10
  -2  -2   9   15.65    1.05
  -2  -2   9   15.68    1.02
   2  -2  -9   16.73    0.93
  -2   2   9   13.73    0.98
   2   2  -9   15.20    1.01
  -2   2   9   16.67    0.98
  -2   2   9   15.30    0.87
   1  -2  -9   37.67    1.60
  -1  -2   9   35.95    1.68
  -1  -2   9   37.79    1.78
   1  -2  -9   38.86    1.38
  -1  -2   9   35.89    1.80
   1   2  -9   37.11    1.37
  -1   2   9   36.35    1.72
   1   2  -9   37.10    1.73
  -1   2   9   37.15    1.67
  -1   2   9   36.08    1.52
   0  -2   9   13.53    1.01
   0  -2  -9   12.66    0.69
   0  -2   9   13.51    0.98
   0  -2  -9   13.49    0.70
   0  -2  -9   12.62    0.85
   0  -2   9   13.95    0.98
   0   2   9   13.96    0.84
   0   2  -9   11.84    0.94
   0   2  -9   14.15    0.73
   0   2   9   13.23    0.93
   0   2   9   13.69    0.93
   1  -2   9    3.02    0.57
   1  -2   9    2.87    0.51
   1  -2   9    2.02    0.51
   1   2   9    2.73    0.45
   1   2   9    2.42    0.49
  -1   2  -9    2.23    0.40
   1   2   9    2.90    0.54
   2  -2   9   12.02    1.06
   2  -2   9   11.77    0.99
   2  -2   9   11.33    0.89
   2   2   9   12.20    0.90
   2   2   9   12.35    0.98
   2   2   9   12.01    0.93
   3  -2   9   15.15    1.04
   3  -2   9   16.23    1.21
   3  -2   9   16.12    1.29
   3   2   9   14.78    1.17
   3   2   9   15.07    1.06
   3   2   9   17.10    1.18
   4  -2   9   41.98    1.95
   4  -2   9   38.51    2.21
   4  -2   9   40.41    2.13
   4   2   9   42.25    2.21
   4   2   9   42.03    2.11
   4   2   9   43.41    2.04
   5  -2   9   29.54    1.84
   5  -2   9   30.36    1.98
   5   2   9   28.98    1.88
   5   2   9   27.02    1.72
   5   2   9   27.82    1.71
   6  -2   9    3.90    0.91
   6  -2   9    5.60    0.95
   6   2   9    2.74    0.79
   6   2   9    4.47    0.91
   7   2   9   30.62    2.13
   8   2   9   15.17    1.73
   9   2   9    6.60    1.32
  -8  -3   9   20.67    1.72
   8   3  -9   23.75    1.89
   7  -3  -9   15.99    1.51
  -7  -3   9   14.90    1.35
  -7  -3   9   16.49    1.34
  -7  -3   9   17.58    1.95
   7   3  -9   15.00    1.67
  -7   3   9   16.67    1.37
   7   3  -9   15.94    1.39
  -6  -3   9   50.68    2.84
  -6  -3   9   51.88    2.49
  -6  -3   9   48.40    2.33
   6  -3  -9   51.89    2.30
   6   3  -9   49.63    2.32
  -6   3   9   49.90    2.38
   6   3  -9   51.11    2.64
  -5  -3   9  118.89    4.53
   5  -3  -9  125.50    4.15
  -5  -3   9  122.93    4.31
  -5  -3   9  127.28    5.05
   5   3  -9  116.21    4.60
   5   3  -9  122.41    4.23
  -5   3   9  120.55    4.45
  -4  -3   9   65.20    2.60
  -4  -3   9   63.82    2.71
   4  -3  -9   65.69    2.39
  -4  -3   9   66.34    3.07
   4   3  -9   60.31    2.70
  -4   3   9   65.98    2.61
  -4   3   9   62.96    2.30
   4   3  -9   67.81    2.50
  -3  -3   9    0.68    0.33
  -3  -3   9    2.09    0.58
  -3  -3   9    1.49    0.45
   3  -3  -9    1.40    0.33
   3  -3  -9    0.90    0.31
   3   3  -9    1.00    0.32
  -3   3   9    0.88    0.32
   3   3  -9    0.77    0.36
  -3   3   9    1.54    0.45
  -3   3   9    1.23    0.32
  -2  -3   9   94.97    3.90
  -2  -3   9   96.63    3.46
   2  -3  -9   99.58    3.40
  -2  -3   9   99.09    3.66
   2   3  -9   95.71    3.61
  -2   3   9   97.61    3.47
  -2   3   9   97.79    3.19
  -2   3   9  102.22    3.71
   2   3  -9   96.75    3.28
  -1  -3   9  215.14    7.12
  -1  -3   9  223.53    6.73
  -1  -3   9  218.46    7.44
   1  -3  -9  213.46    6.79
  -1   3   9  214.15    6.90
   1   3  -9  204.47    7.03
  -1   3   9  217.67    6.38
  -1   3   9  209.73    7.09
   1   3  -9  206.02    6.84
   0  -3   9  115.62    4.00
   0  -3  -9  116.16    3.92
   0  -3   9  110.87    4.32
   0  -3   9  118.23    4.23
   0   3   9  118.98    3.69
   0   3  -9  112.89    3.95
   0   3   9  114.22    4.17
   0   3   9  117.89    4.02
   0   3  -9  108.76    4.13
   1  -3   9   53.22    2.34
   1  -3   9   49.91    2.29
   1  -3   9   48.05    2.16
   1   3   9   52.28    1.94
   1   3   9   49.68    2.13
  -1   3  -9   46.72    2.04
   1   3   9   51.43    2.26
   2  -3   9   32.91    1.73
   2  -3   9   31.86    1.77
   2  -3   9   32.37    1.73
   2   3   9   31.67    1.71
  -2   3  -9   32.45    1.65
   2   3   9   32.63    1.64
   2   3   9   30.90    1.47
   3  -3   9   11.05    0.97
   3  -3   9   11.06    1.17
   3  -3   9   10.21    1.07
  -3   3  -9    9.39    1.06
   3   3   9   11.57    1.05
   3   3   9   10.25    0.97
   4  -3   9  130.60    4.82
   4  -3   9  131.16    4.92
   4  -3   9  133.32    5.13
   4   3   9  127.10    4.94
   4   3   9  135.98    5.00
   5  -3   9    7.51    1.05
   5  -3   9    6.34    1.11
   5   3   9    8.99    1.14
   5   3   9    6.06    0.96
   6  -3   9    2.24    0.83
   6   3   9    2.79    0.85
   7   3   9   21.30    1.88
   8   3   9   -0.37    0.73
   9   3   9   17.87    2.00
  10   4  -9    8.26    1.53
   7  -4  -9    0.63    0.59
  -7  -4   9    1.74    0.63
  -7  -4   9    1.37    0.56
  -7  -4   9    2.97    0.98
  -7   4   9    0.97    0.52
   7   4  -9    1.39    0.82
  -6  -4   9    7.23    0.99
  -6  -4   9    6.31    0.91
  -6  -4   9    7.75    1.28
   6  -4  -9    6.43    0.87
   6   4  -9    6.17    1.03
   6   4  -9    6.47    0.93
  -6   4   9    5.65    0.83
  -5  -4   9    9.27    1.29
  -5  -4   9    9.78    1.01
   5  -4  -9    8.76    0.87
  -5  -4   9   10.39    1.10
  -5   4   9    9.89    0.90
   5   4  -9    9.04    1.06
   5   4  -9    8.78    0.94
   4  -4  -9    6.25    0.66
  -4  -4   9    8.02    0.95
  -4  -4   9    8.88    1.21
  -4  -4   9    7.08    0.84
  -4   4   9    7.19    0.94
   4   4  -9    7.57    0.93
  -4   4   9    6.30    0.58
  -4   4   9    7.01    0.75
   4   4  -9    7.53    0.79
  -3  -4   9   58.04    2.49
  -3  -4   9   58.71    2.39
   3  -4  -9   56.16    2.07
  -3  -4   9   59.41    2.83
  -3   4   9   59.98    2.30
   3   4  -9   56.12    2.47
   3   4  -9   55.94    2.22
  -3   4   9   56.41    2.58
  -2  -4   9    0.54    0.35
   2  -4  -9    1.65    0.31
  -2  -4   9    1.07    0.49
  -2  -4   9    1.13    0.41
   2   4  -9    2.01    0.50
  -2   4   9    1.20    0.32
   2   4  -9    0.92    0.31
  -2   4   9    1.20    0.45
  -1  -4   9    5.92    0.75
  -1  -4   9    7.34    0.99
  -1  -4   9    5.47    0.73
  -1   4   9    6.87    0.61
   1   4  -9    7.05    0.81
   1   4  -9    6.62    0.64
  -1   4   9    7.29    0.92
   0  -4   9   -0.09    0.31
   0  -4   9    0.26    0.33
   0  -4   9    0.25    0.39
   0   4  -9    0.03    0.27
   0   4  -9    0.40    0.32
   0   4   9    0.08    0.36
   0   4   9    0.12    0.25
   1  -4   9    0.45    0.37
   1  -4   9    0.43    0.41
   1  -4   9    0.27    0.33
   1   4   9    0.42    0.38
  -1   4  -9   -0.03    0.29
   1   4   9    0.34    0.28
  -1   4  -9   -0.35    0.24
   2  -4   9   44.58    2.18
   2  -4   9   47.85    2.39
   2  -4   9   46.37    2.26
  -2   4  -9   46.12    2.17
   2   4   9   46.57    2.27
   2   4   9   49.04    2.11
   3  -4   9   -0.17    0.34
   3  -4   9    0.16    0.39
   3  -4   9   -0.11    0.44
   3   4   9    0.33    0.34
   3   4   9    1.23    0.50
  -3   4  -9    0.48    0.46
   4  -4   9    7.15    0.97
   4  -4   9   10.29    1.21
   4  -4   9    7.42    0.98
   4   4   9    6.27    1.03
  -4   4  -9    6.01    0.98
   4   4   9    8.04    0.97
   5  -4   9   17.88    1.51
   5   4   9   19.65    1.65
  -5   4  -9   16.74    1.59
   5   4   9   17.44    1.48
   6   4   9    0.89    0.74
   7   4   9   34.38    2.45
   8   4   9    0.42    0.87
  -7   5   9   16.80    1.42
   6  -5  -9   11.06    1.20
  -6  -5   9   10.07    1.47
  -6  -5   9   12.06    1.23
  -6   5   9   10.75    1.11
   6   5  -9    8.76    1.20
  -5  -5   9    2.49    0.77
   5  -5  -9    3.27    0.59
  -5  -5   9    1.79    0.56
   5   5  -9    3.86    0.76
  -5   5   9    3.77    0.64
   4  -5  -9   17.88    1.03
  -4  -5   9   17.69    1.23
  -4  -5   9   17.27    1.54
   4   5  -9   18.90    1.34
  -4   5   9   17.76    1.40
  -4   5   9   18.30    1.10
   3  -5  -9    1.83    0.37
  -3  -5   9    1.99    0.56
  -3  -5   9    1.37    0.62
  -3  -5   9    2.47    0.58
   3   5  -9    1.88    0.53
   3   5  -9    2.33    0.53
  -3   5   9    1.89    0.59
  -3   5   9    1.89    0.40
  -2  -5   9   15.73    1.42
  -2  -5   9   17.28    1.16
   2  -5  -9   16.68    0.82
  -2  -5   9   16.21    1.15
   2   5  -9   14.25    1.09
  -2   5   9   16.32    1.30
  -2   5   9   15.73    0.89
   2   5  -9   16.02    0.97
  -1  -5   9    1.05    0.54
  -1  -5   9    1.56    0.50
  -1  -5   9    2.01    0.49
   1   5  -9    0.77    0.38
   1   5  -9    1.49    0.37
  -1   5   9    1.78    0.35
  -1   5   9    1.51    0.58
   0  -5   9   17.54    1.19
   0  -5   9   15.31    1.15
   0  -5   9   15.84    1.33
   0   5  -9   14.89    1.10
   0   5   9   16.65    1.30
   0   5  -9   15.41    1.09
   0   5   9   16.93    0.92
   1  -5   9   24.94    1.68
   1  -5   9   23.58    1.45
  -1   5  -9   21.76    1.40
   1   5   9   22.92    1.57
   1   5   9   25.81    1.24
  -1   5  -9   22.69    1.42
   2  -5   9    1.37    0.61
   2  -5   9    0.65    0.45
   2   5   9    1.83    0.63
   2   5   9    1.06    0.38
  -2   5  -9    0.87    0.44
  -2   5  -9    0.62    0.44
   3  -5   9   10.03    1.14
   3  -5   9    8.29    1.15
   3   5   9    8.50    0.92
  -3   5  -9    8.20    1.06
   3   5   9    7.03    1.08
   4  -5   9    2.39    0.72
   4  -5   9    1.66    0.65
  -4   5  -9    1.77    0.71
   4   5   9    0.71    0.49
   4   5   9    1.21    0.69
   5  -5   9    7.44    1.16
  -5   5  -9    7.78    1.31
   5   5   9    6.78    1.20
   6   5   9    5.41    1.11
   7   5   9    0.35    0.84
   8   5   9   -1.42    0.74
   6  -6  -9    2.66    0.73
  -6   6   9    2.80    0.62
  -5  -6   9   -0.33    0.36
  -5  -6   9    1.10    0.80
   5  -6  -9   -0.35    0.36
  -5   6   9   -0.19    0.32
   5   6  -9    0.36    0.49
  -4  -6   9   15.38    1.17
  -4  -6   9   13.59    1.70
   4  -6  -9   14.64    0.96
   4   6  -9   15.17    1.26
  -4   6   9   14.32    1.04
  -4   6   9   15.65    1.40
  -3  -6   9   30.53    1.67
  -3  -6   9   31.99    2.19
   3  -6  -9   31.19    1.34
  -3   6   9   35.93    2.04
   3   6  -9   31.88    1.78
   2  -6  -9    0.48    0.22
  -2  -6   9    1.07    0.64
  -2  -6   9    1.38    0.45
  -2   6   9    1.91    0.63
   2   6  -9    0.94    0.40
   1  -6  -9    0.66    0.22
  -1  -6   9    0.96    0.45
  -1  -6   9    0.75    0.62
  -1   6   9    0.89    0.52
   1   6  -9    1.25    0.45
   0  -6   9    0.07    0.37
   0  -6   9   -0.30    0.42
   0   6  -9    0.26    0.37
   0   6   9   -0.10    0.41
   0   6  -9    0.04    0.38
   0   6   9    0.15    0.20
   1  -6   9    5.65    0.83
   1  -6   9    5.95    1.02
  -1   6  -9    5.02    0.83
   1   6   9    5.94    0.58
  -1   6  -9    5.13    0.78
   1   6   9    5.43    0.98
   2  -6   9   23.20    1.53
   2  -6   9   23.39    1.85
  -2   6  -9   23.77    1.53
  -2   6  -9   23.96    1.66
   2   6   9   25.96    1.80
   2   6   9   24.61    1.26
   3  -6   9    5.78    1.08
   3  -6   9    5.81    0.93
   3   6   9    4.20    0.91
  -3   6  -9    5.94    1.03
   3   6   9    5.17    0.70
  -3   6  -9    5.93    0.96
   4  -6   9    0.13    0.55
   4   6   9    0.28    0.65
   4   6   9    0.19    0.39
  -4   6  -9    0.22    0.60
   5   6   9   -0.10    0.73
   6   6   9    0.80    0.86
   7   6   9   11.33    1.75
  -4   7   9   46.92    2.68
  -3  -7   9    0.52    0.59
  -3  -7   9    0.17    0.39
   3   7  -9    0.39    0.46
  -3   7   9    0.38    0.61
  -2  -7   9   58.57    2.55
  -2  -7   9   64.37    3.40
  -2   7   9   61.52    3.03
   2   7  -9   59.27    2.65
  -1  -7   9    5.40    0.78
  -1  -7   9    4.21    1.08
   1   7  -9    3.99    0.70
  -1   7   9    3.93    0.95
   0  -7   9   -0.61    0.55
   0  -7   9   -0.30    0.38
   0   7   9   -0.04    0.55
   0   7  -9    0.12    0.37
   0   7  -9   -0.39    0.45
   1  -7   9   49.90    2.32
   1  -7   9   51.10    2.97
  -1   7  -9   50.38    2.33
   1   7   9   47.27    2.61
  -1   7  -9   54.11    2.64
   2  -7   9   10.64    1.61
   2  -7   9   11.02    1.29
   2   7   9   12.66    1.50
  -2   7  -9   10.39    1.28
  -2   7  -9    8.34    1.02
  -3   7  -9   20.94    1.92
   3   7   9   20.95    1.76
   4   7   9   11.97    1.58
   5   7   9    4.94    1.12
   6   7   9   17.31    2.11
  -4   8   9    6.39    1.17
  -3   8   9   -0.19    0.60
  -2   8   9   17.29    1.64
  -1   8   9   18.52    1.63
   0   8   9   11.56    1.41
   1   8   9   14.00    1.59
   2   8   9    2.29    0.88
   3   8   9   17.11    1.83
   4   8   9   27.59    2.30
   5   8   9   20.75    2.24
  -3   9   9    0.27    0.78
  -2   9   9   29.08    2.18
  -1   9   9   35.25    2.42
   0   9   9    6.38    1.18
   1   9   9   19.15    1.96
   2   9   9    9.44    1.50
   3   9   9    2.97    1.02
   4   9   9   22.19    2.29
  -3  10   9   13.48    1.74
  -2  10   9    3.16    1.08
  -1  10   9    1.25    0.86
   0  10   9    0.28    0.79
   1  10   9    0.93    0.89
   2  10   9   12.21    1.79
  -8   0  10   48.08    2.42
  -8   0  10   43.80    2.52
   8   0 -10   47.08    2.60
   8   0 -10   43.59    2.86
   7   0 -10    0.65    0.51
  -7   0  10    1.32    0.58
  -7   0  10    1.54    0.53
   7   0 -10    1.48    0.71
  -6   0  10   62.98    3.41
  -6   0  10   64.77    2.70
   6   0 -10   63.76    2.99
  -6   0  10   64.03    2.87
   6   0 -10   62.73    2.70
   5   0 -10   25.48    1.41
  -5   0  10   24.45    1.82
  -5   0  10   24.86    1.52
   5   0 -10   23.08    1.52
  -5   0  10   26.56    1.46
  -4   0  10    0.51    0.35
   4   0 -10    0.86    0.36
  -4   0  10    1.02    0.51
  -4   0  10    2.53    0.51
   4   0 -10    0.42    0.36
  -3   0  10   56.57    2.28
   3   0 -10   60.42    2.24
  -3   0  10   54.09    2.67
  -3   0  10   56.35    2.44
   3   0 -10   58.65    2.43
  -2   0  10   98.35    3.70
  -2   0  10  103.76    3.93
  -2   0  10   98.16    3.44
  -2   0  10   99.81    3.46
   2   0 -10   96.94    3.63
  -1   0  10   55.70    2.11
  -1   0  10   52.74    2.35
   1   0 -10   52.63    2.28
  -1   0  10   54.94    2.20
  -1   0  10   57.85    2.41
   0   0 -10   91.98    3.47
   0   0  10   86.80    3.24
   0   0  10   93.64    3.40
   0   0  10   88.89    3.50
   0   0  10   95.17    3.22
   1   0  10    0.51    0.37
   1   0  10    0.34    0.38
   1   0  10    0.88    0.28
   1   0  10    0.47    0.29
   2   0  10   61.53    2.45
   2   0  10   62.25    2.38
   2   0  10   58.81    2.72
   2   0  10   66.63    2.61
   3   0  10   79.68    3.01
   3   0  10   75.58    3.32
   3   0  10   79.34    3.13
   4   0  10   72.40    3.04
   4   0  10   71.73    2.90
   4   0  10   70.03    3.25
   5   0  10    6.21    0.99
   5   0  10    9.03    1.17
   5   0  10    7.64    0.94
   6   0  10    8.31    1.30
   6   0  10    8.92    1.11
   6   0  10    6.97    1.15
   7   0  10   88.84    3.81
   8   0  10   10.71    1.34
   9   0  10   28.22    2.11
  -8  -1  10   52.79    2.62
   8  -1 -10   49.04    3.02
  -8  -1  10   51.01    2.74
   8   1 -10   55.67    2.86
   8   1 -10   51.15    3.11
   7  -1 -10    9.13    1.11
  -7  -1  10   13.03    1.40
  -7  -1  10   10.20    1.15
   7  -1 -10   11.77    1.42
  -7  -1  10   11.25    1.60
  -7   1  10   11.32    1.19
   7   1 -10   12.90    1.50
  -7   1  10   11.98    1.29
   7   1 -10   11.48    1.25
  -6  -1  10   26.58    1.58
   6  -1 -10   27.20    1.56
   6  -1 -10   23.92    1.68
  -6  -1  10   26.10    1.65
  -6  -1  10   27.97    2.04
  -6   1  10   24.20    1.48
  -6   1  10   23.46    1.56
   6   1 -10   26.20    1.57
   6   1 -10   22.06    1.67
  -5  -1  10   91.70    3.69
  -5  -1  10   94.55    3.47
  -5  -1  10   94.19    4.13
   5  -1 -10   93.95    3.39
   5  -1 -10   94.57    3.70
   5   1 -10   91.15    3.73
  -5   1  10   92.47    3.64
  -5   1  10   94.70    3.41
   5   1 -10   89.83    3.38
   4  -1 -10    2.98    0.53
   4  -1 -10    3.22    0.57
  -4  -1  10    4.02    0.70
  -4  -1  10    4.61    0.87
  -4  -1  10    3.04    0.54
  -4   1  10    3.50    0.53
   4   1 -10    3.31    0.62
   4   1 -10    3.48    0.55
  -4   1  10    3.11    0.75
  -4   1  10    3.60    0.60
  -3  -1  10   82.28    3.46
  -3  -1  10   81.17    3.20
   3  -1 -10   81.99    3.08
   3  -1 -10   76.91    2.82
  -3  -1  10   83.04    3.01
  -3   1  10   83.81    3.16
  -3   1  10   82.47    2.92
  -3   1  10   79.79    3.05
   3   1 -10   79.24    2.88
   3   1 -10   77.80    3.14
  -3   1  10   79.90    3.52
   2  -1 -10   88.28    3.24
  -2  -1  10   85.36    3.50
  -2  -1  10   89.61    3.39
  -2  -1  10   85.96    3.16
  -2   1  10   86.00    3.30
   2   1 -10   84.46    3.29
  -2   1  10   88.42    3.07
  -2   1  10   87.92    3.57
  -2   1  10   87.03    3.19
  -1  -1  10   -0.35    0.27
  -1  -1  10    1.04    0.43
  -1  -1  10    0.22    0.19
   1  -1 -10    0.08    0.27
  -1  -1  10    0.50    0.37
  -1   1  10    2.40    0.54
  -1   1  10    0.40    0.34
  -1   1  10    0.33    0.29
   1   1 -10   -0.31    0.26
  -1   1  10    0.15    0.28
   0  -1  10   76.45    3.00
   0  -1  10   77.91    3.20
   0  -1 -10   78.14    3.08
   0  -1  10   85.31    3.18
   0  -1  10   83.85    2.79
   0   1 -10   80.09    2.72
   0   1  10   79.93    3.17
   0   1 -10   82.02    3.21
   0   1  10   83.29    3.06
   0   1  10   83.89    2.95
   0   1  10   82.63    3.03
   1  -1  10   47.37    1.86
   1  -1  10   47.54    2.27
   1  -1  10   49.76    2.09
   1  -1  10   46.80    2.12
   1   1  10   51.77    2.11
   1   1  10   51.64    1.87
   1   1  10   48.23    2.05
   1   1  10   46.88    2.21
   2  -1  10   10.77    0.82
   2  -1  10   11.01    1.08
   2  -1  10   11.57    1.08
   2  -1  10   12.37    0.80
   2   1  10   11.74    1.04
   2   1  10   10.74    0.93
   2   1  10   11.36    0.90
   3  -1  10   46.32    2.36
   3  -1  10   44.94    2.20
   3  -1  10   47.49    1.95
   3   1  10   44.29    2.09
   3   1  10   48.10    2.16
   3   1  10   46.25    2.32
   4  -1  10    2.65    0.66
   4  -1  10    1.42    0.45
   4  -1  10    0.66    0.55
   4   1  10    2.03    0.58
   4   1  10    0.87    0.50
   4   1  10    2.37    0.60
   5  -1  10   15.74    1.62
   5  -1  10   15.87    1.17
   5  -1  10   16.97    1.43
   5   1  10   13.97    1.23
   5   1  10   16.39    1.35
   5   1  10   13.92    1.47
   6  -1  10    7.05    1.15
   6  -1  10    6.11    0.90
   6  -1  10    5.46    1.09
   6   1  10    4.80    0.90
   6   1  10    5.90    0.99
   7  -1  10    0.63    0.66
   7   1  10    0.18    0.59
   8   1  10    2.22    0.89
   9   1  10    2.04    0.98
  -8  -2  10    2.91    0.75
  -8  -2  10    1.45    0.66
   8   2 -10    2.53    0.99
   8   2 -10    1.35    0.72
  -7  -2  10    0.37    0.50
   7  -2 -10    0.50    0.51
  -7  -2  10    1.22    0.58
  -7  -2  10    0.74    0.73
   7   2 -10    0.35    0.58
   7   2 -10    0.47    0.54
  -7   2  10    0.67    0.48
  -6  -2  10   -0.11    0.42
  -6  -2  10    0.31    0.58
   6  -2 -10    0.36    0.40
  -6  -2  10    0.06    0.40
   6   2 -10    0.20    0.42
   6   2 -10   -0.40    0.46
  -6   2  10    0.57    0.43
   5  -2 -10   23.20    1.49
  -5  -2  10   23.20    1.52
  -5  -2  10   25.98    1.84
  -5  -2  10   24.81    1.47
   5  -2 -10   24.36    1.35
  -5   2  10   23.51    1.44
  -5   2  10   23.93    1.34
   5   2 -10   22.83    1.56
   5   2 -10   22.37    1.34
  -4  -2  10   57.26    2.56
   4  -2 -10   55.50    2.23
  -4  -2  10   55.87    2.82
   4  -2 -10   59.90    2.45
  -4  -2  10   59.92    2.44
  -4   2  10   59.07    2.29
   4   2 -10   54.73    2.53
  -4   2  10   60.28    2.48
   4   2 -10   55.83    2.30
  -3  -2  10   16.22    1.28
   3  -2 -10   16.33    1.04
  -3  -2  10   16.37    1.10
  -3  -2  10   17.79    1.17
   3  -2 -10   14.87    0.94
  -3   2  10   15.51    0.96
  -3   2  10   16.24    1.06
   3   2 -10   14.85    1.12
  -3   2  10   16.68    1.12
   3   2 -10   16.73    1.02
  -2  -2  10    0.49    0.35
  -2  -2  10    0.15    0.38
  -2  -2  10    0.06    0.27
   2  -2 -10   -0.14    0.21
  -2   2  10   -0.30    0.24
  -2   2  10    0.41    0.25
  -2   2  10    0.07    0.29
   2   2 -10   -0.03    0.29
   1  -2 -10    0.75    0.29
  -1  -2  10    0.43    0.36
  -1  -2  10    0.62    0.39
  -1  -2  10    0.67    0.37
   1   2 -10    0.13    0.31
  -1   2  10    0.35    0.33
  -1   2  10    0.47    0.27
  -1   2  10    0.81    0.35
   0  -2 -10   11.03    0.84
   0  -2  10   11.42    0.98
   0  -2  10   13.74    1.03
   0  -2  10   11.92    0.98
   0   2  10   11.95    0.83
   0   2 -10   10.41    0.92
   0   2  10   13.45    0.96
   0   2 -10   12.34    0.69
   0   2  10   13.89    0.98
   1  -2  10   76.05    2.87
   1  -2  10   72.87    2.88
   1  -2  10   68.78    2.96
   1   2  10   72.77    2.84
   1   2  10   70.48    2.61
  -1   2 -10   62.82    2.57
   1   2  10   68.13    2.83
   2  -2  10    7.45    0.91
   2  -2  10    6.79    0.78
   2  -2  10    7.16    0.94
   2   2  10    9.39    1.00
   2   2  10    7.51    0.87
  -2   2 -10    6.88    0.81
   2   2  10    7.02    0.79
   3  -2  10    0.09    0.37
   3  -2  10    1.08    0.38
   3  -2  10    1.26    0.56
   3   2  10    0.21    0.39
   3   2  10    0.19    0.33
   3   2  10    0.93    0.45
   4  -2  10    9.41    1.14
   4  -2  10    8.06    1.08
   4   2  10    7.69    1.00
   4   2  10    7.87    0.98
   4   2  10    6.97    0.97
   5  -2  10    5.66    0.99
   5  -2  10    4.70    0.95
   5   2  10    4.15    0.86
   5   2  10    5.06    0.89
   6  -2  10   38.51    2.50
   6   2  10   38.25    2.29
   7   2  10    2.72    0.90
   8   2  10    1.32    0.87
  -8  -3  10    3.83    0.90
   8   3 -10    3.27    0.92
  -7  -3  10   -0.04    0.50
  -7  -3  10    0.47    0.52
   7  -3 -10    0.10    0.49
  -7  -3  10    0.94    0.70
   7   3 -10   -0.07    0.50
  -7   3  10   -0.13    0.39
   7   3 -10    0.42    0.67
  -6  -3  10    0.93    0.69
  -6  -3  10    1.11    0.51
  -6  -3  10    0.38    0.47
   6  -3 -10    0.40    0.44
  -6   3  10    0.82    0.45
   6   3 -10    0.12    0.42
   6   3 -10    1.15    0.62
  -5  -3  10    8.34    0.96
  -5  -3  10    9.13    1.04
   5  -3 -10    7.79    0.86
  -5  -3  10    8.63    1.27
   5   3 -10    8.08    1.05
  -5   3  10    9.02    0.93
   5   3 -10    9.84    0.99
  -4  -3  10   -0.08    0.37
  -4  -3  10   -0.03    0.30
  -4  -3  10    0.44    0.40
   4  -3 -10    0.21    0.29
  -4   3  10    0.18    0.31
   4   3 -10    0.84    0.37
  -4   3  10    0.70    0.48
   4   3 -10    0.56    0.45
  -3  -3  10   15.00    1.15
  -3  -3  10   14.64    1.06
   3  -3 -10   13.66    0.88
  -3  -3  10   14.32    1.28
  -3   3  10   16.06    1.16
   3   3 -10   13.83    1.12
   3   3 -10   15.30    0.99
  -3   3  10   14.98    1.01
  -2  -3  10    0.31    0.35
   2  -3 -10    0.67    0.31
  -2  -3  10    1.94    0.49
  -2  -3  10    0.46    0.42
   2   3 -10    0.49    0.37
  -2   3  10    0.43    0.37
  -2   3  10    0.49    0.28
   2   3 -10    0.75    0.34
  -2   3  10    0.51    0.31
  -1  -3  10    4.91    0.79
   1  -3 -10    4.16    0.53
  -1  -3  10    4.50    0.69
  -1  -3  10    4.52    0.70
   1   3 -10    4.68    0.69
  -1   3  10    4.66    0.73
  -1   3  10    4.23    0.57
  -1   3  10    4.10    0.51
   0  -3 -10    5.45    0.61
   0  -3  10    6.79    0.83
   0  -3  10    5.04    0.75
   0  -3  10    5.37    0.78
   0   3  10    5.49    0.66
   0   3 -10    6.10    0.82
   0   3  10    4.71    0.55
   0   3 -10    5.90    0.61
   0   3  10    5.38    0.76
   1  -3  10    0.59    0.42
   1  -3  10    0.30    0.36
   1  -3  10   -0.04    0.30
   1   3  10    0.95    0.39
   1   3  10    0.49    0.39
  -1   3 -10    0.49    0.29
  -1   3 -10    1.06    0.43
   2  -3  10    0.83    0.49
   2  -3  10    1.19    0.45
   2  -3  10    0.79    0.47
   2   3  10    1.22    0.48
   2   3  10    1.50    0.45
  -2   3 -10    0.69    0.38
   3   3  10    2.32    0.61
   4  -3  10    2.23    0.73
   4  -3  10    2.04    0.66
  -4   3 -10    2.35    0.73
   4   3  10    2.64    0.73
   4   3  10    3.27    0.73
   5  -3  10    2.92    0.83
   5  -3  10    3.14    0.82
   5   3  10    3.84    0.85
   5   3  10    2.58    0.73
   6  -3  10    0.04    0.70
   6   3  10    1.84    0.81
   7   3  10   -0.27    0.70
   8   3  10    0.39    0.84
  -7  -4  10    1.50    0.66
   7  -4 -10    0.57    0.61
  -7   4  10    1.19    0.58
  -6  -4  10    2.45    0.82
  -6  -4  10    1.52    0.60
   6  -4 -10    2.21    0.60
  -6  -4  10    1.95    0.64
   6   4 -10    1.24    0.63
   6   4 -10    1.40    0.58
  -6   4  10    1.98    0.58
  -5  -4  10    6.21    1.15
   5  -4 -10    8.26    0.88
  -5  -4  10    6.11    0.84
  -5  -4  10    7.68    1.02
   5   4 -10    5.34    0.86
  -5   4  10    7.25    0.86
   5   4 -10    6.78    0.83
  -4  -4  10   48.34    2.30
  -4  -4  10   45.98    2.59
  -4  -4  10   48.71    2.21
   4  -4 -10   50.26    1.96
  -4   4  10   50.04    2.46
   4   4 -10   43.10    2.02
   4   4 -10   48.28    2.34
  -4   4  10   46.03    2.09
   3  -4 -10    7.17    0.63
  -3  -4  10    7.32    0.90
  -3  -4  10    6.44    0.81
  -3  -4  10    7.85    1.13
   3   4 -10    7.45    0.78
  -3   4  10    7.77    0.98
   3   4 -10    6.64    0.88
  -3   4  10    7.40    0.75
  -2  -4  10    2.36    0.62
   2  -4 -10    3.00    0.43
  -2  -4  10    2.66    0.57
  -2  -4  10    2.96    0.61
  -2   4  10    2.93    0.48
   2   4 -10    5.31    0.64
   2   4 -10    2.80    0.57
  -2   4  10    4.48    0.77
  -1  -4  10    3.94    0.69
  -1  -4  10    4.77    0.75
  -1  -4  10    3.00    0.73
  -1   4  10    3.37    0.52
   1   4 -10    4.95    0.73
  -1   4  10    4.50    0.79
   0  -4  10    4.77    0.74
   0  -4  10    4.77    0.82
   0  -4  10    5.40    0.75
   0   4 -10    3.81    0.69
   0   4  10    3.91    0.55
   0   4  10    5.12    0.79
   0   4 -10    3.70    0.56
   1  -4  10   74.93    3.29
   1  -4  10   77.62    3.04
   1  -4  10   75.06    3.15
   1   4  10   80.26    3.25
   1   4  10   76.62    2.94
  -1   4 -10   69.85    2.94
  -1   4 -10   72.50    3.13
   2  -4  10    0.34    0.42
   2  -4  10    0.56    0.46
   2  -4  10    0.03    0.42
   2   4  10    0.59    0.44
  -2   4 -10    0.71    0.40
   2   4  10    0.92    0.40
   3  -4  10    6.97    1.00
   3  -4  10    7.32    1.01
   3  -4  10    6.38    0.91
   3   4  10    7.67    0.94
   3   4  10    5.03    0.91
  -3   4 -10    6.91    1.00
   4  -4  10   25.90    1.77
   4  -4  10   25.92    1.72
  -4   4 -10   25.36    1.82
   4   4  10   25.59    1.84
   4   4  10   25.82    1.67
   5   4  10    2.29    0.83
  -5   4 -10    0.02    0.61
   6   4  10   41.40    2.60
   7   4  10    0.23    0.79
   8   4  10   -0.92    0.81
   6  -5 -10   59.31    2.70
  -6   5  10   63.68    2.79
   5  -5 -10   61.68    2.51
  -5  -5  10   61.90    2.74
  -5  -5  10   63.65    3.35
  -5   5  10   63.75    2.65
   5   5 -10   59.35    2.94
   4  -5 -10    2.80    0.51
  -4  -5  10    1.75    0.53
  -4  -5  10    2.77    0.82
   4   5 -10    1.69    0.61
  -4   5  10    2.22    0.49
  -4   5  10    2.73    0.74
   3  -5 -10   27.93    1.26
  -3  -5  10   27.45    1.97
  -3  -5  10   26.37    1.58
   3   5 -10   27.06    1.63
  -3   5  10   28.31    1.38
  -3   5  10   28.70    1.83
   2  -5 -10  126.97    3.98
  -2  -5  10  122.80    4.42
  -2  -5  10  124.47    5.17
  -2  -5  10  127.56    4.91
  -2   5  10  128.13    4.89
   2   5 -10  129.26    4.66
  -2   5  10  127.97    4.32
  -1  -5  10   19.82    1.35
  -1  -5  10   19.13    1.61
  -1   5  10   22.97    1.58
   1   5 -10   20.21    1.33
  -1   5  10   21.07    1.12
   0  -5  10   34.13    2.10
   0  -5  10   33.17    1.81
   0   5  10   34.62    1.98
   0   5 -10   33.23    1.74
   0   5  10   36.39    1.57
   0   5 -10   33.85    1.81
   1  -5  10   39.01    2.26
   1  -5  10   40.02    2.00
   1   5  10   38.11    2.14
   1   5  10   39.08    1.74
  -1   5 -10   35.10    1.95
  -1   5 -10   39.76    1.98
   2  -5  10    3.39    0.80
   2  -5  10    1.87    0.61
  -2   5 -10    1.68    0.60
   2   5  10    1.85    0.47
  -2   5 -10    1.91    0.58
   2   5  10    2.29    0.68
   3  -5  10   97.35    3.82
   3  -5  10   99.72    4.15
   3   5  10   89.13    3.94
  -3   5 -10   85.19    3.84
   3   5  10   90.79    3.60
   4  -5  10    1.57    0.68
  -4   5 -10    1.67    0.73
   4   5  10    2.10    0.60
   4   5  10    2.03    0.83
   5   5  10    1.39    0.84
   6   5  10   10.09    1.56
   7   5  10    0.57    0.84
   6  -6 -10   27.13    1.94
   5  -6 -10    2.13    0.56
  -4  -6  10    1.73    0.56
   4  -6 -10    1.84    0.45
  -4  -6  10    2.65    0.92
  -4   6  10    1.49    0.73
   4   6 -10    1.32    0.58
  -3  -6  10   18.17    1.94
  -3  -6  10   19.60    1.36
   3  -6 -10   19.02    1.00
  -3   6  10   17.78    1.51
   3   6 -10   20.00    1.40
   2  -6 -10   24.11    1.07
  -2  -6  10   22.28    1.47
  -2  -6  10   22.48    1.85
   2   6 -10   24.65    1.51
  -2   6  10   26.04    1.80
  -1  -6  10   14.44    1.18
   1  -6 -10   14.85    0.78
  -1  -6  10   14.06    1.60
  -1   6  10   14.63    1.50
   1   6 -10   14.58    1.15
   0  -6  10   21.11    1.73
   0  -6  10   23.00    1.50
   0   6  10   22.93    1.70
   0   6  10   23.35    1.11
   0   6 -10   21.87    1.44
   0   6 -10   22.06    1.47
   1  -6  10    4.40    0.79
   1  -6  10    4.34    0.96
   1   6  10    2.63    0.78
  -1   6 -10    3.86    0.77
  -1   6 -10    3.76    0.73
   1   6  10    3.90    0.52
   2  -6  10   19.48    1.50
   2  -6  10   23.41    1.83
  -2   6 -10   21.31    1.58
  -2   6 -10   19.52    1.46
   2   6  10   21.09    1.21
   2   6  10   21.22    1.65
   3  -6  10   26.19    1.98
  -3   6 -10   24.61    1.80
   3   6  10   22.75    1.85
   3   6  10   23.72    1.41
   4   6  10   26.77    2.01
   5   6  10    1.14    0.91
   6   6  10    5.69    1.32
   7   6  10   30.28    2.57
  -4   7  10    0.23    0.64
  -3   7  10   43.39    2.58
  -2  -7  10    0.12    0.44
   2   7 -10    0.46    0.51
  -2   7  10    0.76    0.61
  -1  -7  10    4.76    0.77
   1   7 -10    6.30    0.87
  -1   7  10    6.07    1.04
   0  -7  10   42.07    2.95
   0  -7  10   40.15    2.11
   0   7 -10   41.79    2.12
   0   7  10   40.11    2.42
   1   7  10    7.28    1.19
  -2   7 -10   11.09    1.38
   2   7  10   10.94    1.43
   3   7  10    1.52    0.84
   4   7  10   13.02    1.71
   5   7  10   11.97    1.67
   6   7  10    2.31    1.09
  -4   8  10    3.68    1.04
  -3   8  10    0.93    0.81
  -2   8  10    0.37    0.62
  -1   8  10    0.42    0.65
   0   8  10    2.60    0.89
   1   8  10    1.94    0.88
   2   8  10    1.89    0.92
   3   8  10    1.52    0.94
   4   8  10    0.65    0.88
   5   8  10    0.21    0.96
  -3   9  10   23.32    2.10
  -2   9  10    1.09    0.85
  -1   9  10    3.87    1.08
   0   9  10   20.32    2.05
   1   9  10    0.64    0.88
   2   9  10    4.38    1.12
   3   9  10   -0.84    0.73
  -2  10  10    2.80    1.08
  -1  10  10    6.67    1.39
   0  10  10    0.96    0.90
  -8   0  11    0.10    0.48
   8   0 -11   -0.49    0.70
  -7   0  11    0.22    0.50
   7   0 -11    0.21    0.63
   7   0 -11   -0.33    0.48
  -7   0  11    0.10    0.42
  -6   0  11   -0.39    0.33
   6   0 -11   -0.51    0.34
  -6   0  11   -0.14    0.42
   6   0 -11    0.45    0.54
  -6   0  11    0.28    0.63
  -5   0  11    0.11    0.33
   5   0 -11   -0.07    0.29
  -5   0  11    0.98    0.61
  -5   0  11   -0.19    0.33
   5   0 -11   -0.13    0.34
   4   0 -11    0.46    0.35
  -4   0  11   -0.04    0.40
   4   0 -11    0.52    0.41
  -4   0  11   -0.13    0.29
  -4   0  11    0.11    0.35
  -3   0  11    0.25    0.33
   3   0 -11   -0.03    0.30
  -3   0  11   -0.16    0.24
   3   0 -11    0.24    0.29
  -3   0  11    0.13    0.40
  -2   0  11    0.08    0.30
  -2   0  11   -0.08    0.29
   2   0 -11   -0.08    0.27
  -2   0  11    0.31    0.37
  -2   0  11    0.06    0.23
   1   0 -11   -0.14    0.26
  -1   0  11   -0.38    0.25
  -1   0  11    0.07    0.23
  -1   0  11   -0.25    0.29
  -1   0  11    0.08    0.32
   0   0  11    0.15    0.36
   0   0 -11    0.44    0.36
   0   0  11    0.54    0.32
   0   0  11    0.52    0.28
   0   0  11    0.81    0.35
   1   0  11   -0.07    0.23
   1   0  11   -0.04    0.31
   1   0  11   -0.07    0.27
   1   0  11    0.62    0.42
   2   0  11   -0.30    0.35
   2   0  11    0.39    0.46
   2   0  11   -0.07    0.29
   3   0  11    0.62    0.46
   3   0  11    0.23    0.52
   3   0  11    0.20    0.35
   4   0  11    0.01    0.51
   4   0  11    0.45    0.40
   4   0  11   -0.01    0.44
   5   0  11    0.53    0.52
   5   0  11   -0.46    0.53
   5   0  11    0.30    0.43
   6   0  11   -0.19    0.50
   6   0  11   -0.01    0.55
   7   0  11   -0.28    0.52
   8   0  11   -1.16    0.55
  -8  -1  11    1.86    0.69
   8   1 -11    3.66    1.06
  -7  -1  11    5.47    1.22
  -7  -1  11    3.69    0.82
  -7  -1  11    3.23    0.83
   7  -1 -11    4.73    0.91
   7   1 -11    2.73    0.90
   7   1 -11    3.10    0.76
  -7   1  11    3.20    0.76
   6  -1 -11   65.87    3.14
  -6  -1  11   69.93    2.93
   6  -1 -11   68.98    2.89
  -6  -1  11   71.21    3.61
  -6  -1  11   71.33    3.14
   6   1 -11   67.27    2.91
   6   1 -11   68.94    3.22
  -6   1  11   62.79    2.97
  -6   1  11   68.15    2.85
   5  -1 -11    1.49    0.55
   5  -1 -11    1.18    0.44
  -5  -1  11    1.21    0.47
  -5  -1  11    0.52    0.52
  -5  -1  11    1.04    0.49
   5   1 -11    0.61    0.49
   5   1 -11    0.68    0.42
  -5   1  11    0.99    0.48
  -5   1  11    0.78    0.40
  -4  -1  11   68.08    3.25
   4  -1 -11   68.64    2.62
  -4  -1  11   69.56    2.75
  -4  -1  11   65.99    2.90
   4  -1 -11   65.38    2.81
   4   1 -11   67.48    2.65
  -4   1  11   63.99    2.82
  -4   1  11   66.47    2.63
   4   1 -11   67.35    2.92
  -4   1  11   70.27    3.35
   3  -1 -11    1.40    0.40
  -3  -1  11    1.51    0.49
   3  -1 -11    1.29    0.43
  -3  -1  11    1.37    0.55
  -3  -1  11    1.76    0.51
  -3   1  11    1.28    0.54
  -3   1  11    0.89    0.36
   3   1 -11    1.11    0.41
  -3   1  11    1.56    0.46
   3   1 -11    1.61    0.51
  -3   1  11    1.27    0.41
  -2  -1  11   44.93    2.20
   2  -1 -11   45.57    2.07
  -2  -1  11   49.02    2.33
  -2  -1  11   47.17    2.07
  -2   1  11   44.54    2.12
  -2   1  11   49.84    2.37
   2   1 -11   46.01    2.13
  -2   1  11   47.83    2.04
  -2   1  11   45.47    1.96
  -1  -1  11   69.47    2.93
  -1  -1  11   66.50    2.90
  -1  -1  11   71.38    2.54
  -1  -1  11   71.11    2.77
   1  -1 -11   66.88    2.76
  -1   1  11   70.79    2.87
  -1   1  11   70.25    2.92
   1   1 -11   64.65    2.82
  -1   1  11   70.41    2.71
  -1   1  11   71.40    2.66
   0  -1  11   11.81    0.94
   0  -1  11   11.11    1.04
   0  -1 -11   11.63    0.95
   0  -1  11   11.29    0.98
   0   1  11   11.49    0.86
   0   1  11   11.68    1.00
   0   1  11   10.55    0.89
   0   1  11   10.53    0.87
   0   1 -11   10.75    1.00
  -1  -1 -11   15.76    1.15
   1  -1  11   15.70    1.17
   1  -1  11   17.47    1.30
   1  -1  11   16.98    1.08
  -1   1 -11   17.86    1.28
   1   1  11   17.72    1.15
   1   1  11   16.55    1.23
  -1   1 -11   15.81    0.94
   1   1  11   16.75    1.09
   2  -1  11    0.99    0.53
   2  -1  11    1.47    0.52
   2   1  11    0.78    0.41
   2   1  11    1.64    0.48
   2   1  11    1.90    0.59
   3  -1  11   34.45    2.05
   3  -1  11   33.72    1.88
   3   1  11   34.61    1.80
   3   1  11   32.81    1.95
   3   1  11   34.14    1.82
   4  -1  11   48.86    2.48
   4  -1  11   51.19    2.70
   4   1  11   49.95    2.62
   4   1  11   50.40    2.38
   4   1  11   50.09    2.41
   5  -1  11    0.49    0.49
   5  -1  11    0.24    0.59
   5   1  11    0.07    0.45
   5   1  11    0.59    0.53
   5   1  11    0.07    0.53
   6   1  11    1.07    0.61
   7   1  11    1.09    0.71
   8   1  11    8.49    1.34
  -7  -2  11   21.11    1.67
  -7  -2  11   24.70    1.67
  -7  -2  11   19.96    1.89
   7  -2 -11   18.69    1.54
  -7   2  11   19.71    1.53
   7   2 -11   22.62    1.66
   7   2 -11   22.96    1.90
  -6  -2  11   -0.26    0.44
  -6  -2  11    1.18    0.51
  -6  -2  11    0.34    0.65
   6  -2 -11    0.88    0.48
  -6   2  11    0.64    0.46
   6   2 -11    0.90    0.64
   6   2 -11    1.62    0.56
  -5  -2  11   16.73    1.36
  -5  -2  11   19.24    1.32
   5  -2 -11   18.35    1.21
  -5  -2  11   18.50    1.58
   5   2 -11   17.67    1.40
  -5   2  11   18.26    1.29
   5   2 -11   16.94    1.23
  -4  -2  11   15.29    1.22
   4  -2 -11   15.31    1.12
  -4  -2  11   14.22    1.38
  -4  -2  11   14.14    1.12
   4  -2 -11   15.77    1.04
  -4   2  11   14.73    1.03
   4   2 -11   13.96    1.21
   4   2 -11   15.95    1.09
  -4   2  11   15.34    1.13
  -3  -2  11   13.26    1.25
   3  -2 -11   13.97    1.01
  -3  -2  11   14.69    1.16
   3  -2 -11   12.87    0.91
  -3  -2  11   14.70    1.10
  -3   2  11   15.11    1.11
   3   2 -11   13.01    0.98
  -3   2  11   13.75    1.05
  -3   2  11   14.33    0.96
   3   2 -11   14.46    1.12
   2  -2 -11   37.29    1.79
  -2  -2  11   41.77    1.95
  -2  -2  11   41.07    2.05
  -2  -2  11   41.70    2.13
   2   2 -11   38.74    1.97
  -2   2  11   41.08    1.92
  -2   2  11   40.14    1.93
  -2   2  11   39.10    1.71
   1  -2 -11    2.70    0.50
  -1  -2  11    2.51    0.61
  -1  -2  11    3.45    0.66
  -1  -2  11    3.52    0.68
   1   2 -11    3.33    0.65
  -1   2  11    3.96    0.62
  -1   2  11    3.70    0.55
  -1   2  11    3.58    0.63
   0  -2  11   23.38    1.50
   0  -2  11   23.59    1.47
   0  -2 -11   24.23    1.35
   0  -2  11   24.34    1.46
   0   2 -11   24.55    1.51
   0   2  11   25.23    1.30
   0   2  11   23.54    1.40
   0   2  11   27.19    1.48
   1  -2  11   22.87    1.39
  -1  -2 -11   19.86    1.27
   1  -2  11   22.78    1.52
   1  -2  11   20.29    1.38
   1   2  11   21.04    1.24
  -1   2 -11   20.39    1.14
   1   2  11   21.90    1.38
   1   2  11   24.30    1.41
  -1   2 -11   21.49    1.45
   2  -2  11   25.78    1.68
   2  -2  11   26.94    1.62
   2  -2  11   24.57    1.44
   2   2  11   25.51    1.58
   2   2  11   25.02    1.43
   2   2  11   27.84    1.55
  -2   2 -11   21.62    1.37
   3  -2  11   55.32    2.68
   3  -2  11   61.98    2.94
   3   2  11   61.91    2.81
   3   2  11   59.14    2.70
   4  -2  11   -0.34    0.47
   4  -2  11   -0.32    0.43
   4   2  11    0.35    0.47
   4   2  11    0.64    0.51
   5  -2  11   17.56    1.55
   5  -2  11   18.44    1.63
   5   2  11   16.09    1.45
   6   2  11   29.71    2.04
   7   2  11    0.50    0.71
   8   2  11   29.15    2.29
  -7  -3  11   42.66    2.43
  -7  -3  11   42.17    2.30
   7   3 -11   40.21    2.28
   7   3 -11   40.60    2.60
  -7   3  11   40.94    2.50
   6  -3 -11   58.42    2.62
  -6  -3  11   60.50    2.91
  -6  -3  11   63.07    3.37
  -6  -3  11   60.77    2.78
   6   3 -11   61.71    3.06
  -6   3  11   61.27    2.80
   6   3 -11   59.42    2.70
  -5  -3  11    8.39    0.98
  -5  -3  11   10.86    1.46
  -5  -3  11   10.05    1.15
   5  -3 -11    6.71    0.82
   5   3 -11    6.48    0.83
  -5   3  11    6.99    0.87
   5   3 -11    6.56    0.97
   4  -3 -11   25.75    1.35
  -4  -3  11   27.33    1.87
  -4  -3  11   27.52    1.58
  -4  -3  11   25.12    1.62
  -4   3  11   25.99    1.49
   4   3 -11   23.85    1.41
   4   3 -11   26.45    1.66
  -4   3  11   24.57    1.60
   3  -3 -11  166.06    5.33
  -3  -3  11  172.39    6.03
  -3  -3  11  166.48    5.64
  -3  -3  11  173.85    6.43
  -3   3  11  170.38    5.80
  -3   3  11  170.99    6.03
   3   3 -11  170.27    6.01
   3   3 -11  167.77    5.47
  -2  -3  11   27.47    1.62
  -2  -3  11   26.49    1.56
  -2  -3  11   26.33    1.72
   2   3 -11   28.74    1.61
  -2   3  11   27.55    1.63
   2   3 -11   24.87    1.35
  -2   3  11   26.26    1.45
  -1  -3  11   28.86    1.74
  -1  -3  11   27.45    1.59
  -1  -3  11   27.54    1.63
  -1   3  11   26.98    1.47
  -1   3  11   27.01    1.62
   1   3 -11   26.91    1.60
   0  -3  11   48.34    2.24
   0  -3  11   46.95    2.35
   0  -3  11   45.71    2.31
   0   3 -11   44.09    2.26
   0   3  11   51.02    2.19
   0   3  11   50.01    2.28
   1  -3  11    0.42    0.40
   1  -3  11   -0.19    0.37
   1  -3  11    0.13    0.41
   1   3  11    0.14    0.33
  -1   3 -11   -0.09    0.34
   1   3  11   -0.31    0.31
   2  -3  11  119.92    4.56
   2  -3  11  123.11    4.44
   2  -3  11  123.48    4.69
   2   3  11  119.72    4.52
   2   3  11  117.32    4.45
  -2   3 -11  110.91    4.36
   3  -3  11    3.41    0.73
   3  -3  11    2.10    0.72
   3  -3  11    3.13    0.70
   3   3  11    2.83    0.67
  -3   3 -11    2.68    0.66
   3   3  11    1.92    0.65
   4  -3  11    0.81    0.57
   4  -3  11    0.80    0.63
   4   3  11    0.55    0.56
   4   3  11    1.00    0.55
  -4   3 -11    0.79    0.63
   5  -3  11   18.57    1.72
  -5   3 -11   15.18    1.69
   5   3  11   18.28    1.58
   6   3  11    1.10    0.75
   7   3  11   25.35    2.11
   8   3  11    1.27    0.93
  -6  -4  11    9.74    1.51
   6  -4 -11   10.61    1.11
  -6  -4  11   10.14    1.17
  -6  -4  11    9.60    1.23
  -6   4  11   11.14    1.15
   6   4 -11   11.09    1.38
   6   4 -11   10.42    1.22
  -5  -4  11   28.72    2.06
  -5  -4  11   28.06    1.74
  -5  -4  11   25.26    1.62
   5  -4 -11   24.68    1.45
   5   4 -11   26.24    1.79
   5   4 -11   23.65    1.53
  -5   4  11   27.32    1.58
  -4  -4  11    0.35    0.57
  -4  -4  11    0.28    0.44
   4  -4 -11   -0.13    0.26
  -4  -4  11    0.50    0.46
   4   4 -11    0.20    0.34
  -4   4  11    0.17    0.47
   4   4 -11   -0.10    0.39
  -4   4  11    0.75    0.38
  -3  -4  11    5.84    0.87
   3  -4 -11    4.87    0.59
  -3  -4  11    4.68    0.73
  -3  -4  11    4.33    0.91
  -3   4  11    6.13    0.96
   3   4 -11    5.09    0.80
  -3   4  11    5.53    0.68
   3   4 -11    5.75    0.74
  -2  -4  11    9.07    1.04
  -2  -4  11   10.15    1.23
   2  -4 -11   10.52    0.75
  -2  -4  11    9.83    1.05
   2   4 -11   10.38    0.87
   2   4 -11   10.94    1.14
  -2   4  11    8.03    1.04
  -2   4  11    8.65    0.79
  -1  -4  11   -0.16    0.34
  -1  -4  11    0.40    0.44
  -1  -4  11   -0.14    0.39
  -1   4  11    0.75    0.52
  -1   4  11    0.91    0.36
   1   4 -11    0.42    0.41
   0  -4  11   68.17    3.00
   0  -4  11   71.17    3.20
   0  -4  11   68.05    2.88
   0   4 -11   64.96    2.94
   0   4  11   69.52    3.03
   0   4  11   69.58    2.75
   1  -4  11    0.34    0.45
   1  -4  11    1.22    0.51
   1  -4  11    0.36    0.42
   1   4  11    0.41    0.36
   1   4  11   -0.31    0.38
  -1   4 -11    0.17    0.43
   2  -4  11    3.94    0.75
   2  -4  11    4.15    0.79
   2  -4  11    4.10    0.80
   2   4  11    5.33    0.90
   2   4  11    3.18    0.60
  -2   4 -11    2.67    0.68
  -2   4 -11    4.64    0.74
   3  -4  11   20.09    1.61
   3  -4  11   20.82    1.52
   3  -4  11   20.84    1.63
  -3   4 -11   20.97    1.54
   3   4  11   21.26    1.61
   3   4  11   19.55    1.43
  -4   4 -11    1.78    0.71
   4   4  11    1.84    0.78
   4   4  11    2.10    0.66
   5   4  11   30.95    2.15
  -5   4 -11   26.92    2.14
   6   4  11    4.57    1.11
   7   4  11    0.86    0.87
   6  -5 -11   16.25    1.42
  -6   5  11   18.18    1.37
  -5  -5  11    0.98    0.52
   5  -5 -11    0.40    0.41
  -5  -5  11    0.11    0.63
   5   5 -11    0.93    0.60
  -5   5  11    0.34    0.38
  -4  -5  11   15.25    1.69
  -4  -5  11   13.43    1.19
   4  -5 -11   12.44    0.95
  -4   5  11   12.23    1.44
   4   5 -11   12.25    1.30
  -4   5  11   13.11    1.01
   3  -5 -11    3.16    0.48
  -3  -5  11    5.03    1.05
  -3  -5  11    4.07    0.75
  -3   5  11    4.48    0.61
  -3   5  11    3.67    0.82
   3   5 -11    3.38    0.72
  -2  -5  11   19.32    1.35
  -2  -5  11   16.67    1.56
   2  -5 -11   16.56    0.94
   2   5 -11   15.88    1.27
  -2   5  11   16.69    1.39
  -2   5  11   16.44    1.04
  -1  -5  11    7.81    0.97
  -1  -5  11   14.88    1.60
  -1   5  11   11.00    1.25
  -1   5  11   10.41    0.83
   1   5 -11    9.34    1.03
   0  -5  11    6.16    0.88
   0  -5  11    7.29    1.14
   0   5  11    7.04    0.73
   0   5  11    6.09    0.99
   0   5 -11    5.46    0.84
   1  -5  11    1.16    0.54
   1  -5  11    1.28    0.56
  -1   5 -11    0.66    0.49
   1   5  11    0.76    0.37
   1   5  11    1.38    0.59
   2  -5  11    0.65    0.56
   2  -5  11    0.38    0.48
   2   5  11    0.77    0.65
  -2   5 -11    0.21    0.50
   2   5  11    0.54    0.39
   3  -5  11   14.30    1.39
   3   5  11   14.90    1.60
   3   5  11   12.94    1.13
   4   5  11    7.91    1.21
   5   5  11    0.21    0.72
   6   5  11    0.94    0.88
   7   5  11    2.44    1.11
   5  -6 -11   24.89    1.48
   4  -6 -11    3.97    0.60
  -4   6  11    3.52    0.96
   3  -6 -11   -0.20    0.24
  -3  -6  11   -0.05    0.44
  -3  -6  11   -0.02    0.61
   3   6 -11    0.02    0.44
  -3   6  11   -0.17    0.55
  -2  -6  11    0.90    0.50
   2  -6 -11    1.23    0.32
  -2  -6  11    1.13    0.71
   2   6 -11    1.01    0.52
  -2   6  11    1.23    0.62
  -1  -6  11    6.54    1.16
  -1  -6  11    6.97    0.99
   1  -6 -11    6.50    0.59
  -1   6  11    7.67    1.14
   1   6 -11    6.23    0.89
   0  -6  11   22.87    1.56
   0  -6  11   23.01    1.84
   0   6  11   21.72    1.76
   0   6 -11   21.86    1.52
   0   6  11   24.48    1.31
   1  -6  11    2.45    0.82
   1  -6  11    2.69    0.71
   1   6  11    2.32    0.48
  -1   6 -11    2.75    0.71
   1   6  11    2.92    0.79
   2  -6  11    0.79    0.68
   2   6  11    1.19    0.43
   2   6  11    0.17    0.55
   3   6  11    2.91    0.62
   3   6  11    1.89    0.88
   4   6  11    2.57    0.94
   5   6  11   10.09    1.56
   6   6  11    1.49    1.00
  -4   7  11   28.14    2.16
  -3   7  11    6.86    1.24
  -2   7  11    3.43    0.89
  -1   7  11   43.26    2.57
   0   7  11    9.66    1.33
   1   7  11    5.51    1.12
   2   7  11    8.83    1.37
   3   7  11    7.87    1.36
   4   7  11   16.54    1.89
   5   7  11    0.52    0.91
  -4   8  11    8.21    1.45
  -3   8  11   14.20    1.68
  -2   8  11   11.23    1.47
  -1   8  11   10.66    1.48
   0   8  11    4.03    1.05
   1   8  11   29.25    2.18
   2   8  11   17.54    1.90
   3   8  11   30.97    2.38
   4   8  11    0.44    0.91
  -3   9  11   39.26    2.74
  -2   9  11    1.63    0.84
  -1   9  11   10.69    1.56
   0   9  11   13.51    1.69
   1   9  11    0.45    0.78
   2   9  11   17.92    2.04
  -7   0  12    9.66    1.22
   7   0 -12   11.72    1.48
   7   0 -12    9.90    1.23
  -7   0  12   11.69    1.32
  -6   0  12    0.66    0.70
  -6   0  12    0.42    0.42
   6   0 -12    0.11    0.41
  -6   0  12   -0.08    0.43
   6   0 -12    0.49    0.54
  -5   0  12   46.78    2.37
   5   0 -12   44.56    2.13
   5   0 -12   46.15    2.38
  -5   0  12   49.76    2.25
  -5   0  12   45.58    2.72
  -4   0  12   35.52    1.80
  -4   0  12   35.64    1.96
   4   0 -12   36.08    1.78
  -4   0  12   37.41    2.27
   4   0 -12   35.26    1.94
   3   0 -12   32.95    1.65
  -3   0  12   32.29    1.84
  -3   0  12   37.27    2.14
   3   0 -12   34.74    1.85
  -3   0  12   36.95    1.77
  -2   0  12   19.77    1.17
  -2   0  12   23.41    1.53
  -2   0  12   19.26    1.37
   2   0 -12   20.68    1.37
  -2   0  12   24.14    1.36
  -1   0  12   10.76    0.99
  -1   0  12   10.48    0.80
  -1   0  12   12.34    1.09
   1   0 -12   10.50    1.07
  -1   0  12   11.25    0.99
   0   0 -12  102.76    4.10
   0   0  12  109.29    3.83
   0   0  12  110.17    4.06
   0   0  12  109.93    4.23
   0   0  12  110.62    3.94
   1   0  12   81.61    2.99
   1   0  12   80.10    3.38
   1   0  12   78.76    3.12
  -1   0 -12   74.98    3.28
   2   0  12   92.05    3.79
   2   0  12   86.46    3.47
   2   0  12   88.67    3.35
   3   0  12    0.75    0.41
   3   0  12    0.95    0.55
   3   0  12    0.50    0.46
   4   0  12    4.34    0.74
   4   0  12    5.49    1.03
   4   0  12    4.61    0.90
   5   0  12   95.25    3.82
   5   0  12   94.82    3.96
  -8  -1  12    0.76    0.59
  -7  -1  12   68.40    3.87
  -7  -1  12   72.60    3.16
  -7  -1  12   71.56    3.32
   7  -1 -12   65.09    3.10
   7   1 -12   66.09    3.12
   7   1 -12   66.05    3.45
   6  -1 -12   24.66    1.93
  -6  -1  12   23.71    1.71
   6  -1 -12   25.54    1.61
  -6  -1  12   22.95    2.04
  -6  -1  12   25.74    1.64
   6   1 -12   22.99    1.58
   6   1 -12   25.51    1.85
  -6   1  12   27.68    1.74
   5  -1 -12   45.81    2.14
   5  -1 -12   48.46    2.39
  -5  -1  12   44.54    2.20
  -5  -1  12   45.27    2.38
  -5  -1  12   46.92    2.76
  -5   1  12   48.26    2.18
   5   1 -12   46.25    2.41
  -5   1  12   46.82    2.35
   5   1 -12   46.49    2.18
  -4  -1  12   53.29    2.85
  -4  -1  12   55.88    2.44
   4  -1 -12   55.11    2.32
   4  -1 -12   53.88    2.51
  -4  -1  12   59.54    2.66
  -4   1  12   56.39    2.35
   4   1 -12   55.75    2.37
  -4   1  12   50.93    2.89
  -4   1  12   54.02    2.53
   4   1 -12   54.64    2.60
  -3  -1  12    4.84    0.77
   3  -1 -12    5.81    0.72
   3  -1 -12    5.30    0.76
  -3  -1  12    4.11    0.69
  -3  -1  12    5.77    0.93
  -3   1  12    7.21    1.10
  -3   1  12    5.13    0.74
  -3   1  12    4.74    0.70
   3   1 -12    5.11    0.73
   3   1 -12    6.44    0.89
  -3   1  12    4.87    0.77
  -2  -1  12   36.13    1.87
   2  -1 -12   37.98    1.89
  -2  -1  12   39.31    2.03
  -2  -1  12   37.51    2.09
  -2   1  12   38.05    1.83
  -2   1  12   40.28    2.13
  -2   1  12   39.78    1.82
   2   1 -12   36.93    1.96
  -2   1  12   37.99    1.96
  -1  -1  12   40.14    1.97
   1  -1 -12   39.97    1.97
  -1  -1  12   42.67    2.16
  -1  -1  12   43.07    2.12
  -1   1  12   40.74    1.90
   1   1 -12   40.24    2.05
  -1   1  12   39.33    2.04
  -1   1  12   39.85    1.88
  -1   1  12   43.62    2.09
   0  -1  12    2.46    0.59
   0  -1 -12    2.63    0.59
   0  -1  12    1.84    0.51
   0  -1  12    1.33    0.54
   0   1 -12    1.11    0.52
   0   1  12    1.34    0.45
   0   1  12    2.62    0.64
   0   1  12    0.76    0.39
  -1  -1 -12   20.36    1.42
   1  -1  12   22.09    1.52
   1  -1  12   23.75    1.49
   1  -1  12   24.18    1.43
  -1   1 -12   21.80    1.54
   1   1  12   21.83    1.37
   1   1  12   23.90    1.38
   1   1  12   21.25    1.49
   2  -1  12   14.40    1.24
   2  -1  12   14.77    1.32
   2   1  12   13.57    1.08
   2   1  12   13.74    1.24
   2   1  12   13.63    1.13
   3  -1  12   10.21    1.18
   3  -1  12    6.68    1.06
   3   1  12    8.05    1.02
   3   1  12    7.68    0.95
   3   1  12    6.46    0.99
   4  -1  12    8.88    1.22
   4  -1  12    7.70    1.07
   4   1  12    7.96    1.00
   4   1  12    9.04    1.18
   4   1  12    7.83    1.01
   5  -1  12    0.45    0.55
   5   1  12    0.57    0.53
   6   1  12    3.21    0.84
   7   1  12    1.16    0.73
   8   1  12    6.40    1.23
  -7  -2  12    9.97    1.20
  -7  -2  12   10.95    1.33
   7   2 -12    8.21    1.17
   7   2 -12    9.28    1.40
  -6  -2  12   34.05    2.38
   6  -2 -12   32.68    1.88
  -6  -2  12   31.04    1.92
  -6  -2  12   36.99    2.14
   6   2 -12   34.08    2.19
  -6   2  12   33.66    1.96
   6   2 -12   36.20    1.99
  -5  -2  12   14.58    1.68
   5  -2 -12   13.86    1.11
  -5  -2  12   16.23    1.37
  -5  -2  12   15.56    1.26
  -5   2  12   15.27    1.22
   5   2 -12   14.55    1.51
   5   2 -12   13.43    1.26
  -4  -2  12    0.12    0.42
  -4  -2  12    0.87    0.56
   4  -2 -12    0.09    0.32
  -4  -2  12    0.29    0.39
   4   2 -12   -0.21    0.31
  -4   2  12    0.32    0.37
   4   2 -12    0.09    0.47
   3  -2 -12    0.34    0.33
   3  -2 -12    0.30    0.39
  -3  -2  12    0.24    0.41
  -3  -2  12    0.48    0.43
  -3  -2  12    0.51    0.50
  -3   2  12    0.24    0.35
   3   2 -12    0.21    0.41
   3   2 -12   -0.06    0.32
  -3   2  12    0.23    0.33
   2  -2 -12   20.46    1.24
  -2  -2  12   18.73    1.44
  -2  -2  12   17.73    1.35
  -2  -2  12   20.62    1.36
  -2   2  12   18.23    1.15
   2   2 -12   18.75    1.37
  -2   2  12   20.26    1.32
  -2   2  12   19.17    1.29
   1  -2 -12   55.40    2.42
  -1  -2  12   59.17    2.57
  -1  -2  12   59.83    2.71
  -1  -2  12   59.52    2.74
   1   2 -12   55.68    2.63
  -1   2  12   62.47    2.40
  -1   2  12   55.39    2.54
  -1   2  12   58.32    2.55
   0  -2  12    2.19    0.61
   0  -2  12    2.37    0.59
   0  -2 -12    2.04    0.54
   0  -2  12    2.79    0.63
   0   2 -12    2.31    0.66
   0   2  12    1.83    0.52
   0   2  12    2.58    0.54
   0   2  12    2.59    0.58
   1  -2  12    0.91    0.54
   1  -2  12    2.04    0.59
   1  -2  12    0.75    0.42
  -1  -2 -12    1.89    0.57
   1   2  12    0.86    0.47
  -1   2 -12    0.85    0.51
   1   2  12    0.71    0.41
   1   2  12    0.77    0.46
   2  -2  12   15.38    1.30
   2  -2  12   11.57    1.27
   2   2  12   13.78    1.15
   2   2  12   13.49    1.19
   3  -2  12    7.70    1.14
   3  -2  12    9.41    1.15
   3   2  12    9.61    1.11
   3   2  12    8.92    1.12
   4  -2  12   45.66    2.44
   4  -2  12   41.71    2.53
   4   2  12   43.90    2.37
   4   2  12   43.17    2.43
   5   2  12    0.98    0.68
   6   2  12    3.49    0.90
   7   2  12    5.12    1.13
   8   2  12    8.31    1.42
  -7  -3  12    6.40    1.07
   7   3 -12    4.50    0.99
  -6  -3  12    1.94    0.65
  -6  -3  12    1.63    0.67
   6  -3 -12    1.29    0.58
  -6  -3  12    1.91    0.87
   6   3 -12    2.31    0.81
   6   3 -12    1.57    0.65
  -6   3  12    2.49    0.63
  -5  -3  12    6.39    1.14
  -5  -3  12    6.05    0.97
   5  -3 -12    6.55    0.84
  -5  -3  12    6.81    0.96
   5   3 -12    5.45    0.81
  -5   3  12    5.80    0.81
   5   3 -12    5.55    0.99
  -4  -3  12    0.19    0.47
   4  -3 -12    1.51    0.46
  -4  -3  12   -0.79    0.31
  -4  -3  12    0.47    0.58
   4   3 -12   -0.20    0.40
   4   3 -12    0.48    0.38
  -4   3  12    0.17    0.45
  -4   3  12    0.22    0.36
  -3  -3  12    9.04    1.03
   3  -3 -12   10.84    0.85
  -3  -3  12   10.91    1.32
  -3  -3  12   10.95    1.20
  -3   3  12   10.68    1.19
   3   3 -12    7.82    0.89
  -3   3  12   10.92    0.96
   3   3 -12    9.27    1.10
  -2  -3  12    4.53    0.74
  -2  -3  12    6.22    0.96
  -2  -3  12    4.99    0.83
  -2   3  12    5.24    0.74
  -2   3  12    5.42    0.86
   2   3 -12    6.72    0.81
   2   3 -12    5.25    0.86
  -1  -3  12    1.15    0.54
  -1  -3  12    0.78    0.53
  -1  -3  12    1.43    0.56
   1   3 -12    1.68    0.56
  -1   3  12    1.45    0.55
  -1   3  12    1.13    0.44
   0  -3  12    3.69    0.70
   0  -3  12    4.10    0.77
   0  -3  12    3.10    0.68
   0   3 -12    2.83    0.70
   0   3  12    4.04    0.69
   0   3  12    4.22    0.76
   1  -3  12    0.07    0.43
   1  -3  12    0.11    0.44
   1  -3  12    1.06    0.50
  -1   3 -12    0.44    0.51
   1   3  12    0.04    0.45
   1   3  12    0.53    0.40
   2  -3  12    6.05    0.96
   2  -3  12    5.81    0.97
   2  -3  12    5.38    0.83
  -2   3 -12    5.74    0.96
   2   3  12    6.03    0.87
   2   3  12    5.90    0.90
   3  -3  12    2.28    0.72
   3  -3  12    2.44    0.73
   3   3  12    2.58    0.70
   3   3  12    2.64    0.66
   4  -3  12   -0.02    0.60
   4  -3  12    0.40    0.68
   4   3  12   -0.07    0.55
   5   3  12    0.58    0.64
   6   3  12    0.63    0.76
   7   3  12    1.13    0.91
  -6  -4  12   42.20    2.40
  -6   4  12   40.87    2.21
  -5  -4  12    3.55    0.75
   5  -4 -12    4.95    0.73
  -5  -4  12    4.69    0.87
  -5  -4  12    4.67    1.08
   5   4 -12    4.07    0.86
   5   4 -12    3.66    0.69
  -5   4  12    5.06    0.80
  -4  -4  12    2.41    0.64
   4  -4 -12    2.53    0.50
  -4  -4  12    3.85    0.82
  -4  -4  12    1.72    0.74
  -4   4  12    3.28    0.82
   4   4 -12    3.17    0.65
  -4   4  12    2.86    0.58
   4   4 -12    2.93    0.71
  -3  -4  12    1.27    0.55
  -3  -4  12    1.79    0.66
  -3  -4  12    2.46    0.63
   3  -4 -12    1.47    0.40
  -3   4  12    1.30    0.44
   3   4 -12    0.86    0.49
  -3   4  12    0.56    0.52
   3   4 -12    1.72    0.52
  -2  -4  12    7.67    0.99
  -2  -4  12    9.03    1.24
   2  -4 -12    8.35    0.73
  -2  -4  12    8.21    1.03
  -2   4  12    8.26    0.86
  -2   4  12    8.34    1.09
   2   4 -12    8.50    0.92
   2   4 -12   10.47    1.19
  -1  -4  12   74.29    3.06
  -1  -4  12   68.65    3.12
  -1  -4  12   67.79    3.29
   1   4 -12   67.53    3.07
  -1   4  12   74.16    2.89
  -1   4  12   72.36    3.21
   0  -4  12    1.16    0.55
   0  -4  12    0.52    0.48
   0  -4  12    0.47    0.46
   0   4  12   -0.76    0.41
   0   4  12    0.61    0.39
   0   4 -12    0.29    0.48
   1  -4  12    2.11    0.67
   1  -4  12    0.91    0.52
   1  -4  12    0.30    0.52
   1   4  12    1.97    0.53
   1   4  12    2.60    0.72
  -1   4 -12    1.66    0.59
   2  -4  12   35.69    2.11
   2  -4  12   32.40    1.95
   2  -4  12   31.59    1.99
   2   4  12   30.85    1.80
   2   4  12   33.04    2.03
  -2   4 -12   31.85    2.06
   3  -4  12   11.42    1.38
   3   4  12   14.74    1.51
   3   4  12   14.87    1.28
   4   4  12   52.20    2.83
   5   4  12    2.19    0.90
   6   4  12    4.33    1.13
   7   4  12   16.76    2.00
   5  -5 -12   19.70    1.29
  -5   5  12   18.31    1.32
  -4  -5  12   87.06    3.63
  -4  -5  12   93.26    4.40
   4  -5 -12   93.15    3.28
  -4   5  12   93.44    3.52
  -4   5  12   87.57    4.01
   4   5 -12   90.84    3.89
   3  -5 -12    3.12    0.52
  -3  -5  12    2.60    0.81
  -3  -5  12    2.04    0.62
  -3   5  12    1.86    0.46
   3   5 -12    1.13    0.57
  -3   5  12    1.76    0.70
   2  -5 -12   13.41    0.90
  -2  -5  12   17.47    1.83
  -2  -5  12   14.35    1.25
  -2   5  12   11.41    1.33
   2   5 -12   12.89    1.32
  -2   5  12   15.46    1.03
  -1  -5  12   50.80    2.88
  -1  -5  12   58.25    2.62
  -1   5  12   53.45    2.26
  -1   5  12   54.32    2.78
   1   5 -12   50.48    2.53
   0  -5  12    0.93    0.56
   0  -5  12    1.08    0.62
   0   5 -12   -0.04    0.42
   0   5  12    0.90    0.59
   0   5  12    0.51    0.35
   1  -5  12   59.97    2.98
   1  -5  12   55.90    2.66
   1   5  12   52.96    2.78
  -1   5 -12   48.99    2.64
   1   5  12   55.68    2.41
   2  -5  12    0.45    0.56
   2   5  12   -0.37    0.47
   2   5  12    0.21    0.41
   3   5  12    1.27    0.75
   4   5  12   10.78    1.49
   5   5  12    0.38    0.68
   6   5  12   11.03    1.62
   4  -6 -12   18.10    1.17
  -4   6  12   17.94    1.68
   3  -6 -12   21.70    1.17
  -3   6  12   21.85    1.85
   2  -6 -12    3.50    0.51
  -2   6  12    3.69    0.96
   1  -6 -12    6.84    0.65
  -1  -6  12    8.28    1.32
  -1   6  12    7.57    1.15
   0  -6  12   43.40    2.70
   0   6  12   42.35    2.52
   1  -6  12   23.57    1.95
   1   6  12   18.77    1.71
   2   6  12   30.93    2.21
   2   6  12   32.15    1.68
   3   6  12    0.31    0.72
   4   6  12    6.88    1.31
   5   6  12   39.70    2.77
   6   6  12    0.59    0.96
  -4   7  12    2.70    0.94
  -3   7  12   11.04    1.58
  -2   7  12   23.73    1.97
  -1   7  12    7.42    1.24
   0   7  12    3.20    0.97
   1   7  12    1.09    0.77
   2   7  12   11.00    1.49
   3   7  12    8.75    1.49
   4   7  12    1.20    0.94
   5   7  12    0.17    0.91
  -4   8  12    0.08    0.81
  -3   8  12   -0.98    0.69
  -2   8  12    1.46    0.90
  -1   8  12    0.55    0.82
   0   8  12    1.04    0.82
   1   8  12    0.75    0.82
   2   8  12    1.01    0.87
   3   8  12    0.02    0.82
  -3   9  12   10.43    1.60
  -2   9  12   15.10    1.84
  -1   9  12    6.80    1.36
   0   9  12    2.42    1.06
   1   9  12   -0.08    0.85
   7   0 -13    0.06    0.66
  -6   0  13    0.10    0.45
  -6   0  13    0.52    0.69
  -6   0  13   -0.27    0.46
   6   0 -13   -0.27    0.44
   6   0 -13   -0.19    0.53
   5   0 -13   -0.24    0.33
   5   0 -13   -0.37    0.45
  -5   0  13   -0.23    0.48
  -5   0  13   -0.48    0.42
  -5   0  13    0.21    0.40
  -4   0  13    0.26    0.54
   4   0 -13   -0.06    0.34
   4   0 -13   -0.65    0.38
  -4   0  13   -0.24    0.36
  -4   0  13    0.35    0.41
  -3   0  13   -0.07    0.38
   3   0 -13   -0.34    0.30
   3   0 -13    0.10    0.42
  -3   0  13   -0.29    0.42
  -3   0  13   -0.09    0.33
  -2   0  13    0.09    0.30
  -2   0  13    0.20    0.36
   2   0 -13    0.24    0.40
  -2   0  13   -0.11    0.38
  -2   0  13    0.38    0.43
  -1   0  13   -0.17    0.34
  -1   0  13    0.80    0.47
   1   0 -13    0.34    0.41
  -1   0  13    0.11    0.29
  -1   0  13    0.17    0.36
   0   0  13    0.17    0.39
   0   0  13    0.88    0.49
   0   0 -13    0.77    0.45
   0   0  13    0.86    0.37
  -1   0 -13    0.37    0.46
   1   0  13    0.67    0.42
   1   0  13    0.72    0.51
   2   0  13    0.26    0.46
   2   0  13    0.48    0.53
   3   0  13   -0.13    0.48
   3   0  13    0.22    0.43
   4   0  13   -0.71    0.48
  -7  -1  13    7.56    1.07
   7   1 -13    7.15    1.30
  -6  -1  13   22.31    1.95
   6  -1 -13   18.74    1.44
  -6  -1  13   19.72    1.58
  -6  -1  13   18.13    1.45
   6   1 -13   18.47    1.66
  -6   1  13   19.47    1.53
   6   1 -13   16.47    1.42
  -5  -1  13    1.06    0.57
  -5  -1  13    0.53    0.50
  -5  -1  13    0.44    0.57
   5  -1 -13    0.22    0.42
   5   1 -13    0.02    0.48
   5   1 -13    0.82    0.51
  -5   1  13   -0.43    0.38
  -4  -1  13   32.52    1.80
   4  -1 -13   32.12    1.69
  -4  -1  13   32.89    2.17
   4  -1 -13   30.08    1.82
  -4  -1  13   30.70    1.90
   4   1 -13   34.01    1.98
   4   1 -13   30.40    1.71
  -4   1  13   33.07    1.73
  -4   1  13   29.09    1.82
   3  -1 -13   31.78    1.65
   3  -1 -13   30.07    1.77
  -3  -1  13   31.51    2.03
  -3  -1  13   29.99    1.73
  -3  -1  13   33.54    1.93
  -3   1  13   33.69    1.71
  -3   1  13   34.07    1.78
   3   1 -13   29.74    1.66
  -3   1  13   34.36    2.11
  -3   1  13   31.34    1.81
   3   1 -13   32.38    1.88
  -2  -1  13    6.31    0.85
  -2  -1  13    6.53    0.93
   2  -1 -13    7.30    0.91
  -2  -1  13    6.88    0.98
  -2   1  13    5.76    0.84
  -2   1  13    7.84    1.03
   2   1 -13    7.27    0.97
  -2   1  13    6.49    0.83
  -2   1  13    7.31    0.87
  -1  -1  13    5.41    0.86
  -1  -1  13    6.08    0.96
   1  -1 -13    4.98    0.76
  -1  -1  13    7.76    1.00
  -1   1  13    5.21    0.76
   1   1 -13    5.70    0.90
  -1   1  13    6.39    0.91
  -1   1  13    6.68    0.86
   0  -1  13    0.25    0.39
   0  -1  13   -0.62    0.35
   0  -1  13    0.34    0.55
   0  -1 -13    0.42    0.45
   0   1 -13    0.17    0.46
   0   1  13    0.80    0.44
   0   1  13   -0.04    0.43
   0   1  13    0.45    0.38
   1  -1  13   39.42    2.22
   1  -1  13   39.03    2.06
  -1  -1 -13   35.49    2.03
  -1   1 -13   40.38    2.21
   1   1  13   42.51    1.97
   1   1  13   38.11    1.94
   1   1  13   34.67    2.08
   2  -1  13   28.89    1.79
   2  -1  13   27.51    1.88
   2   1  13   28.99    1.71
   2   1  13   28.31    1.84
   2   1  13   28.66    1.65
   3  -1  13    0.27    0.49
   3  -1  13    0.16    0.54
   3   1  13   -0.02    0.42
   3   1  13   -0.03    0.50
   4  -1  13    1.62    0.65
   4  -1  13    1.87    0.85
   4   1  13    1.48    0.61
   5   1  13   -0.16    0.52
   6   1  13    7.80    1.16
   6  -2 -13   17.61    1.40
  -6  -2  13   16.44    1.42
  -6  -2  13   14.09    1.77
  -6  -2  13   17.39    1.53
   6   2 -13   16.29    1.70
  -6   2  13   16.81    1.40
   6   2 -13   12.32    1.30
   5  -2 -13   19.40    1.33
  -5  -2  13   20.44    1.57
  -5  -2  13   18.91    1.77
  -5  -2  13   18.33    1.44
   5   2 -13   16.44    1.33
   5   2 -13   17.77    1.57
  -5   2  13   18.12    1.40
  -4  -2  13   28.77    2.01
   4  -2 -13   24.03    1.45
  -4  -2  13   28.65    1.71
  -4  -2  13   24.35    1.71
   4   2 -13   26.46    1.58
   4   2 -13   24.16    1.72
  -4   2  13   24.98    1.61
  -3  -2  13    0.59    0.47
  -3  -2  13    0.72    0.49
   3  -2 -13    0.73    0.39
  -3  -2  13    0.62    0.57
   3   2 -13    3.66    0.73
  -3   2  13    0.74    0.43
  -3   2  13    0.82    0.49
   3   2 -13    0.73    0.43
  -2  -2  13   15.02    1.28
  -2  -2  13   14.31    1.33
  -2  -2  13   14.87    1.24
  -2   2  13   15.27    1.19
  -2   2  13   14.12    1.18
   2   2 -13   12.86    1.23
  -1  -2  13   64.95    2.89
  -1  -2  13   71.24    3.12
  -1  -2  13   65.13    3.06
  -1   2  13   67.24    2.89
  -1   2  13   68.62    2.94
   1   2 -13   63.35    2.96
   0  -2  13   10.47    1.13
   0  -2  13    9.37    1.16
   0  -2  13   11.55    1.24
   0   2  13    9.56    1.07
   0   2  13    8.02    1.01
   0   2 -13    7.84    1.05
   1  -2  13   63.49    2.87
   1  -2  13   67.21    3.07
   1   2  13   66.20    2.83
  -1   2 -13   57.17    2.96
   1   2  13   65.71    2.94
   2  -2  13    6.93    1.03
   2  -2  13    8.00    1.14
  -2   2 -13    6.31    1.04
   2   2  13    7.40    0.98
   2   2  13    7.71    1.05
   3  -2  13    7.73    1.09
   3  -2  13    6.59    1.13
   3   2  13   11.09    1.29
   3   2  13    7.07    0.99
   4  -2  13   47.97    2.83
   4   2  13   50.60    2.59
   5   2  13    0.18    0.60
   6   2  13   16.00    1.66
   7   2  13   12.51    1.62
  -6  -3  13    0.63    0.59
   6   3 -13    0.61    0.49
  -5  -3  13  149.11    5.63
  -5  -3  13  153.84    6.16
  -5  -3  13  144.48    5.27
   5  -3 -13  141.83    4.98
   5   3 -13  136.57    5.10
  -5   3  13  146.49    5.37
   5   3 -13  146.64    5.69
  -4  -3  13    4.59    0.85
  -4  -3  13    2.79    0.72
  -4  -3  13    3.60    0.87
   4  -3 -13    4.51    0.70
   4   3 -13    4.47    0.77
   4   3 -13    3.13    0.78
  -4   3  13    4.10    0.73
  -3  -3  13    5.89    0.91
  -3  -3  13    4.90    0.85
   3  -3 -13    6.08    0.75
  -3  -3  13    5.17    1.01
   3   3 -13    5.55    0.91
  -3   3  13    5.09    0.92
   3   3 -13    6.21    0.86
  -3   3  13    5.20    0.76
  -2  -3  13   57.10    2.71
  -2  -3  13   52.57    2.53
  -2  -3  13   58.06    2.89
  -2   3  13   57.69    2.66
   2   3 -13   52.30    2.62
   2   3 -13   49.16    2.29
  -2   3  13   53.70    2.47
  -1  -3  13    0.82    0.53
  -1  -3  13    0.54    0.51
  -1  -3  13    0.72    0.56
   1   3 -13    0.41    0.48
  -1   3  13    0.28    0.48
  -1   3  13    0.02    0.38
   0  -3  13   82.99    3.57
   0  -3  13   84.82    3.42
   0  -3  13   77.81    3.53
   0   3 -13   77.12    3.50
   0   3  13   82.77    3.46
   0   3  13   78.72    3.32
   1  -3  13    8.23    1.17
   1  -3  13    8.41    1.10
   1  -3  13    7.65    1.03
   1   3  13    9.74    1.14
   1   3  13    8.28    1.00
  -1   3 -13    8.50    1.16
   2  -3  13    1.31    0.67
   2  -3  13    2.15    0.70
   2   3  13    2.13    0.66
   2   3  13    1.67    0.67
  -2   3 -13    1.55    0.66
   3  -3  13   14.62    1.52
   3  -3  13   18.54    1.69
   3   3  13   20.84    1.61
   4   3  13    0.50    0.61
   5   3  13   25.25    2.02
   6   3  13    1.24    0.85
   7   3  13   -1.03    0.69
  -5  -4  13    6.08    1.02
   5  -4 -13    4.17    0.76
   5   4 -13    5.30    0.90
  -5   4  13    4.11    0.75
  -4  -4  13    8.51    1.12
  -4  -4  13    8.10    1.37
   4  -4 -13    9.52    0.95
  -4  -4  13    7.81    1.02
  -4   4  13    8.21    1.24
  -4   4  13    9.43    1.01
   4   4 -13    7.36    1.11
   4   4 -13    9.52    1.09
  -3  -4  13    4.55    1.04
  -3  -4  13    4.89    0.89
   3  -4 -13    4.21    0.63
  -3  -4  13    3.73    0.80
   3   4 -13    4.58    0.78
  -3   4  13    4.60    0.72
  -3   4  13    3.09    0.86
   3   4 -13    5.19    0.94
   2  -4 -13   37.33    1.68
  -2  -4  13   37.15    2.14
  -2  -4  13   38.96    2.09
  -2  -4  13   35.47    2.29
  -2   4  13   34.49    2.12
   2   4 -13   34.36    1.82
  -2   4  13   38.58    1.88
   2   4 -13   34.01    2.06
  -1  -4  13    4.13    0.84
  -1  -4  13    5.51    1.02
  -1  -4  13    5.56    0.95
   1   4 -13    4.79    0.88
  -1   4  13    5.14    0.75
  -1   4  13    6.52    1.06
   0  -4  13    0.41    0.53
   0  -4  13    0.26    0.55
   0  -4  13    1.06    0.59
   0   4  13    0.62    0.45
   0   4  13    0.29    0.56
   0   4 -13    0.42    0.51
   1  -4  13   34.96    2.10
   1  -4  13   34.60    2.13
   1  -4  13   34.29    2.04
   1   4  13   31.17    2.02
   1   4  13   31.26    1.80
  -1   4 -13   31.40    2.05
   2  -4  13   10.59    1.46
   2   4  13    9.79    1.26
   2   4  13    9.86    1.09
   3   4  13   29.45    2.04
   4   4  13    9.77    1.33
   5   4  13    6.31    1.25
   6   4  13   13.05    1.77
   4  -5 -13   15.75    1.12
  -4   5  13   16.75    1.21
  -4   5  13   13.13    1.55
  -3  -5  13   13.18    1.71
   3  -5 -13   12.14    0.94
  -3   5  13   13.86    1.08
  -3   5  13   12.50    1.54
  -2  -5  13    1.50    0.67
  -2  -5  13    1.71    0.75
   2  -5 -13    1.01    0.40
  -2   5  13    2.55    0.84
  -2   5  13    1.50    0.46
   2   5 -13    0.64    0.61
  -1  -5  13   -0.18    0.47
  -1  -5  13    0.58    0.64
   1   5 -13    0.22    0.51
  -1   5  13   -0.08    0.59
  -1   5  13    0.51    0.39
   0  -5  13    2.84    0.85
   0   5  13    2.20    0.54
   0   5  13    3.50    0.93
   1  -5  13   14.57    1.64
   1   5  13   14.37    1.15
   1   5  13   15.22    1.63
   2   5  13    7.83    1.22
   3   5  13    1.43    0.80
   4   5  13    0.73    0.78
   5   5  13    0.87    0.82
   6   5  13    3.28    1.11
  -4   6  13    3.89    1.02
   3  -6 -13    7.58    0.83
  -3   6  13    5.16    1.12
   2  -6 -13   19.34    1.11
  -2   6  13   19.85    1.77
  -1   6  13    1.56    0.74
   0   6  13    0.37    0.66
   1   6  13    2.46    0.91
   2   6  13    3.99    1.05
   3   6  13    6.01    1.19
   4   6  13    0.52    0.84
   5   6  13    2.94    1.12
  -4   7  13    7.12    1.34
  -3   7  13   14.82    1.76
  -2   7  13   14.26    1.71
  -1   7  13    1.04    0.79
   0   7  13    4.60    1.10
   1   7  13    8.19    1.38
   2   7  13    7.87    1.30
   3   7  13    2.13    0.95
   4   7  13    0.11    0.84
  -4   8  13   16.74    2.05
  -3   8  13    4.03    1.08
  -2   8  13    1.76    0.92
  -1   8  13   44.97    2.91
   0   8  13    9.56    1.51
   1   8  13   31.36    2.44
   2   8  13    0.85    0.91
  -6   0  14   19.85    2.24
   6   0 -14   18.28    1.72
  -5   0  14   45.76    2.30
   5   0 -14   42.86    2.48
  -5   0  14   52.92    3.06
  -5   0  14   50.32    2.57
   5   0 -14   43.83    2.27
   4   0 -14   10.33    1.12
   4   0 -14    9.68    1.20
  -4   0  14    9.52    1.06
  -4   0  14   11.46    1.25
  -4   0  14   10.94    1.48
   3   0 -14    6.79    1.00
  -3   0  14    6.82    0.94
   3   0 -14    4.46    0.74
  -3   0  14    5.61    1.00
  -3   0  14    5.47    0.92
  -2   0  14  126.93    4.90
   2   0 -14  111.00    4.56
  -2   0  14  118.19    4.71
  -2   0  14  121.30    4.36
   1   0 -14   20.29    1.53
  -1   0  14   19.73    1.59
  -1   0  14   23.11    1.52
   0   0  14   75.65    3.39
   0   0  14   77.69    3.16
   0   0 -14   72.38    3.30
  -1   0 -14    1.76    0.69
   1   0  14    2.07    0.61
   1   0  14    2.03    0.67
   2   0  14    0.82    0.60
  -2   0 -14    1.63    0.68
   2   0  14    0.53    0.53
   3   0  14  121.18    4.67
  -6  -1  14   27.14    1.81
   6   1 -14   27.67    2.08
  -5  -1  14   15.77    1.36
  -5  -1  14   15.22    1.42
  -5  -1  14   16.72    1.93
   5  -1 -14   14.68    1.25
  -5   1  14   15.14    1.38
   5   1 -14   16.41    1.49
   5   1 -14   16.18    1.31
  -4  -1  14   15.41    1.42
  -4  -1  14   17.55    1.39
   4  -1 -14   17.37    1.28
  -4  -1  14   19.10    1.71
  -4   1  14   16.47    1.39
   4   1 -14   18.37    1.36
   3  -1 -14   33.53    1.94
  -3  -1  14   35.53    2.22
  -3  -1  14   35.03    1.92
   3  -1 -14   34.05    1.79
  -3  -1  14   34.89    2.07
  -3   1  14   35.11    2.00
   3   1 -14   31.13    1.97
   3   1 -14   31.07    1.78
  -2  -1  14    0.15    0.48
  -2  -1  14    0.40    0.46
   2  -1 -14    1.06    0.49
  -2  -1  14    0.76    0.54
  -2   1  14    0.99    0.52
  -2   1  14    0.04    0.39
   2   1 -14    0.10    0.47
  -2   1  14    0.82    0.45
  -1  -1  14   24.93    1.74
  -1  -1  14   24.11    1.64
  -1  -1  14   23.60    1.58
   1  -1 -14   22.17    1.51
  -1   1  14   21.54    1.41
  -1   1  14   20.67    1.56
  -1   1  14   24.10    1.50
   1   1 -14   22.20    1.61
   0  -1  14   10.32    1.22
   0  -1  14    9.42    1.07
   0  -1 -14    8.60    1.11
   0   1 -14    8.57    1.12
   0   1  14    9.52    1.04
   0   1  14    9.73    1.19
   0   1  14    7.97    1.00
   1  -1  14    6.03    0.90
  -1  -1 -14    6.32    0.97
   1  -1  14    7.18    1.09
   1   1  14    7.43    0.91
  -1   1 -14    6.13    1.01
   1   1  14    6.22    0.96
   2  -1  14    2.16    0.69
   2  -1  14    2.34    0.75
  -2   1 -14    1.04    0.65
   2   1  14    2.29    0.65
   2   1  14    1.18    0.58
   3  -1  14   -0.48    0.49
   3   1  14    0.25    0.51
   4   1  14    2.96    0.77
  -6  -2  14    0.72    0.59
   6   2 -14    0.78    0.62
   5  -2 -14    2.70    0.66
  -5  -2  14    2.58    0.78
  -5  -2  14    2.61    0.73
  -5  -2  14    2.85    0.90
  -5   2  14    2.26    0.66
   5   2 -14    2.23    0.84
   5   2 -14    2.64    0.67
  -4  -2  14    8.08    1.28
   4  -2 -14    6.85    0.89
  -4  -2  14    7.27    1.07
  -4  -2  14    7.73    1.03
  -4   2  14   10.36    1.16
   4   2 -14    8.67    1.06
   4   2 -14    7.54    1.10
  -3  -2  14   35.70    2.02
  -3  -2  14   39.50    2.22
   3  -2 -14   35.83    1.83
  -3  -2  14   35.42    2.28
  -3   2  14   38.01    2.06
   3   2 -14   34.68    1.89
   3   2 -14   37.77    2.18
  -3   2  14   35.14    2.01
  -2  -2  14    4.61    0.90
  -2  -2  14    3.59    0.79
  -2  -2  14    3.33    0.73
  -2   2  14    3.68    0.78
  -2   2  14    4.63    0.77
   2   2 -14    3.95    0.83
  -1  -2  14    7.62    1.12
  -1  -2  14    5.66    0.90
  -1  -2  14    6.74    1.02
  -1   2  14    6.01    0.91
   1   2 -14    5.31    0.94
  -1   2  14    7.21    0.96
   0  -2  14   11.43    1.24
   0  -2  14   12.01    1.35
   0   2  14   10.01    1.16
   0   2 -14   12.21    1.40
   0   2  14   12.37    1.14
   1  -2  14   19.47    1.65
   1  -2  14   22.46    1.61
   1   2  14   20.48    1.45
  -1   2 -14   18.35    1.59
   1   2  14   19.89    1.51
   2  -2  14   25.88    1.95
   2  -2  14   26.26    1.84
   2   2  14   27.44    1.75
  -2   2 -14   25.35    1.95
   2   2  14   24.60    1.78
   3   2  14    0.59    0.57
   4   2  14   11.91    1.36
   5   2  14    4.71    0.98
   6   2  14    6.88    1.19
  -5  -3  14    1.85    0.82
  -5  -3  14    3.09    0.86
   5   3 -14    3.84    0.80
  -4  -3  14    5.96    1.16
  -4  -3  14    6.24    0.99
   4  -3 -14    7.11    0.89
  -4  -3  14    8.73    1.22
   4   3 -14    6.48    0.97
  -4   3  14    5.89    0.86
   4   3 -14    7.63    1.18
  -3  -3  14    0.88    0.50
   3  -3 -14    0.27    0.40
  -3  -3  14   -0.03    0.53
  -3  -3  14    0.29    0.53
  -3   3  14    0.33    0.55
   3   3 -14    0.63    0.48
  -3   3  14    0.71    0.45
   3   3 -14    0.38    0.57
  -2  -3  14    0.51    0.56
  -2  -3  14   -0.19    0.48
  -2  -3  14    0.77    0.49
   2   3 -14    0.48    0.44
  -2   3  14    0.57    0.53
  -2   3  14    0.57    0.44
   2   3 -14    0.13    0.49
  -1  -3  14    0.03    0.52
  -1  -3  14    0.46    0.56
  -1  -3  14    0.12    0.49
  -1   3  14   -0.14    0.40
   1   3 -14    0.19    0.51
  -1   3  14   -0.18    0.45
   0  -3  14    5.27    0.95
   0  -3  14    8.27    1.16
   0  -3  14    5.38    0.88
   0   3  14    6.92    0.92
   0   3  14    9.16    1.16
   0   3 -14    6.59    1.10
   1  -3  14    2.13    0.76
   1  -3  14    2.19    0.75
   1   3  14    2.21    0.64
   1   3  14    2.35    0.70
  -1   3 -14    2.42    0.80
   2  -3  14    1.17    0.67
   2   3  14    0.03    0.56
   3   3  14    0.56    0.66
   4   3  14    0.21    0.59
   5   3  14    2.50    0.91
   6   3  14    3.11    1.00
  -5  -4  14    7.44    1.19
  -4  -4  14    4.99    0.98
  -4   4  14    5.77    1.09
   4   4 -14    5.82    1.03
  -3  -4  14   40.09    2.49
   3  -4 -14   38.98    1.90
  -3  -4  14   43.55    2.45
  -3  -4  14   43.99    2.71
  -3   4  14   45.44    2.18
  -3   4  14   47.53    2.59
   3   4 -14   40.84    2.12
  -2  -4  14    1.04    0.59
  -2  -4  14    0.81    0.66
   2  -4 -14   -0.13    0.33
  -2  -4  14    0.29    0.54
   2   4 -14    0.56    0.46
   2   4 -14    0.60    0.54
  -2   4  14    0.95    0.45
  -2   4  14    1.76    0.66
  -1  -4  14    2.37    0.71
  -1  -4  14    2.10    0.74
  -1  -4  14    1.02    0.64
  -1   4  14    2.73    0.77
   1   4 -14    2.18    0.69
  -1   4  14    2.25    0.58
   0  -4  14   35.92    2.26
   0  -4  14   38.11    2.32
   0   4  14   36.58    2.22
   0   4  14   34.65    1.94
   1  -4  14   17.37    1.77
   1   4  14   17.61    1.56
   2   4  14   26.81    1.95
   3   4  14    2.83    0.93
   4   4  14   10.27    1.46
   5   4  14   16.86    1.82
   6   4  14   13.91    1.81
  -4   5  14    3.21    0.99
  -3   5  14   34.28    2.32
  -3   5  14   31.62    1.95
  -2   5  14    4.53    0.96
  -1  -5  14   38.54    2.61
  -1   5  14   47.69    2.17
  -1   5  14   44.33    2.59
   0  -5  14    0.10    0.59
   0   5  14    0.77    0.72
   1   5  14   -0.12    0.63
   2   5  14    8.05    1.25
   3   5  14    0.28    0.73
   4   5  14   12.62    1.67
   5   5  14   -0.07    0.81
  -4   6  14    0.50    0.80
  -3   6  14    5.35    1.14
  -2   6  14   47.40    2.84
  -1   6  14   14.51    1.69
   0   6  14   38.25    2.50
   1   6  14    2.95    1.00
   2   6  14   -0.18    0.69
   3   6  14   52.59    3.11
   4   6  14    1.02    0.90
  -4   7  14    8.19    1.51
  -3   7  14    7.26    1.42
  -2   7  14    1.14    0.91
  -1   7  14    0.40    0.73
   0   7  14    8.56    1.43
   1   7  14    8.08    1.40
   2   7  14   -0.74    0.70
   3   7  14    0.59    0.92
  -4   8  14    0.11    0.86
  -3   8  14    2.25    1.08
  -2   8  14    0.17    0.77
  -1   8  14    1.27    0.84
   0   8  14    0.79    0.92
   1   8  14    3.39    1.19
  -5   0  15    1.07    0.72
  -4   0  15    0.00    0.58
   4   0 -15    0.22    0.48
  -4   0  15    0.63    0.56
  -4   0  15   -0.01    0.42
   4   0 -15    0.40    0.53
   3   0 -15   -0.53    0.45
  -3   0  15   -0.02    0.58
  -3   0  15   -0.12    0.47
  -3   0  15   -0.08    0.42
   3   0 -15   -0.27    0.37
  -2   0  15   -0.01    0.42
   2   0 -15    0.23    0.45
  -2   0  15    0.40    0.49
  -1   0  15    0.07    0.50
  -1   0  15    0.59    0.55
   1   0 -15   -0.33    0.46
   0   0 -15   -0.06    0.48
   0   0  15    0.77    0.53
   0   0  15    1.69    0.64
   1   0  15    0.35    0.50
  -1   0 -15    0.27    0.53
   1   0  15    0.05    0.54
  -2   0 -15    0.46    0.61
  -5  -1  15   16.51    1.46
  -5  -1  15   20.30    2.19
   5   1 -15   15.49    1.68
  -4  -1  15    2.45    0.86
  -4  -1  15    2.72    0.75
  -4  -1  15    2.63    0.70
   4  -1 -15    2.78    0.70
   4   1 -15    2.08    0.76
   4   1 -15    2.99    0.74
   3  -1 -15   -0.25    0.36
  -3  -1  15    0.78    0.55
  -3  -1  15   -0.09    0.56
  -3  -1  15    0.01    0.47
   3   1 -15    0.78    0.50
  -3   1  15    0.42    0.52
   3   1 -15   -0.01    0.50
  -2  -1  15    2.52    0.72
  -2  -1  15    2.70    0.77
   2   1 -15    3.94    0.83
  -2   1  15    2.61    0.73
  -2   1  15    2.21    0.63
  -1  -1  15   44.44    2.45
  -1  -1  15   39.99    2.22
  -1   1  15   44.60    2.13
   1   1 -15   37.01    2.26
  -1   1  15   39.14    2.27
   0  -1  15   25.59    1.85
   0   1 -15   21.71    1.72
   0   1  15   23.82    1.75
   0   1  15   23.47    1.49
   1  -1  15   -0.23    0.52
   1  -1  15   -0.10    0.45
  -1   1 -15    0.80    0.64
   2  -1  15    2.88    0.81
  -2   1 -15    1.19    0.69
  -5  -2  15    1.41    0.72
  -4  -2  15   18.60    1.56
  -4  -2  15   21.37    1.72
  -4  -2  15   22.15    1.93
   4   2 -15   20.29    1.54
  -3  -2  15   64.14    3.27
  -3  -2  15   61.52    2.85
   3  -2 -15   59.95    2.62
  -3  -2  15   60.22    3.03
   3   2 -15   56.55    2.98
  -3   2  15   63.91    2.90
  -3   2  15   59.44    2.86
   3   2 -15   52.69    2.62
  -2  -2  15    0.49    0.55
  -2  -2  15    0.49    0.59
  -2  -2  15    0.30    0.48
   2   2 -15    0.09    0.45
  -2   2  15    0.39    0.45
  -2   2  15    1.26    0.58
   2   2 -15    0.30    0.45
  -1  -2  15   44.26    2.51
  -1   2  15   44.08    2.34
   1   2 -15   37.81    2.35
  -1   2  15   44.78    2.29
   0  -2  15   19.58    1.71
   0   2  15   22.57    1.66
   0   2  15   21.83    1.53
   0   2 -15   18.26    1.65
   1  -2  15    2.42    0.76
   1  -2  15    1.63    0.75
   1   2  15    2.65    0.72
  -1   2 -15    1.49    0.79
   2   2  15   47.49    2.46
   3   2  15    7.67    1.11
   4   2  15   10.06    1.31
   5   2  15   24.67    1.90
  -4  -3  15   39.35    2.42
   4   3 -15   37.64    2.14
  -3  -3  15    4.10    0.97
  -3  -3  15    2.59    0.76
  -3  -3  15    2.77    0.75
  -3   3  15    3.45    0.85
   3   3 -15    3.02    0.69
  -2  -3  15   49.23    2.62
  -2  -3  15   48.44    2.74
  -2  -3  15   45.98    2.46
   2   3 -15   39.92    2.45
  -2   3  15   45.50    2.56
  -2   3  15   45.52    2.48
   2   3 -15   42.77    2.21
  -1  -3  15    2.22    0.74
  -1  -3  15    0.53    0.65
  -1  -3  15    1.22    0.68
   1   3 -15    1.94    0.75
   0  -3  15    0.31    0.68
   0  -3  15    0.37    0.60
   0   3  15    0.34    0.57
   1  -3  15   14.35    1.62
   1   3  15   13.38    1.46
   2   3  15   -0.23    0.55
   3   3  15   18.23    1.68
   4   3  15    0.88    0.76
   5   3  15    0.98    0.78
  -3  -4  15    7.29    1.12
  -3   4  15    6.47    1.16
  -2  -4  15   -0.44    0.55
  -2  -4  15   -0.22    0.58
  -2   4  15    0.10    0.64
  -1  -4  15   27.62    2.08
  -1  -4  15   30.12    2.09
  -1   4  15   27.30    1.97
   0   4  15   19.41    1.70
   1   4  15   11.34    1.43
   2   4  15    9.17    1.32
   3   4  15   16.65    1.79
   4   4  15    6.58    1.24
   5   4  15   16.30    1.86
  -4   5  15    0.21    0.81
  -3   5  15    0.24    0.70
  -2   5  15    1.44    0.77
  -1   5  15   14.50    1.67
   0   5  15    6.72    1.26
   1   5  15   -0.97    0.56
   2   5  15    0.48    0.71
   3   5  15    1.15    0.85
   4   5  15    1.55    1.00
  -4   6  15   13.99    1.83
  -3   6  15    1.04    0.88
  -2   6  15    4.89    1.13
  -1   6  15    5.32    1.18
   0   6  15    7.78    1.32
   1   6  15    6.88    1.32
   2   6  15    0.23    0.75
   3   6  15    6.08    1.30
  -4   7  15    7.03    1.46
  -3   7  15   -0.37    0.74
  -2   7  15    1.97    0.97
  -1   7  15    9.28    1.48
   0   7  15   10.45    1.65
   1   7  15    2.23    0.97
   2   7  15    0.30    0.87
   2   0 -16   39.73    2.48
   1   0 -16    7.51    1.15
  -4  -1  16    0.52    0.58
  -4  -1  16    0.80    0.75
   4   1 -16    0.05    0.62
  -3  -1  16    5.27    0.94
   3   1 -16    3.94    0.97
  -2  -1  16    6.04    0.98
   2   1 -16    6.54    1.10
  -1  -1  16    1.54    0.71
   1   1 -16    2.23    0.78
   0  -1  16    4.07    0.85
   0   1 -16    5.78    1.13
   1  -1  16    0.17    0.53
  -3  -2  16    5.83    1.19
  -3  -2  16    7.54    1.10
  -3   2  16    8.04    1.14
  -2  -2  16    9.41    1.30
  -2   2  16   12.14    1.36
  -1  -2  16   21.56    1.72
  -1   2  16   19.26    1.52
   0   2  16   13.52    1.40
   1   2  16    1.20    0.62
   2   2  16   16.75    1.49
  -3   3  16   -0.14    0.56
  -2   3  16    3.35    0.89
  -1   3  16    3.70    0.91
   0   3  16    0.84    0.65
   1   3  16    0.82    0.69
   2   3  16    1.01    0.67
   3   3  16    2.97    0.90
   4   3  16    0.28    0.76
  -3   4  16    4.68    1.09
  -2   4  16   11.64    1.51
  -1   4  16   25.82    2.00
   0   4  16   10.44    1.36
   1   4  16    3.11    0.93
   2   4  16   15.96    1.69
   3   4  16    6.80    1.26
   4   4  16   16.40    1.88
  -3   5  16   22.49    2.04
  -2   5  16    1.58    0.90
  -1   5  16    0.61    0.79
   0   5  16   10.58    1.43
   1   5  16    0.31    0.75
   2   5  16   12.28    1.66
   3   5  16    0.30    0.81
  -4   6  16   60.10    3.51
  -3   6  16    1.06    0.89
  -2   6  16   24.21    2.10
  -1   6  16   14.62    1.81
   0   6  16    0.72    0.84
   1   6  16   37.48    2.64
   2   6  16    2.82    1.09
  -3   7  16    0.40    0.94
  -2   7  16    8.15    1.49
  -1   7  16    8.26    1.52
   0   7  16    0.87    0.90
  -2  -1  17    9.79    1.41
  -2   2  17   28.64    1.95
  -1   2  17    3.81    0.87
  -3   3  17    3.80    1.00
  -2   3  17    1.67    0.78
  -1   3  17   12.16    1.48
   0   3  17    0.32    0.66
   1   3  17   23.56    1.89
   2   3  17    1.60    0.80
   3   3  17   -0.63    0.64
  -3   4  17   17.91    1.91
  -2   4  17   26.36    2.11
  -1   4  17    2.89    0.93
   0   4  17    3.59    0.99
   1   4  17   19.55    1.97
   2   4  17    0.37    0.79
   3   4  17   11.54    1.52
  -3   5  17    8.96    1.54
  -2   5  17    2.55    0.99
  -1   5  17    0.35    0.81
   0   5  17    0.31    0.77
   1   5  17    1.86    0.92
   2   5  17    8.66    1.42
  -3   6  17    3.75    1.21
  -2   6  17    5.10    1.30
  -1   6  17    0.35    0.89
   0   6  17    0.34    0.89
  -2   3  18    0.29    0.72
  -1   3  18   -0.05    0.66
   0   3  18   -0.24    0.66
  -3   4  18   18.62    2.00
  -2   4  18    3.62    1.07
  -1   4  18   -0.31    0.71
   0   4  18   25.73    2.10
   1   4  18    2.60    0.96
  -3   5  18    0.20    0.88
  -2   5  18   10.52    1.63
  -1   5  18    0.88    0.92
   0   5  18   15.94    1.92
  -2   4  19    1.38    0.92
  -1   4  19   20.42    2.14
   0   0   0    0.00    0.00
;
_shelx_hkl_checksum              40977
loop_
_space_group_symop_operation_xyz
'x, y, z'
'-x, y+1/2, -z+1/2'
'-x, -y, -z'
'x, -y-1/2, z-1/2'
loop_
_atom_site_label
_atom_site_type_symbol
_atom_site_fract_x
_atom_site_fract_y
_atom_site_fract_z
_atom_site_U_iso_or_equiv
_atom_site_adp_type
_atom_site_occupancy
_atom_site_site_symmetry_order
_atom_site_calc_flag
_atom_site_refinement_flags_posn
_atom_site_refinement_flags_adp
_atom_site_refinement_flags_occupancy
_atom_site_disorder_assembly
_atom_site_disorder_group
Sr1 Sr 0.59381(4) 0.02246(4) 0.33900(2) 0.00953(7) Uani 1 1 d . . . . .
V1 V 0.84414(7) 0.16007(7) 0.63990(4) 0.00724(9) Uani 1 1 d . . . . .
Te1 Te 0.19304(3) 0.15705(3) 0.92409(2) 0.00839(6) Uani 1 1 d . . . . .
O1 O 0.3354(3) 0.1613(3) 0.07876(18) 0.0138(4) Uani 1 1 d . . . . .
O2 O 0.4100(3) 0.1361(3) 0.85745(19) 0.0115(4) Uani 1 1 d D . . . .
O3 O 0.2830(3) 0.0143(3) 0.44906(19) 0.0134(4) Uani 1 1 d . . . . .
O4 O 0.8532(4) 0.1212(3) 0.05745(19) 0.0140(4) Uani 1 1 d . . . . .
O5 O 0.7156(3) 0.1909(3) 0.74237(19) 0.0137(4) Uani 1 1 d . . . . .
O6 O 0.0624(3) 0.0698(4) 0.6938(2) 0.0185(5) Uani 1 1 d . . . . .
H1 H 0.480(14) 0.041(11) 0.881(9) 0.20(5) Uiso 1 1 d D . . . .
loop_
_atom_site_aniso_label
_atom_site_aniso_U_11
_atom_site_aniso_U_22
_atom_site_aniso_U_33
_atom_site_aniso_U_23
_atom_site_aniso_U_13
_atom_site_aniso_U_12
Sr1 0.00880(13) 0.01007(13) 0.01030(13) 0.00085(9) 0.00324(10) -0.00013(10)
V1 0.0061(2) 0.0064(2) 0.0096(2) 0.00005(16) 0.00247(16) 0.00018(16)
Te1 0.00672(9) 0.00758(9) 0.01160(9) -0.00055(6) 0.00358(6) -0.00005(6)
O1 0.0204(12) 0.0101(10) 0.0098(10) -0.0030(7) 0.0000(8) 0.0007(8)
O2 0.0092(10) 0.0130(10) 0.0139(10) -0.0007(8) 0.0065(8) 0.0002(8)
O3 0.0154(12) 0.0115(10) 0.0129(10) -0.0029(8) 0.0014(8) -0.0012(8)
O4 0.0204(12) 0.0067(9) 0.0162(11) -0.0014(8) 0.0071(9) -0.0027(8)
O5 0.0124(11) 0.0145(11) 0.0163(11) -0.0019(8) 0.0085(9) -0.0008(8)
O6 0.0086(11) 0.0199(12) 0.0269(13) 0.0025(10) 0.0029(9) 0.0039(9)
loop_
_atom_type_symbol
_atom_type_description
_atom_type_scat_dispersion_real
_atom_type_scat_dispersion_imag
_atom_type_scat_source
O O 0.0106 0.0060 'International Tables Vol C Tables 4.2.6.8 and 6.1.1.4'
V V 0.3005 0.5294 'International Tables Vol C Tables 4.2.6.8 and 6.1.1.4'
Sr Sr -1.5307 3.2498 'International Tables Vol C Tables 4.2.6.8 and 6.1.1.4'
Te Te -0.5308 1.6751 'International Tables Vol C Tables 4.2.6.8 and 6.1.1.4'
H H 0.0000 0.0000 'International Tables Vol C Tables 4.2.6.8 and 6.1.1.4'
loop_
_geom_angle_atom_site_label_1
_geom_angle_atom_site_label_2
_geom_angle_atom_site_label_3
_geom_angle
_geom_angle_site_symmetry_1
_geom_angle_site_symmetry_3
O5 Sr1 O3 117.08(7) 4_565 3_656
O5 Sr1 O2 81.91(7) 4_565 3_656
O3 Sr1 O2 144.29(7) 3_656 3_656
O5 Sr1 O6 73.63(7) 4_565 3_656
O3 Sr1 O6 88.18(8) 3_656 3_656
O2 Sr1 O6 67.50(8) 3_656 3_656
O5 Sr1 O5 125.96(4) 4_565 3_656
O3 Sr1 O5 114.87(7) 3_656 3_656
O2 Sr1 O5 63.91(7) 3_656 3_656
O6 Sr1 O5 122.13(7) 3_656 3_656
O5 Sr1 O1 146.98(7) 4_565 2_645
O3 Sr1 O1 62.24(7) 3_656 2_645
O2 Sr1 O1 85.18(7) 3_656 2_645
O6 Sr1 O1 73.36(7) 3_656 2_645
O5 Sr1 O1 73.15(7) 3_656 2_645
O5 Sr1 O2 64.22(7) 4_565 4_565
O3 Sr1 O2 94.93(7) 3_656 4_565
O2 Sr1 O2 120.78(5) 3_656 4_565
O6 Sr1 O2 134.04(7) 3_656 4_565
O5 Sr1 O2 97.89(7) 3_656 4_565
O1 Sr1 O2 146.24(7) 2_645 4_565
O5 Sr1 O3 127.13(7) 4_565 .
O3 Sr1 O3 71.07(8) 3_656 .
O2 Sr1 O3 123.28(7) 3_656 .
O6 Sr1 O3 155.46(7) 3_656 .
O5 Sr1 O3 59.78(6) 3_656 .
O1 Sr1 O3 85.15(7) 2_645 .
O2 Sr1 O3 63.03(6) 4_565 .
O5 Sr1 V1 135.80(5) 4_565 3_656
O3 Sr1 V1 92.26(5) 3_656 3_656
O2 Sr1 V1 92.94(5) 3_656 3_656
O6 Sr1 V1 143.79(6) 3_656 3_656
O5 Sr1 V1 29.04(5) 3_656 3_656
O1 Sr1 V1 74.93(5) 2_645 3_656
O2 Sr1 V1 82.02(5) 4_565 3_656
O3 Sr1 V1 30.92(5) . 3_656
O5 Sr1 V1 95.95(5) 4_565 .
O3 Sr1 V1 21.51(5) 3_656 .
O2 Sr1 V1 152.44(5) 3_656 .
O6 Sr1 V1 85.45(6) 3_656 .
O5 Sr1 V1 133.43(5) 3_656 .
O1 Sr1 V1 81.90(5) 2_645 .
O2 Sr1 V1 81.63(5) 4_565 .
O3 Sr1 V1 79.81(5) . .
V1 Sr1 V1 106.935(12) 3_656 .
O5 Sr1 Te1 89.98(5) 4_565 4_565
O3 Sr1 Te1 85.75(5) 3_656 4_565
O2 Sr1 Te1 126.32(5) 3_656 4_565
O6 Sr1 Te1 157.54(6) 3_656 4_565
O5 Sr1 Te1 79.86(5) 3_656 4_565
O1 Sr1 Te1 121.82(5) 2_645 4_565
O2 Sr1 Te1 25.96(5) 4_565 4_565
O3 Sr1 Te1 37.16(4) . 4_565
V1 Sr1 Te1 58.202(10) 3_656 4_565
V1 Sr1 Te1 81.002(9) . 4_565
O5 Sr1 V1 17.43(5) 4_565 4_565
O3 Sr1 V1 124.01(5) 3_656 4_565
O2 Sr1 V1 66.98(5) 3_656 4_565
O6 Sr1 V1 60.46(5) 3_656 4_565
O5 Sr1 V1 121.04(5) 3_656 4_565
O1 Sr1 V1 132.16(5) 2_645 4_565
O2 Sr1 V1 80.71(5) 4_565 4_565
O3 Sr1 V1 142.58(5) . 4_565
V1 Sr1 V1 140.834(11) 3_656 4_565
V1 Sr1 V1 104.946(11) . 4_565
Te1 Sr1 V1 105.965(10) 4_565 4_565
O5 V1 O6 110.08(12) . 1_655
O5 V1 O3 104.67(11) . 3_656
O6 V1 O3 108.40(12) 1_655 3_656
O5 V1 O4 112.04(11) . 4_566
O6 V1 O4 113.59(12) 1_655 4_566
O3 V1 O4 107.58(11) 3_656 4_566
O5 V1 Sr1 50.86(8) . 3_656
O6 V1 Sr1 128.19(9) 1_655 3_656
O3 V1 Sr1 54.22(8) 3_656 3_656
O4 V1 Sr1 118.20(8) 4_566 3_656
O5 V1 Sr1 120.51(8) . .
O6 V1 Sr1 120.36(9) 1_655 .
O3 V1 Sr1 32.43(7) 3_656 .
O4 V1 Sr1 75.27(8) 4_566 .
Sr1 V1 Sr1 73.065(12) 3_656 .
O5 V1 Sr1 26.89(8) . 4_566
O6 V1 Sr1 117.14(9) 1_655 4_566
O3 V1 Sr1 121.63(8) 3_656 4_566
O4 V1 Sr1 86.17(7) 4_566 4_566
Sr1 V1 Sr1 69.062(10) 3_656 4_566
Sr1 V1 Sr1 122.344(15) . 4_566
O2 Te1 O1 95.20(10) . 1_556
O2 Te1 O4 97.99(10) . 3_656
O1 Te1 O4 88.51(9) 1_556 3_656
O2 Te1 O3 84.62(9) . 4_566
O1 Te1 O3 77.50(8) 1_556 4_566
O4 Te1 O3 165.96(9) 3_656 4_566
O2 Te1 Sr1 39.83(7) . 4_566
O1 Te1 Sr1 88.21(7) 1_556 4_566
O4 Te1 Sr1 137.02(7) 3_656 4_566
O3 Te1 Sr1 44.92(6) 4_566 4_566
O2 Te1 Sr1 97.29(7) . 2_656
O1 Te1 Sr1 39.43(6) 1_556 2_656
O4 Te1 Sr1 126.76(7) 3_656 2_656
O3 Te1 Sr1 39.28(5) 4_566 2_656
Sr1 Te1 Sr1 67.671(8) 4_566 2_656
O2 Te1 Sr1 33.42(7) . 3_656
O1 Te1 Sr1 124.50(7) 1_556 3_656
O4 Te1 Sr1 83.04(6) 3_656 3_656
O3 Te1 Sr1 105.76(5) 4_566 3_656
Sr1 Te1 Sr1 64.184(5) 4_566 3_656
Sr1 Te1 Sr1 129.647(9) 2_656 3_656
Te1 O1 Sr1 113.21(9) 1_554 2_655
Te1 O2 Sr1 123.42(11) . 3_656
Te1 O2 Sr1 114.22(9) . 4_566
Sr1 O2 Sr1 102.56(7) 3_656 4_566
V1 O3 Te1 119.13(12) 3_656 4_565
V1 O3 Sr1 126.06(11) 3_656 3_656
Te1 O3 Sr1 104.94(8) 4_565 3_656
V1 O3 Sr1 94.86(9) 3_656 .
Te1 O3 Sr1 97.93(8) 4_565 .
Sr1 O3 Sr1 108.93(8) 3_656 .
V1 O4 Te1 136.69(12) 4_565 3_656
V1 O5 Sr1 135.68(12) . 4_566
V1 O5 Sr1 100.10(10) . 3_656
Sr1 O5 Sr1 106.12(8) 4_566 3_656
V1 O6 Sr1 147.76(13) 1_455 3_656
loop_
_geom_bond_atom_site_label_1
_geom_bond_atom_site_label_2
_geom_bond_distance
_geom_bond_site_symmetry_2
Sr1 O5 2.499(2) 4_565
Sr1 O3 2.532(2) 3_656
Sr1 O2 2.577(2) 3_656
Sr1 O6 2.581(2) 3_656
Sr1 O5 2.644(2) 3_656
Sr1 O1 2.670(2) 2_645
Sr1 O2 2.692(2) 4_565
Sr1 O3 2.733(2) .
Sr1 V1 3.3565(6) 3_656
Sr1 V1 3.8166(6) .
Sr1 Te1 3.8336(3) 4_565
Sr1 V1 3.8602(5) 4_565
V1 O5 1.655(2) .
V1 O6 1.664(2) 1_655
V1 O3 1.731(2) 3_656
V1 O4 1.797(2) 4_566
Te1 O2 1.840(2) .
Te1 O1 1.932(2) 1_556
Te1 O4 1.948(2) 3_656
Te1 O3 2.338(2) 4_566
