#------------------------------------------------------------------------------
#$Date: 2021-02-26 12:39:16 +0200 (Fri, 26 Feb 2021) $
#$Revision: 262262 $
#$URL: file:///home/coder/svn-repositories/cod/cif/1/56/06/1560692.cif $
#------------------------------------------------------------------------------
#
# This file is available in the Crystallography Open Database (COD),
# http://www.crystallography.net/
#
# All data on this site have been placed in the public domain by the
# contributors.
#
data_1560692
loop_
_publ_author_name
'Meundaeng, Natthaya'
'Rujiwatra, Apinpus'
'Prior, Timothy J.'
_publ_section_title
;
 Copper coordination polymers constructed from thiazole-5-carboxylic acid:
 Synthesis, crystal structures, and structural transformation
;
_journal_name_full               'Journal of Solid State Chemistry'
_journal_page_first              138
_journal_page_last               145
_journal_paper_doi               10.1016/j.jssc.2016.10.009
_journal_volume                  245
_journal_year                    2017
_chemical_formula_moiety
;
C10 H12 Cu N2 O6 S2
;
_chemical_formula_sum            'C10 H12 Cu N2 O6 S2'
_chemical_formula_weight         383.88
_space_group_crystal_system      monoclinic
_space_group_IT_number           14
_space_group_name_Hall           '-P 2yn'
_space_group_name_H-M_alt        'P 1 21/n 1'
_atom_sites_solution_hydrogens   geom
_cell_angle_alpha                90
_cell_angle_beta                 100.227(9)
_cell_angle_gamma                90
_cell_formula_units_Z            2
_cell_length_a                   7.4646(9)
_cell_length_b                   11.4558(11)
_cell_length_c                   8.6518(10)
_cell_measurement_reflns_used    2590
_cell_measurement_temperature    150(2)
_cell_measurement_theta_max      29.55
_cell_measurement_theta_min      3.0
_cell_volume                     728.09(14)
_computing_cell_refinement       'Stoe X-AREA'
_computing_data_collection       'Stoe X-AREA'
_computing_data_reduction
;
 Scaled and merged with Sortav
 R.H. Blessing, (1987) Cryst. Rev. 1, 3-58
 R.H. Blessing, (1989) J. Appl. Cryst. 22, 396-397
;
_computing_structure_refinement  'SHELXL-2014/7 (Sheldrick, 2014)'
_computing_structure_solution    'SHELXT (Sheldrick, 2015)'
_diffrn_ambient_temperature      150(2)
_diffrn_detector_area_resol_mean 6.67
_diffrn_measured_fraction_theta_full 0.989
_diffrn_measured_fraction_theta_max 0.987
_diffrn_measurement_device_type  'Stoe IPDS2'
_diffrn_measurement_method       \w-scans
_diffrn_radiation_type           MoK\a
_diffrn_radiation_wavelength     0.71073
_diffrn_reflns_av_R_equivalents  0.0488
_diffrn_reflns_av_unetI/netI     0.0845
_diffrn_reflns_Laue_measured_fraction_full 0.989
_diffrn_reflns_Laue_measured_fraction_max 0.987
_diffrn_reflns_limit_h_max       10
_diffrn_reflns_limit_h_min       -10
_diffrn_reflns_limit_k_max       15
_diffrn_reflns_limit_k_min       -13
_diffrn_reflns_limit_l_max       8
_diffrn_reflns_limit_l_min       -11
_diffrn_reflns_number            3861
_diffrn_reflns_point_group_measured_fraction_full 0.989
_diffrn_reflns_point_group_measured_fraction_max 0.987
_diffrn_reflns_theta_full        25.242
_diffrn_reflns_theta_max         29.173
_diffrn_reflns_theta_min         2.981
_diffrn_source                   'fine-focus sealed tube'
_exptl_absorpt_coefficient_mu    1.813
_exptl_absorpt_correction_T_max  0.932
_exptl_absorpt_correction_T_min  0.924
_exptl_absorpt_correction_type   multi-scan
_exptl_absorpt_process_details
;
 R.H. Blessing, Acta Cryst. (1995), A51, 33-38
;
_exptl_crystal_colour            Green
_exptl_crystal_density_diffrn    1.751
_exptl_crystal_description       Plate
_exptl_crystal_F_000             390
_exptl_crystal_size_max          0.033
_exptl_crystal_size_mid          0.027
_exptl_crystal_size_min          0.008
_refine_diff_density_max         0.658
_refine_diff_density_min         -0.371
_refine_diff_density_rms         0.085
_refine_ls_extinction_coef       .
_refine_ls_extinction_method     none
_refine_ls_goodness_of_fit_ref   0.803
_refine_ls_hydrogen_treatment    mixed
_refine_ls_matrix_type           full
_refine_ls_number_parameters     102
_refine_ls_number_reflns         1944
_refine_ls_number_restraints     0
_refine_ls_restrained_S_all      0.803
_refine_ls_R_factor_all          0.0600
_refine_ls_R_factor_gt           0.0303
_refine_ls_shift/su_max          0.000
_refine_ls_shift/su_mean         0.000
_refine_ls_structure_factor_coef Fsqd
_refine_ls_weighting_details
'w=1/[\s^2^(Fo^2^)+(0.0231P)^2^] where P=(Fo^2^+2Fc^2^)/3'
_refine_ls_weighting_scheme      calc
_refine_ls_wR_factor_gt          0.0568
_refine_ls_wR_factor_ref         0.0611
_reflns_Friedel_coverage         0.000
_reflns_Friedel_fraction_full    .
_reflns_Friedel_fraction_max     .
_reflns_number_gt                1258
_reflns_number_total             1944
_reflns_threshold_expression     'I > 2\s(I)'
_cod_data_source_file            JSSC-2017-245-138.cif
_cod_data_source_block           2
_cod_original_sg_symbol_H-M      'P 21/n'
_cod_database_code               1560692
_shelx_space_group_comment
;
The symmetry employed for this shelxl refinement is uniquely defined
by the following loop, which should always be used as a source of
symmetry information in preference to the above space-group names.
They are only intended as comments.
;
_shelx_estimated_absorpt_t_min   0.943
_shelx_estimated_absorpt_t_max   0.986
_shelx_res_file
;

    shelx.res created by SHELXL-2014/7

TITL nmt112_a.res in P2(1)/n
CELL  0.71073   7.4646  11.4558   8.6518   90.000  100.227   90.000
ZERR     2.00   0.0009   0.0011   0.0010    0.000    0.009    0.000
LATT   1
SYMM  1/2 - X, 1/2 + Y, 1/2 - Z
SFAC  C    H    CU   N    O    S
UNIT  20 24 2 4 12 4
MERG   2
MORE -1
HTAB O3 O2
EQIV $1 x+1/2, -y+1/2, z+1/2
HTAB  C3 S1_$1
EQIV $2 x, y, z-1
HTAB  C4 O3_$2
HTAB O3 O2
HTAB  C3 S1_$1
HTAB  C4 O3_$2
FMAP   2
PLAN    8
SIZE     0.008   0.027   0.033
ACTA
BOND   $H
CONF
LIST   6
L.S.  20
TEMP  -123.00
WGHT    0.023100
FVAR       0.78209   0.05465
CU1   3    0.500000    0.500000    0.500000    10.50000    0.02263    0.00968 =
         0.01726    0.00013    0.01047    0.00010
S1    6    0.698258    0.335915    0.043140    11.00000    0.02762    0.01638 =
         0.02019    0.00046    0.00720    0.00583
O1    5    0.603567    0.410251    0.342540    11.00000    0.02818    0.01430 =
         0.01883   -0.00067    0.01187    0.00359
O3    5    0.740214    0.433122    0.713864    11.00000    0.02760    0.02114 =
         0.01867   -0.00151    0.00310    0.00174
AFIX 147
H3A   2    0.759445    0.378974    0.653411    11.00000   -1.20000
AFIX   0
O2    5    0.756612    0.269766    0.494386    11.00000    0.04288    0.02518 =
         0.01874    0.00068    0.00654    0.01353
N1    4    0.861198    0.139707    0.053666    11.00000    0.01998    0.01338 =
         0.01643   -0.00095    0.00694    0.00049
C2    1    0.747616    0.265912    0.220890    11.00000    0.01859    0.01846 =
         0.02181   -0.00129    0.00635    0.00056
C3    1    0.833802    0.162224    0.205561    11.00000    0.02059    0.01570 =
         0.01870   -0.00181    0.00528    0.00027
AFIX  44
H3    2    0.875950    0.104195    0.301144    11.00000   -1.20000
AFIX   0
C1    1    0.699513    0.317573    0.366022    11.00000    0.02365    0.01547 =
         0.02309   -0.00236    0.00920    0.00002
C4    1    0.797137    0.224805   -0.041566    11.00000    0.02370    0.01662 =
         0.01779   -0.00243    0.00573    0.00028
AFIX  44
H4    2    0.805033    0.224474   -0.146118    11.00000   -1.20000
AFIX   0
C5    1    0.905228    0.495564    0.765887    11.00000    0.02920    0.03513 =
         0.04046    0.00432   -0.00052   -0.00322
AFIX 137
H5A   2    0.960398    0.516723    0.675085    11.00000   -1.50000
H5B   2    0.989732    0.446298    0.837372    11.00000   -1.50000
H5C   2    0.878925    0.566573    0.820946    11.00000   -1.50000
AFIX   0
HKLF    4

REM  nmt112_a.res in P2(1)/n
REM R1 =  0.0303 for    1258 Fo > 4sig(Fo)  and  0.0600 for all    1944 data
REM    102 parameters refined using      0 restraints

END

WGHT      0.0231      0.0000

REM Highest difference peak  0.658,  deepest hole -0.371,  1-sigma level  0.085
Q1    1   0.3693  0.4908  0.5175  11.00000  0.05    0.66
Q2    1   0.9158  0.1060 -0.0216  11.00000  0.05    0.38
Q3    1   0.8212  0.3312  0.0219  11.00000  0.05    0.38
Q4    1   0.5756  0.4474  0.4084  11.00000  0.05    0.33
Q5    1   0.4031  0.4201  0.4157  11.00000  0.05    0.33
Q6    1   0.5827  0.3360  0.0515  11.00000  0.05    0.31
Q7    1   0.7585  0.2795  0.2941  11.00000  0.05    0.31
Q8    1   0.8395  0.2521  0.2361  11.00000  0.05    0.30
;
_shelx_res_checksum              51735
_shelx_hkl_file
;
  -1  -1  -7  369.06   28.09   3 0.79743-0.99710 0.00691-0.07008-0.45281-0.14849
  -1   0  -7 1516.99   37.03   2 0.79927-0.99967 0.00150-0.00126-0.45012-0.15176
  -1   1  -7  389.92   27.95   2 0.79800-0.99804 0.00524 0.05674-0.45198-0.14948
  -1   2  -4  502.32   26.94   2 0.79851-0.95456 0.00376 0.12105-0.45125 0.09937
   0  -4 -10  442.46   56.17   4 0.78986-0.93756 0.02825-0.27798-0.46327-0.37076
   0   4 -10  482.29   37.50   2 0.79765-0.94555 0.00626 0.24171-0.45249-0.38249
   0   7  -7  184.42   27.44   2 0.79837-0.90225 0.00417 0.43087-0.45145-0.13317
   0   7  -4  137.47   18.13   2 0.79965-0.85878 0.00037 0.43447-0.44955 0.11590
   1  -9  -8   30.00   38.86   3 0.79340-0.81457 0.01845-0.57750-0.45850-0.19235
   1  -9  -3   25.51   23.19   2 0.79819-0.74492 0.00468-0.56376-0.45170 0.21902
   1  -6   0  491.26   24.34   3 0.79737-0.70066 0.00707-0.38037-0.45289 0.47017
   1  -4   1  214.29   17.97   2 0.80055-0.68920-0.00230-0.24748-0.44822 0.54835
   1   4   1  232.75   26.54   2 0.79804-0.68761 0.00513 0.24361-0.45193 0.55159
   1   9  -3   -1.14   17.40   2 0.80067-0.74782-0.00268 0.56209-0.44803 0.21582
   2 -11  -8   -3.87   40.47   3 0.79791-0.72122 0.00551-0.69020-0.45212-0.18012
   2  -7   1 3102.05   33.32   2 0.80143-0.59405-0.00496-0.43071-0.44688 0.56364
   2   7   1 3237.79   45.75   3 0.79732-0.58997 0.00723 0.42761-0.45297 0.56973
   2  11  -8    1.25   28.52   2 0.80055-0.72591-0.00230 0.68574-0.44822-0.18597
   3 -12  -3 1076.50   34.96   3 0.79727-0.55221 0.00736-0.75257-0.45304 0.25517
   3 -10   0   13.25   17.16   2 0.80118-0.50995-0.00420-0.61672-0.44726 0.50005
   3  -7   2   76.50   16.31   2 0.80118-0.48225-0.00420-0.43038-0.44726 0.66578
   3  -4   3  817.95   26.50   2 0.79824-0.46409 0.00453-0.25361-0.45163 0.75330
   3   7   2  104.45   29.18   3 0.79691-0.47840 0.00842 0.42665-0.45356 0.67074
   3  10   0    4.63   26.70   3 0.79771-0.50611 0.00608 0.61512-0.45240 0.50545
   3  11  -1   25.77   26.57   3 0.79679-0.52251 0.00876 0.67452-0.45373 0.42092
   4 -13  -3  258.07   33.01   3 0.79736-0.45571 0.00712-0.81467-0.45292 0.27225
   4 -12  -1   63.04   22.02   2 0.80131-0.42793-0.00458-0.74088-0.44707 0.43387
   4 -11   0   90.34   21.76   2 0.79953-0.41182 0.00075-0.68451-0.44974 0.51931
   4  -6   3   70.64   23.16   3 0.79793-0.36743 0.00546-0.37852-0.45209 0.77126
   4  -1   4   72.67   22.84   3 0.79653-0.35174 0.00951-0.07132-0.45410 0.85647
   4   1   4   83.50   27.37   3 0.79425-0.34928 0.01603 0.04673-0.45731 0.85930
   4  10   1  173.60   32.22   3 0.79557-0.39667 0.01228 0.60925-0.45547 0.60551
   4  11   0   90.76   28.26   2 0.79982-0.41460-0.00013 0.68399-0.44931 0.51733
   4  12  -1   84.77   33.10   2 0.79789-0.42726 0.00557 0.73983-0.45214 0.43589
   5  -4   4  174.44   26.25   3 0.79752-0.25634 0.00665-0.25482-0.45268 0.87245
   5   4   4  131.47   42.80   6 0.78103-0.24024 0.05159 0.19643-0.47439 0.89308
   6 -10   2  224.40   25.16   2 0.80131-0.19308-0.00458-0.61698-0.44707 0.71698
   6  -8   3   50.28   27.98   3 0.79833-0.17514 0.00428-0.49982-0.45151 0.80409
   6  -5   4   -5.07   26.05   3 0.79712-0.15443 0.00780-0.32049-0.45325 0.89267
   6  10   2  265.70   40.60   3 0.79671-0.18980 0.00901 0.61194-0.45385 0.72188
   7 -10   2    2.03   34.19   3 0.79706-0.08679 0.00799-0.63264-0.45335 0.74238
  -1   2  -7  314.16   26.99   3 0.79340-0.99390 0.01844 0.10525-0.45810-0.14354
  -1   3  -6 1871.01   34.41   3 0.79334-0.97927 0.01861 0.16700-0.45818-0.06062
  -1   3  -5  361.45   19.74   3 0.79492-0.96561 0.01413 0.17200-0.45599 0.02078
   0  -7  -6  415.12   34.48   4 0.79091-0.87919 0.02539-0.46131-0.46148-0.03897
   0  -7  -5   99.61   24.34   4 0.79143-0.86539 0.02395-0.45941-0.46078 0.04327
   0  -4  -1  419.53   21.65   3 0.79452-0.80941 0.01527-0.26500-0.45655 0.37218
   0  -1 -11  146.14   41.17   4 0.78905-0.95235 0.03047-0.09354-0.46393-0.45452
   0   0 -11    1.41   37.54   4 0.79242-0.95538 0.02118-0.01988-0.45943-0.45945
   0   1 -11  128.47   39.03   3 0.79237-0.95494 0.02133 0.04104-0.45951-0.45864
   0   6  -9   10.37   32.87   4 0.79243-0.92659 0.02115 0.35255-0.45942-0.29351
   0   6  -2 3033.18   39.01   3 0.79321-0.82333 0.01898 0.35438-0.45836 0.29038
   0   7  -8  151.19   30.51   4 0.79162-0.91036 0.02342 0.41124-0.46052-0.20792
   0   7  -3  381.23   23.40   4 0.79132-0.83623 0.02424 0.41051-0.46092 0.20965
   1   8 -10  150.98   30.72   3 0.79572-0.84750 0.01184 0.48499-0.45486-0.36283
   1   9  -9   12.57   34.12   4 0.79249-0.83031 0.02098 0.54116-0.45934-0.27875
   1  10  -7  623.66   34.21   3 0.79231-0.80006 0.02150 0.59904-0.45959-0.10809
   1  10  -6   66.22   22.58   3 0.79452-0.78666 0.01527 0.60690-0.45655-0.02752
   1  10  -5 1304.76   31.29   3 0.79396-0.77241 0.01685 0.60408-0.45732 0.05633
   2 -11  -7  157.65   39.11   4 0.78978-0.70024 0.02848-0.71279-0.46297-0.08633
   2 -11  -4   93.32   21.43   3 0.79518-0.66142 0.01337-0.69669-0.45561 0.15591
   2 -10  -2  375.06   19.84   3 0.79452-0.63119 0.01527-0.63657-0.45655 0.32412
   2  -8   0 1257.57   27.89   4 0.79229-0.59907 0.02156-0.51872-0.45962 0.49403
   2  11  -3  848.95   24.78   3 0.79598-0.64873 0.01108 0.67184-0.45449 0.23688
   3  12  -2   50.87   28.64   4 0.79057-0.53082 0.02632 0.71992-0.46193 0.34601
   3  13  -6  -11.29   30.06   3 0.79572-0.59366 0.01184 0.79666-0.45486 0.00700
   3  13  -5   26.96   34.08   3 0.79411-0.57829 0.01641 0.79185-0.45711 0.09092
   4  -8   2  417.20   19.58   3 0.79492-0.37962 0.01413-0.51045-0.45599 0.69204
   4   0   4 2927.86   46.77   4 0.79301-0.34760 0.01955-0.01947-0.45864 0.86095
   4  13  -2  213.01   34.19   4 0.79078-0.43593 0.02573 0.78170-0.46164 0.36168
   5 -13  -2  407.52   39.11   4 0.79250-0.33975 0.02095-0.82814-0.45932 0.37849
   5  -9   2   26.31   21.14   3 0.79572-0.28351 0.01184-0.57187-0.45486 0.70734
   5  -7   3  254.08   19.36   3 0.79545-0.26884 0.01261-0.44691-0.45524 0.79205
   5  11   1   -1.50   30.60   4 0.79154-0.29195 0.02365 0.65803-0.46063 0.63132
   5  12   0  151.82   34.10   3 0.79473-0.31405 0.01466 0.73113-0.45625 0.54038
   5  13  -1   -1.17   39.81   4 0.79201-0.32147 0.02232 0.78492-0.45999 0.46429
   6 -12   0  132.90   34.31   3 0.79331-0.21444 0.01870-0.76391-0.45822 0.56099
   6 -11   1   99.09   26.31   3 0.79532-0.20143 0.01299-0.69711-0.45543 0.64149
   7  -8   3   25.66   32.47   3 0.79352-0.07448 0.01811-0.51496-0.45793 0.82726
   7  -5   4   22.49   30.13   4 0.79112-0.05629 0.02479-0.33584-0.46119 0.91537
   8  -5   4   -3.55   35.50   4 0.79160 0.04380 0.02346-0.33682-0.46054 0.93344
  -1  -2  -7  301.42   32.11   5 0.78489-0.98508 0.04147-0.16621-0.46900-0.13251
  -1   0  -3 2318.64   50.69   4 0.78798-0.92969 0.03323-0.03357-0.46507 0.19584
  -1   1  -8  125.03   28.88   5 0.78386-0.99914 0.04418 0.01682-0.47028-0.21489
  -1   1  -3  916.49   32.10   4 0.78816-0.92982 0.03272 0.02929-0.46483 0.19588
  -1   3  -7  149.24   25.89   4 0.78709-0.98781 0.03562 0.15055-0.46622-0.13511
  -1   3  -4 2205.05   33.85   4 0.78994-0.94612 0.02789 0.15827-0.46250 0.11012
  -1   4  -5  142.45   22.40   5 0.78532-0.95601 0.04035 0.20831-0.46847 0.03375
   0   1   0  -21.85   25.78   4 0.78854-0.78682 0.03170 0.02929-0.46434 0.46695
   0   2 -11   13.47   34.52   5 0.78729-0.95211 0.03508 0.09009-0.46595-0.45677
   0   3 -11   31.32   35.49   5 0.78511-0.94737 0.04090 0.14561-0.46873-0.44907
   0   5 -10  -14.64   32.91   5 0.78784-0.93735 0.03361 0.27917-0.46525-0.37210
   0   8  -6  197.71   25.75   4 0.78807-0.87784 0.03298 0.46359-0.46495-0.03633
   0   8  -5  144.63   23.90   4 0.78776-0.86257 0.03381 0.46315-0.46535 0.04782
   1  -9  -4    3.21   24.00   5 0.78656-0.74915 0.03703-0.59654-0.46689 0.14986
   1  -8  -2   62.28   15.74   4 0.78966-0.72299 0.02866-0.52584-0.46287 0.31235
   1  -7  -1  536.76   20.17   4 0.78882-0.70670 0.03094-0.46670-0.46397 0.39766
   1   8  -1  889.34   23.52   4 0.78882-0.70785 0.03094 0.46631-0.46397 0.39654
   1   9  -2  353.33   24.84   4 0.78780-0.72204 0.03372 0.52579-0.46531 0.31449
   1  10  -8   70.34   35.97   4 0.78702-0.80922 0.03580 0.58630-0.46630-0.18518
   1  10  -4   23.80   18.69   4 0.78994-0.75285 0.02789 0.59417-0.46250 0.14539
   2 -11  -6  272.05   33.79   5 0.78667-0.68261 0.03673-0.71997-0.46675 0.00073
   2 -11  -5  544.50   30.90   4 0.78897-0.66978 0.03054-0.71387-0.46378 0.08149
   2  -9  -1   52.20   16.64   4 0.79008-0.61215 0.02751-0.58651-0.46232 0.41306
   2  -4   2  153.15   15.88   4 0.79104-0.56840 0.02485-0.27397-0.46103 0.66250
   2   5   2  106.88   26.61   5 0.78381-0.56179 0.04431 0.26622-0.47034 0.67105
   2  10  -1   49.09   25.10   4 0.78713-0.60920 0.03550 0.58671-0.46616 0.41696
   2  12  -7   14.92   35.17   5 0.78685-0.69897 0.03627 0.71441-0.46653-0.08690
   2  12  -6  466.74   27.50   4 0.78980-0.68754 0.02828 0.71656-0.46269-0.00494
   2  12  -5   38.22   30.90   4 0.78854-0.66970 0.03170 0.71456-0.46434 0.08081
   3 -12  -4   65.76   28.93   4 0.78825-0.55801 0.03249-0.77916-0.46472 0.18149
   3 -11  -2  377.69   27.19   5 0.78692-0.52720 0.03607-0.71910-0.46643 0.35172
   3  -8   1   25.92   16.26   4 0.78826-0.48388 0.03246-0.52990-0.46470 0.59943
   3  -6   2  275.78   21.09   5 0.78546-0.46620 0.03997-0.41288-0.46829 0.68718
   3  -3   3   12.76   21.00   5 0.78659-0.45248 0.03695-0.22375-0.46685 0.76916
   3   9   1   50.24   24.38   4 0.78938-0.48609 0.02942 0.53024-0.46324 0.59731
   3  13  -4   74.07   26.40   4 0.78910-0.55917 0.03018 0.77881-0.46361 0.18079
   4 -13  -4   63.16   34.58   4 0.78868-0.46197 0.03132-0.83985-0.46415 0.19811
   4 -12  -2  230.73   32.21   5 0.78697-0.43029 0.03595-0.78139-0.46637 0.36826
   5 -12  -1    6.44   32.74   5 0.78677-0.31673 0.03646-0.78418-0.46662 0.46887
   5 -10   1  501.18   29.10   4 0.78752-0.29025 0.03445-0.65461-0.46565 0.63542
   5  -3   4  230.96   25.83   4 0.78738-0.24540 0.03485-0.22118-0.46584 0.88529
   6  -9   2   29.92   30.60   4 0.78653-0.17752 0.03712-0.59799-0.46693 0.73772
   6  -7   3  203.06   26.34   5 0.78547-0.16274 0.03992-0.47452-0.46827 0.82248
   6  -4   4   59.82   28.05   5 0.78599-0.14857 0.03856-0.28717-0.46761 0.90490
  -1   0  -8    4.03   26.65   6 0.78095-0.99799 0.05144-0.05141-0.47362-0.21350
  -1   2  -8  -12.13   26.08   6 0.78102-0.99666 0.05125 0.07410-0.47353-0.21169
  -1   2  -3 2219.74   37.50   5 0.78330-0.92475 0.04535 0.07898-0.47076 0.20191
  -1   4  -7    9.12   23.54   5 0.78095-0.97938 0.05144 0.19624-0.47362-0.12580
  -1   4  -6   76.27   16.98   5 0.78460-0.97043 0.04192 0.20600-0.46914-0.04830
  -1   4  -4   -1.05   21.57   5 0.78095-0.93526 0.05144 0.19600-0.47362 0.12388
   0  -6  -3  176.94   21.70   5 0.78307-0.82762 0.04594-0.41928-0.47104 0.21971
   0  -5  -2  554.91   27.48   6 0.77986-0.81004 0.05422-0.36563-0.47492 0.30684
   0  -2 -11   -9.15   43.63   6 0.77831-0.94248 0.05816-0.18185-0.47675-0.44345
   0   5  -1  903.49   25.83   5 0.78504-0.80036 0.04078 0.27028-0.46860 0.38436
   0   6 -10   18.72   33.35   6 0.77886-0.92778 0.05676 0.31652-0.47610-0.35996
   0   7  -9  217.97   34.38   5 0.78143-0.91570 0.05020 0.38473-0.47304-0.27808
   0   8  -7   13.24   19.97   5 0.78475-0.88896 0.04154 0.45630-0.46896-0.11623
   0   8  -4  982.23   23.90   5 0.78359-0.84350 0.04459 0.45206-0.47040 0.13583
   1  -9  -7   -0.68   33.43   6 0.77988-0.78755 0.05417-0.61416-0.47490-0.09322
   1  -9  -5  -12.19   27.43   6 0.77796-0.75495 0.05904-0.61938-0.47716 0.07707
   1  -3   1   92.48   22.66   5 0.78199-0.67094 0.04876-0.23503-0.47236 0.57266
   1   7   0  836.36   28.10   6 0.77930-0.68304 0.05563 0.37945-0.47558 0.49274
   1  10  -9  176.59   36.86   6 0.77953-0.81668 0.05506 0.56582-0.47531-0.25829
   1  10  -3  540.00   28.10   5 0.78136-0.73079 0.05038 0.57032-0.47312 0.23944
   2 -10  -3  405.14   25.37   6 0.77917-0.63128 0.05597-0.67712-0.47573 0.25949
   2  -6   1   71.73   15.03   5 0.78315-0.57503 0.04573-0.41851-0.47094 0.58940
   2   9   0  268.71   19.09   5 0.78446-0.59217 0.04230 0.51700-0.46932 0.50304
   2  11  -2  351.85   22.69   5 0.78330-0.62136 0.04535 0.63767-0.47076 0.33775
   2  12  -4  493.57   25.32   5 0.78373-0.65171 0.04421 0.70090-0.47022 0.16978
   3 -12  -7  146.21   37.95   6 0.77893-0.59370 0.05657-0.80302-0.47602-0.05759
   3 -12  -5  555.68   36.59   6 0.78099-0.56616 0.05133-0.79651-0.47357 0.10747
   3 -10  -1  145.83   24.97   6 0.78109-0.50686 0.05108-0.67182-0.47345 0.44120
   3  -9   0 1628.95   30.20   5 0.78140-0.49207 0.05027-0.60923-0.47307 0.52429
   3  13  -3  119.86   35.33   5 0.78075-0.53664 0.05193 0.75545-0.47385 0.27479
   4 -13  -5  377.30   38.05   6 0.78150-0.47057 0.05001-0.85654-0.47295 0.12425
   4 -11  -1  226.41   28.08   6 0.78103-0.41069 0.05124-0.73447-0.47353 0.45845
   4 -10   0   53.45   26.13   6 0.78021-0.39519 0.05334-0.67515-0.47451 0.54256
   4  -9   1 1271.27   24.64   5 0.78475-0.38425 0.04154-0.60029-0.46896 0.62182
   4  -5   3  224.57   18.03   5 0.78417-0.35442 0.04307-0.35337-0.46968 0.78886
   4  14  -3    8.50   36.05   6 0.77976-0.43863 0.05448 0.81596-0.47504 0.29281
   5 -13  -3   23.01   38.94   6 0.78035-0.34217 0.05296-0.86095-0.47433 0.30934
   5 -11   0  271.95   23.24   5 0.78489-0.30317 0.04116-0.72429-0.46878 0.55538
   5  -8   2   12.71   23.90   6 0.77972-0.26683 0.05459-0.55338-0.47509 0.72895
   5  -6   3   12.56   24.82   6 0.78095-0.25380 0.05144-0.42461-0.47362 0.81005
   6   5   4    8.39   50.08   8 0.76527-0.12681 0.08973 0.22133-0.49111 0.92894
   7  -9   2  166.27   34.93   6 0.78072-0.07593 0.05203-0.61168-0.47390 0.76139
   7  -7   3    4.01   32.11   6 0.78058-0.05781 0.05239-0.48996-0.47406 0.84568
   7  -4   4   13.85   31.06   6 0.78039-0.04531 0.05288-0.30205-0.47429 0.92898
   8  -7   3  172.30   35.97   6 0.77989 0.03677 0.05415-0.49000-0.47489 0.86363
   8  -4   4   65.50   37.34   6 0.78043 0.05108 0.05277-0.30183-0.47424 0.94591
  -1  -3  -6 1710.52   69.67   8 0.76179-0.94729 0.09772-0.28452-0.49459-0.02402
  -1  -1  -8  128.59   27.75   6 0.77577-0.99153 0.06450-0.12634-0.47961-0.20528
  -1  -1  -3  869.63   44.45   7 0.77132-0.91290 0.07538-0.13789-0.48459 0.21553
  -1   3  -8 1079.39   32.64   6 0.77618-0.99201 0.06348 0.12291-0.47914-0.20558
  -1   3  -3 1160.36   32.21   6 0.77508-0.91664 0.06621 0.12083-0.48040 0.21181
  -1   5  -6  101.46   24.25   7 0.77470-0.96046 0.06715 0.24344-0.48083-0.03769
  -1   5  -5  367.57   24.73   7 0.77468-0.94549 0.06718 0.24281-0.48084 0.04544
   0  -6  -8   38.47   48.38  10 0.75306-0.87129 0.11718-0.49050-0.50305-0.16463
   0   2   0   83.82   22.53   6 0.77672-0.77670 0.06212 0.06152-0.47851 0.47861
   0   4 -11   35.67   29.89   6 0.77779-0.94143 0.05946 0.18935-0.47728-0.44230
   0   7  -2  202.79   23.98   6 0.77531-0.80530 0.06564 0.36970-0.48014 0.31282
   0   8  -8  237.22   24.15   6 0.77854-0.89775 0.05756 0.43951-0.47640-0.19156
   0   8  -3  119.63   23.92   7 0.77396-0.81933 0.06896 0.42710-0.48166 0.23064
   1  -9  -6   58.02   27.62   7 0.77467-0.76720 0.06722-0.62669-0.48086-0.00270
   1  -5   0  450.29   24.85   7 0.77367-0.67684 0.06966-0.38132-0.48198 0.49914
   1  11  -7   65.23   34.78   6 0.77558-0.78352 0.06496 0.61935-0.47982-0.08841
   1  11  -6  571.81   25.94   6 0.77748-0.77069 0.06022 0.62320-0.47763-0.00579
   1  11  -5  -26.53   27.77   7 0.77542-0.75306 0.06535 0.62106-0.48000 0.08005
   2 -10  -9   16.84   41.66   7 0.77438-0.71524 0.06793-0.68981-0.48119-0.23673
   2  -3   2  531.30   25.32   7 0.77386-0.55061 0.06921-0.25623-0.48178 0.68379
   2  12  -3  -10.61   29.74   7 0.77489-0.62510 0.06668 0.67984-0.48061 0.26623
   3 -12  -6   -1.58   27.02   6 0.77794-0.57593 0.05908-0.80654-0.47710 0.02824
   3  -2   3  364.84   22.89   7 0.77311-0.43866 0.07105-0.19538-0.48261 0.78509
   4 -12  -3   49.49   29.53   7 0.77386-0.43231 0.06919-0.81638-0.48177 0.29982
   4  -7   2  323.18   18.39   6 0.77794-0.36307 0.05908-0.49439-0.47710 0.71259
   4   9   2   24.38   28.05   6 0.77504-0.36023 0.06630 0.49176-0.48044 0.71590
   4  12   0  207.98   32.06   7 0.77249-0.38862 0.07255 0.67306-0.48330 0.55001
   5  -2   4   94.43   18.56   6 0.77824-0.23664 0.05832-0.18338-0.47675 0.89681
   5  10   2    0.64   33.66   8 0.76861-0.25505 0.08187 0.54275-0.48752 0.74199
   6 -12  -1   50.29   36.99   7 0.77522-0.21111 0.06586-0.81104-0.48024 0.49936
   6 -11   0  104.81   34.99   7 0.77427-0.19502 0.06820-0.75165-0.48131 0.58538
   6 -10   1   28.09   23.95   6 0.77779-0.18373 0.05946-0.68175-0.47728 0.66422
   6  -3   4    9.50   27.83   7 0.77458-0.13627 0.06744-0.25406-0.48096 0.91804
   6  12   1    0.04   42.89   7 0.77427-0.18055 0.06820 0.67864-0.48131 0.66834
  -1   4  -8   53.35   27.42   7 0.76961-0.98543 0.07947 0.16878-0.48635-0.19917
  -1   5  -7   44.57   24.57   7 0.76995-0.97096 0.07866 0.23274-0.48599-0.11670
  -1   5  -4  145.82   22.81   8 0.76843-0.92427 0.08227 0.22881-0.48761 0.13636
   0   5 -11  182.67   38.75   7 0.76999-0.93462 0.07856 0.23137-0.48594-0.43256
   0   7 -10  -10.75   37.84   8 0.76833-0.91681 0.08250 0.35321-0.48772-0.34733
   0   8  -9    9.00   36.75   7 0.76913-0.90287 0.08061 0.41699-0.48687-0.26530
   0   9  -7  457.02   29.25   7 0.77017-0.87537 0.07814 0.48037-0.48575-0.09900
   0   9  -6   -1.40   20.76   7 0.77276-0.86165 0.07187 0.48862-0.48291-0.01723
   0   9  -5  337.35   21.45   7 0.77166-0.84695 0.07453 0.48401-0.48412 0.06646
   1  -8  -9  252.44   46.60   9 0.76358-0.79952 0.09361-0.59196-0.49268-0.24041
   1  -8  -3 1991.26   35.14   8 0.76845-0.71676 0.08222-0.57960-0.48759 0.25349
   1   5   1 1127.55   33.84   7 0.77011-0.65929 0.07827 0.23310-0.48581 0.58610
   1   9  -1  324.53   24.71   8 0.76665-0.68538 0.08646 0.47284-0.48950 0.42310
   1  10  -2  174.87   24.39   8 0.76705-0.70010 0.08554 0.53625-0.48908 0.33957
   1  11  -8  216.56   29.40   7 0.77119-0.79442 0.07567 0.60719-0.48464-0.16620
   1  11  -4  567.04   24.04   7 0.77088-0.73534 0.07643 0.60647-0.48498 0.16725
   2  -9  -2   15.29   22.41   8 0.76839-0.60505 0.08237-0.64231-0.48766 0.35494
   2  -7   0   54.59   20.44   8 0.76882-0.57608 0.08134-0.51576-0.48720 0.52127
   2   8   1  228.16   25.80   7 0.76846-0.56122 0.08221 0.41450-0.48759 0.60511
   2  13  -6   68.00   29.07   7 0.77088-0.66727 0.07643 0.73203-0.48498 0.01781
   2  13  -5   23.46   36.48   8 0.76848-0.65031 0.08215 0.72640-0.48756 0.10382
   3 -11  -3   15.93   20.57   7 0.77198-0.52701 0.07377-0.75770-0.48377 0.28455
   3  -7   1   64.03   20.25   8 0.76790-0.46336 0.08352-0.51981-0.48818 0.62363
   3  11   0  157.12   27.53   7 0.77056-0.48314 0.07719 0.60624-0.48532 0.53572
   3  12  -1  705.74   27.33   7 0.77151-0.49979 0.07491 0.67059-0.48429 0.45064
   3  13  -2   -3.78   31.00   8 0.76640-0.50712 0.08706 0.72141-0.48976 0.37401
   3  14  -4   19.27   36.61   8 0.76737-0.53781 0.08478 0.78562-0.48874 0.20573
   4  -4   3  286.11   23.42   8 0.76858-0.33866 0.08191-0.33137-0.48745 0.80623
   4  13  -1   46.07   27.66   7 0.77151-0.40059 0.07491 0.73328-0.48429 0.46943
   5 -13  -4  275.26   37.04   7 0.76947-0.34674 0.07981-0.88675-0.48651 0.23872
   5 -12  -2    2.28   30.31   8 0.76865-0.31702 0.08174-0.82377-0.48738 0.40588
   5  -9   1  -17.59   26.36   8 0.76849-0.26896 0.08212-0.64354-0.48755 0.65722
   5  -1   4  893.87   30.95   8 0.76866-0.22713 0.08172-0.14525-0.48737 0.90714
   6  -8   2   82.12   28.96   8 0.76835-0.15990 0.08247-0.58013-0.48771 0.75745
   6  -6   3   18.85   25.93   7 0.76940-0.14677 0.07998-0.45252-0.48658 0.83942
   7 -11   0   57.38   38.79   8 0.76841-0.09274 0.08232-0.76705-0.48764 0.60822
   7 -10   1    3.47   26.31   7 0.77198-0.07941 0.07377-0.69702-0.48377 0.68714
   7  -3   4  477.38   33.95   8 0.76880-0.03430 0.08139-0.26874-0.48722 0.94113
   7   9   3    1.63   57.91   9 0.75842-0.03872 0.10533 0.45403-0.49783 0.86899
   8  -3   4    4.32   33.77   8 0.76937 0.06307 0.08004-0.26738-0.48661 0.95742
  -1  -3  -5  332.84   59.65  12 0.73930-0.91016 0.14622-0.33313-0.51503 0.07934
  -1  -2  -8    0.84   30.22   8 0.76112-0.97458 0.09934-0.22280-0.49508-0.18817
  -1   0  -9  556.67   36.26   9 0.76011-0.99000 0.10164-0.10161-0.49609-0.27182
  -1   1  -9   19.92   29.18   8 0.76385-0.99430 0.09309-0.03069-0.49232-0.27730
  -1   2  -9  112.94   30.15   8 0.76376-0.99454 0.09330 0.03208-0.49242-0.27509
  -1   3  -9    2.37   30.07   9 0.76154-0.99121 0.09839 0.08891-0.49467-0.27361
  -1   4  -3  253.24   19.06   8 0.76565-0.90678 0.08892 0.16014-0.49047 0.22256
  -1   5  -8   10.49   28.35   9 0.76121-0.97725 0.09915 0.21209-0.49500-0.19124
  -1   6  -6   16.03   24.57   8 0.76307-0.94952 0.09489 0.27866-0.49312-0.02595
  -1   6  -5 1948.40   32.99   8 0.76242-0.93344 0.09639 0.27673-0.49379 0.05921
   0  -3 -11   18.57   49.93   9 0.75510-0.91820 0.11281-0.29910-0.50095-0.41827
   0   3   0   -2.83   25.33   9 0.76295-0.76150 0.09517 0.09119-0.49325 0.49593
   0   6  -1   38.39   16.59   8 0.76679-0.78215 0.08627 0.28541-0.48929 0.40603
   0   9  -8   28.54   29.99   8 0.76413-0.88393 0.09246 0.46785-0.49205-0.17726
   0   9  -4    0.02   18.07   8 0.76646-0.82536 0.08702 0.47314-0.48962 0.15712
   1  11  -3    1.10   25.13   9 0.76162-0.70863 0.09820 0.58458-0.49458 0.26334
   2 -10  -4  769.90   24.72   8 0.76565-0.63277 0.08892-0.71009-0.49047 0.19014
   2  -8  -1  331.61   18.16   8 0.76451-0.58696 0.09157-0.58902-0.49165 0.44161
   2  11  -1  384.68   29.97   8 0.76313-0.58621 0.09475 0.58823-0.49306 0.44422
   2  12  -2  129.64   27.83   9 0.76057-0.59865 0.10059 0.64424-0.49563 0.36236
   2  13  -4   11.90   34.83   8 0.76270-0.62973 0.09574 0.71252-0.49350 0.19340
   3 -10  -2   11.90   23.27   9 0.76103-0.50093 0.09955-0.72218-0.49518 0.37963
   3  -5   2   92.56   14.81   8 0.76646-0.44820 0.08703-0.39837-0.48963 0.70751
   3   8   2  589.60   33.14   9 0.75992-0.44211 0.10207 0.39485-0.49628 0.71392
   4 -12  -4   20.12   33.10   9 0.76170-0.43487 0.09802-0.84464-0.49450 0.22894
   4 -11  -2  282.40   28.18   9 0.76226-0.40610 0.09675-0.77942-0.49395 0.39666
   4  -8   1    0.35   21.81   9 0.76311-0.36092 0.09480-0.59199-0.49308 0.64463
   4  11   1  150.37   31.88   8 0.76339-0.36403 0.09416 0.58896-0.49280 0.64537
   4  14  -2   78.96   31.08   8 0.76516-0.40958 0.09006 0.78039-0.49098 0.39247
   5 -11  -1   14.06   21.89   8 0.76435-0.29635 0.09195-0.77636-0.49182 0.49433
   5 -10   0   21.67   26.40   9 0.76276-0.28081 0.09560-0.71589-0.49344 0.57883
   5  -7   2  267.43   24.34   9 0.76023-0.24827 0.10137-0.53600-0.49598 0.74968
   5  -5   3  216.41   18.80   8 0.76516-0.23911 0.09006-0.40221-0.49098 0.82700
   5   0   4   -8.23   23.93   9 0.76129-0.21675 0.09896-0.10036-0.49492 0.91692
   5   3   4  191.43   31.15  10 0.75615-0.21499 0.11049 0.07544-0.49995 0.91986
   5   8   3  216.97   39.07   9 0.76072-0.23529 0.10027 0.39634-0.49549 0.83142
   5  13   0  328.35   38.62   8 0.76441-0.28403 0.09181 0.71547-0.49176 0.57773
   6  -2   4  513.63   29.98   8 0.76304-0.12477 0.09497-0.22022-0.49316 0.92974
   7  -8   2  -15.92   29.82   9 0.76278-0.05634 0.09555-0.59364-0.49341 0.77988
   7  -6   3  392.82   25.95   8 0.76484-0.04539 0.09082-0.46476-0.49132 0.86205
   8  -8   2  171.50   40.30   8 0.76263 0.03935 0.09590-0.59374-0.49357 0.79790
   8  -6   3    4.98   27.04   8 0.76500 0.05399 0.09044-0.46500-0.49115 0.87919
   8  -2   4   22.21   32.53   9 0.76078 0.07203 0.10012-0.22546-0.49543 0.96891
  -1   4  -9   83.65   30.73   9 0.75557-0.98623 0.11155 0.13700-0.50025-0.26830
  -1   5  -3  435.27   25.73  10 0.75429-0.89571 0.11437 0.19632-0.50147 0.23319
  -1   6  -7  802.09   23.62   9 0.75965-0.96079 0.10246 0.26986-0.49630-0.10518
  -1   6  -4    2.49   22.11  10 0.75540-0.91209 0.11192 0.26154-0.50041 0.14866
   0  -6  -4  866.08   32.24  10 0.75527-0.81427 0.11220-0.48588-0.50053 0.16617
   0  -3  -1 1480.59   43.08  10 0.75540-0.77046 0.11192-0.29980-0.50041 0.41576
   0   8 -10  129.59   42.35   9 0.75599-0.90542 0.11062 0.38668-0.49985-0.33557
   0   8  -2  946.84   27.87   9 0.75673-0.78722 0.10898 0.38811-0.49914 0.33171
   0   9  -9   24.96   37.22   9 0.75564-0.88938 0.11140 0.44805-0.50019-0.25167
   0   9  -3 2931.38   36.88   9 0.75546-0.80116 0.11180 0.44712-0.50036 0.24931
   0  10  -7   86.13   29.46  10 0.75452-0.85917 0.11387 0.50752-0.50125-0.08346
   0  10  -6  372.23   31.75   9 0.75621-0.84642 0.11015 0.51102-0.49965-0.00110
   0  10  -5    1.79   27.43  10 0.75480-0.82840 0.11324 0.50855-0.50098 0.08486
   1  -7  -2 1459.47   27.95   9 0.75847-0.69136 0.10511-0.54085-0.49746 0.34734
   1  -6  -1   64.64   15.68   9 0.75948-0.67789 0.10284-0.47581-0.49647 0.42998
   1  -2   1    5.20   21.94   9 0.75589-0.64447 0.11084-0.23531-0.49995 0.60069
   1   8   0   -2.47   23.34  10 0.75523-0.65936 0.11230 0.38549-0.50057 0.51789
   1  12  -7   45.53   28.69   9 0.75779-0.76605 0.10662 0.63985-0.49812-0.06978
   1  12  -6   20.09   25.38   9 0.75897-0.75228 0.10398 0.64238-0.49696 0.01270
   1  12  -5   50.24   29.94   9 0.75660-0.73510 0.10927 0.63717-0.49927 0.09858
   2 -10  -8    9.20   36.26  10 0.75540-0.68031 0.11192-0.73223-0.50041-0.13317
   2 -10  -5   16.65   27.38  10 0.75506-0.63613 0.11267-0.73453-0.50074 0.11720
   2  -5   1  668.33   20.55   9 0.75981-0.55160 0.10208-0.41359-0.49614 0.61403
   2  10   0 1513.96   29.36   9 0.75847-0.56700 0.10511 0.51604-0.49746 0.53104
   3 -11  -4  513.66   24.90   9 0.75914-0.52891 0.10360-0.78767-0.49680 0.21532
   3  -9  -1   -6.70   23.68  10 0.75549-0.47912 0.11173-0.67289-0.50033 0.46857
   3  -8   0  142.49   16.86   9 0.75745-0.46797 0.10738-0.60481-0.49845 0.55013
   3  -1   3  199.33   17.60   9 0.75847-0.42398 0.10511-0.16737-0.49746 0.80009
   3  10   1  209.07   20.94   9 0.75880-0.45654 0.10435 0.51655-0.49713 0.63167
   3  14  -3   -3.41   35.15  10 0.75609-0.50989 0.11041 0.76203-0.49976 0.30270
   4 -10  -1  -24.36   23.43  10 0.75600-0.38333 0.11060-0.73236-0.49984 0.48488
   4  -9   0   -3.17   23.10  10 0.75617-0.36877 0.11022-0.66981-0.49968 0.56798
   4  -6   2  584.01   20.59   9 0.75796-0.34227 0.10625-0.47930-0.49795 0.73394
   4   7   3   10.93   33.33  10 0.74871-0.31899 0.12643 0.30770-0.50661 0.82527
   5 -12  -3    8.99   34.12  10 0.75506-0.31476 0.11268-0.86101-0.50074 0.33627
   5   1   4  821.44   32.55  10 0.75405-0.21275 0.11489-0.05355-0.50169 0.92203
   5   2   4  108.17   28.77  10 0.75037-0.20906 0.12288 0.00063-0.50511 0.92493
   5  12   1    1.06   37.00  10 0.75583-0.25605 0.11097 0.63488-0.50000 0.67183
   6 -12  -2  372.14   29.23   9 0.75813-0.20902 0.10587-0.85176-0.49779 0.43506
   6  -9   1   87.35   27.38   9 0.75733-0.16368 0.10765-0.66748-0.49856 0.68538
   6  -5   3   77.60   24.32  10 0.75344-0.13008 0.11623-0.42799-0.50227 0.85674
   6  -1   4   34.53   24.69  10 0.75247-0.11476 0.11834-0.18121-0.50317 0.94056
   6  11   2   91.17   42.63  10 0.75313-0.14620 0.11690 0.56618-0.50255 0.77226
   7  -2   4   14.48   27.49   9 0.75710-0.02326 0.10816-0.23302-0.49878 0.95243
   8   5   4   14.36   51.38  10 0.75025 0.08120 0.12314 0.18729-0.50521 0.97773
  -1  -3  -7  143.35   37.19  12 0.73816-0.93842 0.14831-0.33453-0.51568-0.08632
  -1  -1  -9   54.82   33.82  11 0.74675-0.97707 0.13053-0.19268-0.50831-0.26128
  -1   2  -2   42.18   24.70  11 0.74675-0.87251 0.13054-0.00729-0.50831 0.32503
  -1   5  -9  -13.32   31.13  11 0.74825-0.97904 0.12737 0.18436-0.50698-0.26187
  -1   6  -8   -0.33   21.19  10 0.75159-0.96750 0.12019 0.25374-0.50394-0.18119
  -1   7  -7  -17.59   27.27  11 0.74807-0.94860 0.12774 0.30808-0.50714-0.09393
  -1   7  -6  567.20   21.86  10 0.75089-0.93738 0.12171 0.31230-0.50458-0.01355
  -1   7  -5  281.44   25.29  10 0.74887-0.92083 0.12605 0.30852-0.50642 0.07163
   0   4   0  991.04   32.64  10 0.74957-0.75004 0.12456 0.12474-0.50579 0.50545
   0   7  -1    2.41   22.52  11 0.74789-0.76322 0.12812 0.30714-0.50730 0.42365
   0  10  -8  380.90   36.69  10 0.74890-0.86943 0.12598 0.49492-0.50639-0.16140
   0  10  -4   29.19   26.83  11 0.74808-0.80817 0.12773 0.49396-0.50713 0.17272
   1  -8  -4   -0.62   22.77  11 0.74851-0.71045 0.12680-0.62493-0.50674 0.19019
   1  12  -4   98.79   28.39  10 0.75019-0.71441 0.12321 0.62280-0.50522 0.18789
   2 -10  -7   12.43   32.31  11 0.74843-0.65874 0.12699-0.74791-0.50682-0.04351
   2 -10  -6  332.36   32.17  11 0.74872-0.64423 0.12636-0.74775-0.50655 0.04003
   2  -9  -3   55.31   22.24  11 0.74647-0.59830 0.13114-0.69030-0.50856 0.29247
   2  -2   2 3798.59   46.40  10 0.75212-0.52889 0.11906-0.24420-0.50345 0.70521
   2   6   2   26.39   22.14  11 0.74716-0.52463 0.12968 0.24356-0.50795 0.70924
   2  13  -3  190.59   25.30  10 0.75194-0.60512 0.11944 0.68826-0.50361 0.28691
   2  14  -5  233.89   37.51  11 0.74678-0.62931 0.13048 0.73934-0.50829 0.12542
   3 -11  -8   25.51   42.35  11 0.74488-0.57408 0.13447-0.81819-0.50996-0.10681
   3 -11  -5   81.05   31.02  11 0.74833-0.53319 0.12719-0.81056-0.50690 0.14136
   4 -12  -6  -21.04   34.45  11 0.74718-0.44798 0.12963-0.87954-0.50793 0.07528
   4 -12  -5   14.01   26.59  10 0.75229-0.44045 0.11868-0.86560-0.50329 0.15408
   4  -3   3  797.56   22.47  10 0.75124-0.32048 0.12095-0.30785-0.50426 0.82415
   5  -4   3  589.01   25.16  11 0.74707-0.22037 0.12986-0.37869-0.50803 0.84503
   6 -11  -1   49.34   25.39  10 0.75264-0.18823 0.11793-0.80283-0.50297 0.52271
   6 -10   0   57.81   23.77  10 0.75212-0.17289 0.11906-0.74156-0.50345 0.60671
   6  -7   2   99.10   27.02  11 0.74853-0.14005 0.12677-0.56193-0.50673 0.77702
   6   9   3   -2.99   50.25  12 0.73739-0.11149 0.14987 0.40883-0.51632 0.87145
   7  -9   1  -11.46   25.12  10 0.75194-0.05910 0.11944-0.68115-0.50361 0.70738
   7  -5   3   23.60   30.70  11 0.74824-0.02802 0.12738-0.43919-0.50699 0.87850
   7  -1   4   27.58   30.42  11 0.74683-0.01202 0.13038-0.19331-0.50825 0.96316
   7   5   4   41.60   46.51  12 0.73782-0.00327 0.14900 0.16098-0.51597 0.97055
   8  -9   1    5.72   28.70  10 0.75124 0.03797 0.12095-0.68253-0.50426 0.72491
   8  -5   3  242.18   36.08  10 0.74882 0.06769 0.12616-0.43713-0.50647 0.89453
   8  -1   4   33.87   35.76  10 0.74935 0.08169 0.12502-0.18795-0.50599 0.97764
  -1   1 -10   12.33   35.01  12 0.73665-0.98241 0.15105-0.08868-0.51689-0.33634
  -1   1  -2 3537.13   57.96  12 0.74047-0.86737 0.14329-0.08062-0.51371 0.32821
  -1   2 -10   32.72   33.31  11 0.74078-0.98595 0.14266-0.01815-0.51345-0.33919
  -1   3 -10  406.54   36.50  12 0.74028-0.98558 0.14367 0.04229-0.51387-0.33741
  -1   3  -2 1245.20   28.94  11 0.74404-0.87109 0.13591 0.05097-0.51066 0.32530
  -1   6  -9  498.32   32.86  12 0.73981-0.97053 0.14464 0.22811-0.51427-0.25324
  -1   6  -3 2338.42   34.86  11 0.74116-0.88301 0.14187 0.23116-0.51313 0.24504
  -1   7  -8   13.26   30.63  12 0.74068-0.95667 0.14286 0.29243-0.51354-0.17219
  -1   7  -4  200.63   24.10  11 0.74158-0.89849 0.14101 0.29363-0.51277 0.16185
   1  -8  -8  144.09   37.63  13 0.73383-0.75485 0.15669-0.65488-0.51918-0.13019
   1  -7 -10   46.71   53.67  14 0.72209-0.77347 0.17948-0.61407-0.52823-0.28865
   1  -4   0   29.70   20.97  12 0.74021-0.64357 0.14382-0.39209-0.51393 0.53136
   1   6   1 1230.91   29.76  11 0.74512-0.63463 0.13365 0.23967-0.50971 0.60997
   1  10  -1  830.88   27.73  11 0.74308-0.66325 0.13790 0.48314-0.51148 0.44484
   1  11  -2  119.04   19.73  11 0.74440-0.67872 0.13516 0.54802-0.51034 0.36100
   2  -6   0  655.08   23.93  12 0.73929-0.54591 0.14570-0.51949-0.51471 0.54872
   2   9   1    8.96   23.77  12 0.73892-0.53188 0.14645 0.41297-0.51501 0.63297
   2  14  -4   -7.59   35.18  12 0.74003-0.60627 0.14419 0.72439-0.51409 0.21658
   3 -11  -7   58.86   37.17  12 0.74045-0.55457 0.14332-0.82747-0.51373-0.01961
   3 -11  -6  139.72   33.23  12 0.74153-0.54097 0.14112-0.82444-0.51282 0.06338
   3 -10  -3   97.89   26.54  12 0.74061-0.49604 0.14300-0.76499-0.51359 0.31431
   3  -6   1  430.21   23.09  12 0.74143-0.43657 0.14130-0.51472-0.51289 0.64764
   3  -4   2  618.39   20.18  11 0.74368-0.42407 0.13667-0.38604-0.51097 0.73007
   3   0   3 2452.47   44.20  12 0.74161-0.40718 0.14094-0.14174-0.51274 0.81502
   3  12   0  187.41   31.56  11 0.74149-0.45409 0.14119 0.60390-0.51285 0.56416
   3  13  -1   -4.06   24.25  11 0.74440-0.46848 0.13516 0.67290-0.51034 0.48053
   3  14  -2   -5.84   34.69  12 0.74049-0.48012 0.14325 0.72552-0.51370 0.40050
   4 -11  -3  479.74   23.95  11 0.74458-0.40348 0.13478-0.81858-0.51019 0.32904
   4  -7   1   16.00   20.87  12 0.73929-0.33804 0.14570-0.58163-0.51471 0.66723
   4  13   0  103.09   37.03  11 0.74121-0.35672 0.14178 0.66573-0.51309 0.58182
   4  14  -1  257.27   40.62  11 0.74210-0.37370 0.13994 0.72954-0.51233 0.49769
   5 -12  -4   95.49   36.54  12 0.74069-0.31721 0.14283-0.88967-0.51352 0.26527
   5 -11  -2  120.34   22.47  11 0.74349-0.29064 0.13704-0.82105-0.51113 0.43079
   5  -8   1  663.70   22.59  11 0.74566-0.24835 0.13252-0.63001-0.50924 0.67928
   6 -12  -3   17.47   39.72  12 0.74076-0.20599 0.14269-0.88858-0.51347 0.36578
   6   0   4   52.75   26.20  12 0.74127-0.10322 0.14164-0.14264-0.51303 0.95011
   7 -11  -1   73.78   29.00  11 0.74584-0.08490 0.13215-0.81690-0.50908 0.54587
   7 -10   0   20.75   26.24  11 0.74602-0.07022 0.13177-0.75444-0.50892 0.62936
   7  -7   2   27.07   22.16  11 0.74368-0.03822 0.13667-0.57285-0.51097 0.79867
   8  -7   2   22.52   27.46  11 0.74404 0.05774 0.13591-0.57202-0.51066 0.81533
   8   0   4  181.17   37.53  12 0.74046 0.09023 0.14330-0.14485-0.51372 0.98561
  -1   4 -10   59.53   32.81  12 0.73545-0.98203 0.15303 0.09601-0.51768-0.33618
  -1   4  -2 2765.03   37.48  12 0.73714-0.86398 0.14964 0.09965-0.51630 0.33155
  -1   8  -7   80.12   28.95  12 0.73433-0.93627 0.15528 0.34222-0.51859-0.08305
  -1   8  -6   24.54   18.43  12 0.73695-0.92355 0.15001 0.34747-0.51645-0.00218
  -1   8  -5  526.56   27.64  12 0.73444-0.90638 0.15507 0.34187-0.51851 0.08436
   0  -6  -5   37.93   27.18  13 0.72975-0.80380 0.16432-0.53741-0.52223 0.10447
   0  -5  -3 1828.49   42.40  13 0.72944-0.77356 0.16492-0.47663-0.52247 0.27106
   0   5   0   -2.08   22.73  12 0.73415-0.73468 0.15564 0.15546-0.51874 0.51879
   0   9  -2  196.88   18.54  12 0.73695-0.76739 0.15001 0.40929-0.51645 0.34966
   0  10  -3  393.54   25.46  12 0.73558-0.78150 0.15278 0.46840-0.51758 0.26747
   0  11  -8   12.86   34.87  13 0.73283-0.85232 0.15827 0.52436-0.51980-0.14651
   0  11  -7  265.36   26.57  12 0.73677-0.84257 0.15039 0.53325-0.51661-0.06708
   0  11  -6  413.72   26.17  12 0.73807-0.82890 0.14776 0.53549-0.51553 0.01559
   0  11  -5  136.75   28.75  12 0.73509-0.81136 0.15377 0.53028-0.51798 0.09998
   1  -8  -5  302.74   27.00  13 0.73213-0.70902 0.15964-0.65747-0.52035 0.12098
   1   9   0  240.02   23.56  13 0.73087-0.63648 0.16213 0.39665-0.52135 0.53789
   1  12  -3    1.48   20.89  12 0.73844-0.68651 0.14701 0.59963-0.51522 0.28383
   1  13  -6  447.66   30.64  12 0.73844-0.73320 0.14701 0.66082-0.51522 0.03180
   1  13  -5    9.97   32.22  13 0.73443-0.71344 0.15508 0.65568-0.51851 0.11894
   2  -8  -2  351.27   23.70  13 0.73368-0.56986 0.15656-0.65381-0.51911 0.38645
   2  12  -1   61.49   22.04  12 0.73695-0.56055 0.15001 0.59537-0.51645 0.46736
   2  13  -2  146.79   33.75  12 0.73460-0.57313 0.15473 0.65310-0.51837 0.38607
   4 -10  -2  541.26   28.14  13 0.73251-0.37596 0.15890-0.78046-0.52005 0.42303
   4  -5   2  779.40   25.92  13 0.73409-0.31785 0.15575-0.46664-0.51879 0.75478
   4  -2   3    6.76   19.65  12 0.73239-0.30043 0.15912-0.28475-0.52014 0.84169
   4  10   2  233.05   31.16  12 0.73467-0.32160 0.15460 0.46641-0.51832 0.75380
   5 -10  -1  400.00   22.47  12 0.73770-0.27021 0.14851-0.77046-0.51584 0.51888
   5  -9   0   15.49   18.71  12 0.73825-0.25522 0.14738-0.70795-0.51538 0.60157
   5  -6   2  125.29   17.66  12 0.73807-0.22546 0.14776-0.52130-0.51553 0.76905
   5  11   2  267.05   41.85  13 0.72831-0.21968 0.16713 0.51616-0.52335 0.77571
   6  -8   1   38.34   27.17  13 0.73374-0.13954 0.15645-0.65450-0.51907 0.70568
   6  -4   3  526.83   29.18  13 0.73377-0.11007 0.15639-0.40505-0.51904 0.87310
   6   1   4   38.85   27.65  13 0.73241-0.09400 0.15909-0.09828-0.52013 0.95791
   6   4   4   56.61   35.80  13 0.72878-0.09113 0.16621 0.08120-0.52298 0.96031
   7   0   4    1.86   26.95  13 0.73480 0.00116 0.15433-0.15576-0.51821 0.97203
   8  -4   3  180.79   33.26  13 0.73248 0.08362 0.15895-0.40782-0.52007 0.90941
   8   1   4    5.44   35.64  12 0.73377 0.09780 0.15639-0.09532-0.51904 0.99213
   8   4   4   65.30   44.49  13 0.73133 0.09925 0.16121 0.08616-0.52098 0.99313
  -1   0 -10    6.24   32.61  13 0.72702-0.97268 0.16945-0.16927-0.52426-0.32862
  -1   5 -10  162.18   27.47  13 0.73010-0.97665 0.16346 0.14688-0.52188-0.33035
  -1   5  -2 1500.02   32.37  13 0.72726-0.85450 0.16899 0.14230-0.52408 0.33916
  -1   7  -9   -0.59   24.82  13 0.72895-0.96030 0.16571 0.27019-0.52277-0.24579
  -1   7  -3  437.24   24.72  13 0.72687-0.86932 0.16973 0.26486-0.52437 0.25611
  -1   8  -8    2.36   29.05  13 0.72779-0.94459 0.16795 0.32975-0.52367-0.16214
  -1   8  -4    6.29   23.42  13 0.72644-0.88353 0.17057 0.32723-0.52470 0.17323
   0  -6  -7   12.29   32.81  15 0.71380-0.81715 0.19435-0.56667-0.53392-0.05001
   0  -4  -2  653.70   30.05  14 0.72558-0.75535 0.17222-0.42172-0.52536 0.35721
   0   8  -1  168.11   22.83  13 0.72779-0.74436 0.16795 0.32921-0.52367 0.43932
   0  11  -4   40.45   26.55  13 0.72798-0.78870 0.16758 0.51639-0.52352 0.18937
   1  -8  -7  237.20   32.37  14 0.72104-0.72798 0.18088-0.67798-0.52874-0.03854
   1  -8  -6  203.00   30.10  14 0.72216-0.71407 0.17876-0.67660-0.52792 0.04444
   1  -7  -3  110.75   22.39  14 0.72549-0.67312 0.17241-0.60785-0.52543 0.29220
   1  13  -4  476.75   32.82  13 0.72760-0.69351 0.16833 0.63862-0.52381 0.20650
   2  -9  -4   45.89   24.48  14 0.72588-0.59171 0.17165-0.73132-0.52513 0.22551
   2  -7  -1 1629.19   27.09  13 0.73086-0.55208 0.16196-0.59761-0.52128 0.47215
   2  -4   1   -1.34   14.51  13 0.72933-0.52013 0.16496-0.41498-0.52248 0.64080
   2  -1   2   86.61   20.77  14 0.72346-0.50076 0.17628-0.23878-0.52695 0.72870
   2  11   0   58.88   20.09  13 0.73010-0.53855 0.16346 0.51987-0.52188 0.55700
   2  14  -3  100.32   39.03  13 0.72638-0.57977 0.17069 0.69985-0.52475 0.30869
   3  -9  -2  737.63   25.86  13 0.72733-0.46684 0.16885-0.72799-0.52402 0.40910
   3  -7   0  194.91   21.37  13 0.72668-0.43666 0.17010-0.60516-0.52452 0.57595
   3   1   3  184.37   23.14  14 0.72383-0.38971 0.17558-0.11480-0.52667 0.82920
   3   9   2  548.50   33.12  14 0.72248-0.40536 0.17815 0.38009-0.52768 0.74595
   3  11   1   21.55   27.94  14 0.72585-0.42271 0.17171 0.51212-0.52515 0.66072
   4 -11  -4   45.22   28.74  13 0.72780-0.40089 0.16793-0.85175-0.52366 0.25821
   4  -9  -1  175.75   25.26  14 0.72617-0.35486 0.17109-0.72981-0.52491 0.51043
   4  -8   0  206.20   18.15  13 0.72875-0.34279 0.16608-0.66368-0.52292 0.59199
   4  12   1   10.36   30.60  13 0.72818-0.32861 0.16720 0.57867-0.52337 0.67628
   5 -12  -5   64.54   28.28  13 0.72914-0.32057 0.16533-0.91243-0.52262 0.19068
   5 -11  -3   48.05   28.61  14 0.72352-0.28502 0.17618-0.86093-0.52691 0.36230
   5  -3   3   56.23   22.00  14 0.72609-0.19915 0.17125-0.35824-0.52497 0.86155
   6 -12  -4  234.01   41.27  14 0.72566-0.20576 0.17208-0.91831-0.52530 0.29465
   6 -11  -2   50.89   25.49  13 0.73048-0.18075 0.16271-0.84766-0.52158 0.45758
   6 -10  -1  -10.56   30.19  14 0.72557-0.15860 0.17225-0.79651-0.52537 0.54500
   6  -9   0    6.60   28.47  13 0.72625-0.14680 0.17095-0.73168-0.52485 0.62811
   6  -6   2  192.81   25.92  14 0.72593-0.11741 0.17156-0.54475-0.52509 0.79561
   6   2   4  497.60   32.46  14 0.72528-0.08738 0.17281-0.05036-0.52558 0.96321
   6   3   4   17.45   32.02  14 0.72315-0.08501 0.17688 0.00879-0.52718 0.96508
   7 -11  -2  102.23   34.54  14 0.72371-0.07821 0.17580-0.86067-0.52676 0.48046
   7  -8   1   52.10   23.58  13 0.72895-0.03812 0.16571-0.66462-0.52277 0.72704
   7  -4   3   28.50   21.81  13 0.72971-0.00940 0.16421-0.41421-0.52218 0.89360
   7   1   4   42.20   30.35  13 0.72649 0.00812 0.17048-0.10941-0.52467 0.97935
   7   4   4   24.14   38.50  14 0.71961 0.01466 0.18356 0.06402-0.52978 0.98440
   8  -8   1   18.81   27.55  13 0.72933 0.05784 0.16496-0.66383-0.52248 0.74378
   8  -6   2  135.17   32.66  14 0.72352 0.07797 0.17618-0.55012-0.52691 0.83184
   8   2   4   19.53   36.25  13 0.72681 0.10398 0.16986-0.04680-0.52442 0.99605
   8   3   4    0.02   36.92  14 0.72615 0.10755 0.17113 0.01412-0.52492 0.99731
   9  -3   3   15.05   40.64  14 0.72469 0.18840 0.17394-0.36191-0.52603 0.93193
  -1  -2  -9  118.91   37.05  15 0.71566-0.94649 0.19057-0.31363-0.53249-0.23563
  -1   6 -10    1.94   28.21  14 0.72223-0.96896 0.17826 0.19558-0.52774-0.32459
  -1   8  -9   11.62   35.38  14 0.71787-0.94869 0.18646 0.31059-0.53091-0.23759
  -1   9  -7   50.67   27.90  14 0.72006-0.92195 0.18236 0.37764-0.52933-0.07199
  -1   9  -6  764.15   24.64  14 0.72164-0.90895 0.17938 0.37972-0.52817 0.01112
  -1   9  -5   41.81   27.20  14 0.71876-0.89098 0.18481 0.37503-0.53028 0.09538
   0  -6  -6   92.65   28.74  15 0.71259-0.80148 0.19620-0.56856-0.53463 0.03332
   0   6   0 1717.44   35.05  14 0.71779-0.71837 0.18662 0.18653-0.53097 0.53139
   0  10  -2   38.83   23.75  15 0.71587-0.74705 0.19018 0.43166-0.53234 0.36537
   0  12  -7  -17.01   38.95  15 0.71787-0.82391 0.18646 0.56033-0.53091-0.05281
   0  12  -6  221.89   36.69  14 0.71866-0.81066 0.18499 0.55946-0.53035 0.03073
   1  -5  -1 2493.81   39.22  15 0.71734-0.63588 0.18744-0.49958-0.53129 0.46353
   1   7   1  248.83   23.89  14 0.72052-0.61025 0.18149 0.25321-0.52899 0.62996
   1  11  -1  264.02   27.69  14 0.71838-0.63924 0.18551 0.49757-0.53055 0.46399
   1  12  -2   57.91   26.93  14 0.71999-0.65489 0.18250 0.56393-0.52939 0.37972
   2  -9  -9  550.73   42.80  15 0.71664-0.65750 0.18876-0.74897-0.53179-0.18502
   2   7   2  194.71   28.51  15 0.71393-0.49197 0.19375 0.23972-0.53370 0.73589
   3 -10  -4   69.13   19.86  14 0.72204-0.49137 0.17863-0.80093-0.52788 0.24571
   3  -8  -1  562.15   20.26  14 0.72302-0.44829 0.17676-0.67463-0.52715 0.49521
   3   5   3  378.17   50.75  16 0.70317-0.36974 0.21312 0.09701-0.54094 0.84313
   4 -11  -5  250.29   31.00  15 0.71514-0.40430 0.19152-0.87581-0.53285 0.18356
   5  -7   1   45.31   23.63  15 0.71824-0.22040 0.18578-0.62121-0.53065 0.69962
   5  13   1    3.78   41.47  15 0.71757-0.21869 0.18702 0.62016-0.53113 0.70290
   7 -10  -1   38.91   31.72  14 0.71884-0.05814 0.18465-0.80706-0.53022 0.56698
   7  -9   0  352.92   25.85  14 0.72085-0.04511 0.18087-0.74117-0.52875 0.65030
   7  -6   2   21.89   22.03  14 0.72184-0.01607 0.17900-0.55357-0.52803 0.81593
   7   2   4   22.34   30.48  14 0.71902 0.01543 0.18431-0.06124-0.53008 0.98462
   7   3   4  446.01   40.24  15 0.71645 0.01811 0.18911-0.00647-0.53193 0.98692
   8  -9   0  -13.27   27.87  14 0.72105 0.05389 0.18050-0.74281-0.52861 0.66581
  -1  -1 -10   11.75   38.09  15 0.70787-0.95236 0.20447-0.26661-0.53770-0.31276
  -1   0  -2    0.39   23.18  16 0.70803-0.83451 0.20419-0.20406-0.53760 0.35312
  -1   2 -11   13.47   39.61  15 0.70941-0.97011 0.20170-0.07765-0.53667-0.39933
  -1   3 -11    7.25   40.76  16 0.71049-0.97304 0.19974-0.01271-0.53593-0.40078
  -1   6  -2   73.90   16.86  15 0.71537-0.84263 0.19082 0.18076-0.53255 0.34889
  -1   7 -10  142.69   37.67  15 0.71216-0.95981 0.19671 0.23969-0.53479-0.31871
  -1   8  -3  334.65   24.34  15 0.71121-0.85327 0.19844 0.29882-0.53544 0.26912
  -1   9  -8  375.47   27.45  15 0.71375-0.93105 0.19380 0.36651-0.53368-0.14899
  -1   9  -4  733.56   28.72  15 0.70999-0.86712 0.20066 0.35883-0.53627 0.18678
   0   9  -1 2599.87   35.62  16 0.70691-0.72403 0.20619 0.35272-0.53835 0.45470
   0  11  -3   26.39   20.15  15 0.71436-0.76097 0.19268 0.49151-0.53326 0.28262
   0  12  -5   52.51   24.61  15 0.71476-0.79155 0.19194 0.55446-0.53297 0.11514
   1  -6  -2   10.92   14.92  15 0.71375-0.64642 0.19380-0.56761-0.53368 0.38375
   1  -1   1 1172.22   41.13  15 0.71091-0.59860 0.19899-0.26256-0.53565 0.63664
   1  13  -3   14.94   24.14  15 0.71456-0.66477 0.19231 0.61571-0.53311 0.29973
   1  14  -5  167.31   37.20  15 0.71186-0.69215 0.19725 0.67363-0.53499 0.13537
   2  -9  -5  799.57   30.91  16 0.70938-0.59002 0.20176-0.76155-0.53669 0.15382
   2  10   1   47.98   26.07  16 0.70918-0.50260 0.20212 0.41906-0.53682 0.65485
   2  13  -1  123.49   32.70  16 0.70914-0.53307 0.20219 0.60540-0.53685 0.48767
   2  14  -2  174.75   33.28  16 0.70735-0.54694 0.20540 0.66389-0.53805 0.40588
   3 -10  -5  295.12   28.80  16 0.70679-0.49088 0.20641-0.82853-0.53843 0.17311
   3  -5   1   57.68   20.46  16 0.70971-0.40477 0.20115-0.51183-0.53646 0.67195
   3  -3   2 1423.96   27.54  15 0.71497-0.39539 0.19157-0.38015-0.53283 0.75107
   3   2   3  308.48   30.03  17 0.70154-0.36753 0.21571-0.09198-0.54186 0.84448
   3  13   0   14.16   34.78  16 0.70906-0.42155 0.20234 0.60609-0.53691 0.58940
   3  14  -1   -4.05   28.21  15 0.71416-0.43913 0.19305 0.67708-0.53340 0.50398
   4 -10  -3   47.48   26.29  16 0.70926-0.36677 0.20197-0.82492-0.53677 0.35519
   4  -6   1   14.78   21.56  15 0.70949-0.30783 0.20156-0.57554-0.53661 0.68922
   4  -1   3   63.35   20.58  16 0.70744-0.27641 0.20524-0.26839-0.53799 0.85795
   4  14   0   81.60   37.54  16 0.70658-0.32290 0.20678 0.66287-0.53857 0.60801
   5 -10  -2  232.62   26.52  15 0.71132-0.25861 0.19824-0.82036-0.53537 0.45384
   5  -8   0    8.19   25.07  16 0.70865-0.22523 0.20308-0.70182-0.53718 0.62342
   5  -5   2  442.70   20.20  15 0.71254-0.20020 0.19603-0.50876-0.53453 0.78719
   6 -11  -3   19.30   34.48  16 0.70926-0.17404 0.20197-0.88645-0.53677 0.38919
   6  -7   1  499.71   26.41  16 0.70745-0.11314 0.20523-0.64115-0.53799 0.72572
   6  -3   3  233.66   20.21  15 0.71335-0.09008 0.19454-0.38357-0.53396 0.88769
   7  -3   3  181.06   29.42  16 0.70970 0.01033 0.20117-0.38869-0.53647 0.90793
   8  -3   3   17.85   25.38  15 0.71416 0.10278 0.19305-0.38097-0.53340 0.92217
   9  -5   2  152.89   39.10  15 0.71058 0.18858 0.19958-0.51212-0.53587 0.85799
   9  -2   3   72.20   40.10  16 0.70879 0.20468 0.20282-0.32905-0.53709 0.94349
  -2   3  -6   -2.55   21.69  17 0.69988-0.98147 0.21834-0.03130-0.54281 0.00957
  -2   4  -6  104.75   22.47  17 0.69872-0.98207 0.22037 0.02800-0.54355 0.00768
  -1  -3  -8  968.81   59.71  18 0.68985-0.90520 0.23554-0.42192-0.54898-0.13638
  -1   1 -11  200.17   41.39  16 0.70090-0.96191 0.21657-0.15410-0.54216-0.39314
  -1   7  -2 1786.70   31.98  16 0.70175-0.82966 0.21506 0.22000-0.54161 0.35707
  -1   9  -9   -4.75   35.68  17 0.70252-0.93637 0.21372 0.34773-0.54112-0.22903
  -1  10  -8   47.92   34.21  16 0.70007-0.91630 0.21801 0.40208-0.54269-0.14107
  -1  10  -7   50.97   24.65  16 0.70398-0.90689 0.21113 0.41104-0.54017-0.06179
  -1  10  -6   23.28   22.80  16 0.70523-0.89296 0.20891 0.41312-0.53934 0.02104
  -1  10  -5   -8.95   28.90  17 0.70136-0.87383 0.21576 0.40706-0.54186 0.10853
   0   7   0  -10.25   23.12  17 0.69999-0.70118 0.21816 0.21744-0.54274 0.54302
   0  12  -4  435.48   24.76  16 0.70648-0.76854 0.20669 0.53854-0.53852 0.20539
   1  10   0  401.26   20.98  16 0.70523-0.61113 0.20891 0.41225-0.53934 0.55643
   1  14  -4  -13.52   34.18  17 0.70220-0.66695 0.21428 0.65888-0.54132 0.22632
   2  -9  -8    5.76   32.43  17 0.70083-0.62567 0.21668-0.77824-0.54220-0.09139
   2  -9  -6    0.33   25.41  17 0.70009-0.59478 0.21797-0.78069-0.54267 0.07529
   2  -8  -3   50.23   20.36  16 0.70229-0.55344 0.21412-0.71077-0.54127 0.32506
   2  -5   0    0.69   20.06  16 0.70126-0.50747 0.21594-0.52878-0.54193 0.57689
   2  12   0   -0.31   30.59  16 0.70147-0.51007 0.21557 0.52984-0.54180 0.57656
   3  -9  -3   32.80   23.54  17 0.70099-0.45527 0.21641-0.77720-0.54211 0.34303
   4 -11  -7   32.10   38.72  17 0.70088-0.41817 0.21660-0.90140-0.54217 0.02624
   4 -11  -6   33.08   26.36  16 0.70586-0.40841 0.20780-0.89321-0.53893 0.10624
   4  -4   2  651.42   20.63  16 0.70669-0.29057 0.20632-0.45574-0.53838 0.77483
   5 -11  -4  164.73   25.21  16 0.70544-0.28198 0.20854-0.89305-0.53921 0.29184
   5  -9  -1   35.85   19.20  16 0.70648-0.23789 0.20669-0.76784-0.53852 0.54111
   5  -2   3 1290.59   30.68  16 0.70257-0.17509 0.21363-0.33865-0.54109 0.87764
   5   9   3    7.24   40.55  17 0.69705-0.17184 0.22326 0.33448-0.54459 0.88122
   6 -10  -2   89.87   28.07  17 0.69921-0.14850 0.21951-0.84351-0.54323 0.47985
   6  -5   2  502.03   27.39  17 0.70087-0.09201 0.21661-0.52840-0.54218 0.81321
   7 -11  -3  -11.64   34.70  17 0.70210-0.06889 0.21446-0.89941-0.54139 0.41115
   7  -7   1   10.42   27.09  16 0.70315-0.01195 0.21261-0.64967-0.54071 0.74506
   8  -7   1  192.92   27.00  16 0.70544 0.08151 0.20854-0.64529-0.53921 0.76148
   8  -5   2   90.75   33.64  17 0.70115 0.10095 0.21612-0.52868-0.54200 0.84692
  -2   2  -7  503.88   27.87  18 0.68986-0.98741 0.23535-0.11149-0.54892-0.06929
  -2   2  -6  826.73   30.02  17 0.69280-0.97578 0.23036-0.10643-0.54715 0.01151
  -2   3  -7  151.16   24.55  17 0.69485-0.99331 0.22685-0.04034-0.54589-0.07276
  -2   3  -5   82.28   23.37  17 0.69300-0.96111 0.23002-0.04362-0.54703 0.09538
  -2   4  -7  251.07   25.93  17 0.69558-0.99404 0.22560 0.02293-0.54545-0.07304
  -2   4  -5    6.11   22.84  18 0.69290-0.96229 0.23019 0.01914-0.54709 0.09440
  -2   5  -7   35.44   27.26  18 0.69249-0.99114 0.23089 0.08030-0.54734-0.07204
  -2   5  -6  131.41   23.67  17 0.69479-0.97857 0.22695 0.08303-0.54593 0.01079
  -2   5  -5  953.58   27.34  18 0.69086-0.95910 0.23365 0.07655-0.54832 0.09667
  -1   9  -3  206.03   24.66  17 0.69460-0.83733 0.22728 0.33190-0.54605 0.27889
  -1  10  -4  -22.23   26.67  18 0.69257-0.84948 0.23074 0.39171-0.54729 0.19782
   0  11  -2  166.48   27.88  17 0.69369-0.72566 0.22883 0.45470-0.54661 0.37969
   0  12  -3    6.37   28.82  18 0.69247-0.73767 0.23093 0.51552-0.54735 0.29901
   0  13  -6   94.82   28.91  17 0.69783-0.78944 0.22172 0.58643-0.54405 0.04313
   0  13  -5  244.60   36.68  17 0.69327-0.77086 0.22956 0.57783-0.54686 0.12981
   1  -7  -4 1552.51   34.70  18 0.69288-0.65514 0.23022-0.66594-0.54710 0.22995
   1   8   1 1025.16   26.03  17 0.69633-0.58683 0.22430 0.27252-0.54498 0.64552
   1  12  -1   55.66   28.50  17 0.69270-0.61279 0.23053 0.51521-0.54721 0.48121
   1  13  -2  649.05   32.23  17 0.69436-0.63068 0.22769 0.57955-0.54620 0.39673
   2  -9  -7  507.22   32.61  18 0.69375-0.60361 0.22874-0.78848-0.54657-0.00272
   3 -10  -8   39.15   37.35  18 0.69295-0.52156 0.23011-0.85159-0.54706-0.06923
   3 -10  -7   23.18   33.28  18 0.69210-0.50623 0.23155-0.85444-0.54757 0.01431
   3 -10  -6  380.22   25.20  17 0.69676-0.49573 0.22356-0.84630-0.54471 0.09695
   3  12   1  487.63   34.65  17 0.69223-0.39104 0.23132 0.51349-0.54749 0.68232
   4  -9  -2   18.32   17.30  17 0.69633-0.33928 0.22430-0.78520-0.54498 0.44678
   4  -8  -1  264.21   23.45  18 0.69126-0.31928 0.23298-0.73100-0.54808 0.53438
   4  -7   0  385.43   18.70  17 0.69526-0.30839 0.22614-0.66222-0.54564 0.61515
   4   8   3    3.76   36.85  18 0.68425-0.25402 0.24472 0.25286-0.55220 0.87321
   4  11   2   93.92   31.70  17 0.69313-0.27973 0.22979 0.45357-0.54695 0.78301
   4  13   1   93.46   38.17  18 0.69139-0.29241 0.23275 0.57434-0.54800 0.70076
   5 -11  -5  231.94   32.40  18 0.69097-0.28249 0.23347-0.91848-0.54825 0.21849
   6 -11  -4  -15.10   32.84  18 0.69182-0.16830 0.23203-0.91976-0.54774 0.31672
   6  -9  -1  469.01   28.69  18 0.69342-0.12853 0.22930-0.78860-0.54677 0.56736
   6  -8   0   79.49   20.10  17 0.69676-0.11690 0.22356-0.72249-0.54471 0.64841
   6  -2   3  101.31   23.67  18 0.69084-0.06670 0.23368-0.35940-0.54833 0.90332
   7 -10  -2  100.86   34.37  18 0.69268-0.04616 0.23056-0.85385-0.54722 0.50079
   7  -8   0  133.15   31.17  18 0.69225-0.01630 0.23129-0.72990-0.54748 0.66862
   7  -5   2   29.28   21.16  17 0.69783 0.00812 0.22172-0.53457-0.54405 0.83233
   8  -9  -1   45.25   34.33  18 0.69133 0.06787 0.23286-0.79611-0.54804 0.60322
   8  -8   0  247.92   32.76  17 0.69377 0.07873 0.22870-0.72670-0.54656 0.68500
   8  -2   3  217.98   31.58  17 0.69481 0.12117 0.22693-0.35219-0.54592 0.93451
   9  -4   2   14.51   34.57  18 0.69096 0.20961 0.23348-0.48531-0.54826 0.87251
   9  -1   3   55.63   40.30  18 0.69198 0.22109 0.23175-0.29583-0.54765 0.95378
  -2   2  -5   51.26   23.14  18 0.68523-0.95370 0.24278-0.11784-0.55148 0.09964
  -2   3  -8   20.58   28.66  18 0.68420-0.99776 0.24448-0.05772-0.55207-0.15092
  -2   4  -8   67.04   27.16  18 0.68599-0.99959 0.24151 0.00773-0.55104-0.15187
  -2   5  -8  164.74   30.32  18 0.68375-0.99754 0.24522 0.06573-0.55233-0.14948
  -2   6  -7   29.19   26.28  19 0.68509-0.98559 0.24301 0.13134-0.55156-0.06924
  -2   6  -6  122.89   18.79  18 0.68840-0.97244 0.23747 0.13441-0.54962 0.01443
  -2   6  -5   17.94   23.96  18 0.68409-0.95293 0.24466 0.12876-0.55213 0.09995
  -1   0 -11   73.43   44.62  18 0.68315-0.94413 0.24621-0.24609-0.55267-0.38295
  -1   4  -1  220.81   25.99  18 0.68465-0.79694 0.24373 0.00395-0.55181 0.45096
  -1   8  -2 1253.74   25.26  18 0.68687-0.81474 0.24004 0.25692-0.55052 0.36611
  -1  11  -8   72.02   38.05  18 0.68299-0.90047 0.24648 0.43611-0.55276-0.13126
  -1  11  -7  -23.62   26.28  18 0.68709-0.88990 0.23967 0.44470-0.55039-0.05038
  -1  11  -6  212.98   25.51  18 0.68753-0.87618 0.23894 0.44390-0.55014 0.03272
  -1  11  -5   32.54   30.72  18 0.68377-0.85648 0.24520 0.43854-0.55232 0.11769
   0   8   0  449.23   24.73  19 0.68176-0.68377 0.24850 0.24853-0.55346 0.55283
   0  10  -1   13.03   24.58  18 0.68459-0.70167 0.24384 0.37892-0.55185 0.46888
   0  13  -4   35.62   33.85  18 0.68406-0.74601 0.24472 0.56356-0.55215 0.21836
   1  -3   0  134.53   17.42  18 0.68840-0.59162 0.23747-0.42468-0.54962 0.56647
   1  14  -3  232.34   28.12  18 0.68906-0.64034 0.23637 0.63272-0.54923 0.31617
   2  -7  -2  404.61   18.82  18 0.68906-0.52520 0.23637-0.67239-0.54923 0.41635
   2  -6  -1   17.87   14.04  18 0.68687-0.50807 0.24004-0.61362-0.55052 0.50139
   2  -3   1  171.02   15.80  18 0.68818-0.47966 0.23784-0.42502-0.54975 0.66785
   2   8   2  283.76   27.43  18 0.68349-0.46305 0.24566 0.25083-0.55248 0.75358
   3  -8  -2   28.38   16.37  18 0.68687-0.42632 0.24004-0.73843-0.55052 0.43512
   3  -7  -1   26.15   20.41  19 0.68248-0.40702 0.24732-0.68334-0.55306 0.52129
   3  -6   0   75.70   14.97  18 0.68949-0.39979 0.23564-0.60885-0.54897 0.60069
   3   3   3   -2.88   30.67  20 0.67055-0.33422 0.26661-0.08146-0.55959 0.86345
   3  10   2   31.52   28.10  18 0.68468-0.36680 0.24368 0.37763-0.55179 0.77118
   4 -10  -4  420.23   23.26  18 0.68818-0.36122 0.23784-0.86045-0.54975 0.28561
   4   0   3    1.54   19.68  18 0.68379-0.25071 0.24517-0.24638-0.55231 0.87547
   5 -10  -3  560.42   23.37  18 0.68709-0.24857 0.23967-0.86237-0.55039 0.38716
   5  -6   1    4.04   16.52  18 0.68797-0.18779 0.23821-0.61360-0.54988 0.71976
   5  -4   2    1.07   22.24  18 0.68379-0.17061 0.24517-0.49548-0.55231 0.80644
   5  12   2  -14.63   43.98  19 0.67986-0.16549 0.25163 0.49439-0.55453 0.81039
   7  -9  -1    2.79   23.78  18 0.68906-0.02523 0.23637-0.79867-0.54923 0.58608
   7  -2   3   -5.47   20.85  18 0.68862 0.03449 0.23711-0.36382-0.54949 0.92156
   9  -6   1    2.03   29.17  18 0.68906 0.19749 0.23637-0.61273-0.54923 0.78807
  -2   1  -7  817.40   32.47  19 0.67495-0.97297 0.25935-0.19754-0.55702-0.06205
  -2   1  -6  257.72   25.97  19 0.67751-0.96081 0.25521-0.19302-0.55563 0.02004
  -2   2  -8  670.91   32.24  19 0.67675-0.99021 0.25645-0.13300-0.55605-0.14608
  -2   3  -4   24.53   23.09  19 0.67630-0.92977 0.25717-0.07026-0.55629 0.18757
  -2   4  -4  608.99   21.62  19 0.67930-0.93315 0.25231-0.00415-0.55464 0.18561
  -2   5  -4  549.60   25.25  19 0.67690-0.93123 0.25620 0.05451-0.55596 0.18730
  -2   6  -8   82.32   22.04  19 0.67862-0.99267 0.25340 0.11944-0.55501-0.14775
  -2   7  -7  364.52   23.41  19 0.67818-0.97751 0.25413 0.17963-0.55526-0.06286
  -2   7  -6  286.99   20.17  19 0.67974-0.96411 0.25158 0.18221-0.55439 0.01905
  -2   7  -5 2137.24   34.89  19 0.67512-0.94447 0.25907 0.17534-0.55693 0.10517
  -1   3  -1   81.41   20.15  19 0.68130-0.79315 0.24902-0.06236-0.55351 0.45289
  -1   5  -1 1066.32   26.34  19 0.68130-0.79408 0.24902 0.06218-0.55351 0.45213
  -1   6  -1 1294.72   30.78  20 0.67367-0.78610 0.26141 0.11204-0.55772 0.45698
  -1  10  -3  107.77   24.39  19 0.67633-0.82038 0.25712 0.36470-0.55627 0.28785
  -1  11  -4   -1.80   28.00  20 0.67423-0.83108 0.26051 0.42350-0.55741 0.20816
   0  -5  -4 1311.60   39.62  20 0.67030-0.72940 0.26678-0.57814-0.55951 0.22463
   1  -7  -9   93.80   38.93  21 0.66799-0.70434 0.27042-0.70649-0.56071-0.17273
   1   9   1   19.71   22.00  20 0.67303-0.56290 0.26243 0.29578-0.55806 0.65884
   1  11   0  478.84   23.15  19 0.67907-0.58584 0.25267 0.43023-0.55476 0.57168
   2  -8 -10   73.02   46.76  21 0.66697-0.62220 0.27203-0.77065-0.56124-0.23885
   2  -8  -4   82.21   22.67  20 0.67443-0.54083 0.26019-0.75745-0.55731 0.25848
   2   0   2  622.33   27.43  19 0.67930-0.45578 0.25231-0.25255-0.55464 0.75687
   2  11   1 1257.03   33.53  19 0.67744-0.47356 0.25532 0.42783-0.55566 0.67333
   2  14  -1   88.80   27.44  19 0.67885-0.50418 0.25304 0.61641-0.55489 0.50639
   2  15  -2   -3.20   37.11  20 0.67626-0.51378 0.25723 0.67808-0.55631 0.42717
   3  -9  -4 1191.52   31.37  20 0.67526-0.44432 0.25884-0.81856-0.55685 0.27443
   3  -2   2  336.59   19.00  19 0.67930-0.35970 0.25231-0.37731-0.55464 0.77380
   3  14   0   48.91   39.09  19 0.67556-0.38845 0.25836 0.61181-0.55669 0.60960
   4  -5   1  624.49   24.29  20 0.67437-0.27325 0.26028-0.57238-0.55734 0.71004
   4  -3   2   14.60   21.02  20 0.67388-0.25719 0.26106-0.44893-0.55760 0.79455
   5 -11  -7   18.23   36.03  20 0.67373-0.29459 0.26131-0.94791-0.55768 0.05868
   5 -11  -6   -1.44   28.20  19 0.67974-0.28360 0.25158-0.93807-0.55439 0.13989
   5  -9  -2   24.95   26.72  20 0.67434-0.22065 0.26033-0.82091-0.55735 0.47641
   5  -7   0  845.58   28.11  20 0.67416-0.19138 0.26062-0.69683-0.55745 0.64409
   5  -1   3  161.63   23.14  19 0.67665-0.14879 0.25660-0.31947-0.55610 0.89324
   6 -11  -5    0.45   37.90  20 0.67525-0.16741 0.25887-0.94519-0.55686 0.24290
   6 -10  -3   10.20   31.78  20 0.67434-0.13661 0.26033-0.88553-0.55735 0.41033
   6  -6   1   48.07   22.83  19 0.67675-0.08235 0.25644-0.63078-0.55604 0.74316
   6  -4   2  483.56   25.33  20 0.67232-0.06369 0.26357-0.51369-0.55844 0.82941
   7  -6   1 1144.02   32.96  20 0.67443 0.01634 0.26018-0.63452-0.55730 0.76227
   8  -6   1   -4.57   23.55  19 0.67907 0.11098 0.25267-0.62884-0.55476 0.77640
   8  -4   2   70.63   29.97  19 0.67716 0.12483 0.25577-0.50638-0.55582 0.86130
   8  -1   3  144.82   32.97  20 0.67522 0.14149 0.25891-0.32309-0.55688 0.94563
   9   0   3   -3.65   39.47  20 0.67547 0.23997 0.25851-0.26066-0.55674 0.96289
  -2   1  -8   17.25   30.02  21 0.66291-0.97505 0.27813-0.21595-0.56308-0.13844
  -2   1  -5  515.17   27.52  20 0.66726-0.93573 0.27133-0.20885-0.56086 0.10866
  -2   2  -4 2930.04   42.75  21 0.66505-0.91852 0.27479-0.15037-0.56199 0.19279
  -2   3  -9  214.62   33.52  20 0.66620-0.99502 0.27300-0.08645-0.56141-0.22330
  -2   4  -9  213.80   31.00  20 0.66945-0.99869 0.26787-0.01935-0.55972-0.22550
  -2   5  -9  115.08   31.50  20 0.66867-0.99818 0.26910 0.04166-0.56013-0.22523
  -2   6  -9    9.93   35.54  21 0.66530-0.99433 0.27440 0.09905-0.56186-0.22363
  -2   6  -4  736.15   22.62  20 0.67151-0.92559 0.26460 0.10870-0.55863 0.19063
  -2   7  -8   49.83   24.56  20 0.67105-0.98533 0.26533 0.16994-0.55888-0.14383
  -2   7  -4   96.75   23.26  21 0.66373-0.91753 0.27686 0.15801-0.56266 0.19480
  -2   8  -7   85.57   28.10  20 0.66769-0.96733 0.27065 0.22680-0.56064-0.05757
  -2   8  -6  335.31   21.45  20 0.66876-0.95344 0.26896 0.22806-0.56008 0.02543
  -2   8  -5    7.62   25.82  20 0.66553-0.93357 0.27404 0.22282-0.56175 0.11009
  -1   2  -1    0.46   25.20  21 0.66368-0.77570 0.27693-0.15226-0.56269 0.46179
  -1   9  -2  663.28   21.74  20 0.67014-0.79828 0.26678 0.29240-0.55936 0.37558
  -1  12  -7  444.21   36.99  20 0.66850-0.87257 0.26937 0.47619-0.56021-0.03962
  -1  12  -6    7.81   26.24  20 0.66853-0.85689 0.26933 0.47729-0.56020 0.04337
  -1  12  -5  500.13   32.84  21 0.66434-0.83769 0.27590 0.46883-0.56235 0.12892
   0  11  -1   42.28   25.20  21 0.66275-0.67975 0.27838 0.40567-0.56316 0.48025
   0  12  -2  334.99   22.33  20 0.67037-0.70297 0.26642 0.47868-0.55924 0.39304
   0  13  -3  122.85   23.99  20 0.66853-0.71646 0.26933 0.53822-0.56020 0.31048
   0  14  -5  114.14   30.14  20 0.67014-0.74782 0.26678 0.60346-0.55936 0.14261
   1  -7  -5   -2.00   22.76  21 0.66553-0.64242 0.27404-0.71038-0.56175 0.16157
   1  -6  -3   30.82   21.39  21 0.66321-0.61078 0.27766-0.65136-0.56292 0.32934
   1  13  -1   -6.21   32.41  21 0.66530-0.58380 0.27440 0.53386-0.56186 0.49853
   1  14  -2  111.95   33.50  20 0.66731-0.60316 0.27125 0.59883-0.56083 0.41217
   2  13   0  166.33   24.70  20 0.67037-0.48051 0.26642 0.54062-0.55924 0.59434
   3  -4   1   16.96   14.53  20 0.67037-0.36518 0.26642-0.51610-0.55924 0.69484
   3   6   3  939.63   51.72  21 0.65714-0.32447 0.28701 0.08559-0.56593 0.86826
   4 -10  -5   -7.71   21.85  20 0.67060-0.35645 0.26606-0.89016-0.55912 0.21059
   4  -9  -3  259.34   26.28  21 0.66608-0.32414 0.27318-0.83284-0.56147 0.38005
   5 -10  -4  165.31   30.83  21 0.66468-0.24127 0.27537-0.89813-0.56218 0.31522
   5  -8  -1  187.21   19.51  20 0.66991-0.20150 0.26715-0.76572-0.55948 0.56268
   6  -7   0  266.77   25.35  21 0.66321-0.08403 0.27766-0.71393-0.56292 0.66738
   6  -1   3  486.56   28.04  21 0.66520-0.04158 0.27456-0.33819-0.56192 0.91674
   6  10   3   26.72   56.05  21 0.65545-0.03344 0.28957 0.33063-0.56674 0.92217
   7 -10  -3  136.61   32.01  20 0.66742-0.03644 0.27107-0.89402-0.56077 0.43120
   7  -4   2   18.50   20.48  20 0.67105 0.03506 0.26533-0.51594-0.55888 0.84753
   7  -1   3   11.27   27.91  20 0.66596 0.05467 0.27336-0.33725-0.56153 0.93386
   8  -7   0    9.73   32.79  20 0.66553 0.10780 0.27404-0.71227-0.56175 0.70095
   9  -5   1   15.09   34.51  21 0.66448 0.22157 0.27569-0.59010-0.56228 0.80319
   9  -3   2   10.13   33.93  21 0.66623 0.23337 0.27295-0.46180-0.56139 0.88348
  -2   2  -9  212.41   32.53  21 0.65649-0.98520 0.28774-0.16360-0.56622-0.21882
  -2   7  -9   69.72   34.20  21 0.65842-0.98809 0.28479 0.15026-0.56528-0.22106
  -2   8  -8  179.59   25.24  21 0.66103-0.97619 0.28077 0.21610-0.56399-0.13759
  -2   9  -7   -0.66   32.32  22 0.65586-0.95543 0.28870 0.27126-0.56652-0.05157
  -2   9  -6  -31.54   28.89  22 0.65621-0.94098 0.28816 0.27217-0.56635 0.03187
  -1  -2 -10   30.99   43.05  22 0.65106-0.89767 0.29594-0.42080-0.56879-0.28321
  -1   7  -1  237.06   17.97  21 0.66243-0.77531 0.27860 0.15717-0.56329 0.46251
  -1  11  -3  144.19   28.65  21 0.65719-0.80095 0.28667 0.39668-0.56587 0.29904
  -1  12  -4   68.74   28.64  22 0.65349-0.81236 0.29230 0.45397-0.56765 0.21679
   0  -2  -1   -0.16   23.73  22 0.65550-0.66979 0.28924-0.41342-0.56669 0.48398
   0   9   0   13.25   16.58  21 0.66173-0.66323 0.27968 0.27999-0.56364 0.56411
   0  14  -4  247.59   29.26  21 0.65986-0.72290 0.28257 0.58699-0.56457 0.23204
   1  -4  -1 2212.88   39.84  22 0.65362-0.57144 0.29209-0.54213-0.56759 0.50067
   1  15  -3    5.88   30.48  21 0.66173-0.61119 0.27968 0.65280-0.56364 0.33326
   2   9   2    6.53   25.42  22 0.65325-0.43171 0.29265 0.26680-0.56777 0.77034
   3  -9  -5  -13.69   26.70  22 0.65586-0.43887 0.28870-0.85063-0.56652 0.20079
   3  13   1   80.20   35.20  21 0.65641-0.35457 0.28786 0.51884-0.56625 0.70251
   4 -10  -6  262.94   32.34  22 0.65663-0.35896 0.28752-0.90968-0.56614 0.13503
   4  -6   0  115.38   20.89  22 0.65491-0.26867 0.29014-0.66361-0.56697 0.63654
   4  12   2  444.97   40.11  22 0.65026-0.23903 0.29714 0.44780-0.56917 0.80530
   6  -9  -2   29.96   21.37  21 0.66243-0.11229 0.27860-0.84005-0.56329 0.50006
   6  -8  -1   18.28   24.59  21 0.65740-0.09352 0.28635-0.78371-0.56577 0.58561
   7  -9  -2  297.11   30.65  21 0.65748-0.01150 0.28623-0.84639-0.56573 0.52032
   7  -8  -1  305.87   30.94  22 0.65544 0.00590 0.28933-0.78757-0.56672 0.60600
   7  -7   0  230.53   22.75  21 0.66057 0.01499 0.28149-0.71828-0.56422 0.68586
   8  -9  -2    5.64   27.44  21 0.66057 0.08487 0.28149-0.84415-0.56422 0.53508
   8  -8  -1    2.46   31.39  22 0.65751 0.10096 0.28618-0.78447-0.56572 0.61926
   8   0   3    5.21   32.17  22 0.65538 0.16139 0.28942-0.29121-0.56675 0.95630
   9   1   3   35.35   35.61  21 0.66033 0.25303 0.28185-0.22187-0.56433 0.97171
  -2   0  -7   -1.72   24.09  23 0.64558-0.94367 0.30382-0.30320-0.57131-0.04707
  -2   0  -6   26.27   23.39  23 0.64590-0.92923 0.30335-0.30312-0.57116 0.03563
  -2   3  -3   33.50   22.05  23 0.64475-0.88258 0.30505-0.11842-0.57168 0.28733
  -2   4 -10   35.30   37.78  22 0.64687-0.99093 0.30192-0.05339-0.57072-0.29897
  -2   4  -3   49.59   16.21  22 0.65194-0.89103 0.29433-0.04603-0.56837 0.28296
  -2   5 -10   11.74   40.16  22 0.64787-0.99245 0.30042 0.01030-0.57026-0.29961
  -2   5  -3  378.01   19.04  22 0.65337-0.89261 0.29217 0.01856-0.56770 0.28201
  -2   6 -10  262.99   43.09  22 0.64618-0.99050 0.30294 0.06897-0.57104-0.29742
  -2   6  -3   23.01   15.92  22 0.64979-0.88894 0.29756 0.07586-0.56938 0.28433
  -2   8  -9  125.13   36.28  22 0.64929-0.97957 0.29831 0.19980-0.56961-0.21698
  -2   8  -4  744.84   22.21  22 0.65266-0.90747 0.29325 0.20317-0.56804 0.19959
  -2   9  -8   -5.28   33.65  23 0.64787-0.96517 0.30042 0.26128-0.57026-0.13345
  -2   9  -5   42.90   20.02  22 0.65147-0.92130 0.29505 0.26477-0.56860 0.11665
  -1  -1 -11  153.09   46.02  22 0.64478-0.90676 0.30500-0.36689-0.57167-0.36385
  -1   8  -1 1025.85   27.62  22 0.64907-0.76279 0.29863 0.19864-0.56971 0.46856
  -1  10  -2  107.21   18.98  22 0.65194-0.78038 0.29433 0.32740-0.56837 0.38497
  -1  13  -6    0.79   36.11  23 0.64739-0.83703 0.30114 0.50912-0.57049 0.05293
   0  -5  -9  313.90   57.83  27 0.60612-0.73862 0.35919-0.67124-0.58711-0.16399
   0  13  -2   -5.77   30.42  23 0.64618-0.67682 0.30293 0.50554-0.57103 0.40673
   0  14  -3  130.93   33.22  23 0.64353-0.69172 0.30684 0.56363-0.57223 0.32254
   1  -7  -8  547.43   38.26  23 0.64307-0.66488 0.30752-0.74364-0.57243-0.07752
   1  -7  -6   86.94   25.73  23 0.64600-0.63833 0.30320-0.73931-0.57112 0.08792
   1  -5  -2 2747.77   41.36  23 0.64681-0.57923 0.30200-0.61397-0.57075 0.41996
   1  10   1  373.51   27.08  22 0.64668-0.53797 0.30218 0.31852-0.57081 0.67163
   1  12   0    5.30   21.45  22 0.65171-0.55489 0.29469 0.45153-0.56849 0.58877
   2  -8  -9    5.23   39.69  23 0.64274-0.58442 0.30800-0.80868-0.57258-0.14674
   2  -8  -5   96.40   23.68  22 0.64982-0.53033 0.29751-0.79543-0.56936 0.18730
   2  -7  -3 1163.01   29.36  23 0.64656-0.49748 0.30236-0.73837-0.57086 0.35455
   2  -4   0  800.68   27.49  23 0.64654-0.45248 0.30240-0.55220-0.57087 0.60517
   2  12   1   87.71   30.72  22 0.64672-0.44144 0.30214 0.44307-0.57079 0.68913
   2  15  -1   36.71   42.06  22 0.64739-0.47210 0.30114 0.63096-0.57049 0.52263
   3  -9  -9   30.57   40.84  24 0.63867-0.48312 0.31393-0.87336-0.57436-0.12405
   3  -8  -3   53.26   16.63  22 0.65171-0.40622 0.29469-0.79346-0.56849 0.36915
   3   4   3  718.02   71.54  28 0.59261-0.25836 0.37692-0.12955-0.59168 0.89465
   3  11   2  253.87   31.71  22 0.64745-0.33209 0.30104 0.38151-0.57046 0.78951
   4 -10  -8  156.39   35.87  23 0.64737-0.38052 0.30116-0.92261-0.57049-0.02740
   4 -10  -7   33.63   32.09  22 0.64897-0.36711 0.29878-0.92071-0.56976 0.05476
   4  -8  -2  604.80   20.75  22 0.65290-0.29579 0.29289-0.79098-0.56792 0.47092
   4  -7  -1  245.20   22.07  22 0.64760-0.27519 0.30083-0.73656-0.57039 0.55596
   4   1   3   40.02   22.02  23 0.64632-0.21558 0.30273-0.24168-0.57097 0.89112
   4  14   1   50.93   38.14  22 0.64980-0.25113 0.29755 0.57260-0.56937 0.72365
   5 -10  -5  102.16   31.39  23 0.64606-0.23765 0.30311-0.92658-0.57109 0.24017
   5  -9  -3   37.30   24.67  23 0.64505-0.20603 0.30461-0.86656-0.57155 0.40744
   5  -5   1   17.97   16.50  22 0.65242-0.15407 0.29361-0.60601-0.56815 0.73850
   5  -3   2   47.05   20.32  22 0.64876-0.13653 0.29910-0.48613-0.56986 0.82338
   5   0   3   71.50   23.85  23 0.64689-0.12050 0.30188-0.30340-0.57071 0.90736
   6 -10  -4   20.14   24.32  22 0.65123-0.13099 0.29541-0.91958-0.56871 0.33837
   7 -10  -4  200.95   37.42  23 0.64550-0.02947 0.30393-0.92792-0.57134 0.35858
   7   0   3  426.99   28.59  23 0.64206 0.07803 0.30900-0.31175-0.57288 0.94510
   8  -5   1   79.06   23.27  22 0.65027 0.13741 0.29684-0.60957-0.56916 0.79212
   8  -3   2   -5.59   22.74  22 0.65171 0.15333 0.29469-0.48411-0.56849 0.87453
   9  -6   0   35.14   38.54  23 0.64577 0.22350 0.30354-0.67924-0.57122 0.72755
   9  -2   2   80.43   35.14  23 0.64352 0.25498 0.30686-0.43399-0.57223 0.89565
   9   2   3   64.81   41.62  23 0.64552 0.26761 0.30391-0.18189-0.57133 0.97885
  -2   1  -9   57.91   30.53  23 0.63714-0.96569 0.31596-0.25379-0.57499-0.21061
  -2   1  -4   33.09   21.81  23 0.63868-0.89260 0.31372-0.25172-0.57432 0.20435
  -2   3 -10   -6.97   33.45  24 0.63808-0.98402 0.31460-0.12729-0.57458-0.29672
  -2   7  -3 1662.92   27.40  23 0.64248-0.88224 0.30818 0.12692-0.57266 0.28777
  -2   9  -4   -4.52   18.13  23 0.64004-0.89422 0.31175 0.24872-0.57373 0.20713
  -2  10  -8  121.09   39.25  23 0.63705-0.95206 0.31609 0.30571-0.57502-0.12612
  -2  10  -7   42.13   25.93  23 0.64175-0.94248 0.30925 0.31295-0.57298-0.04588
  -2  10  -6   86.82   23.18  23 0.64224-0.92763 0.30854 0.31325-0.57277 0.03797
  -2  10  -5    0.23   29.95  24 0.63673-0.90689 0.31655 0.30630-0.57516 0.12471
  -1   9  -1   15.67   22.82  24 0.63436-0.74755 0.31996 0.23959-0.57616 0.47581
  -1  12  -3  218.66   31.10  23 0.63706-0.78138 0.31607 0.42821-0.57502 0.30873
  -1  13  -5   77.74   27.13  23 0.64273-0.81732 0.30782 0.50078-0.57255 0.13847
   0   5   1  818.84   29.75  24 0.63303-0.61828 0.32187-0.01104-0.57672 0.66137
   0  10   0   40.39   17.91  23 0.64078-0.64299 0.31068 0.31002-0.57341 0.57430
   0  12  -1   18.75   24.93  23 0.63906-0.65644 0.31317 0.43290-0.57416 0.49152
   1  -7  -7   -8.29   26.42  24 0.63747-0.64428 0.31549-0.75189-0.57484 0.00771
   1  14  -1  542.08   36.92  23 0.63686-0.55878 0.31636 0.55240-0.57510 0.51022
   1  15  -2  113.44   36.41  23 0.63821-0.57520 0.31441 0.61872-0.57452 0.42583
   2  -8  -6   82.51   24.02  24 0.63314-0.53012 0.32170-0.81982-0.57668 0.10893
   2  14   0  146.99   37.72  23 0.63808-0.44838 0.31460 0.55466-0.57458 0.61068
   3  -9  -8  153.40   32.82  24 0.63279-0.46346 0.32220-0.88333-0.57682-0.04003
   3  -9  -7   31.42   28.08  24 0.63265-0.44686 0.32241-0.88386-0.57688 0.04371
   3  -9  -6  634.16   30.21  23 0.63959-0.43905 0.31240-0.87231-0.57393 0.12480
   3  -7  -2  261.48   22.73  24 0.63613-0.37693 0.31742-0.75357-0.57542 0.45861
   3  -5   0  285.56   16.99  23 0.64297-0.35253 0.30747-0.61916-0.57244 0.62442
   4  -9  -4    9.90   18.84  23 0.64029-0.31299 0.31139-0.87258-0.57362 0.30840
   4   9   3 1103.39   46.21  23 0.63581-0.20716 0.31788 0.23950-0.57555 0.89618
   5  -6   0   -3.51   20.91  24 0.63537-0.14883 0.31851-0.69555-0.57574 0.66279
   5  10   3  373.78   47.46  24 0.63113-0.10616 0.32457 0.29429-0.57751 0.91568
   5  13   2   89.01   45.11  24 0.63057-0.11999 0.32536 0.48160-0.57774 0.83330
   6  -5   1  409.70   20.20  23 0.64297-0.04860 0.30747-0.61993-0.57244 0.76031
   6  -3   2   99.12   17.85  23 0.64029-0.03043 0.31139-0.49935-0.57362 0.84523
   6   0   3   -7.52   24.58  24 0.63710-0.01076 0.31602-0.31818-0.57500 0.92990
   7  -5   1   34.89   19.25  23 0.64297 0.04842 0.30747-0.62065-0.57244 0.77753
   7  -3   2  442.37   23.28  23 0.64200 0.06415 0.30889-0.49783-0.57287 0.86154
   8   1   3  132.06   33.77  24 0.63566 0.18111 0.31809-0.26148-0.57562 0.96490
   9  -7  -1   27.55   37.51  23 0.63686 0.21765 0.31636-0.75463-0.57510 0.64768
   9  -4   1  220.31   36.32  24 0.63599 0.24763 0.31761-0.57012-0.57547 0.81479
   9   3   3   19.55   43.79  24 0.63321 0.28050 0.32161-0.13758-0.57665 0.98486
  -2   0  -8  217.83   29.28  24 0.62847-0.94298 0.32814-0.32605-0.57846-0.12386
  -2   0  -5   -6.22   21.52  25 0.62756-0.89600 0.32942-0.32892-0.57883 0.12746
  -2   2 -10    9.97   37.22  25 0.62602-0.97044 0.33159-0.20767-0.57945-0.29074
  -2   2  -3   21.98   21.76  25 0.62507-0.86313 0.33291-0.20829-0.57983 0.29478
  -2   8  -3  149.24   18.44  24 0.63280-0.87202 0.32199 0.17601-0.57668 0.29321
  -2  10  -4  786.54   31.84  24 0.62609-0.87988 0.33149 0.29065-0.57942 0.21374
  -2  11  -7  100.77   39.33  24 0.62664-0.92775 0.33072 0.35334-0.57920-0.03964
  -2  11  -6   80.92   35.81  24 0.62704-0.91243 0.33016 0.35358-0.57904 0.04387
  -1  11  -2  488.49   22.54  24 0.63280-0.76077 0.32199 0.36163-0.57668 0.39512
  -1  13  -4   11.71   26.13  24 0.63206-0.79080 0.32305 0.48573-0.57699 0.22795
   0  -4  -3  127.90   22.34  25 0.62496-0.67001 0.33308-0.58211-0.57987 0.32802
   0   4   1  376.80   27.02  25 0.62506-0.61057 0.33293-0.08404-0.57983 0.66387
   0   6   1   20.06   17.04  24 0.63056-0.61683 0.32518 0.04804-0.57761 0.66151
   1  13   0  417.34   30.32  25 0.62366-0.52977 0.33488 0.47162-0.58038 0.59978
   2  -8  -8   75.80   30.91  25 0.62556-0.55146 0.33223-0.83085-0.57963-0.05369
   2  -8  -7   17.89   28.43  25 0.62535-0.53644 0.33253-0.83202-0.57972 0.02901
   2  -6  -2  288.34   17.83  24 0.63032-0.46687 0.32553-0.69992-0.57771 0.44382
   2  -5  -1  554.98   23.87  24 0.62841-0.45007 0.32822-0.64037-0.57849 0.52800
   2  -2   1 1017.81   28.12  24 0.63032-0.42162 0.32553-0.45200-0.57771 0.69528
   2  10   2  599.92   30.58  25 0.62487-0.40358 0.33320 0.28635-0.57991 0.78280
   3  -6  -1 3780.66   36.69  24 0.63280-0.35855 0.32199-0.69679-0.57668 0.54350
   3  -1   2 1811.79   33.47  24 0.63256-0.31244 0.32234-0.38722-0.57678 0.79550
   3   7   3  821.97   42.44  25 0.62464-0.29123 0.33352 0.09951-0.58000 0.88351
   4  -4   1   16.94   14.02  24 0.63181-0.22991 0.32341-0.57347-0.57709 0.73015
   4  -2   2  248.69   17.81  24 0.63305-0.21672 0.32163-0.44918-0.57657 0.81210
   5 -10  -7   44.36   34.12  25 0.62303-0.24412 0.33577-0.96009-0.58063 0.08218
   5 -10  -6  227.79   25.58  24 0.63206-0.23996 0.32305-0.94680-0.57699 0.16200
   5  -8  -2   30.84   16.86  24 0.63206-0.17806 0.32305-0.82255-0.57699 0.49652
   5  -7  -1   34.75   23.93  25 0.62728-0.15871 0.32982-0.76616-0.57894 0.58167
   6 -10  -5   44.01   26.20  24 0.63256-0.12681 0.32234-0.94736-0.57678 0.26299
   6  -9  -3  705.60   25.34  24 0.63280-0.09954 0.32199-0.88397-0.57668 0.42894
   6  -6   0 1356.24   30.89  25 0.62534-0.04629 0.33254-0.70802-0.57972 0.68319
   7 -10  -5   65.60   40.16  25 0.62649-0.02448 0.33093-0.95544-0.57926 0.28277
   7  -9  -3   41.44   30.47  24 0.62921 0.00258 0.32710-0.88912-0.57816 0.44890
   7  -6   0   23.77   27.90  25 0.62555 0.05102 0.33224-0.70769-0.57964 0.70111
   8  -9  -3   30.27   28.04  24 0.63256 0.09586 0.32234-0.88474-0.57678 0.46485
   8  -8  -2  176.06   32.52  25 0.62516 0.11821 0.33280-0.83301-0.57979 0.55196
   8  -7  -1  299.65   30.94  25 0.62482 0.13300 0.33327-0.77131-0.57993 0.63527
   8  -6   0   28.76   22.28  24 0.63280 0.14018 0.32199-0.69760-0.57668 0.71554
   8  -2   2  117.01   28.73  25 0.62404 0.17736 0.33436-0.46224-0.58024 0.88602
  -2   5  -2   86.25   23.19  26 0.61459-0.83865 0.34706-0.03532-0.58365 0.38250
  -2   6  -2    1.08   22.55  25 0.61625-0.83971 0.34479 0.02800-0.58303 0.38162
  -2   9  -3  259.10   19.79  25 0.62084-0.86039 0.33847 0.22075-0.58127 0.29801
  -2  11  -5  175.55   24.04  25 0.62109-0.89145 0.33812 0.34599-0.58117 0.13092
  -1  -3  -9    0.13   57.25  30 0.56923-0.80206 0.40557-0.59375-0.59832-0.17260
  -1  10  -1  398.68   26.58  25 0.61670-0.73018 0.34417 0.27683-0.58286 0.48396
  -1  13  -3   52.04   32.58  26 0.61534-0.75975 0.34602 0.46179-0.58337 0.31642
   0  -5  -5  383.57   31.07  26 0.61268-0.68669 0.34964-0.66108-0.58435 0.16626
   0   7   1   13.00   16.61  25 0.62135-0.60798 0.33777 0.09787-0.58108 0.66534
   0  11   0   -4.22   24.88  26 0.61727-0.61791 0.34338 0.34244-0.58264 0.58607
   0  13  -1  179.00   29.39  26 0.61436-0.63241 0.34736 0.45951-0.58373 0.50155
   0  14  -2  126.93   26.70  25 0.62033-0.65391 0.33917 0.53035-0.58147 0.41576
   0  15  -3  279.99   42.78  25 0.61727-0.66624 0.34338 0.58749-0.58264 0.33548
   1  -6  -4  276.85   24.31  26 0.61406-0.57671 0.34777-0.72174-0.58385 0.26657
   1   5   2 1296.17   38.98  26 0.61483-0.48900 0.34672-0.03623-0.58356 0.76849
   1   6   2   67.08   22.87  25 0.61565-0.49073 0.34561 0.02668-0.58325 0.76783
   1  11   1  129.97   25.76  25 0.62008-0.51145 0.33952 0.34279-0.58157 0.68396
   2  13   1  476.39   33.56  26 0.61437-0.40999 0.34735 0.45880-0.58373 0.70294
   3  -8  -4  397.76   24.46  25 0.61918-0.38921 0.34076-0.83873-0.58191 0.29920
   3  -3   1    7.85   14.59  25 0.61982-0.31457 0.33987-0.52737-0.58167 0.71739
   3  14   1   89.91   39.53  25 0.61854-0.31780 0.34164 0.52736-0.58216 0.71936
   4  -9  -5   19.75   27.74  26 0.61645-0.30402 0.34451-0.90435-0.58295 0.23429
   4  -8  -3  209.89   24.63  26 0.61629-0.27456 0.34472-0.84307-0.58301 0.40147
   5  -9  -4  348.69   28.28  26 0.61665-0.19336 0.34423-0.90453-0.58287 0.33513
   5   1   3  150.92   24.90  26 0.61433-0.08738 0.34740-0.28791-0.58374 0.92138
   6 -10  -6  -30.06   36.58  26 0.61676-0.12393 0.34408-0.96856-0.58283 0.18558
   6  -8  -2  223.35   20.86  25 0.62160-0.07221 0.33741-0.83710-0.58098 0.51798
   6  -7  -1  293.13   24.93  25 0.61748-0.05334 0.34310-0.77928-0.58256 0.60248
   7  -8  -2  102.80   22.19  25 0.61957 0.02691 0.34023-0.84025-0.58176 0.53574
   7  -7  -1   27.00   26.77  26 0.61672 0.04319 0.34414-0.78001-0.58285 0.62024
   7   1   3    7.38   28.25  26 0.61607 0.10415 0.34503-0.28480-0.58310 0.95551
   8  -4   1   33.40   28.39  25 0.61931 0.16857 0.34058-0.59193-0.58186 0.80479
   8   2   3  197.91   34.97  26 0.61517 0.20099 0.34626-0.22528-0.58343 0.97364
   9  -5   0  -10.38   36.72  26 0.61574 0.25659 0.34549-0.66063-0.58322 0.73967
   9  -1   2   94.82   33.81  25 0.61813 0.27949 0.34221-0.40691-0.58232 0.90544
  -2   0  -9    4.36   33.93  26 0.60527-0.93146 0.35931-0.35933-0.58697-0.19628
  -2   1 -10   61.90   37.87  27 0.60244-0.94585 0.36307-0.30157-0.58796-0.28095
  -2   4  -2  149.81   24.04  26 0.60719-0.83133 0.35675-0.10767-0.58629 0.38484
  -2   7  -2  152.78   17.15  26 0.61047-0.83509 0.35235 0.08255-0.58511 0.38434
  -2  10  -3   67.55   26.98  26 0.60629-0.84731 0.35795 0.26429-0.58661 0.30205
  -2  11  -4   -3.02   22.32  26 0.60917-0.86465 0.35409 0.33054-0.58558 0.21905
  -2  12  -6   16.43   27.19  26 0.60917-0.89590 0.35409 0.39195-0.58558 0.05049
  -2  12  -5  -22.08   32.05  27 0.60475-0.87436 0.36001 0.38459-0.58715 0.13780
  -1   1  -1 1121.41   37.70  26 0.61176-0.72471 0.35060-0.28746-0.58464 0.48273
  -1   5   0  417.31   27.83  27 0.60564-0.70334 0.35882-0.04803-0.58684 0.56985
  -1   6   0  468.89   26.55  26 0.60722-0.70520 0.35670 0.01614-0.58628 0.56950
  -1   7   0  726.02   26.51  27 0.60325-0.70139 0.36199 0.07324-0.58767 0.57072
  -1  12  -2   11.77   21.61  26 0.61202-0.74164 0.35025 0.39597-0.58454 0.40117
  -1  14  -4   53.41   28.72  26 0.60943-0.76960 0.35374 0.51634-0.58549 0.23518
   0  -3  -2   15.57   20.26  26 0.60666-0.63642 0.35746-0.54369-0.58648 0.41920
   0   8   1  194.72   23.35  26 0.60880-0.59588 0.35459 0.14192-0.58571 0.67020
   1   0   1 8627.94  119.57  27 0.60657-0.49396 0.35757-0.35847-0.58651 0.68792
   1   7   2 1559.05   37.07  26 0.60634-0.48170 0.35788 0.07678-0.58659 0.77165
   1  15  -1   65.96   39.73  26 0.60646-0.52865 0.35772 0.57448-0.58655 0.52202
   2  -7  -4  354.56   24.39  27 0.60631-0.47226 0.35792-0.79349-0.58660 0.28643
   2   1   2   79.14   26.03  27 0.59959-0.37724 0.36682-0.30585-0.58893 0.79016
   2  15   0  -15.83   40.09  27 0.60501-0.41241 0.35966 0.57194-0.58706 0.62530
   3   8   3  477.13   38.55  27 0.59601-0.26435 0.37151 0.12447-0.59013 0.89312
   3  12   2    2.00   29.70  27 0.60761-0.28703 0.35618 0.39112-0.58614 0.80943
   4  -5   0  315.41   22.34  27 0.60611-0.21923 0.35820-0.67010-0.58667 0.65534
   4   2   3    3.91   21.83  27 0.60509-0.17416 0.35954-0.23619-0.58703 0.90790
   4  13   2   36.26   38.98  26 0.60597-0.19281 0.35837 0.44859-0.58672 0.82481
   5  -4   1 2033.92   29.19  26 0.61124-0.11323 0.35130-0.60191-0.58483 0.75514
   5  -2   2   39.89   15.49  26 0.61021-0.09725 0.35270-0.47859-0.58520 0.83924
   6 -10  -7   -4.57   41.20  27 0.60644-0.12864 0.35775-0.98213-0.58655 0.10595
   6  -9  -4  -16.87   29.57  27 0.60592-0.08321 0.35844-0.92105-0.58674 0.35610
   6  -4   1   11.46   23.41  27 0.60443-0.00943 0.36042-0.61110-0.58726 0.77519
   6  -2   2  565.67   27.06  27 0.60454 0.00427 0.36029-0.48686-0.58723 0.85863
   6   1   3  473.12   28.77  27 0.60659 0.01703 0.35756-0.29776-0.58650 0.94109
   7  -9  -4   50.10   30.50  27 0.60352 0.01367 0.36163-0.92461-0.58758 0.37471
   7  -4   1  -16.63   24.35  27 0.60683 0.08547 0.35722-0.60801-0.58642 0.79050
   7  -2   2  160.95   20.69  26 0.61021 0.09590 0.35270-0.47917-0.58520 0.87444
   8  -9  -4   23.49   34.71  26 0.60696 0.10567 0.35705-0.91911-0.58637 0.39113
   9  -6  -1   38.62   33.79  27 0.60370 0.25118 0.36140-0.73801-0.58752 0.66071
   9  -3   1   12.13   34.36  26 0.60683 0.27725 0.35722-0.54660-0.58642 0.82667
  -3   5  -7   41.02   26.28  28 0.59308-0.98821 0.37525-0.06476-0.59129-0.04426
  -3   5  -6  507.03   26.73  28 0.59263-0.97328 0.37584-0.06563-0.59144 0.03911
  -3   6  -7   50.34   28.79  28 0.59459-0.99073 0.37330-0.00027-0.59080-0.04558
  -3   6  -6   -7.75   27.07  28 0.59487-0.97573 0.37293 0.00075-0.59070 0.03894
  -3   7  -7   32.95   28.78  28 0.59302-0.98908 0.37533 0.05947-0.59131-0.04443
  -3   7  -6  294.80   27.51  28 0.59304-0.97403 0.37530 0.05913-0.59130 0.03999
  -2   8  -2  290.81   19.11  27 0.60266-0.82763 0.36273 0.13528-0.58807 0.38723
  -1   4   0  248.71   26.67  28 0.59460-0.69499 0.37328-0.12403-0.59079 0.57015
  -1   8   0  -11.65   22.78  28 0.59500-0.69115 0.37276 0.12455-0.59066 0.57597
  -1  11  -1  149.80   25.57  27 0.59796-0.71257 0.36891 0.31528-0.58968 0.48974
  -1  14  -3  258.41   34.27  28 0.59208-0.73782 0.37655 0.49237-0.59161 0.32495
   0   3   1 1304.28   42.42  28 0.59178-0.57758 0.37693-0.18998-0.59171 0.67543
   0   9   1 2355.82   36.66  28 0.59423-0.58170 0.37376 0.18492-0.59091 0.67484
   0  12   0 1990.65   37.14  27 0.59528-0.59881 0.37241 0.37213-0.59057 0.59132
   0  15  -2  -17.27   35.46  28 0.59421-0.62597 0.37379 0.55700-0.59092 0.42743
   1  -6 -10   13.20   46.40  29 0.58071-0.63288 0.39101-0.76424-0.59515-0.22153
   1  -2   0 2761.11   48.84  27 0.60056-0.50332 0.36550-0.49161-0.58880 0.60542
   1   4   2 2522.22   61.35  28 0.58974-0.46403 0.37955-0.13097-0.59236 0.77718
   1   8   2 1116.19   33.15  28 0.59344-0.46942 0.37479 0.12169-0.59117 0.77580
   1  12   1  472.70   31.86  28 0.59380-0.48585 0.37432 0.37073-0.59105 0.69238
   1  14   0  144.93   36.25  27 0.59457-0.50158 0.37332 0.49585-0.59080 0.60905
   2  11   2    0.80   28.09  28 0.59447-0.37092 0.37345 0.30974-0.59083 0.79522
   3  -8  -5  405.21   26.86  28 0.59261-0.37678 0.37586-0.87432-0.59144 0.22648
   4  -9  -9  -13.93   37.26  27 0.59527-0.34257 0.37241-0.93758-0.59057-0.09492
   4  -9  -7    9.04   29.33  27 0.59527-0.31233 0.37241-0.93931-0.59057 0.07245
   4  -9  -6   -3.31   21.73  27 0.60108-0.30176 0.36481-0.92719-0.58862 0.15653
   4  -7  -2   91.27   16.68  27 0.60213-0.24434 0.36342-0.80035-0.58826 0.49104
   4  -6  -1    4.59   20.22  28 0.59660-0.22345 0.37069-0.74467-0.59013 0.57541
   4  10   3   -6.37   35.08  28 0.58904-0.15750 0.38044 0.23958-0.59258 0.91445
   5  -9  -5   14.33   29.22  28 0.59513-0.18594 0.37259-0.93490-0.59062 0.25927
   5  -8  -3 1097.51   30.21  28 0.59540-0.15677 0.37225-0.87071-0.59053 0.42697
   7   2   3   15.89   31.01  28 0.59161 0.12943 0.37715-0.25506-0.59176 0.96539
   8  -8  -3   34.58   32.26  28 0.59358 0.13540 0.37460-0.87571-0.59112 0.47932
   8  -5   0   81.48   27.81  27 0.59741 0.17471 0.36962-0.68273-0.58986 0.72849
   8  -1   2    0.82   30.82  28 0.59500 0.21000 0.37276-0.43801-0.59066 0.89709
   8   3   3   20.62   33.96  27 0.59574 0.22080 0.37180-0.18789-0.59042 0.98094
   9  -7  -2   89.23   29.09  27 0.60056 0.23928 0.36550-0.80412-0.58880 0.57805
   9   0   2   11.07   35.90  28 0.59421 0.30449 0.37379-0.37704-0.59092 0.91502
  -3   4  -7  333.93   30.40  28 0.58458-0.98022 0.38602-0.13712-0.59409-0.04095
  -3   4  -6  489.46   28.24  28 0.58447-0.96513 0.38614-0.13760-0.59412 0.04189
  -3   5  -8   93.33   32.60  28 0.58449-0.99527 0.38613-0.07555-0.59411-0.12519
  -3   5  -5  192.19   24.89  28 0.58422-0.94999 0.38646-0.07594-0.59419 0.12517
  -3   6  -8    2.71   30.19  29 0.58540-0.99840 0.38497-0.01072-0.59383-0.12671
  -3   6  -5  194.59   24.37  28 0.58699-0.95318 0.38295-0.00978-0.59334 0.12494
  -3   7  -8  357.76   35.99  28 0.58525-0.99734 0.38517 0.04929-0.59388-0.12382
  -3   7  -5   58.18   27.03  28 0.58544-0.95237 0.38492 0.05080-0.59382 0.12447
  -3   8  -8  -10.31   32.79  29 0.58270-0.99291 0.38839 0.10818-0.59466-0.12265
  -3   8  -7  348.11   31.23  28 0.58675-0.98436 0.38325 0.11345-0.59341-0.04172
  -3   8  -6  341.43   28.15  28 0.58707-0.96923 0.38284 0.11403-0.59331 0.04181
  -2  -1  -7  793.99   39.34  29 0.58137-0.87928 0.39007-0.45227-0.59506-0.02424
  -2   0  -4  466.80   27.10  29 0.58372-0.83700 0.38710-0.38681-0.59435 0.22515
  -2   1  -3 2751.94   45.32  29 0.58310-0.82168 0.38789-0.32545-0.59454 0.30865
  -2   3  -2  503.29   22.11  28 0.58970-0.81403 0.37949-0.19220-0.59248 0.39043
  -2   9  -2   12.12   17.95  28 0.59210-0.81760 0.37639 0.18362-0.59171 0.39062
  -2  11  -3  670.81   24.30  28 0.59077-0.83209 0.37811 0.30495-0.59214 0.30831
  -2  12  -4   15.36   24.54  28 0.59184-0.84835 0.37674 0.36955-0.59180 0.22389
  -2  13  -5   97.97   39.64  28 0.58499-0.85653 0.38549 0.42254-0.59396 0.14266
  -1   9   0  210.11   23.45  29 0.58197-0.68172 0.38930 0.16925-0.59488 0.57799
  -1  13  -2  119.33   23.42  28 0.59023-0.72041 0.37880 0.42836-0.59231 0.40967
   0  14  -1   48.26   31.47  28 0.58782-0.60641 0.38189 0.48822-0.59308 0.51085
   2  14   1   -3.12   33.32  29 0.58229-0.37470 0.38890 0.47863-0.59478 0.71538
   3  -8 -10  222.13   43.06  29 0.58242-0.44016 0.38873-0.88963-0.59474-0.18743
   3  -7  -3   51.74   15.65  28 0.59157-0.34564 0.37708-0.81389-0.59188 0.39249
   3  -4   0  418.56   23.31  29 0.58434-0.29429 0.38631-0.63614-0.59416 0.64576
   4  -9  -8   18.84   32.70  29 0.58494-0.31790 0.38555-0.94507-0.59397-0.00336
   4  -8  -4  577.22   27.48  29 0.58406-0.25650 0.38666-0.88553-0.59424 0.33012
   4  -1   2   88.54   22.15  29 0.58412-0.16792 0.38659-0.44997-0.59422 0.83093
   5  -7  -2  418.97   23.95  29 0.58297-0.12936 0.38805-0.82511-0.59458 0.51477
   5  -5   0 1895.56   27.49  28 0.58836-0.10465 0.38120-0.69380-0.59291 0.67982
   6  -9  -5  555.58   34.37  29 0.58355-0.07790 0.38731-0.94950-0.59440 0.28159
   6  -8  -3   42.58   26.00  28 0.58612-0.05102 0.38406-0.88320-0.59361 0.44681
   6  -5   0  495.62   26.34  29 0.58303-0.00338 0.38797-0.70102-0.59456 0.69909
   6  11   3  230.08   67.47  30 0.56565 0.05476 0.40948 0.27207-0.59955 0.95540
   7  -9  -5   26.98   32.66  29 0.58134 0.02105 0.39010-0.95313-0.59507 0.29864
   7  -8  -3  133.39   28.31  29 0.58529 0.04569 0.38511-0.88359-0.59387 0.46484
   7  -5   0   91.30   24.29  28 0.58627 0.08979 0.38387-0.69688-0.59356 0.71474
   8  -7  -2   27.27   29.92  28 0.58578 0.15679 0.38449-0.82232-0.59371 0.56530
   8  -6  -1   -0.94   28.38  29 0.58621 0.17268 0.38395-0.75925-0.59358 0.64736
   8  -3   1   21.63   29.19  29 0.58490 0.20223 0.38560-0.57454-0.59398 0.81580
   8   4   3  175.71   41.38  29 0.57613 0.23993 0.39661-0.15076-0.59661 0.98637
   9  -4   0   42.94   32.93  29 0.58242 0.28720 0.38873-0.64113-0.59474 0.75134
  -3   3  -7  184.54   26.75  30 0.56974-0.96478 0.40437-0.21839-0.59828-0.03717
  -3   4  -8   22.39   30.86  29 0.57558-0.98665 0.39717-0.14837-0.59662-0.12325
  -3   4  -5  402.59   25.66  29 0.57454-0.94031 0.39846-0.14982-0.59692 0.12814
  -3   6  -9   15.55   37.88  29 0.57326-0.99918 0.40004-0.02719-0.59728-0.20545
  -3   6  -4   40.57   22.72  30 0.57204-0.92205 0.40155-0.02869-0.59763 0.21261
  -3   7  -9   14.58   40.23  29 0.57367-0.99921 0.39954 0.03527-0.59717-0.20514
  -3   7  -4  689.49   26.81  30 0.57100-0.92222 0.40283 0.03207-0.59793 0.21270
  -3   8  -5  151.82   20.19  29 0.58076-0.94764 0.39070 0.10634-0.59509 0.12660
  -3   9  -8   -4.08   38.58  30 0.57367-0.98612 0.39954 0.16028-0.59717-0.12155
  -3   9  -7   41.43   26.60  29 0.57913-0.97696 0.39275 0.16717-0.59558-0.04045
  -3   9  -6   73.66   23.03  29 0.57913-0.96165 0.39275 0.16699-0.59558 0.04380
  -3   9  -5    3.02   28.09  30 0.57325-0.93976 0.40005 0.16019-0.59729 0.12970
  -2  -1  -6  220.31   26.45  29 0.57426-0.85752 0.39881-0.46079-0.59700 0.06111
  -2  10  -2  620.52   21.85  29 0.57913-0.80500 0.39275 0.22843-0.59558 0.39506
  -2  12  -3   24.84   30.57  29 0.57360-0.81496 0.39963 0.34658-0.59719 0.31304
  -2  13  -4   34.24   36.24  29 0.57346-0.82966 0.39980 0.40801-0.59723 0.22970
  -1  12  -1  476.69   22.79  29 0.57804-0.69359 0.39411 0.35102-0.59590 0.49591
   0  -5  -8  374.67   42.82  32 0.55457-0.67192 0.42263-0.73530-0.60229-0.06572
   0  -5  -6  516.86   34.43  30 0.56703-0.65518 0.40768-0.71935-0.59903 0.09760
   0  10   1   -4.36   24.22  30 0.57476-0.56037 0.39819 0.22451-0.59685 0.68407
   0  13   0   -6.56   28.14  30 0.57188-0.57246 0.40175 0.40444-0.59768 0.60046
   1  -6  -5    2.01   23.16  30 0.57257-0.54941 0.40090-0.77611-0.59748 0.19705
   1  -5  -3  286.31   23.81  30 0.57215-0.51993 0.40141-0.71320-0.59760 0.36314
   1   9   2  650.93   30.29  29 0.57570-0.45271 0.39702 0.16127-0.59658 0.78145
   2  -7 -10   20.60   43.83  30 0.56828-0.52412 0.40616-0.84264-0.59868-0.20136
   2  -7  -5   77.64   23.36  30 0.57376-0.45347 0.39943-0.83561-0.59714 0.21544
   2  -6  -3    7.13   21.20  30 0.57339-0.42400 0.39988-0.77394-0.59725 0.38098
   2  -3   0  273.50   22.23  30 0.57367-0.38009 0.39954-0.58712-0.59717 0.63142
   3  -8  -6  292.28   27.67  30 0.57262-0.37103 0.40083-0.89996-0.59747 0.14933
   3  -6  -2    3.58   20.01  29 0.57421-0.31329 0.39886-0.77328-0.59701 0.48170
   3   9   3   27.18   31.65  30 0.56704-0.23547 0.40767 0.15018-0.59902 0.90237
   3  13   2  233.64   37.96  29 0.57296-0.25814 0.40041 0.40567-0.59737 0.81724
   4  -3   1 2970.76   34.93  29 0.58076-0.17890 0.39070-0.57884-0.59509 0.74813
   5  -9  -6   63.73   29.65  29 0.57621-0.18224 0.39639-0.95724-0.59644 0.18216
   5  -6  -1   88.84   17.43  29 0.57968-0.11069 0.39206-0.76791-0.59541 0.59802
   5   2   3 1195.55   35.52  30 0.57385-0.04667 0.39931-0.27702-0.59712 0.93474
   5  11   3   69.48   50.86  30 0.56861-0.04470 0.40576 0.27615-0.59859 0.93692
   6  -7  -2   49.51   24.12  30 0.57381-0.02488 0.39937-0.83495-0.59713 0.53396
   6  -6  -1  -33.65   24.18  30 0.57367-0.00601 0.39954-0.77598-0.59717 0.61729
   6   2   3   70.21   26.18  30 0.57386 0.04928 0.39930-0.27703-0.59711 0.95207
   7  -7  -2   94.94   21.87  29 0.57722 0.07057 0.39513-0.83332-0.59614 0.55038
   7  -6  -1  202.91   20.92  29 0.57722 0.08451 0.39513-0.77094-0.59614 0.63469
   7  -3   1  -11.22   24.02  30 0.57188 0.12375 0.40175-0.59275-0.59768 0.80401
   7  -1   2   61.42   26.41  29 0.57502 0.13055 0.39787-0.46255-0.59678 0.88524
   9  -2   1   70.77   32.27  29 0.57651 0.30731 0.39602-0.52384-0.59635 0.83649
   9   1   2  101.09   33.90  30 0.56941 0.33005 0.40478-0.34643-0.59837 0.92300
  -3   3  -8   17.50   27.66  30 0.56126-0.97073 0.41464-0.22839-0.60049-0.11785
  -3   3  -6   14.23   18.46  30 0.56816-0.94921 0.40630-0.21944-0.59863 0.04547
  -3   4  -9  158.47   33.16  31 0.55842-0.98446 0.41805-0.16959-0.60123-0.20146
  -3   5  -9   55.25   27.29  30 0.56788-0.99463 0.40664-0.09590-0.59871-0.20473
  -3   5  -4  760.35   26.24  30 0.56526-0.91656 0.40982-0.09903-0.59942 0.21407
  -3   8  -4   33.68   18.26  30 0.56649-0.91865 0.40832 0.08964-0.59909 0.21357
  -3   9  -4  171.75   26.09  31 0.55969-0.91141 0.41654 0.14288-0.60090 0.21666
  -3  10  -7  124.11   28.20  30 0.56926-0.96722 0.40495 0.21675-0.59833-0.03734
  -3  10  -6   61.80   24.92  30 0.56926-0.95179 0.40495 0.21685-0.59833 0.04609
  -3  10  -5  218.16   32.68  30 0.56286-0.93030 0.41273 0.20835-0.60007 0.13214
  -2  -1  -8   23.92   31.34  31 0.56131-0.87480 0.41459-0.47711-0.60047-0.10286
  -2   0 -10   58.92   40.17  31 0.55545-0.89867 0.42159-0.42182-0.60198-0.26681
  -2   6  -1   78.58   23.54  30 0.56352-0.77349 0.41193-0.03795-0.59989 0.48214
  -2   7  -1 3142.42   37.79  30 0.56409-0.77445 0.41124 0.02428-0.59974 0.48198
  -2   8  -1  223.92   23.74  31 0.56016-0.77009 0.41597 0.08120-0.60078 0.48378
  -2  11  -2   25.50   28.13  30 0.56399-0.79035 0.41135 0.27298-0.59976 0.39906
  -1   3   0  146.86   26.51  30 0.56434-0.66203 0.41093-0.22384-0.59967 0.58231
  -1  10   0  387.90   20.57  30 0.56760-0.66773 0.40697 0.21380-0.59878 0.58206
  -1  14  -2   67.05   26.06  30 0.56705-0.69758 0.40765 0.46253-0.59894 0.41595
   0  -5  -7  705.51   40.92  32 0.54515-0.64794 0.43366-0.74558-0.60449 0.01966
   0  15  -1  350.62   36.83  31 0.56097-0.58046 0.41499 0.51570-0.60056 0.51835
   1  13   1   65.73   30.07  30 0.56511-0.45786 0.41001 0.39688-0.59946 0.70173
   1  15   0   36.24   39.93  30 0.56294-0.47074 0.41262 0.51941-0.60004 0.61924
   2  12   2   91.86   32.05  30 0.56313-0.34366 0.41240 0.33286-0.59999 0.80301
   3  -8  -9  235.21   38.64  31 0.56298-0.40615 0.41258-0.91167-0.60003-0.09861
   3  -8  -8  290.21   31.24  31 0.55791-0.38594 0.41866-0.91885-0.60136-0.01370
   3  -8  -7  245.98   30.63  31 0.56065-0.37416 0.41538-0.91489-0.60065 0.06858
   3  -5  -1  171.70   15.84  30 0.57064-0.29448 0.40326-0.71560-0.59794 0.56636
   3   0   2   -4.34   14.33  30 0.56871-0.24704 0.40562-0.40759-0.59848 0.81839
   5  -9  -8  279.19   39.49  31 0.56093-0.19618 0.41505-0.97788-0.60058 0.02029
   5  -9  -7   77.05   32.40  31 0.56361-0.18507 0.41182-0.97171-0.59987 0.10268
   5  -8  -4  398.67   26.96  31 0.56308-0.13887 0.41246-0.91109-0.60001 0.35271
   5  -3   1   78.11   21.93  31 0.56277-0.06471 0.41283-0.60138-0.60009 0.76970
   5  -1   2  235.42   23.31  30 0.56385-0.05096 0.41153-0.47500-0.59980 0.85344
   6  -9  -6   -0.78   31.33  31 0.56427-0.07193 0.41102-0.97205-0.59969 0.20277
   6  -3   1  201.47   23.98  31 0.56161 0.03304 0.41423-0.60299-0.60040 0.78841
   6  -1   2  131.94   24.67  31 0.56353 0.04467 0.41192-0.47637-0.59989 0.87056
   7  -9  -6   52.03   38.38  31 0.56312 0.02417 0.41241-0.97489-0.60000 0.21995
   7   3   3  126.63   29.99  31 0.56288 0.15646 0.41270-0.22921-0.60006 0.97273
   8  -8  -4  130.64   33.21  30 0.56412 0.14855 0.41121-0.91101-0.59973 0.40433
   8  -4   0  295.32   29.06  31 0.56100 0.21193 0.41496-0.66639-0.60056 0.74047
   8   0   2    2.02   30.75  31 0.56330 0.24102 0.41219-0.41525-0.59995 0.90571
   8   5   3  244.05   38.76  31 0.56133 0.25462 0.41456-0.10789-0.60047 0.99103
   9  -7  -3    4.57   28.91  30 0.56760 0.25992 0.40697-0.84666-0.59878 0.50350
   9  -6  -2   12.89   36.45  31 0.56316 0.27881 0.41236-0.78939-0.59999 0.58799
   9  -5  -1    5.78   26.08  30 0.56816 0.28896 0.40630-0.72149-0.59863 0.67065
  -3   3  -5   85.52   17.12  31 0.55653-0.92233 0.42007-0.23286-0.60166 0.13258
  -3   4  -4   51.52   23.24  31 0.55310-0.90434 0.42414-0.17523-0.60252 0.21694
  -3  10  -4   58.11   29.50  31 0.55023-0.90234 0.42752 0.19422-0.60322 0.21821
  -3  11  -6   48.66   27.18  31 0.55653-0.93983 0.42007 0.26398-0.60166 0.04973
  -3  11  -5   25.68   33.49  32 0.55037-0.91841 0.42735 0.25666-0.60319 0.13473
  -2   2  -2 3803.14   49.42  31 0.55342-0.77814 0.42375-0.29853-0.60244 0.40004
  -2   5  -1  676.97   22.24  31 0.55625-0.76600 0.42040-0.10863-0.60173 0.48385
  -2   9  -1    3.81   23.74  31 0.55174-0.76263 0.42574 0.13444-0.60286 0.48573
  -2  13  -3  167.58   31.83  31 0.55422-0.79645 0.42281 0.38518-0.60224 0.31892
  -2  14  -4  161.09   41.06  31 0.55217-0.80956 0.42523 0.44498-0.60275 0.23617
  -1  -2 -11    0.46   61.41  33 0.53711-0.79851 0.44268-0.56827-0.60626-0.32988
  -1  11   0  422.28   28.74  31 0.55097-0.65117 0.42664 0.25635-0.60304 0.58685
  -1  13  -1   66.01   21.57  31 0.55625-0.67178 0.42040 0.38701-0.60173 0.50302
   0  11   1   51.95   19.75  31 0.55625-0.54455 0.42040 0.26291-0.60173 0.68665
   1  -6  -9  210.29   38.40  33 0.54022-0.57583 0.43913-0.81444-0.60557-0.12823
   1  -4  -2  705.64   28.11  32 0.54782-0.48035 0.43033-0.68042-0.60380 0.45267
   1  -3  -1   31.64   22.51  32 0.55134-0.46920 0.42620-0.61275-0.60295 0.53668
   1  10   2   98.56   25.09  31 0.55553-0.43310 0.42126 0.20010-0.60191 0.78724
   2  -7  -9   83.29   36.33  33 0.54144-0.48162 0.43772-0.87374-0.60529-0.11123
   2  -7  -6  162.19   26.11  32 0.54951-0.44447 0.42835-0.86518-0.60340 0.13733
   2  -5  -2  401.54   23.58  32 0.55171-0.38719 0.42577-0.73761-0.60286 0.46943
   2  -4  -1 3314.46   42.68  32 0.55042-0.37118 0.42729-0.67768-0.60318 0.55336
   3  -7  -4   12.09   21.73  32 0.55091-0.31949 0.42672-0.86339-0.60306 0.32034
   3  -2   1 2069.74   35.77  31 0.55332-0.24769 0.42388-0.54965-0.60247 0.73749
   4  -8  -5   27.43   19.02  31 0.55653-0.24363 0.42007-0.91966-0.60166 0.25262
   4  -7  -3  409.63   19.54  31 0.55794-0.21544 0.41839-0.85533-0.60130 0.42003
   4  -4   0 2028.82   32.28  32 0.54983-0.16252 0.42798-0.67841-0.60332 0.67255
   4   3   3  839.82   38.84  32 0.54672-0.11620 0.43162-0.24724-0.60407 0.92427
   4  11   3   14.47   38.34  32 0.54311-0.11508 0.43580 0.24634-0.60491 0.92659
   6  -9  -7  236.03   34.12  32 0.55206-0.07602 0.42536-0.98662-0.60278 0.12252
   6  -8  -4  147.97   21.45  31 0.55569-0.03454 0.42107-0.92142-0.60187 0.37125
   7  -8  -4  139.67   24.03  31 0.55682 0.06108 0.41973-0.92024-0.60159 0.38914
   8  -7  -3  264.81   34.36  32 0.55065 0.17860 0.42702-0.86501-0.60312 0.49240
   8  -2   1   32.97   28.45  32 0.55041 0.23766 0.42731-0.55521-0.60318 0.82597
   8   6   3    3.24   43.60  32 0.54707 0.26736 0.43121-0.06183-0.60398 0.99398
   8   7   3  109.08   47.52  32 0.54500 0.27072 0.43361-0.00079-0.60447 0.99572
   9  -3   0   56.77   31.25  32 0.54818 0.32220 0.42991-0.62087-0.60372 0.76055
  -3   2  -7  369.88   29.82  32 0.54149-0.93736 0.43766-0.31336-0.60545-0.03027
  -3   2  -6  293.19   27.09  32 0.54037-0.92090 0.43894-0.31404-0.60570 0.05376
  -3   3  -9    2.76   34.81  33 0.53981-0.96604 0.43958-0.25252-0.60583-0.19695
  -3   6  -3  978.41   24.22  32 0.54382-0.88024 0.43496-0.06185-0.60492 0.30323
  -3   7  -3  852.17   22.74  32 0.54611-0.88270 0.43231 0.00286-0.60438 0.30303
  -3   8  -3  437.39   20.56  32 0.54382-0.88068 0.43496 0.06227-0.60492 0.30379
  -3   9  -3   25.59   24.86  33 0.53867-0.87524 0.44090 0.11840-0.60609 0.30484
  -3  11  -4  159.84   29.05  33 0.53791-0.89036 0.44176 0.24208-0.60625 0.22208
  -2  -1  -5  499.93   32.40  33 0.53657-0.80484 0.44329-0.50489-0.60655 0.15363
  -2   4  -1   -1.77   24.03  33 0.53938-0.74671 0.44008-0.19077-0.60593 0.49039
  -2  10  -1   51.22   25.77  32 0.54053-0.75189 0.43876 0.18381-0.60567 0.48876
  -2  12  -2   82.51   22.86  32 0.54696-0.77371 0.43132 0.31455-0.60418 0.40446
  -1  15  -2  256.59   37.78  32 0.54211-0.67393 0.43694 0.49445-0.60531 0.42281
   0  14   0  250.93   32.50  32 0.54346-0.54861 0.43538 0.43441-0.60500 0.60660
   1  -6  -6   16.68   24.35  33 0.53973-0.53185 0.43968-0.81419-0.60585 0.12128
   1  14   1   97.55   33.40  33 0.53549-0.42862 0.44452 0.42490-0.60678 0.70931
   2  -7  -8   44.65   32.29  33 0.53175-0.45688 0.44876-0.88517-0.60759-0.02571
   2  -7  -7   98.31   25.47  33 0.53586-0.44601 0.44410-0.88150-0.60670 0.05622
   2  -1   1 6387.70   68.09  32 0.54139-0.33235 0.43777-0.50128-0.60547 0.72337
   2  15   1   15.53   37.80  33 0.53987-0.33638 0.43951 0.49731-0.60582 0.72840
   3  10   3  297.11   35.61  33 0.53759-0.20666 0.44212 0.17702-0.60632 0.90991
   3  14   2  103.01   42.95  33 0.53333-0.21834 0.44697 0.42219-0.60725 0.82774
   4  -8  -6  956.95   31.05  33 0.53578-0.23805 0.44419-0.94379-0.60672 0.17492
   4  -6  -2 1152.70   28.03  33 0.54046-0.18285 0.43884-0.81310-0.60568 0.50691
   4  -5  -1 1763.06   30.27  33 0.53819-0.16626 0.44143-0.75444-0.60619 0.59138
   5  -8  -5  220.72   26.93  33 0.53751-0.12872 0.44222-0.94262-0.60634 0.27506
   5  -7  -3   44.96   24.12  33 0.54018-0.10069 0.43916-0.87659-0.60575 0.44121
   6   3   3  228.30   28.55  33 0.53843 0.08517 0.44116-0.25794-0.60614 0.96134
   7  -7  -3   84.58   28.57  33 0.53973 0.09265 0.43968-0.87837-0.60585 0.47624
   7  -4   0  105.29   19.34  32 0.54468 0.13252 0.43397-0.68521-0.60472 0.72698
   7   0   2  -11.26   25.67  33 0.53924 0.16964 0.44024-0.44382-0.60596 0.89521
   7   4   3   15.89   34.42  33 0.53413 0.18461 0.44606-0.20074-0.60708 0.97922
   8  -8  -5   20.54   37.32  33 0.54045 0.15854 0.43885-0.93976-0.60569 0.32615
   8  -6  -2   18.49   22.73  32 0.54468 0.19915 0.43397-0.81108-0.60472 0.57599
   8  -5  -1  164.67   22.75  32 0.54781 0.21036 0.43032-0.74496-0.60398 0.65970
   9  -1   1   14.83   26.49  32 0.54496 0.33916 0.43364-0.50008-0.60465 0.84451
   9   2   2   88.88   34.50  32 0.54286 0.35526 0.43607-0.31556-0.60514 0.92925
  -3   2  -8    0.77   29.00  34 0.52987-0.94175 0.45085-0.32602-0.60807-0.11177
  -3   2  -5  319.40   26.09  34 0.52615-0.89108 0.45501-0.33066-0.60883 0.13932
  -3   3  -4  191.86   22.88  33 0.53120-0.88203 0.44935-0.26244-0.60779 0.22214
  -3   4 -10   20.60   37.46  34 0.52973-0.97248 0.45100-0.20211-0.60809-0.28063
  -3   5  -3  365.91   19.68  33 0.53581-0.87185 0.44413-0.13260-0.60680 0.30498
  -3  10  -3  291.05   29.09  33 0.52874-0.86626 0.45211 0.17002-0.60830 0.30803
  -3  12  -5    0.48   27.04  33 0.53552-0.90404 0.44446 0.30246-0.60686 0.13960
  -2  -1  -9   70.72   40.71  34 0.52329-0.85107 0.45818-0.52017-0.60940-0.17595
  -2  11  -1 1348.89   32.57  34 0.52765-0.73914 0.45333 0.22969-0.60852 0.49161
  -2  13  -2   12.18   33.18  33 0.52885-0.75573 0.45199 0.35621-0.60828 0.40784
  -2  14  -3   18.36   28.25  33 0.53349-0.77633 0.44675 0.42402-0.60730 0.32363
  -1  -3  -5  328.98   58.38  40 0.45358-0.62403 0.53024-0.71705-0.61960 0.18341
  -1  12   0    8.35   27.01  34 0.52827-0.63051 0.45264 0.29784-0.60840 0.59357
  -1  14  -1  101.56   26.17  33 0.53291-0.64933 0.44741 0.42222-0.60742 0.50857
   0  12   1    3.68   20.75  33 0.53465-0.52076 0.44544 0.30085-0.60705 0.69386
   1  -6  -8   13.79   30.12  34 0.52099-0.54277 0.46072-0.83488-0.60985-0.04092
   1  -6  -7   25.60   27.43  34 0.51983-0.52638 0.46201-0.83542-0.61007 0.04319
   1  11   2  460.12   23.80  33 0.53407-0.41142 0.44610 0.23600-0.60718 0.79303
   2  13   2   71.04   34.95  33 0.53015-0.31157 0.45053 0.35692-0.60801 0.81173
   5  -6  -2  -24.22   21.88  34 0.52739-0.07071 0.45362-0.83056-0.60857 0.52771
   5  -4   0   13.26   15.98  33 0.53581-0.05164 0.44413-0.69540-0.60680 0.69348
   5   3   3   47.00   25.13  34 0.52742-0.00129 0.45359-0.26959-0.60857 0.94621
   6  -8  -5    6.30   28.84  34 0.52914-0.02061 0.45166-0.95196-0.60822 0.29373
   6  -7  -3   48.42   19.18  33 0.53581 0.00058 0.44413-0.88268-0.60680 0.45986
   6  -4   0   28.62   16.98  33 0.53523 0.04539 0.44479-0.69641-0.60693 0.71090
   7  -8  -5  200.07   25.39  33 0.53204 0.07079 0.44839-0.94956-0.60761 0.31164
   7  -6  -2   -1.49   24.73  34 0.52972 0.11860 0.45101-0.82660-0.60810 0.56107
   7  -5  -1   51.78   19.45  33 0.53234 0.13017 0.44807-0.76260-0.60755 0.64535
   7  -2   1  249.65   26.87  34 0.52819 0.16260 0.45273-0.57974-0.60841 0.81360
   8   1   2   -5.80   27.83  34 0.53001 0.27294 0.45068-0.39199-0.60803 0.91286
   9  -6  -3  308.75   38.36  34 0.52710 0.29922 0.45394-0.83056-0.60863 0.51628
   9  -4  -1   54.13   31.22  33 0.53000 0.32427 0.45070-0.70346-0.60804 0.68037
  -3   2  -9  150.54   36.35  35 0.50967-0.93539 0.47284-0.34802-0.61180-0.19055
  -3   3 -10    1.41   41.96  34 0.51639-0.95344 0.46555-0.27929-0.61058-0.27177
  -3   4  -3  839.05   28.17  34 0.51849-0.85482 0.46324-0.21429-0.61018 0.30786
  -3  11  -3  234.59   31.87  34 0.51707-0.85568 0.46480 0.21824-0.61045 0.30979
  -3  12  -4   40.01   25.23  34 0.52315-0.87674 0.45810 0.28841-0.60928 0.22458
  -1  -1  -2 2949.55   97.94  35 0.51181-0.63924 0.47053-0.53280-0.61142 0.42519
  -1   7   1  487.64   27.02  34 0.51646-0.60057 0.46547-0.02995-0.61057 0.67727
  -1   8   1  776.36   28.25  34 0.51645-0.60100 0.46548 0.03185-0.61057 0.67723
   0  -4  -4 2086.93   49.51  35 0.50800-0.56682 0.47464-0.72398-0.61209 0.27668
   0  15   0   -0.39   40.22  35 0.51609-0.51834 0.46587 0.46661-0.61063 0.61449
   2  -6  -4 1682.42   29.54  34 0.52169-0.38658 0.45972-0.83436-0.60957 0.30984
   3  -7  -5   70.64   23.30  35 0.51674-0.30032 0.46516-0.90157-0.61051 0.24476
   3  -6  -3 2163.88   33.28  35 0.51740-0.27067 0.46444-0.83860-0.61039 0.41106
   4  -8  -9  -15.07   35.14  35 0.51845-0.26359 0.46329-0.96300-0.61019-0.07092
   4  -8  -8  317.06   35.07  35 0.51614-0.24798 0.46582-0.96551-0.61063 0.01237
   4  -8  -7    9.92   22.38  34 0.52257-0.23922 0.45875-0.95927-0.60940 0.09341
   4  -7  -4  125.99   22.18  35 0.51747-0.18971 0.46437-0.90068-0.61038 0.34518
   4  -2   1  931.30   27.56  34 0.51767-0.11543 0.46415-0.58989-0.61034 0.76300
   4   0   2 1367.07   29.52  34 0.52286-0.10619 0.45843-0.45999-0.60934 0.84622
   5  -8  -6  338.97   31.51  35 0.51580-0.12114 0.46619-0.96618-0.61069 0.19636
   5  -5  -1   77.95   16.58  34 0.52403-0.05573 0.45713-0.76977-0.60911 0.61270
   5   0   2  -13.17   19.80  35 0.51417 0.00259 0.46797-0.47111-0.61099 0.86663
   5  12   3   57.10   52.19  35 0.50724 0.01618 0.47545 0.26744-0.61222 0.95132
   6  -6  -2  273.03   19.06  34 0.52403 0.02714 0.45713-0.83232-0.60911 0.54711
   6  -5  -1  114.58   17.37  34 0.52345 0.04159 0.45778-0.77070-0.60922 0.63082
   6  -2   1   64.19   21.55  35 0.51343 0.08291 0.46877-0.59565-0.61113 0.79931
   6   0   2  284.35   24.68  34 0.51850 0.09020 0.46324-0.46503-0.61018 0.88135
   7   5   3   16.34   36.80  35 0.50849 0.21113 0.47411-0.16638-0.61201 0.98517
   8  -7  -4   26.63   30.56  35 0.51679 0.19466 0.46511-0.90150-0.61050 0.41493
   8  -3   0   52.13   22.03  34 0.52110 0.25255 0.46037-0.65113-0.60968 0.74876
   8  -1   1  261.51   28.46  35 0.51268 0.27567 0.46959-0.53542-0.61126 0.83432
   9  -5  -2   62.30   26.58  34 0.52403 0.31649 0.45713-0.77283-0.60911 0.59812
   9   0   1   54.35   32.29  35 0.51261 0.37189 0.46966-0.47415-0.61127 0.85178
   9   3   2   -4.32   38.55  35 0.51698 0.38344 0.46490-0.28219-0.61047 0.93395
  10  -1   0    9.42   40.59  35 0.51580 0.45289 0.46619-0.53375-0.61069 0.78431
  -3   6  -2  248.24   23.93  35 0.50457-0.82586 0.47829-0.10472-0.61261 0.39458
  -3   7  -2   79.56   17.89  35 0.50991-0.83208 0.47256-0.03647-0.61168 0.39358
  -3   8  -2  551.90   21.49  35 0.51050-0.83274 0.47192 0.02542-0.61158 0.39377
  -3   9  -2  519.72   26.54  35 0.50663-0.82931 0.47609 0.08316-0.61225 0.39450
  -3  12  -3  362.71   34.34  35 0.50405-0.84201 0.47885 0.26665-0.61269 0.31234
  -3  13  -4   75.94   35.23  35 0.50652-0.86099 0.47621 0.33305-0.61227 0.22734
  -2   3  -1  183.48   25.21  35 0.50494-0.71324 0.47790-0.29192-0.61254 0.49529
  -2   8   0 1131.47   28.13  36 0.50170-0.69683 0.48135 0.01616-0.61308 0.57946
  -2  12  -1  102.08   21.38  35 0.51110-0.72307 0.47128 0.27459-0.61147 0.49520
  -2  14  -2  153.24   33.37  35 0.50773-0.73534 0.47491 0.39523-0.61206 0.41248
  -1   6   1   61.70   17.75  35 0.50872-0.59250 0.47385-0.10030-0.61189 0.67839
  -1   9   1  307.83   20.07  35 0.51080-0.59592 0.47160 0.08755-0.61152 0.67803
  -1  10   1  694.56   27.20  36 0.50076-0.58537 0.48235 0.13874-0.61324 0.68082
  -1  13   0  402.33   24.65  35 0.51110-0.61243 0.47128 0.33564-0.61147 0.59577
  -1  15  -1   62.06   35.86  35 0.50710-0.62409 0.47559 0.45833-0.61217 0.51331
   0   8   2  789.17   28.23  36 0.50023-0.47268 0.48291 0.01369-0.61333 0.78129
   0  13   1  205.98   24.36  35 0.51110-0.50054 0.47128 0.33544-0.61147 0.69658
   1  -5 -11   11.58   52.29  38 0.48360-0.55050 0.50021-0.81132-0.61583-0.28306
   1  -5  -4 1932.07   38.18  36 0.50072-0.46330 0.48239-0.79439-0.61325 0.29535
   1  12   2   -8.04   27.45  36 0.50723-0.38150 0.47545 0.27266-0.61215 0.80118
   1  15   1   41.83   39.99  36 0.50434-0.39751 0.47854 0.45316-0.61264 0.71544
   2   7   3 1559.75   47.40  36 0.50028-0.26460 0.48285-0.04900-0.61332 0.89923
   2   8   3  127.54   26.24  35 0.50399-0.26889 0.47892 0.01667-0.61270 0.89866
   3  -3   0 6583.33   52.21  35 0.50991-0.21889 0.47256-0.66083-0.61168 0.66353
   3  11   3  196.17   32.10  35 0.50544-0.17532 0.47737 0.20395-0.61246 0.91642
   4  12   3  -11.96   40.68  36 0.49834-0.06775 0.48490 0.25921-0.61363 0.93620
   5  -8  -7  175.52   33.18  36 0.50219-0.12210 0.48083-0.98152-0.61300 0.11555
   5  -7  -4  891.50   29.63  36 0.50338-0.07940 0.47957-0.91733-0.61281 0.36564
   5  -2   1  220.00   21.70  35 0.50748-0.00951 0.47518-0.60131-0.61211 0.78227
   6  -8  -6   50.63   23.15  35 0.50932-0.01789 0.47321-0.97428-0.61179 0.21435
   6   4   3  489.89   34.61  36 0.49787 0.12556 0.48540-0.24063-0.61370 0.96876
   7  -8  -6   90.33   27.13  35 0.51169 0.07688 0.47064-0.97187-0.61136 0.23168
   7  -7  -4  198.27   28.25  36 0.50512 0.11153 0.47771-0.91513-0.61251 0.39984
   8  -6  -3   13.54   31.50  35 0.50574 0.22356 0.47705-0.85476-0.61241 0.50068
   8  -4  -1    8.32   28.35  36 0.50454 0.25636 0.47832-0.73142-0.61261 0.66720
   8   2   2  128.89   30.08  36 0.49930 0.30453 0.48389-0.36358-0.61348 0.92049
   9  -2   0   82.83   24.60  35 0.51169 0.35804 0.47064-0.60002-0.61136 0.76809
  -4   6  -7   -4.40   28.92  37 0.49014-0.98165 0.49320-0.11994-0.61481-0.03646
  -4   7  -7   29.31   33.89  36 0.49305-0.98811 0.49017-0.05435-0.61437-0.03946
  -4   7  -6    2.60   29.61  37 0.49302-0.97261 0.49020-0.05379-0.61437 0.04514
  -4   8  -8   78.08   37.16  37 0.48934-0.99819 0.49402 0.00313-0.61492-0.12124
  -4   8  -7  131.65   33.23  36 0.49506-0.98976 0.48807 0.00966-0.61406-0.03855
  -4   8  -6   66.94   29.67  36 0.49483-0.97434 0.48830 0.00988-0.61410 0.04524
  -4   9  -7  410.46   40.02  36 0.49289-0.98746 0.49033 0.06911-0.61439-0.03619
  -4   9  -6    5.65   34.13  37 0.49241-0.97229 0.49083 0.06969-0.61447 0.04555
  -3   1  -8  339.60   36.37  37 0.48551-0.89569 0.49797-0.43559-0.61548-0.10347
  -3   1  -7    9.75   26.97  36 0.49535-0.89144 0.48777-0.42553-0.61402-0.02315
  -3   1  -6  852.30   32.52  36 0.49267-0.87312 0.49056-0.42785-0.61443 0.06178
  -3   2  -4  960.80   30.55  36 0.49307-0.84402 0.49015-0.36496-0.61437 0.22847
  -3   3  -3   10.66   23.27  36 0.49241-0.82687 0.49083-0.30357-0.61447 0.31228
  -3   5  -2   83.46   22.60  37 0.49140-0.81278 0.49188-0.17933-0.61462 0.39623
  -3  10  -2   11.90   19.64  36 0.49936-0.82257 0.48355 0.13900-0.61338 0.39521
  -3  11  -2  265.52   27.63  37 0.48911-0.81254 0.49426 0.18938-0.61496 0.39746
  -2   0 -11   -3.38   53.23  38 0.48060-0.84050 0.50299-0.50406-0.61616-0.33712
  -2   0  -3   -0.23   21.01  36 0.49302-0.73136 0.49020-0.48973-0.61437 0.32889
  -2   6   0  679.56   27.47  37 0.49144-0.68651 0.49185-0.11826-0.61461 0.58053
  -2   7   0   50.06   16.39  36 0.49966-0.69519 0.48323-0.04805-0.61333 0.57933
  -2   9   0  261.61   19.73  36 0.49755-0.69334 0.48545 0.07407-0.61367 0.58029
  -2  10   0 1395.66   30.56  37 0.48957-0.68623 0.49379 0.12722-0.61489 0.58141
  -2  13  -1  441.93   33.02  36 0.49325-0.70555 0.48996 0.31659-0.61434 0.49899
  -1   2   0 2815.21   50.08  36 0.49695-0.59499 0.48609-0.36000-0.61376 0.59642
  -1  14   0  148.90   31.94  37 0.48923-0.59051 0.49414 0.37487-0.61494 0.59908
   0   7   2  173.91   23.35  36 0.49763-0.46967 0.48537-0.05077-0.61366 0.78165
   0   9   2  207.35   26.25  36 0.49468-0.46768 0.48847 0.07042-0.61412 0.78248
   2   9   3  258.24   28.23  36 0.49442-0.25960 0.48874 0.06929-0.61416 0.90077
   2  14   2  196.55   36.60  36 0.49711-0.27992 0.48592 0.38171-0.61374 0.81769
   3  -7 -10  182.55   39.89  37 0.49199-0.34899 0.49128-0.92957-0.61453-0.16708
   3  -7  -6  336.62   28.20  37 0.49189-0.29006 0.49137-0.92859-0.61454 0.16574
   3  -5  -2  852.66   21.89  36 0.49785-0.23703 0.48514-0.79795-0.61362 0.49768
   3  -4  -1 2200.62   34.14  37 0.49261-0.21657 0.49063-0.74103-0.61444 0.58214
   4  -6  -3   23.28   20.89  37 0.49007-0.14664 0.49327-0.86944-0.61482 0.43313
   5  -8  -9   31.28   36.41  36 0.49458-0.14533 0.48857-0.98835-0.61414-0.05025
   5  -8  -8   91.03   32.64  37 0.49336-0.12864 0.48984-0.98909-0.61432 0.03355
   6  -8  -7   35.82   31.25  37 0.49355-0.01799 0.48964-0.98945-0.61429 0.13410
   6  -7  -4   -1.96   19.38  36 0.50026 0.02319 0.48260-0.92164-0.61323 0.38238
   7  -8  -7  212.56   29.17  36 0.49725 0.07559 0.48577-0.98726-0.61372 0.15083
   7  -6  -3  322.48   27.41  37 0.48907 0.14335 0.49430-0.87072-0.61496 0.48708
   7  -3   0  593.91   22.48  36 0.49845 0.17808 0.48450-0.67472-0.61353 0.73530
   7   1   2   61.26   19.39  36 0.49845 0.20718 0.48450-0.42607-0.61353 0.90271
   7   6   3  374.00   41.66  37 0.48210 0.23716 0.50146-0.13259-0.61595 0.98913
   8  -7  -5  263.27   36.01  37 0.49219 0.20706 0.49107-0.92990-0.61450 0.33666
   8  -5  -2   30.55   22.01  36 0.49996 0.24410 0.48291-0.79807-0.61328 0.58518
   9  -6  -4   38.83   34.84  37 0.49322 0.31595 0.48999-0.86716-0.61434 0.43664
   9  -3  -1   15.85   33.55  36 0.49241 0.36375 0.49083-0.68302-0.61447 0.68852
   9   4   2   16.52   40.24  37 0.49199 0.40557 0.49127-0.24705-0.61453 0.93864
  10  -2  -1   -3.32   36.10  37 0.49120 0.46391 0.49209-0.62208-0.61465 0.70456
  -4   5  -7  154.89   29.48  38 0.47548-0.96887 0.50798-0.19735-0.61686-0.03574
  -4   6  -8  201.70   37.39  37 0.48019-0.98889 0.50322-0.13051-0.61624-0.11959
  -4   6  -6  552.78   24.90  37 0.48718-0.96576 0.49606-0.12346-0.61527 0.04653
  -4   6  -5   61.43   26.63  37 0.47935-0.94234 0.50408-0.13047-0.61635 0.13008
  -4   7  -8   18.13   28.87  37 0.48658-0.99598 0.49669-0.06146-0.61535-0.12157
  -4   7  -5    7.25   20.94  37 0.48536-0.94930 0.49794-0.06160-0.61553 0.13026
  -4   8  -5   10.75   21.47  37 0.48749-0.95197 0.49575 0.00226-0.61522 0.12898
  -4   9  -5  628.89   26.09  37 0.48505-0.94978 0.49826 0.06054-0.61557 0.13132
  -4  10  -6   29.68   27.65  37 0.48627-0.96716 0.49700 0.12529-0.61540 0.04577
  -4  10  -5   21.25   33.45  37 0.48077-0.94518 0.50263 0.11931-0.61616 0.13032
  -4  11  -6   32.80   36.85  37 0.47967-0.95879 0.50375 0.17871-0.61631 0.04838
  -3   2 -10   25.47   41.07  38 0.47435-0.91482 0.50912-0.38539-0.61700-0.26924
  -3  13  -3   52.78   27.05  37 0.48749-0.82682 0.49575 0.31278-0.61522 0.31418
  -2   1  -2   71.89   21.71  37 0.48327-0.70724 0.50008-0.43741-0.61582 0.41390
  -2  11   0   62.42   26.98  38 0.47881-0.67527 0.50463 0.17946-0.61643 0.58298
  -1   5   1 2177.82   35.53  37 0.48840-0.57182 0.49481-0.18317-0.61509 0.68174
  -1  11   1  253.23   21.66  37 0.48718-0.57249 0.49606 0.18644-0.61527 0.68307
   0   2   1    3.15   25.94  38 0.47862-0.46418 0.50481-0.38030-0.61645 0.70031
   0   6   2 2615.14   43.18  37 0.48292-0.45506 0.50044-0.12724-0.61587 0.78370
   0  10   2   70.88   24.30  37 0.48444-0.45888 0.49888 0.12174-0.61566 0.78336
   0  14   1   47.70   26.81  37 0.48536-0.47486 0.49794 0.37198-0.61553 0.70100
   1  13   2  115.20   30.39  37 0.48318-0.36122 0.50017 0.30726-0.61583 0.80229
   2  -6  -5    0.86   22.41  38 0.47831-0.35863 0.50512-0.88001-0.61649 0.23297
   2  -5  -3 1171.14   29.82  38 0.47896-0.32929 0.50447-0.81708-0.61641 0.40002
   2   6   3   38.24   30.20  38 0.46759-0.23180 0.51588-0.14445-0.61783 0.90350
   2  10   3   56.90   28.16  37 0.48003-0.24558 0.50339 0.11704-0.61626 0.90257
   3  -7  -9  100.96   32.38  38 0.47647-0.31953 0.50699-0.94562-0.61673-0.08285
   3  -7  -7   32.78   25.55  38 0.47647-0.29005 0.50699-0.94493-0.61673 0.08352
   3   1   2 1731.59   40.67  38 0.47681-0.15682 0.50665-0.44567-0.61669 0.83647
   3  12   3  385.84   42.02  38 0.47136-0.14259 0.51212 0.23106-0.61737 0.92177
   4  -7  -5  618.94   21.75  37 0.48597-0.17313 0.49732-0.93484-0.61544 0.26752
   4  -3   0   16.78   20.05  38 0.48063-0.09354 0.50278-0.69082-0.61618 0.68529
   4   4   3  270.75   33.83  39 0.46499-0.03475 0.51844-0.27180-0.61813 0.93857
   5  -6  -3    1.36   21.40  38 0.47908-0.03668 0.50435-0.88211-0.61639 0.45174
   5   4   3  545.13   34.59  38 0.46997 0.05687 0.51350-0.26755-0.61754 0.95542
   6  -8  -8   63.34   28.60  37 0.48749-0.02619 0.49575-0.99771-0.61522 0.05056
   6  -6  -3   39.97   25.40  37 0.47977 0.05682 0.50365-0.88092-0.61630 0.46980
   6  -3   0   28.37   22.82  38 0.48057 0.09927 0.50284-0.69146-0.61619 0.71976
   7  -7  -5   27.84   30.98  38 0.47862 0.12451 0.50481-0.94450-0.61645 0.32013
   7  -5  -2   42.83   26.37  38 0.48002 0.16734 0.50339-0.81758-0.61626 0.57052
   7  -4  -1   31.79   23.14  37 0.48251 0.17916 0.50086-0.75278-0.61593 0.65380
   7  -1   1   39.42   23.97  37 0.48194 0.20810 0.50144-0.56645-0.61600 0.82063
   8  -2   0  341.99   29.63  38 0.47834 0.29459 0.50510-0.63324-0.61649 0.75627
   9  -5  -3   12.65   31.87  38 0.48199 0.34358 0.50138-0.81559-0.61600 0.52024
   9  -4  -2   15.00   31.03  38 0.48016 0.35701 0.50326-0.75508-0.61625 0.60526
   9   1   1   10.48   34.87  38 0.47944 0.40511 0.50398-0.44642-0.61634 0.85757
  10   0   0  187.10   37.83  37 0.48222 0.48265 0.50115-0.50551-0.61597 0.79066
  -4   5  -8   86.49   35.56  38 0.46762-0.97582 0.51567-0.20487-0.61776-0.11818
  -4   5  -6   20.65   20.44  38 0.47452-0.95337 0.50878-0.19740-0.61692 0.04687
  -4   5  -5  285.78   26.20  39 0.46550-0.92814 0.51777-0.20676-0.61801 0.13242
  -4   7  -4   59.58   26.89  38 0.46873-0.91801 0.51457-0.07849-0.61763 0.21495
  -4   8  -4   76.13   19.83  38 0.47205-0.92138 0.51125-0.01410-0.61723 0.21510
  -4   9  -4  -18.15   25.99  39 0.46926-0.92045 0.51403 0.04791-0.61757 0.21581
  -4  10  -4  -13.82   31.10  39 0.46694-0.91584 0.51634 0.10605-0.61784 0.21697
  -4  11  -5  -41.70   33.22  39 0.46957-0.93718 0.51373 0.17258-0.61753 0.13211
  -3   1  -5   44.96   23.26  38 0.47093-0.83706 0.51238-0.44943-0.61737 0.14723
  -3   4  -2  673.68   26.98  39 0.46740-0.78893 0.51588-0.26646-0.61779 0.39884
  -3   8  -1   34.60   23.04  39 0.46635-0.77312 0.51692-0.01955-0.61791 0.48346
  -3   9  -1   57.15   23.61  39 0.46461-0.77288 0.51865 0.04064-0.61811 0.48343
  -3  12  -2    2.64   22.38  38 0.47606-0.79876 0.50723 0.23972-0.61672 0.40099
  -3  14  -3   59.27   36.64  38 0.46911-0.80929 0.51419 0.35721-0.61758 0.31687
  -2   5   0   12.91   16.75  38 0.47298-0.66777 0.51033-0.19872-0.61711 0.58300
  -2  12   0    7.84   26.46  39 0.46585-0.66013 0.51742 0.22771-0.61797 0.58658
  -2  14  -1    2.57   26.31  38 0.47267-0.68416 0.51064 0.36073-0.61715 0.50310
  -1  12   1   50.97   27.52  38 0.46996-0.55576 0.51334 0.23370-0.61748 0.68589
  -1  15   0   13.67   34.79  39 0.46398-0.56552 0.51926 0.41285-0.61818 0.60320
   0  11   2  173.55   27.74  38 0.46988-0.44453 0.51342 0.16970-0.61749 0.78573
   1   3   2 1100.52   61.08  39 0.45710-0.33131 0.52600-0.33933-0.61892 0.80398
   2  -2   0 9999.99   77.05  39 0.46798-0.27345 0.51531-0.64124-0.61772 0.65194
   2  15   2  -20.27   44.82  39 0.46149-0.23962 0.52171 0.41002-0.61845 0.82433
   3  -7  -8  244.98   29.06  39 0.46855-0.29715 0.51475-0.95130-0.61765 0.00201
   3  -6  -4  128.05   22.37  39 0.46803-0.23627 0.51526-0.88967-0.61771 0.33528
   3  -1   1   50.51   21.27  39 0.46755-0.16338 0.51574-0.57859-0.61777 0.75353
   4  -5  -2  210.12   20.73  38 0.46988-0.11235 0.51342-0.82549-0.61749 0.51965
   4  -4  -1 1892.46   31.50  39 0.46714-0.09439 0.51615-0.76694-0.61782 0.60367
   5  -7  -5   22.04   17.75  38 0.47205-0.06221 0.51125-0.94973-0.61723 0.28586
   5  -3   0    5.51   15.15  38 0.47452 0.00947 0.50878-0.69765-0.61692 0.70367
   6  -7  -5  292.63   26.69  39 0.46910 0.03694 0.51419-0.95145-0.61759 0.30419
   6  -5  -2  105.02   24.46  39 0.46712 0.08390 0.51616-0.83032-0.61782 0.55453
   6  -4  -1  230.18   24.13  39 0.46709 0.09871 0.51619-0.76762-0.61782 0.63838
   6   1   2  128.43   24.93  39 0.46889 0.14064 0.51441-0.45447-0.61761 0.88918
   6   5   3   56.11   32.46  40 0.45602 0.16686 0.52705-0.21963-0.61903 0.97490
   7   7   3   -0.14   41.96  39 0.46149 0.26049 0.52171-0.08887-0.61845 0.99242
   7   9   3   -1.19   58.74  41 0.44251 0.27868 0.53998 0.01744-0.62029 0.99483
   8  -7  -6  138.91   34.85  39 0.46953 0.21338 0.51376-0.95201-0.61753 0.25558
   8  -6  -4   13.20   29.50  38 0.47014 0.24362 0.51317-0.89023-0.61746 0.42218
   8   0   1    7.97   20.43  38 0.47298 0.31766 0.51033-0.51431-0.61711 0.84005
   8   3   2   21.15   32.13  38 0.46726 0.33598 0.51602-0.33356-0.61780 0.92647
   9  -6  -5  113.80   40.17  39 0.46647 0.32950 0.51680-0.89499-0.61789 0.35709
   9  -1   0  131.57   24.93  38 0.47390 0.39599 0.50940-0.57583-0.61700 0.77459
   9   5   2  110.23   42.48  38 0.46911 0.42865 0.51419-0.20830-0.61758 0.94190
  -4   4  -7  206.20   31.24  39 0.45564-0.94821 0.52728-0.27880-0.61912-0.03268
  -4   4  -6  233.63   28.28  39 0.45477-0.93221 0.52812-0.27933-0.61921 0.05043
  -4   5  -9   10.41   36.08  40 0.44960-0.97337 0.53310-0.22258-0.61971-0.20060
  -4   6  -4  391.47   20.77  39 0.46027-0.90854 0.52276-0.14965-0.61863 0.21688
  -4  11  -4   26.38   30.78  39 0.45691-0.90916 0.52604 0.15988-0.61899 0.21647
  -4  12  -5   34.17   29.62  39 0.46090-0.92679 0.52215 0.22420-0.61857 0.13334
  -3   1  -9    5.94   33.54  39 0.45683-0.88271 0.52612-0.46445-0.61900-0.18452
  -3   7  -1   49.05   17.58  39 0.46090-0.76825 0.52215-0.08614-0.61857 0.48406
  -3  10  -1  174.58   19.69  39 0.45965-0.76777 0.52338 0.09900-0.61870 0.48481
  -3  13  -2  246.21   26.19  39 0.46059-0.78509 0.52246 0.28483-0.61860 0.40229
  -2  -1 -10   46.15   47.17  40 0.45073-0.79413 0.53202-0.59428-0.61960-0.24880
  -2  15  -1  -13.41   36.83  40 0.45338-0.66358 0.52946 0.40091-0.61934 0.50504
  -1  13   1   14.27   28.72  40 0.45181-0.53783 0.53098 0.27724-0.61950 0.68789
   0  12   2  290.53   29.36  40 0.45259-0.42687 0.53023 0.21446-0.61942 0.78825
   0  15   1  350.93   37.72  39 0.45767-0.44855 0.52530 0.40502-0.61891 0.70529
   1  14   2   78.85   36.34  39 0.45556-0.33375 0.52736 0.34157-0.61913 0.80580
   2  -6 -10  483.19   39.40  40 0.45489-0.40831 0.52800-0.90458-0.61919-0.18003
   2  11   3  680.80   34.84  39 0.45876-0.22525 0.52425 0.15745-0.61879 0.90573
   4  -7 -10  177.57   42.23  40 0.45237-0.21384 0.53043-0.96999-0.61944-0.14591
   4  -7  -6   17.10   19.39  39 0.46121-0.16301 0.52185-0.96015-0.61853 0.18623
   4  13   3  108.74   46.46  40 0.45244-0.02518 0.53037 0.27555-0.61943 0.94167
   5  -5  -2  396.05   19.05  39 0.46277-0.00836 0.52032-0.83362-0.61836 0.53834
   5  -4  -1  817.81   21.84  39 0.46090 0.00814 0.52215-0.77321-0.61857 0.62215
   5   1   2  219.08   23.09  40 0.45004 0.06287 0.53268-0.47299-0.61966 0.87404
   6  -1   1   88.82   17.19  39 0.45996 0.13520 0.52307-0.58840-0.61867 0.80674
   7  -7  -6  234.22   33.62  40 0.45542 0.13247 0.52749-0.96630-0.61914 0.24036
   7  -6  -4   40.75   25.61  40 0.45212 0.16603 0.53068-0.90809-0.61947 0.40670
   7   2   2  154.64   27.44  40 0.45524 0.24952 0.52767-0.40739-0.61916 0.90818
   7   8   3   18.93   47.85  41 0.44395 0.27499 0.53849-0.04458-0.62022 0.99419
   8  -5  -3  388.63   31.08  40 0.45584 0.27321 0.52709-0.84108-0.61910 0.50792
   8  -4  -2  212.28   28.10  40 0.45244 0.29116 0.53037-0.78342-0.61944 0.59186
   8  -3  -1   28.47   26.17  40 0.45710 0.29973 0.52586-0.71554-0.61897 0.67385
  10  -1  -1   15.84   39.08  40 0.45401 0.49718 0.52886-0.59629-0.61928 0.71000
  10   1   0  -12.87   36.03  40 0.45307 0.51777 0.52977-0.47310-0.61937 0.79468
  -4   4  -8   14.74   33.92  40 0.44550-0.95420 0.53689-0.28831-0.62000-0.11714
  -4   4  -5   10.67   25.36  41 0.44231-0.90575 0.53992-0.29063-0.62028 0.13364
  -4   5  -4   65.28   24.38  40 0.44429-0.89269 0.53804-0.22664-0.62011 0.21786
  -4   7  -3   -3.22   25.34  41 0.44281-0.87640 0.53944-0.10290-0.62023 0.30269
  -4   8  -3    9.56   19.42  40 0.44803-0.88257 0.53448-0.03622-0.61977 0.30089
  -4   9  -3 1134.45   26.71  40 0.44835-0.88275 0.53418 0.02515-0.61974 0.30211
  -4  10  -3    9.00   27.87  41 0.44376-0.87948 0.53854 0.08546-0.62015 0.30260
  -4  12  -4  402.42   29.85  40 0.44771-0.89855 0.53478 0.21043-0.61980 0.21975
  -3   2  -3  334.95   26.11  40 0.44220-0.77809 0.54002-0.41499-0.62028 0.31757
  -3   6  -1  360.55   18.83  40 0.44992-0.75695 0.53267-0.15889-0.61960 0.48479
  -3  11  -1    4.11   21.06  40 0.45118-0.75844 0.53146 0.15351-0.61948 0.48740
  -3  12  -1  504.08   30.61  41 0.44009-0.74868 0.54201 0.20342-0.62046 0.48726
  -3  14  -2  100.46   38.64  40 0.44334-0.76824 0.53894 0.33170-0.62019 0.40342
  -2  -1  -4   26.95   20.20  40 0.44311-0.69705 0.53916-0.60063-0.62021 0.25073
  -2   2  -1 1053.23   32.96  40 0.44348-0.65336 0.53881-0.41360-0.62018 0.50140
  -2   4   0  792.43   29.37  41 0.43972-0.63482 0.54236-0.29264-0.62049 0.58585
  -2  13   0  160.66   24.41  40 0.44771-0.64534 0.53478 0.27356-0.61980 0.58721
  -1   4   1 2124.40   37.77  40 0.44803-0.53126 0.53448-0.28476-0.61977 0.68646
   0  -4 -10  364.14   54.38  43 0.41043-0.55711 0.56914-0.81999-0.62235-0.21263
   0   5   2  491.53   23.69  40 0.44898-0.42050 0.53358-0.22241-0.61968 0.78754
   1  -5  -5  281.97   25.56  41 0.44018-0.41704 0.54193-0.85436-0.62045 0.21964
   1  -4  -3 4065.86   51.85  41 0.43844-0.38569 0.54356-0.79375-0.62059 0.38596
   2  -6  -6  564.30   27.38  41 0.44419-0.33928 0.53813-0.91223-0.62011 0.15318
   2  -4  -2 2113.39   33.40  40 0.44961-0.28544 0.53297-0.78327-0.61963 0.48608
   2  -3  -1 1791.88   35.52  41 0.44270-0.26344 0.53955-0.72771-0.62024 0.57052
   2  12   3   -5.22   33.76  41 0.43565-0.19791 0.54617 0.19916-0.62081 0.90919
   3  13   3   50.61   40.05  41 0.43533-0.10550 0.54647 0.25933-0.62083 0.92631
   4  -7  -9  282.66   36.72  41 0.44075-0.18752 0.54139-0.98093-0.62041-0.06093
   4  -7  -8    2.09   28.88  41 0.44043-0.17002 0.54169-0.98292-0.62043 0.01983
   4  -7  -7 1263.23   35.30  41 0.44328-0.16003 0.53899-0.97622-0.62019 0.10484
   4  -6  -4  301.67   24.38  41 0.44272-0.11502 0.53953-0.91455-0.62024 0.35529
   4  -1   1  469.57   24.95  41 0.44276-0.04094 0.53949-0.60347-0.62024 0.77312
   4   1   2   73.14   21.40  40 0.44445-0.02827 0.53789-0.47743-0.62009 0.85656
   5  -7  -6  371.84   22.72  40 0.44803-0.05314 0.53448-0.97299-0.61977 0.20600
   5  -1   1   60.52   21.95  41 0.44342 0.05499 0.53886-0.60312-0.62018 0.79030
   6  -7  -6   55.10   22.19  40 0.44771 0.04387 0.53478-0.97427-0.61980 0.22233
   6  -6  -4 1552.00   31.11  41 0.43949 0.08143 0.54257-0.91897-0.62051 0.39142
   7  -7  -7   62.56   33.06  41 0.44031 0.13299 0.54180-0.98202-0.62044 0.15684
   7  -2   0  -12.27   17.40  40 0.44835 0.23101 0.53418-0.66242-0.61974 0.74108
   8  -6  -5   29.18   33.56  40 0.44220 0.25773 0.54002-0.91866-0.62028 0.34151
   9  -5  -4   17.89   27.49  40 0.44898 0.36222 0.53358-0.85020-0.61968 0.44207
   9  -4  -3  176.75   31.06  41 0.43928 0.38640 0.54277-0.79674-0.62053 0.52715
   9  -3  -2  146.79   30.73  41 0.43884 0.40212 0.54319-0.73454-0.62056 0.61017
   9  -2  -1  175.57   24.74  40 0.45024 0.40506 0.53237-0.66125-0.61957 0.69381
   9   2   1   57.96   36.30  40 0.44394 0.43961 0.53837-0.41852-0.62014 0.86065
  10  -2  -2   -5.23   35.42  41 0.44075 0.50077 0.54139-0.67238-0.62041 0.62723
  -4   4  -9   18.15   35.12  41 0.42874-0.95046 0.55244-0.30468-0.62140-0.19687
  -4   6  -3   39.16   24.51  41 0.43179-0.86490 0.54962-0.17636-0.62119 0.30324
  -4  11  -3   14.55   23.14  41 0.43786-0.87348 0.54396 0.14053-0.62073 0.30244
  -4  12  -3   34.94   35.12  41 0.42939-0.86412 0.55184 0.19403-0.62136 0.30316
  -3   1  -4  242.23   25.01  41 0.42970-0.78029 0.55155-0.48900-0.62133 0.23495
  -3   3  -2 1413.43   32.40  42 0.42928-0.75044 0.55194-0.36486-0.62136 0.40206
  -3   5  -1   66.70   22.99  41 0.42975-0.73602 0.55150-0.24047-0.62133 0.48672
  -2  14   0  168.70   36.20  41 0.42957-0.62722 0.55167 0.31804-0.62134 0.58860
  -1   0  -1 7700.27  112.22  41 0.43658-0.54985 0.54516-0.54482-0.62083 0.51838
  -1  14   1  511.33   36.60  41 0.43065-0.51770 0.55067 0.31772-0.62127 0.69008
   0  13   2  -15.20   32.65  42 0.43067-0.40214 0.55065 0.25829-0.62127 0.79287
   1  -5 -10   97.29   40.39  43 0.41919-0.47010 0.56115-0.87347-0.62199-0.19419
   1   9   3  193.59   29.40  42 0.42357-0.28547 0.55718 0.00121-0.62174 0.89095
   1  15   2  245.26   38.26  42 0.42451-0.30512 0.55632 0.37429-0.62168 0.80830
   2  -6  -9   22.28   31.37  42 0.43020-0.37054 0.55109-0.92641-0.62130-0.09591
   2  -6  -8 1143.99   38.57  43 0.41976-0.34399 0.56064-0.93542-0.62196-0.01137
   2  -6  -7   32.06   24.91  42 0.42789-0.33751 0.55322-0.92922-0.62146 0.07122
   3  -6  -5  686.97   26.39  42 0.42865-0.21170 0.55252-0.92783-0.62141 0.25637
   3  -5  -3   49.99   20.82  42 0.42999-0.18445 0.55128-0.86363-0.62131 0.42262
   5  -7  -7    8.73   29.01  42 0.43099-0.04924 0.55036-0.98890-0.62124 0.12285
   5  -6  -4   56.26   17.24  41 0.43563-0.01090 0.54605-0.92248-0.62090 0.37354
   6  -7  -7   -4.40   31.89  42 0.43067 0.04783 0.55065-0.98954-0.62127 0.14016
   7  -7  -8   28.05   39.62  41 0.43062 0.12736 0.55070-0.99094-0.62127 0.07436
   7  -5  -3  102.01   19.58  41 0.43403 0.19879 0.54754-0.86239-0.62102 0.49223
   7  -4  -2   -8.07   23.77  42 0.42811 0.22364 0.55302-0.80748-0.62144 0.57572
   7  -3  -1    9.38   24.56  42 0.42987 0.23246 0.55139-0.74149-0.62132 0.65946
   7   0   1  811.63   24.47  41 0.43499 0.25655 0.54665-0.55004-0.62095 0.82671
   8  -1   0  113.31   26.61  41 0.43218 0.33978 0.54926-0.61500-0.62116 0.76030
   8   1   1  250.46   30.70  42 0.43033 0.35670 0.55097-0.49235-0.62129 0.84451
   8   4   2   70.36   33.61  42 0.42963 0.37136 0.55161-0.30694-0.62134 0.92842
   9   0   0    7.83   24.33  41 0.43499 0.43721 0.54665-0.55135-0.62095 0.77742
  10  -3  -3  259.30   31.09  41 0.43371 0.48856 0.54783-0.73953-0.62105 0.54487
  -4   3  -8    0.99   29.78  43 0.41508-0.92188 0.56482-0.37800-0.62232-0.11246
  -4   3  -7  125.91   27.95  42 0.42218-0.91563 0.55841-0.37227-0.62193-0.03103
  -4   3  -6    7.75   24.68  43 0.41851-0.89905 0.56173-0.37461-0.62214 0.05039
  -4   4  -4  309.96   25.56  42 0.41908-0.86707 0.56121-0.31245-0.62211 0.21976
  -4   8  -2  409.56   25.23  43 0.41492-0.83362 0.56497-0.06737-0.62233 0.38780
  -4   9  -2   49.11   26.62  42 0.41696-0.83689 0.56313-0.00249-0.62223 0.38721
  -4  10  -2  216.96   28.85  43 0.41588-0.83517 0.56410 0.05759-0.62228 0.38790
  -4  13  -3   99.52   38.65  42 0.41643-0.85221 0.56361 0.24479-0.62225 0.30446
  -3   0  -7  254.98   29.78  42 0.41633-0.81106 0.56369-0.56389-0.62226-0.01358
  -3   1 -10  240.72   43.16  43 0.41322-0.85356 0.56649-0.50456-0.62242-0.26330
  -3  13  -1   53.08   25.01  42 0.42574-0.73513 0.55515 0.25351-0.62171 0.48839
  -2   7   1 1503.56   31.05  43 0.41396-0.59417 0.56582-0.12998-0.62238 0.67233
  -2   8   1  320.97   19.51  42 0.42284-0.60462 0.55780-0.06051-0.62189 0.67147
  -2   9   1   30.51   18.07  42 0.42542-0.60685 0.55545 0.00497-0.62173 0.67220
  -2  10   1   47.32   18.61  42 0.42284-0.60503 0.55780 0.06399-0.62189 0.67187
  -2  11   1  376.21   28.31  43 0.41580-0.59737 0.56417 0.11854-0.62229 0.67325
  -1   9   2  286.06   23.93  43 0.41383-0.48322 0.56594-0.00692-0.62239 0.77378
   0  -4  -5  667.55   34.37  44 0.40682-0.48094 0.57217-0.82141-0.62271 0.20381
   1  -1   0 4181.99   68.94  42 0.42574-0.32790 0.55515-0.61909-0.62171 0.63845
   1   8   3  298.61   27.35  42 0.41775-0.27996 0.56242-0.06611-0.62218 0.89105
   1  10   3  111.85   27.52  42 0.41840-0.28120 0.56183 0.05895-0.62215 0.89166
   2  -5  -4 1076.86   28.85  43 0.41315-0.27901 0.56655-0.87929-0.62242 0.32197
   2   2   2 3545.15   84.72  43 0.40948-0.18597 0.56982-0.44647-0.62259 0.82489
   3  -2   0  925.57   28.87  43 0.41453-0.12377 0.56531-0.69189-0.62235 0.67370
   5  -7  -9   96.46   27.60  42 0.42413-0.07375 0.55663-0.99650-0.62181-0.04292
   5  -7  -8  294.77   26.01  42 0.42413-0.05844 0.55663-0.99629-0.62181 0.04172
   5   5   3  198.83   34.48  44 0.40169 0.12511 0.57669-0.26943-0.62291 0.96083
   6  -7  -9   68.81   36.95  42 0.41963 0.02621 0.56071-0.99946-0.62208-0.02481
   6  -7  -8   18.72   26.27  42 0.42284 0.03878 0.55780-0.99792-0.62189 0.05736
   6  -5  -3   -7.03   23.94  43 0.41703 0.12141 0.56307-0.87804-0.62222 0.47487
   6  -2   0  122.65   17.47  42 0.42316 0.15670 0.55751-0.68482-0.62187 0.72625
   6   2   2  555.93   28.84  43 0.41527 0.19406 0.56464-0.44450-0.62231 0.89387
   6   6   3   36.12   33.97  43 0.40974 0.21294 0.56959-0.20011-0.62258 0.97850
   7  -6  -5  150.55   22.52  42 0.42123 0.18253 0.55927-0.93643-0.62199 0.32693
   7   3   2  363.71   28.81  43 0.41093 0.29489 0.56853-0.38663-0.62253 0.91182
   8  -6  -6  -23.46   35.36  43 0.41784 0.26875 0.56234-0.93980-0.62218 0.25883
   8  -5  -4   28.05   28.85  43 0.41703 0.29461 0.56307-0.87680-0.62222 0.42714
   9  -5  -5   -0.70   33.98  43 0.41703 0.37620 0.56307-0.87803-0.62222 0.36147
   9   3   1    6.82   32.63  43 0.41411 0.47474 0.56569-0.38354-0.62237 0.86455
  10   0  -1   -8.55   38.63  43 0.41768 0.53558 0.56248-0.56782-0.62219 0.71189
  -4   3  -5 1215.39   31.60  43 0.40754-0.87060 0.57128-0.38418-0.62268 0.13697
  -4   5  -3  196.78   18.97  43 0.41237-0.84593 0.56699-0.25541-0.62246 0.30387
  -4   7  -2  288.16   24.05  43 0.40642-0.82501 0.57228-0.13675-0.62272 0.38851
  -4  11  -2   80.66   23.28  43 0.40945-0.83011 0.56959 0.11503-0.62259 0.38826
  -4  12  -2  464.89   32.46  44 0.40111-0.82142 0.57694 0.16878-0.62293 0.38970
  -3   0  -8    9.08   33.13  44 0.39537-0.80749 0.58193-0.58296-0.62311-0.09892
  -3   0  -6   -3.86   23.60  44 0.40570-0.78664 0.57291-0.57287-0.62275 0.07021
  -3   8   0  137.21   23.22  43 0.40639-0.69889 0.57230-0.07475-0.62273 0.57266
  -3   9   0 1476.62   26.33  43 0.40977-0.70268 0.56930-0.00975-0.62258 0.57275
  -3  10   0   22.31   18.43  43 0.40847-0.70206 0.57046 0.05224-0.62264 0.57228
  -3  11   0  148.64   28.11  43 0.40325-0.69668 0.57507 0.10868-0.62285 0.57273
  -3  14  -1  125.84   28.07  43 0.40912-0.71890 0.56988 0.30056-0.62261 0.48997
  -2  12   1   47.26   30.07  43 0.40433-0.58682 0.57412 0.17237-0.62281 0.67369
  -2  15   0   19.94   35.86  44 0.40390-0.60457 0.57449 0.36229-0.62283 0.59195
  -1   8   2   40.00   17.21  43 0.40912-0.47823 0.56988-0.07301-0.62261 0.77390
  -1  10   2  154.02   20.43  43 0.41107-0.48134 0.56815 0.05336-0.62252 0.77401
  -1  11   2  161.63   28.14  43 0.40372-0.47410 0.57466 0.10793-0.62283 0.77468
  -1  15   1   22.53   36.62  43 0.40717-0.49417 0.57162 0.36073-0.62269 0.69166
   0  -3  -3 3063.86   61.36  44 0.40324-0.44818 0.57507-0.76253-0.62285 0.37030
   0  14   2  142.25   33.60  43 0.40794-0.38360 0.57093 0.29765-0.62266 0.79266
   1  -5  -6  794.76   33.49  44 0.39456-0.38641 0.58263-0.89436-0.62314 0.13883
   1   7   3  363.30   31.71  44 0.39614-0.25691 0.58127-0.14720-0.62309 0.89218
   1  11   3  187.11   30.37  43 0.40722-0.26994 0.57157 0.11043-0.62269 0.89273
   2  13   3  129.84   35.87  43 0.40678-0.17411 0.57195 0.23382-0.62271 0.91068
   3  -6  -6  108.53   22.38  44 0.39871-0.19782 0.57904-0.95477-0.62301 0.17333
   3  -4  -2   35.68   20.70  44 0.40390-0.14282 0.57449-0.82459-0.62283 0.50768
   3  14   3   70.57   44.82  44 0.39768-0.06750 0.57993 0.28758-0.62304 0.92887
   4  -6  -5   16.65   22.99  43 0.40521-0.09186 0.57334-0.94905-0.62277 0.27394
   4  -5  -3 1044.49   22.62  43 0.40977-0.06746 0.56930-0.88272-0.62258 0.44051
   5  -6  -5  386.34   24.90  44 0.40063 0.00876 0.57736-0.95405-0.62295 0.29204
   5  -5  -3   78.29   21.46  43 0.40655 0.03276 0.57216-0.88533-0.62272 0.45849
   5  -2   0  360.04   22.99  44 0.40465 0.07896 0.57384-0.70072-0.62280 0.70898
   6  -6  -5  -17.96   24.10  44 0.40537 0.10231 0.57320-0.94925-0.62277 0.30860
   6  -4  -2  132.30   23.18  44 0.40424 0.14546 0.57419-0.82582-0.62281 0.55975
   6  -3  -1  847.98   26.15  44 0.40471 0.16031 0.57379-0.76315-0.62279 0.64240
   6   0   1  -18.63   20.13  44 0.40227 0.19659 0.57593-0.57952-0.62289 0.81163
   8  -6  -7   -0.36   35.72  43 0.40390 0.26850 0.57449-0.95557-0.62283 0.17538
   8  -4  -3   73.33   28.52  44 0.40463 0.32413 0.57385-0.82662-0.62280 0.51067
   8  -3  -2   -5.03   27.87  44 0.40325 0.34383 0.57507-0.76707-0.62285 0.59422
   8  -2  -1   -2.13   19.70  43 0.41107 0.35028 0.56815-0.69732-0.62252 0.67745
   8   5   2   73.03   37.04  44 0.39705 0.40493 0.58048-0.27418-0.62306 0.93056
   9  -4  -4   27.00   31.43  44 0.40253 0.41009 0.57570-0.83107-0.62288 0.44505
   9  -1  -1  128.00   30.15  43 0.40727 0.44770 0.57152-0.63882-0.62269 0.69602
  10  -1  -2    4.47   34.91  44 0.40194 0.53993 0.57622-0.64533-0.62290 0.62983
  -5   7  -7  114.08   35.04  45 0.38801-0.97820 0.58819-0.15306-0.62343-0.04548
  -5   7  -6  105.92   30.83  45 0.38801-0.96347 0.58819-0.15282-0.62343 0.03792
  -5   8  -7   37.81   36.89  44 0.39505-0.98688 0.58215-0.08461-0.62326-0.04680
  -5   8  -6   95.16   32.57  44 0.39538-0.97213 0.58186-0.08403-0.62325 0.03734
  -5   8  -5  155.55   30.12  45 0.38936-0.94975 0.58704-0.08947-0.62340 0.12167
  -5   9  -6   70.27   28.49  44 0.39866-0.97599 0.57901-0.01906-0.62315 0.03676
  -5   9  -5   -0.02   34.42  45 0.39143-0.95397 0.58527-0.02462-0.62335 0.12134
  -5  10  -5   50.33   37.78  44 0.39193-0.95419 0.58484 0.03740-0.62334 0.12074
  -5  11  -5   47.05   38.17  45 0.38937-0.95038 0.58703 0.09603-0.62340 0.12184
  -4   3  -9  118.69   38.19  44 0.39090-0.91392 0.58572-0.39935-0.62337-0.19628
  -4   6  -2  595.37   26.68  44 0.39161-0.81002 0.58511-0.21135-0.62335 0.38917
  -4  13  -2   54.32   38.07  44 0.39048-0.81100 0.58608 0.22204-0.62338 0.38908
  -3   4  -1    9.46   16.40  44 0.39669-0.70341 0.58072-0.33091-0.62321 0.48824
  -3   7   0  175.74   17.34  44 0.39669-0.68911 0.58072-0.14481-0.62321 0.57266
  -3  12   0  152.13   28.77  44 0.39340-0.68725 0.58357 0.16194-0.62330 0.57423
  -2  -2  -7  392.27   45.67  45 0.38073-0.67879 0.59436-0.71842-0.62355 0.00372
  -2   6   1   -5.73   21.68  45 0.39242-0.57136 0.58442-0.20952-0.62333 0.67564
  -2  13   1  149.67   33.29  44 0.39032-0.57327 0.58622 0.22147-0.62338 0.67449
  -1  -3  -9    0.23   57.16  48 0.33793-0.56938 0.62896-0.81762-0.62312-0.14743
  -1   7   2 1265.71   31.13  44 0.39470-0.46379 0.58245-0.14719-0.62327 0.77456
  -1  12   2   66.99   30.24  44 0.39159-0.46296 0.58512 0.16082-0.62335 0.77511
   1  -5  -9   81.85   34.41  45 0.38279-0.41849 0.59262-0.90520-0.62352-0.11010
   1  -3  -2 1470.83   36.52  45 0.39181-0.32439 0.58494-0.77272-0.62334 0.47197
   1  12   3  246.76   32.37  44 0.39120-0.25419 0.58546 0.15827-0.62336 0.89359
   2   0   1   -6.71   14.98  44 0.39932-0.18914 0.57844-0.58017-0.62313 0.74171
   3  -6 -10   45.81   34.15  45 0.39196-0.25050 0.58481-0.96025-0.62334-0.15854
   3  -3  -1  239.89   17.47  44 0.39669-0.12144 0.58072-0.76927-0.62321 0.59075
   4  -4  -2 1209.26   27.92  45 0.38887-0.03095 0.58746-0.83852-0.62341 0.52542
   4  -2   0   31.06   14.67  44 0.39932-0.01137 0.57844-0.70481-0.62313 0.69237
   5  -4  -2   57.85   21.76  45 0.39077 0.06334 0.58583-0.83676-0.62337 0.54317
   5  -3  -1  167.47   21.33  45 0.38945 0.07964 0.58696-0.77658-0.62340 0.62614
   7  -6  -6    2.27   23.38  44 0.39735 0.19339 0.58015-0.95836-0.62319 0.24223
   7  -5  -4  570.68   27.80  44 0.39274 0.22461 0.58414-0.89855-0.62332 0.41038
   7  -1   0  135.23   23.56  44 0.39425 0.28222 0.58283-0.64863-0.62328 0.74472
   8  -5  -5  231.04   31.01  45 0.38813 0.31135 0.58809-0.90416-0.62343 0.34527
   8   0   0  122.74   26.89  45 0.38688 0.38591 0.58915-0.59333-0.62345 0.76363
   8   2   1   25.53   29.80  45 0.38846 0.39928 0.58781-0.46792-0.62342 0.84677
   9  -3  -3   17.77   30.00  44 0.39307 0.43320 0.58385-0.77634-0.62331 0.52920
   9  -2  -2   48.05   29.13  44 0.39350 0.44628 0.58348-0.71300-0.62330 0.61258
   9   1   0  140.87   31.15  44 0.39515 0.47371 0.58206-0.52548-0.62326 0.78023
  10  -2  -3   21.74   36.07  45 0.39085 0.52806 0.58576-0.71555-0.62337 0.54658
  -5   6  -7  213.85   33.75  46 0.37375-0.96343 0.60011-0.22741-0.62377-0.04483
  -5   6  -6   18.67   29.24  46 0.37413-0.94906 0.59979-0.22644-0.62377 0.03756
  -5   7  -5   -2.68   30.12  46 0.37866-0.94068 0.59601-0.15949-0.62374 0.12142
  -5   8  -4   80.39   27.96  46 0.37377-0.91989 0.60009-0.10240-0.62377 0.20476
  -5   9  -4   14.16   30.65  45 0.37816-0.92510 0.59643-0.03592-0.62374 0.20455
  -5  10  -4   30.07   34.23  45 0.37810-0.92579 0.59649 0.02620-0.62374 0.20475
  -5  11  -4  190.32   34.89  45 0.37635-0.92240 0.59794 0.08544-0.62376 0.20604
  -4   2  -7   81.01   29.48  46 0.37568-0.86791 0.59850-0.47387-0.62376-0.02972
  -4   2  -6    3.90   23.92  46 0.37516-0.85120 0.59894-0.47373-0.62377 0.05576
  -4   3  -4  137.09   22.61  45 0.38104-0.82896 0.59401-0.40707-0.62371 0.22085
  -4   4  -3  280.31   18.71  45 0.38347-0.81651 0.59196-0.34304-0.62368 0.30456
  -4   9  -1 1214.57   31.13  46 0.37606-0.78071 0.59818-0.03857-0.62376 0.47248
  -4  10  -1  150.46   28.21  46 0.37659-0.78137 0.59774 0.02462-0.62376 0.47300
  -3   0  -5   50.22   22.76  45 0.37754-0.74241 0.59695-0.59641-0.62375 0.15490
  -3   6   0   58.23   23.10  45 0.37861-0.67133 0.59606-0.22205-0.62374 0.57241
  -3  13   0    5.03   29.23  46 0.37916-0.67352 0.59560 0.21557-0.62373 0.57642
  -2  -2  -8  575.61   63.99  47 0.35160-0.66414 0.61813-0.74221-0.62362-0.07931
  -2   3   0  269.70   21.45  45 0.38314-0.57806 0.59224-0.40504-0.62368 0.58890
  -2  14   1  104.26   32.05  46 0.37249-0.55658 0.60115 0.26871-0.62378 0.67542
  -1  13   2  533.93   34.88  45 0.37670-0.44873 0.59765 0.20899-0.62376 0.77548
   0   4   2  590.98   30.88  46 0.37359-0.34530 0.60024-0.35131-0.62378 0.79145
   0  15   2    5.50   37.02  46 0.37999-0.35265 0.59490 0.33972-0.62372 0.79651
   1  -5  -8  661.71   35.58  47 0.36662-0.38712 0.60599-0.91842-0.62378-0.02714
   1  -5  -7   70.78   28.88  46 0.37193-0.37807 0.60162-0.91419-0.62378 0.05628
   1  -2  -1 8267.06   84.20  46 0.37767-0.29514 0.59684-0.72296-0.62375 0.55601
   2  -5 -11   -1.82   42.54  46 0.37116-0.33992 0.60226-0.91720-0.62378-0.26040
   2  14   3   -2.52   39.74  46 0.37683-0.14025 0.59755 0.27193-0.62375 0.91269
   3  -6  -9  106.54   33.50  46 0.37702-0.21935 0.59739-0.97378-0.62375-0.07460
   3  -6  -8  101.83   26.82  46 0.37361-0.20064 0.60022-0.97717-0.62377 0.00812
   3  -6  -7  691.67   29.73  46 0.37822-0.19087 0.59638-0.97155-0.62374 0.09082
   4  -6  -6  147.78   25.84  46 0.37718-0.07797 0.59725-0.97304-0.62375 0.19292
   4  -3  -1  259.10   16.85  45 0.38380-0.01085 0.59168-0.78056-0.62367 0.60922
   5  -6  -6   -9.75   24.81  46 0.37566 0.02249 0.59852-0.97732-0.62376 0.20735
   5   2   2   38.70   22.60  46 0.37767 0.13467 0.59684-0.47506-0.62375 0.87793
   6  -6  -6 1139.06   31.29  45 0.38009 0.11161 0.59481-0.97093-0.62372 0.22704
   6  -5  -4   46.21   23.21  46 0.37456 0.14796 0.59943-0.91535-0.62377 0.39305
   6   7   3  162.40   40.28  47 0.36148 0.26134 0.61019-0.17930-0.62375 0.97949
   7  -6  -7   32.93   30.95  45 0.37883 0.19377 0.59587-0.97328-0.62374 0.16052
   7  -4  -3   86.18   25.82  46 0.37593 0.25764 0.59829-0.85152-0.62376 0.49463
   7  -2  -1  103.56   22.87  46 0.37427 0.28818 0.59968-0.72825-0.62377 0.66225
   7   1   1   19.33   18.52  45 0.38380 0.30768 0.59168-0.53340-0.62367 0.82929
   9   4   1  225.83   38.08  46 0.37720 0.50624 0.59724-0.35400-0.62375 0.86445
  10   1  -1   42.64   36.42  45 0.38125 0.56967 0.59384-0.53784-0.62371 0.71439
  -5   6  -8   12.86   40.97  46 0.36407-0.96948 0.60802-0.23493-0.62391-0.12971
  -5   6  -5   10.10   29.59  46 0.36511-0.92576 0.60717-0.23325-0.62392 0.12065
  -5   7  -4  134.25   27.88  46 0.36404-0.90977 0.60804-0.17198-0.62391 0.20457
  -4   2  -8   -0.15   31.53  47 0.36326-0.87091 0.60868-0.48398-0.62391-0.11243
  -4   5  -2  738.62   22.12  46 0.36879-0.78717 0.60415-0.29284-0.62393 0.38835
  -4   8  -1  -12.22   18.06  46 0.37013-0.77366 0.60305-0.10402-0.62393 0.47422
  -4  11  -1  127.91   23.02  46 0.37247-0.77810 0.60111 0.08285-0.62392 0.47329
  -4  12  -1   -2.17   32.33  47 0.36460-0.77012 0.60758 0.14009-0.62392 0.47506
  -3   0  -9   -0.70   37.77  47 0.35973-0.78590 0.61155-0.61255-0.62388-0.18102
  -3   1  -3  201.73   24.74  46 0.36379-0.69952 0.60825-0.54489-0.62391 0.32155
  -3   2  -2  317.39   24.81  46 0.36786-0.68887 0.60491-0.47955-0.62393 0.40496
  -3  14   0   38.03   38.11  46 0.36484-0.66061 0.60739 0.26388-0.62392 0.57494
  -1   3   1   19.68   17.31  46 0.37080-0.45417 0.60249-0.41554-0.62393 0.69016
  -1   6   2    5.44   21.95  46 0.36812-0.43689 0.60470-0.23117-0.62393 0.77471
   1  13   3   68.50   31.08  46 0.36980-0.23378 0.60332 0.20273-0.62393 0.89444
   2  -5  -5  214.74   22.24  47 0.35973-0.24004 0.61154-0.92411-0.62388 0.24075
   3  -5  -4  167.49   16.73  46 0.37180-0.14069 0.60167-0.91484-0.62392 0.34097
   4  -6 -10   -7.34   38.92  47 0.36511-0.12459 0.60717-0.98448-0.62392-0.14226
   4  -6  -7    8.57   25.22  46 0.36410-0.07934 0.60799-0.98834-0.62391 0.10548
   4   5   3  197.02   34.50  48 0.34708 0.08295 0.62166-0.31382-0.62367 0.94411
   5  -5  -4  246.03   23.01  47 0.36080 0.06354 0.61068-0.92481-0.62389 0.37722
   5   0   1   53.33   15.76  46 0.37214 0.12554 0.60139-0.60342-0.62392 0.79512
   6  -6  -7   29.32   30.72  47 0.36343 0.11343 0.60854-0.98584-0.62391 0.14264
   7  -6  -8   -0.21   27.68  46 0.36946 0.19121 0.60360-0.98156-0.62393 0.07604
   7  -5  -5  112.98   26.55  47 0.36074 0.24255 0.61073-0.92646-0.62389 0.32720
   7  -3  -2  406.22   20.75  46 0.36846 0.27958 0.60442-0.79471-0.62393 0.57921
   7   4   2    8.66   28.68  47 0.36398 0.34129 0.60810-0.36329-0.62391 0.91344
   8  -5  -6  186.02   34.86  47 0.36354 0.32147 0.60845-0.92483-0.62391 0.26214
   8  -4  -4  510.67   32.03  47 0.36456 0.34998 0.60762-0.86002-0.62392 0.42917
   8  -1  -1  524.75   27.73  47 0.36079 0.39767 0.61069-0.67720-0.62389 0.68012
   8   6   2  133.51   36.83  47 0.36405 0.43745 0.60803-0.24035-0.62391 0.93079
   9  -4  -5   31.23   27.36  46 0.37013 0.42621 0.60305-0.85807-0.62393 0.36207
   9   0  -1  140.98   32.36  47 0.36358 0.49099 0.60842-0.61367-0.62391 0.69678
  10   0  -2  245.39   35.75  47 0.36008 0.57675 0.61126-0.61743-0.62388 0.63118
  -5   5  -7  129.55   35.07  47 0.35121-0.94133 0.61837-0.30733-0.62380-0.04627
  -5   5  -6  192.57   32.20  47 0.35122-0.92625 0.61836-0.30773-0.62380 0.03823
  -5   6  -4   15.56   25.73  47 0.35010-0.89303 0.61925-0.24617-0.62378 0.20526
  -5   8  -3  251.25   29.41  47 0.35062-0.88147 0.61884-0.12107-0.62379 0.28840
  -5   9  -3  -14.92   22.37  47 0.35632-0.88756 0.61428-0.05331-0.62388 0.28948
  -5  10  -3  399.86   24.92  47 0.35767-0.88932 0.61320 0.00878-0.62390 0.28975
  -5  11  -3  103.25   25.52  47 0.35497-0.88736 0.61536 0.06892-0.62386 0.28976
  -5  12  -3   56.77   38.46  47 0.35034-0.88238 0.61906 0.12736-0.62378 0.28868
  -4   2  -5   33.15   23.62  47 0.35453-0.81848 0.61572-0.49080-0.62385 0.13638
  -4   7  -1  -12.37   17.49  47 0.35868-0.76191 0.61238-0.17549-0.62391 0.47408
  -4  13  -1   88.70   25.96  47 0.35497-0.76114 0.61536 0.19339-0.62386 0.47416
  -3   5   0  279.52   25.01  48 0.35012-0.64201 0.61924-0.30779-0.62378 0.57215
  -2  -2  -6  687.77   53.59  48 0.33635-0.61934 0.63004-0.75421-0.62340 0.08697
  -2   5   1  513.56   21.67  47 0.36036-0.54103 0.61102-0.29936-0.62393 0.67316
  -2  15   1  100.60   35.91  47 0.35328-0.53720 0.61672 0.31508-0.62383 0.67553
  -1  14   2  107.54   27.64  47 0.35733-0.42876 0.61347 0.25582-0.62389 0.77696
   0  -4  -9  106.64   36.91  49 0.34018-0.47250 0.62706-0.87766-0.62353-0.12799
   0  -4  -6  467.89   32.77  49 0.33845-0.42701 0.62840-0.87805-0.62347 0.12148
   0   9   3 2562.03   41.66  47 0.35373-0.31287 0.61635-0.05778-0.62384 0.87585
   0  10   3  335.80   22.29  47 0.35733-0.31706 0.61347 0.00697-0.62389 0.87585
   0  11   3   19.64   28.55  47 0.35223-0.31121 0.61755 0.06624-0.62382 0.87693
   1   6   3 2040.13   48.89  48 0.34275-0.20377 0.62505-0.25258-0.62360 0.89230
   1  14   3  226.41   36.48  48 0.34669-0.21040 0.62195 0.24578-0.62370 0.89428
   2  -4  -3  169.93   16.70  47 0.35632-0.20653 0.61428-0.86461-0.62388 0.40726
   3   0   1  960.15   30.87  48 0.35094-0.04548 0.61858-0.62006-0.62379 0.75928
   4  -6  -9   24.47   30.23  48 0.35093-0.09794 0.61859-0.99396-0.62379-0.05726
   4  -6  -8    1.08   29.82  48 0.35091-0.08049 0.61860-0.99531-0.62379 0.02415
   4  -5  -4  206.00   17.25  47 0.35800-0.02933 0.61292-0.92658-0.62390 0.35899
   4   0   1    2.36   20.96  48 0.35125 0.05227 0.61833-0.62059-0.62380 0.77649
   4   2   2  245.87   24.25  48 0.34937 0.06697 0.61983-0.49794-0.62376 0.86056
   5  -6 -10   73.36   36.84  47 0.35462-0.01974 0.61564-0.99261-0.62385-0.12462
   5  -6  -9  358.63   34.03  48 0.34721 0.00281 0.62154-0.99930-0.62371-0.04073
   5  -6  -8   97.23   28.89  48 0.34719 0.01827 0.62156-0.99894-0.62371 0.04239
   5  -6  -7  847.85   25.81  47 0.35598 0.02445 0.61455-0.99158-0.62387 0.12603
   6  -6  -9    3.28   35.39  48 0.35058 0.09502 0.61887-0.99537-0.62378-0.02243
   6  -6  -8  260.17   32.00  47 0.35274 0.10878 0.61714-0.99365-0.62382 0.05984
   6  -4  -3    5.71   23.80  48 0.34990 0.18677 0.61941-0.87200-0.62377 0.47687
   6  -1   0  192.29   17.38  47 0.35935 0.22075 0.61184-0.67746-0.62392 0.72813
   6   3   2   77.87   23.86  47 0.35380 0.25475 0.61630-0.43290-0.62384 0.89523
   8  -3  -3   44.02   28.42  48 0.35112 0.37747 0.61844-0.80901-0.62380 0.51143
   8  -2  -2  344.99   29.15  48 0.34998 0.39331 0.61935-0.74848-0.62377 0.59582
   8   3   1  -18.60   28.05  48 0.34787 0.44429 0.62102-0.43849-0.62373 0.84793
   9  -3  -4  498.60   32.31  48 0.35166 0.45854 0.61801-0.80915-0.62381 0.44613
   9  -1  -2  134.75   30.31  48 0.34787 0.49237 0.62102-0.68833-0.62373 0.61321
   9   2   0  122.88   31.57  47 0.35500 0.51411 0.61534-0.49585-0.62386 0.78087
   9   5   1   16.89   35.58  48 0.34727 0.53770 0.62149-0.31569-0.62371 0.86566
  10  -2  -4  124.72   35.68  47 0.35216 0.55355 0.61761-0.74781-0.62381 0.46330
  10  -1  -3   19.54   38.66  48 0.35063 0.57105 0.61883-0.68696-0.62379 0.54680
  10   2  -1   21.73   37.20  47 0.35007 0.60620 0.61927-0.50176-0.62377 0.71669
  -5   5  -8   52.33   35.90  48 0.33927-0.94581 0.62765-0.31661-0.62352-0.13140
  -5   5  -5   97.47   27.01  48 0.34102-0.90204 0.62628-0.31515-0.62357 0.12068
  -5   7  -3  235.62   27.81  48 0.33852-0.86895 0.62824-0.19292-0.62350 0.28885
  -4   2  -9   74.83   37.72  48 0.33640-0.85872 0.62988-0.50586-0.62343-0.19628
  -4   3  -3  877.97   27.61  48 0.33992-0.77290 0.62714-0.44005-0.62354 0.30421
  -4   4  -2  651.02   25.78  49 0.33406-0.75215 0.63169-0.38197-0.62335 0.38797
  -4   6  -1   10.41   22.40  48 0.33969-0.74385 0.62732-0.25293-0.62353 0.47169
  -4  14  -1   62.39   30.25  48 0.34241-0.74904 0.62519 0.24548-0.62361 0.47330
  -3   3  -1    2.75   16.44  48 0.34581-0.65073 0.62252-0.43465-0.62370 0.49066
  -3   9   1   -1.23   18.27  48 0.34173-0.61816 0.62573-0.06467-0.62359 0.65871
  -3  10   1  162.40   19.46  48 0.34445-0.62279 0.62359-0.00220-0.62367 0.65746
  -3  11   1   66.17   20.28  48 0.34241-0.62102 0.62519 0.05966-0.62361 0.65750
  -3  12   1  669.76   32.77  48 0.33638-0.61508 0.62989 0.11510-0.62343 0.65759
  -2   0  -2  713.22   32.96  48 0.33837-0.56269 0.62835-0.62784-0.62349 0.42101
  -2   9   2   30.39   24.41  49 0.33556-0.50182 0.63053-0.07062-0.62340 0.75709
  -2  10   2  321.55   27.17  48 0.33792-0.50529 0.62870-0.00791-0.62348 0.75778
  -2  11   2  332.97   29.86  48 0.33658-0.50396 0.62974 0.05356-0.62343 0.75768
  -1   1   0 4241.41   72.91  49 0.33586-0.43423 0.63030-0.56672-0.62341 0.60596
  -1  15   2   93.84   40.44  48 0.33681-0.40865 0.62956 0.30209-0.62344 0.77581
   0   8   3  106.80   24.81  48 0.34024-0.29856 0.62689-0.12973-0.62355 0.87550
   0  12   3   34.70   27.81  49 0.33873-0.29822 0.62807 0.11994-0.62350 0.87853
   1  -4  -4    6.68   20.45  49 0.33890-0.30077 0.62793-0.87698-0.62351 0.30637
   2  -5 -10   41.81   35.68  50 0.32704-0.28192 0.63706-0.94980-0.62307-0.17651
   3   2   2  318.37   26.12  49 0.33817-0.01850 0.62851-0.50579-0.62349 0.84265
   5   6   3   10.82   33.38  50 0.32447 0.20222 0.63901-0.26850-0.62295 0.96193
   6  -5  -5  551.31   28.17  49 0.33718 0.16857 0.62928-0.94349-0.62345 0.30982
   6  -3  -2   10.66   21.77  48 0.33734 0.21380 0.62915-0.81914-0.62346 0.56016
   6  -2  -1  204.58   22.30  49 0.33821 0.22648 0.62848-0.75571-0.62349 0.64334
   6   1   1   93.51   23.05  49 0.33632 0.25901 0.62994-0.57163-0.62342 0.81092
   6   8   3   48.98   44.54  50 0.31468 0.30802 0.64636-0.15299-0.62246 0.97869
   7  -5  -6  511.50   32.18  49 0.33530 0.25282 0.63073-0.94667-0.62339 0.24435
   7   0   0    4.29   24.05  49 0.33697 0.33915 0.62944-0.63286-0.62345 0.74457
   8  -5  -7   64.44   27.81  48 0.34581 0.32444 0.62252-0.93945-0.62370 0.17731
   8  -4  -5    1.55   28.91  49 0.33492 0.36925 0.63102-0.88666-0.62338 0.34286
   8   1   0  112.36   28.20  49 0.33776 0.43476 0.62883-0.57100-0.62347 0.76268
   8   7   2   18.41   38.40  49 0.33585 0.46568 0.63030-0.19980-0.62341 0.93154
   9  -4  -6   -9.54   28.90  48 0.34513 0.43840 0.62306-0.87748-0.62369 0.27719
   9  -2  -3   16.88   24.31  48 0.34513 0.48083 0.62306-0.75313-0.62369 0.52935
  -5   4  -7  136.82   31.38  50 0.31928-0.90888 0.64295-0.39391-0.62274-0.04655
  -5   4  -6  134.68   28.01  50 0.32003-0.89417 0.64239-0.39379-0.62278 0.03717
  -5   5  -4  289.49   27.92  49 0.32335-0.86784 0.63989-0.32885-0.62294 0.20430
  -5   6  -3    5.18   23.72  50 0.32025-0.85123 0.64222-0.26797-0.62279 0.28659
  -5   9  -2   18.64   27.54  49 0.32609-0.84300 0.63781-0.07711-0.62307 0.37099
  -5  10  -2   -6.57   22.28  49 0.32918-0.84561 0.63546-0.01239-0.62320 0.37269
  -5  11  -2  262.08   25.81  49 0.32781-0.84467 0.63651 0.04732-0.62314 0.37321
  -5  12  -2  -15.20   36.71  50 0.32335-0.84044 0.63989 0.10717-0.62294 0.37283
  -4   2  -4   10.53   23.42  50 0.32381-0.77206 0.63954-0.51450-0.62296 0.21960
  -4   9   0    0.97   25.58  50 0.32352-0.71230 0.63976-0.07855-0.62295 0.55715
  -4  10   0   27.10   26.00  49 0.32712-0.71764 0.63703-0.01424-0.62311 0.55569
  -4  11   0  128.62   28.58  49 0.32596-0.71653 0.63791 0.04619-0.62306 0.55628
  -4  12   0  160.03   30.13  50 0.32113-0.71199 0.64156 0.10386-0.62283 0.55617
  -3   0  -4    2.86   21.15  49 0.32335-0.67238 0.63989-0.63886-0.62294 0.23719
  -3   8   1  556.62   21.60  49 0.33294-0.61086 0.63258-0.13514-0.62335 0.65630
  -3  13   1    8.46   30.61  50 0.32472-0.60317 0.63885 0.17189-0.62300 0.65924
  -2   1  -1 5946.64   64.66  49 0.33225-0.54225 0.63310-0.56962-0.62332 0.50455
  -2   8   2  328.59   25.48  49 0.32373-0.49078 0.63960-0.14200-0.62296 0.75622
  -2  12   2   64.90   22.35  49 0.32918-0.49705 0.63546 0.11051-0.62320 0.75809
  -2  13   2  122.10   31.31  50 0.31853-0.48683 0.64351 0.16439-0.62270 0.75763
  -1   5   2 2606.76   42.23  50 0.32104-0.38956 0.64163-0.33014-0.62283 0.77333
   0  -4  -8  804.55   40.82  51 0.30941-0.42638 0.65028-0.90137-0.62219-0.04644
   0  13   3  139.67   31.84  49 0.32730-0.28792 0.63689 0.16940-0.62312 0.87647
   1  -4 -11   17.65   41.17  51 0.31108-0.37774 0.64905-0.89987-0.62229-0.27738
   1  15   3   -3.18   39.23  50 0.32077-0.18112 0.64183 0.28832-0.62282 0.89398
   2  -5  -6  162.56   24.06  50 0.32274-0.21792 0.64035-0.95329-0.62291 0.15630
   2   5   3  388.25   55.63  52 0.29354-0.05701 0.66179-0.35176-0.62111 0.90711
   3  -5 -11    1.85   40.57  50 0.32180-0.19332 0.64106-0.95747-0.62287-0.24478
   3  -5  -5   21.75   21.81  49 0.32481-0.10802 0.63878-0.95174-0.62301 0.25664
   3  -4  -3    4.28   19.91  50 0.32335-0.07714 0.63989-0.88970-0.62294 0.42376
   3   5   3  340.84   50.17  53 0.27712 0.05660 0.67333-0.36420-0.61975 0.92306
   4  -4  -3  366.43   21.88  50 0.31993 0.02270 0.64247-0.89377-0.62277 0.44084
   5  -5  -5   93.06   24.65  50 0.32271 0.08805 0.64037-0.95526-0.62291 0.29084
   5  -4  -3 1013.08   22.98  49 0.33020 0.10915 0.63468-0.88654-0.62324 0.45900
   5  -1   0 1135.93   24.54  49 0.32815 0.15615 0.63625-0.70154-0.62315 0.70972
   7  -4  -4   28.29   19.01  49 0.33260 0.28572 0.63284-0.88611-0.62333 0.41020
   7   2   1  222.58   20.68  49 0.33020 0.36101 0.63468-0.51490-0.62324 0.82876
   7   5   2   46.15   32.67  50 0.31462 0.38943 0.64643-0.33996-0.62249 0.91141
   9  -3  -5    8.78   32.30  50 0.32180 0.47859 0.64106-0.83430-0.62287 0.35964
   9   1  -1  140.30   30.37  50 0.32090 0.53447 0.64174-0.58520-0.62282 0.69621
   9   6   1   26.05   42.29  50 0.31543 0.56800 0.64583-0.27828-0.62254 0.86395
  10   1  -2    2.31   34.76  50 0.32197 0.61850 0.64093-0.58462-0.62287 0.62893
  -5   4  -8   11.09   37.64  51 0.30776-0.91230 0.65146-0.40288-0.62208-0.13184
  -5   4  -5  320.36   30.19  50 0.30948-0.86900 0.65020-0.40151-0.62219 0.11942
  -5   8  -2    0.18   19.74  50 0.31818-0.83394 0.64374-0.14486-0.62268 0.37187
  -5  13  -2  106.12   30.90  50 0.31508-0.83364 0.64606 0.16282-0.62251 0.37141
  -4   5  -1  639.82   26.26  50 0.31128-0.71455 0.64887-0.33734-0.62229 0.47056
  -4   8   0  204.35   19.25  50 0.31439-0.70365 0.64657-0.14876-0.62247 0.55536
  -4  13   0  107.61   33.30  50 0.31203-0.70366 0.64832 0.16044-0.62234 0.55601
  -3   7   1   32.30   16.29  50 0.31611-0.59310 0.64529-0.20959-0.62257 0.65613
  -3  14   1   31.63   34.84  50 0.31232-0.59264 0.64810 0.22266-0.62235 0.65686
  -2   4   1 3338.12   44.74  51 0.30743-0.48769 0.65170-0.40185-0.62206 0.67136
   0  -4  -7   76.05   28.90  51 0.30578-0.40789 0.65291-0.90315-0.62196 0.03767
   0   7   3  339.99   27.13  50 0.31046-0.26819 0.64948-0.21522-0.62224 0.87410
   0  14   3   86.80   37.80  51 0.30913-0.26900 0.65045 0.21897-0.62216 0.87563
   2  -5  -9  105.23   30.58  51 0.30609-0.24479 0.65268-0.96707-0.62198-0.09419
   2  -3  -2  205.02   17.93  50 0.31439-0.15038 0.64657-0.83482-0.62247 0.48860
   2  -1   0   18.40   17.68  50 0.31439-0.12113 0.64657-0.70950-0.62247 0.65704
   4  -5  -5  292.74   18.68  50 0.31680-0.00361 0.64477-0.95879-0.62260 0.27412
   5  -3  -2   -0.82   19.27  51 0.31093 0.14430 0.64913-0.83797-0.62227 0.54093
   5  -2  -1 1251.31   27.93  51 0.30966 0.15947 0.65007-0.77682-0.62220 0.62537
   6  -5  -6  265.65   27.39  51 0.31018 0.18173 0.64968-0.96375-0.62223 0.22510
   7  -5  -8  165.54   33.59  51 0.30678 0.25249 0.65218-0.96836-0.62202 0.07566
   7  -5  -7    1.56   22.94  50 0.31749 0.25848 0.64426-0.96024-0.62264 0.15791
   7  -3  -3  122.32   18.06  50 0.31439 0.31905 0.64657-0.83728-0.62247 0.49351
   7  -2  -2  165.08   24.92  51 0.30748 0.33900 0.65167-0.78025-0.62206 0.57710
   7  -1  -1  388.56   19.91  50 0.31439 0.34770 0.64657-0.71280-0.62247 0.66057
   8  -4  -6  337.99   31.20  51 0.30713 0.37785 0.65192-0.90592-0.62204 0.26132
   8  -3  -4    3.53   29.24  51 0.31007 0.40663 0.64976-0.84103-0.62222 0.42540
   8   0  -1    5.21   27.18  51 0.30938 0.45177 0.65027-0.65472-0.62218 0.67696
   8   8   2  168.00   41.48  51 0.30839 0.49275 0.65100-0.15929-0.62212 0.92988
   9   3   0   71.54   26.35  50 0.31611 0.55319 0.64529-0.46377-0.62257 0.78007
  10  -1  -4   16.98   40.12  51 0.30955 0.59731 0.65014-0.71830-0.62219 0.46153
  10   0  -3   -2.14   38.24  51 0.30955 0.61432 0.65014-0.65583-0.62219 0.54401
  10   3  -1  164.28   41.83  51 0.30977 0.64119 0.64999-0.46935-0.62220 0.71303
  -6   8  -6  103.57   37.91  52 0.29313-0.96581 0.66194-0.16454-0.62099 0.01782
  -6   9  -5   -4.98   39.70  52 0.29558-0.95454 0.66018-0.09984-0.62117 0.10200
  -5   5  -3  195.69   26.05  52 0.29404-0.82374 0.66129-0.34943-0.62106 0.28552
  -5   7  -2  253.48   20.85  51 0.30427-0.82003 0.65390-0.21870-0.62178 0.36963
  -5  10  -1  445.55   30.22  52 0.29180-0.79369 0.66288-0.04058-0.62089 0.45368
  -5  11  -1   25.14   30.48  51 0.29545-0.79508 0.66027 0.02211-0.62117 0.45336
  -4   1  -7    3.50   28.19  51 0.29906-0.79164 0.65768-0.59555-0.62143-0.03258
  -4   1  -6   10.06   25.98  51 0.29732-0.77479 0.65893-0.59645-0.62130 0.05086
  -4   7   0  443.28   25.26  51 0.29851-0.68765 0.65807-0.22266-0.62139 0.55364
  -4  14   0   89.46   30.03  51 0.30045-0.69237 0.65667 0.21431-0.62152 0.55536
  -3   0 -10   -5.49   51.38  53 0.28328-0.72504 0.66890-0.67092-0.62020-0.26770
  -3   4   0  383.09   19.90  51 0.30566-0.59769 0.65289-0.40284-0.62187 0.57031
  -2   7   2  374.80   20.02  51 0.30323-0.46984 0.65466-0.21962-0.62171 0.75470
  -2  14   2  169.63   27.59  51 0.30392-0.47343 0.65415 0.21422-0.62176 0.75694
  -1  10   3  515.33   29.13  51 0.29602-0.35205 0.65986-0.03916-0.62121 0.85624
  -1  11   3   26.12   27.55  51 0.29649-0.35202 0.65953 0.02455-0.62124 0.85719
  -1  12   3   17.63   27.88  52 0.29140-0.34736 0.66317 0.08278-0.62086 0.85687
   0  -2  -2  479.93   34.84  52 0.29478-0.32504 0.66075-0.78593-0.62112 0.45225
   2  -5  -8  359.87   29.97  52 0.29541-0.21979 0.66031-0.97371-0.62116-0.01207
   2  -5  -7  165.29   24.52  51 0.30036-0.20987 0.65674-0.96959-0.62152 0.07162
   2  -2  -1  341.97   25.01  52 0.29558-0.11696 0.66018-0.78577-0.62117 0.57167
   3  -5 -10  142.79   33.38  52 0.29000-0.14765 0.66416-0.97921-0.62075-0.16205
   3  -5  -6  154.77   23.80  52 0.29316-0.09161 0.66191-0.97567-0.62099 0.17204
   3  -3  -2 3225.37   39.65  52 0.29216-0.03122 0.66263-0.85156-0.62092 0.50469
   3  -1   0   35.48   20.60  52 0.29402-0.00477 0.66130-0.72513-0.62106 0.67290
   4  -3  -2  293.04   22.45  52 0.29526 0.06258 0.66041-0.84971-0.62115 0.52264
   4  -1   0   63.45   15.18  51 0.30358 0.08374 0.65440-0.71879-0.62173 0.69093
   5  -5  -6  338.77   27.25  52 0.29419 0.10041 0.66118-0.97595-0.62107 0.20641
   5   3   2   51.70   23.96  52 0.29585 0.21641 0.65998-0.47660-0.62119 0.87545
   6  -5  -7   46.03   28.91  52 0.29349 0.18362 0.66167-0.97750-0.62102 0.13966
   6  -4  -4   22.90   17.05  51 0.30323 0.21849 0.65466-0.90744-0.62171 0.39101
   6   4   2  429.68   29.56  52 0.29192 0.31746 0.66280-0.41861-0.62090 0.89295
   6   9   3    1.54   49.90  53 0.27344 0.34890 0.67572-0.11991-0.61931 0.97673
   7  -5  -9   -0.75   29.65  51 0.30392 0.24203 0.65415-0.97039-0.62176-0.00974
   7  -4  -5  501.37   27.62  52 0.29640 0.30626 0.65959-0.91193-0.62123 0.32501
   8  -2  -3    3.64   27.49  51 0.29767 0.43191 0.65868-0.78823-0.62133 0.50943
   8  -1  -2    0.45   26.46  52 0.29610 0.44993 0.65980-0.72646-0.62121 0.59192
   8   4   1   51.71   29.53  51 0.29993 0.48639 0.65705-0.41309-0.62149 0.84434
   9  -3  -6  650.04   39.49  52 0.29455 0.48693 0.66092-0.85369-0.62110 0.27741
   9  -2  -4   20.78   24.98  51 0.30392 0.50756 0.65415-0.78472-0.62176 0.44378
   9  -1  -3  152.56   32.68  52 0.29603 0.52892 0.65986-0.72718-0.62121 0.52699
   9   0  -2   10.20   22.91  51 0.30219 0.54069 0.65541-0.66078-0.62164 0.61004
  -6   7  -6   64.28   35.78  53 0.27927-0.95101 0.67160-0.23648-0.61981 0.01681
  -6   8  -5  -22.21   32.40  53 0.28439-0.94537 0.66802-0.16890-0.62025 0.09985
  -6   9  -4   -6.41   36.69  53 0.28229-0.92679 0.66950-0.10878-0.62007 0.18452
  -6  10  -4  188.50   30.67  52 0.28858-0.93188 0.66507-0.04303-0.62059 0.18560
  -5   4  -4  144.79   19.97  52 0.28788-0.83300 0.66556-0.41599-0.62054 0.20121
  -5   6  -2   98.62   25.70  52 0.28333-0.79817 0.66877-0.29582-0.62016 0.36839
  -5   9  -1   -2.06   20.45  52 0.28684-0.78793 0.66630-0.10506-0.62045 0.45359
  -5  12  -1  -12.96   26.74  52 0.28928-0.79130 0.66457 0.08270-0.62065 0.45441
  -5  13  -1  -31.22   39.75  53 0.28194-0.78485 0.66974 0.13980-0.62004 0.45421
  -4   1  -8    9.25   31.70  52 0.28256-0.79019 0.66931-0.60763-0.62009-0.11743
  -4   1  -5  216.04   26.59  53 0.27861-0.73999 0.67206-0.61002-0.61975 0.13313
  -4   2  -3  -16.75   21.24  53 0.27931-0.70978 0.67157-0.54589-0.61981 0.30235
  -4   3  -2   17.19   23.52  52 0.28290-0.70173 0.66907-0.48140-0.62012 0.38411
  -3   6   1 3608.70   36.91  52 0.28963-0.56682 0.66433-0.29032-0.62068 0.65361
  -2  -1  -3 2537.07   61.43  53 0.27043-0.50932 0.67769-0.73950-0.61899 0.33260
  -2   2   0 9716.32   75.15  52 0.28893-0.48417 0.66482-0.53880-0.62062 0.58606
  -2  15   2   -4.35   37.74  53 0.28386-0.45068 0.66839 0.26697-0.62021 0.75887
  -1  -3  -6 1397.95   62.34  55 0.24930-0.43454 0.69184-0.87943-0.61674 0.09688
  -1   9   3   13.92   17.08  52 0.28753-0.34239 0.66581-0.10592-0.62051 0.85588
  -1  13   3  -22.21   33.67  53 0.28124-0.33452 0.67023 0.13865-0.61998 0.85762
   0  15   3  320.67   40.33  52 0.28564-0.24691 0.66714 0.26465-0.62035 0.87421
   2  -4  -4  222.72   23.50  53 0.27885-0.14414 0.67189-0.92245-0.61977 0.31960
   3  -2  -1  207.03   22.15  53 0.27843-0.00274 0.67218-0.79833-0.61973 0.58783
   4  -5 -10  198.84   34.03  53 0.27657-0.03651 0.67347-0.98981-0.61956-0.14532
   4  -5  -6   19.15   17.22  52 0.28614 0.01239 0.66680-0.98105-0.62040 0.18777
   4  -2  -1  471.15   19.17  52 0.28788 0.08465 0.66556-0.79277-0.62054 0.60562
   5  -5 -10   -3.83   35.31  53 0.27948 0.05866 0.67145-0.98890-0.61983-0.13097
   5  -4  -4  218.51   23.08  53 0.27948 0.14546 0.67145-0.92351-0.61983 0.37279
   5   1   1   54.86   15.83  52 0.28963 0.20780 0.66433-0.60570-0.62068 0.79082
   6  -5  -9  118.13   36.57  53 0.28124 0.16575 0.67023-0.98571-0.61998-0.02685
   6  -5  -8    7.08   32.00  53 0.28281 0.18096 0.66913-0.98413-0.62012 0.05503
   6  -3  -3 1246.51   28.37  53 0.27846 0.25779 0.67216-0.86214-0.61973 0.47401
   6   0   0  128.57   17.52  52 0.29033 0.28960 0.66383-0.66779-0.62073 0.72488
   7   1   0  143.72   25.76  53 0.27988 0.39655 0.67118-0.61322-0.61986 0.74234
   8  -4  -8  165.55   36.05  53 0.27807 0.37778 0.67243-0.92764-0.61970 0.09080
   8  -4  -7   54.00   26.35  52 0.28858 0.38142 0.66507-0.91977-0.62059 0.17432
   8   2   0  333.25   24.54  52 0.28928 0.48383 0.66457-0.54500-0.62065 0.76013
   9   2  -1  179.86   30.95  53 0.27750 0.57820 0.67283-0.55359-0.61965 0.69392
   9   4   0   80.42   33.34  53 0.27829 0.59180 0.67228-0.42905-0.61972 0.77778
  10   2  -2   24.15   38.52  53 0.28181 0.65451 0.66983-0.55182-0.62003 0.62742
  -6   7  -5  278.41   32.93  53 0.27168-0.92969 0.67678-0.24229-0.61889 0.09945
  -6   8  -4   26.00   25.01  53 0.27317-0.91703 0.67575-0.17743-0.61903 0.18256
  -6   9  -3   15.29   30.82  53 0.26584-0.89166 0.68075-0.12157-0.61831 0.26622
  -6  10  -3   12.29   36.40  53 0.26895-0.89814 0.67864-0.05595-0.61863 0.26621
  -6  11  -3  222.76   35.80  53 0.27036-0.89970 0.67768 0.00590-0.61876 0.26730
  -5   3  -7   35.69   29.86  53 0.27129-0.86198 0.67704-0.49057-0.61885-0.05239
  -5   3  -6  178.59   28.28  53 0.27275-0.84761 0.67604-0.49015-0.61899 0.03277
  -5   3  -5   -3.32   24.50  54 0.26472-0.82298 0.68151-0.49416-0.61820 0.11639
  -5   8  -1  644.56   23.35  53 0.27668-0.77798 0.67333-0.17588-0.61936 0.45089
  -4   4  -1   15.73   22.26  53 0.26965-0.67335 0.67816-0.42811-0.61869 0.46658
  -4   6   0  107.94   18.01  53 0.27458-0.66361 0.67478-0.30136-0.61917 0.55065
  -4  10   1   13.33   27.42  53 0.26784-0.64305 0.67940-0.05663-0.61852 0.63478
  -4  11   1  186.46   30.56  53 0.26893-0.64537 0.67865 0.00522-0.61862 0.63512
  -4  12   1  104.51   31.59  53 0.26713-0.64305 0.67987 0.06685-0.61845 0.63522
  -3   1  -2 1924.13   37.68  53 0.27000-0.59136 0.67792-0.61499-0.61873 0.39926
  -3   2  -1 2071.32   37.89  53 0.26821-0.57496 0.67915-0.55359-0.61855 0.48303
  -3  10   2   -2.37   26.63  54 0.26719-0.52851 0.67984-0.05670-0.61845 0.73744
  -3  11   2  300.75   29.83  53 0.26890-0.53341 0.67867 0.00386-0.61862 0.73593
  -3  12   2   25.71   31.18  53 0.26711-0.53104 0.67989 0.06642-0.61844 0.73582
  -2   6   2  299.26   25.24  53 0.26941-0.43579 0.67833-0.30515-0.61867 0.75183
  -1   8   3 1806.22   35.27  53 0.26904-0.32432 0.67858-0.18153-0.61863 0.85339
  -1  14   3  189.89   38.13  53 0.26722-0.32369 0.67981 0.18950-0.61845 0.85489
   0  -3 -11   -1.33   47.77  54 0.26048-0.42436 0.68436-0.87498-0.61776-0.30135
   1  -4 -10   48.15   39.09  55 0.25467-0.30570 0.68823-0.93961-0.61713-0.20062
   1  -4  -5 1715.11   37.54  54 0.26787-0.24511 0.67938-0.92957-0.61852 0.21695
   3  -5  -9   35.68   28.93  53 0.27107-0.11455 0.67719-0.99119-0.61883-0.08082
   3  -5  -8  439.91   30.23  54 0.26683-0.09538 0.68008-0.99456-0.61841 0.00245
   3  -5  -7   31.46   18.98  53 0.27352-0.08677 0.67551-0.98983-0.61907 0.08539
   4  -5  -9  185.21   30.11  54 0.26351-0.01009 0.68233-0.99819-0.61808-0.06440
   4  -5  -7 1023.40   31.68  54 0.26725 0.01560 0.67980-0.99418-0.61846 0.10294
   4  -4  -4 1130.11   27.07  54 0.26406 0.06367 0.68196-0.93406-0.61813 0.35294
   5  -5  -9  -19.37   33.60  54 0.26789 0.08439 0.67936-0.99519-0.61852-0.04746
   5  -5  -8  120.29   30.59  54 0.26699 0.09796 0.67998-0.99543-0.61843 0.03643
   5  -5  -7   18.19   20.17  53 0.27598 0.10429 0.67382-0.98915-0.61930 0.12049
   6  -4  -5   99.17   25.39  54 0.26648 0.23968 0.68032-0.93353-0.61838 0.30494
   6  -2  -2  577.68   25.16  54 0.26619 0.28437 0.68051-0.80892-0.61835 0.55545
   6  -1  -1  470.73   25.00  54 0.26768 0.29772 0.67950-0.74488-0.61850 0.63896
   6   2   1   58.17   23.12  54 0.26734 0.32750 0.67973-0.55897-0.61847 0.80660
   7  -4  -6   36.64   27.25  53 0.26980 0.31735 0.67806-0.93085-0.61871 0.23907
   7  -3  -4  -14.66   25.29  54 0.26842 0.35134 0.67900-0.86962-0.61857 0.40460
   7   3   1   -4.83   18.84  53 0.27458 0.41928 0.67478-0.49169-0.61917 0.82505
   7   6   2   12.53   30.21  53 0.26890 0.43618 0.67867-0.30964-0.61862 0.90886
   8  -3  -5  189.33   22.90  53 0.27633 0.42348 0.67357-0.86577-0.61933 0.34137
   9  -2  -5  183.47   31.99  54 0.26825 0.52626 0.67911-0.80875-0.61856 0.35758
  10   0  -4    0.45   40.65  54 0.26754 0.64153 0.67960-0.68572-0.61849 0.45708
  10   1  -3   14.59   39.06  54 0.26824 0.65512 0.67912-0.62265-0.61856 0.54081
  -6   6  -7   -1.83   41.43  55 0.25320-0.94129 0.68914-0.31605-0.61689-0.06995
  -6   6  -6   13.66   34.49  54 0.25621-0.92933 0.68714-0.31398-0.61722 0.01312
  -6   6  -5   -3.86   30.35  55 0.25161-0.90807 0.69019-0.31687-0.61671 0.09790
  -6   7  -4   20.12   29.63  55 0.25355-0.90155 0.68891-0.25158-0.61693 0.17867
  -6   8  -3   62.54   31.16  54 0.25271-0.88089 0.68946-0.19118-0.61683 0.26385
  -5   3  -8  111.62   36.87  54 0.25692-0.86226 0.68667-0.50097-0.61730-0.13535
  -5   4  -3  580.49   27.54  54 0.25528-0.78507 0.68776-0.43827-0.61712 0.28211
  -5   5  -2  507.14   27.08  54 0.25310-0.76811 0.68921-0.37750-0.61688 0.36499
  -5   7  -1   53.59   18.11  54 0.25975-0.76071 0.68478-0.24899-0.61761 0.44933
  -4   1  -9  180.65   43.66  55 0.24761-0.76957 0.69281-0.63114-0.61625-0.20294
  -4   9   1  155.98   20.26  54 0.26010-0.63500 0.68455-0.12507-0.61765 0.63409
  -4  13   1   91.58   26.72  54 0.26046-0.63670 0.68431 0.12437-0.61768 0.63507
  -4  14   1  204.88   37.21  55 0.25081-0.62807 0.69071 0.17866-0.61662 0.63359
  -3  -1  -7    1.15   32.14  54 0.25000-0.64477 0.69125-0.75386-0.61652-0.02033
  -3   5   1  165.43   23.25  55 0.25056-0.52802 0.69088-0.37867-0.61659 0.64891
  -3   9   2  688.03   22.90  54 0.25834-0.52147 0.68573-0.12623-0.61746 0.73493
  -3  13   2   14.14   25.18  54 0.25904-0.52389 0.68526 0.12337-0.61753 0.73569
  -1  -3  -8  856.34   54.20  57 0.22115-0.43543 0.70966-0.89765-0.61283-0.07337
  -1  15   3   12.28   38.46  55 0.24770-0.30471 0.69275 0.23930-0.61626 0.85365
   0   6   3  148.44   24.32  54 0.25605-0.21343 0.68725-0.31462-0.61721 0.86913
   2  -4 -11   -3.22   41.55  55 0.24557-0.21466 0.69414-0.94830-0.61600-0.26888
   3  -4  -4  167.80   16.80  54 0.25975-0.02919 0.68478-0.93611-0.61761 0.33380
   4  -5  -8   48.32   21.91  54 0.25975 0.00883 0.68478-0.99974-0.61761 0.01807
   5   7   3  244.07   40.80  56 0.23221 0.29426 0.70272-0.27151-0.61433 0.95334
   6  10   3   23.55   55.26  56 0.23054 0.39116 0.70378-0.08608-0.61411 0.97150
   7  -4  -7  587.05   33.13  55 0.25276 0.32105 0.68943-0.94315-0.61684 0.15500
   7  -2  -3  598.49   26.55  55 0.25091 0.38195 0.69065-0.81939-0.61663 0.48881
   7   0  -1  506.80   26.65  55 0.25270 0.40888 0.68947-0.69351-0.61683 0.65596
   8  -3  -6   16.78   30.14  55 0.25019 0.43503 0.69112-0.88396-0.61655 0.25415
   8  -2  -4  253.45   29.26  55 0.25348 0.46032 0.68896-0.81833-0.61692 0.42300
   8   1  -1  566.32   28.84  54 0.25586 0.50182 0.68738-0.62987-0.61719 0.67303
   8   5   1   91.91   30.46  54 0.25731 0.52885 0.68641-0.38045-0.61734 0.84091
   9  -1  -4   18.00   32.59  55 0.25382 0.55697 0.68873-0.75683-0.61696 0.43946
   9   0  -3  207.22   30.34  55 0.24920 0.57693 0.69177-0.69688-0.61643 0.52441
   9   1  -2  145.18   30.21  55 0.25466 0.58437 0.68817-0.63157-0.61705 0.60704
  -6   6  -4    7.17   27.56  55 0.23917-0.87830 0.69809-0.32529-0.61511 0.17965
  -6   7  -3  170.27   28.29  56 0.23571-0.86356 0.70031-0.26473-0.61468 0.26172
  -6   9  -2   21.41   29.36  56 0.23489-0.84912 0.70083-0.14027-0.61457 0.34547
  -6  10  -2  236.66   32.80  55 0.24187-0.85594 0.69635-0.07584-0.61545 0.34743
  -6  11  -2   80.49   28.53  55 0.24486-0.85955 0.69441-0.00963-0.61581 0.34726
  -5   3  -4  221.58   25.58  55 0.23956-0.78387 0.69784-0.51098-0.61516 0.19613
  -5   6  -1   -2.76   22.63  55 0.23917-0.73664 0.69809-0.32494-0.61511 0.44624
  -5   9   0    7.80   27.03  55 0.23917-0.72584 0.69809-0.13725-0.61511 0.53031
  -5  10   0   51.65   22.32  55 0.24593-0.73351 0.69372-0.07066-0.61594 0.53164
  -5  11   0  282.97   24.13  55 0.24877-0.73646 0.69186-0.00881-0.61627 0.53227
  -5  12   0  128.69   25.61  55 0.24735-0.73548 0.69279 0.05368-0.61611 0.53221
  -5  13   0  291.06   36.06  55 0.24202-0.73049 0.69626 0.11091-0.61547 0.53225
  -4   1  -4   87.30   24.15  55 0.23988-0.68705 0.69764-0.63510-0.61520 0.21254
  -4   5   0  296.16   24.37  55 0.23924-0.62809 0.69805-0.38683-0.61512 0.54644
  -4   8   1  269.05   19.28  55 0.24700-0.62151 0.69302-0.19607-0.61607 0.63178
  -3  -1  -6  753.67   38.69  55 0.23776-0.61810 0.69900-0.76160-0.61494 0.06157
  -3   3   0 6730.32   56.00  55 0.24036-0.53259 0.69733-0.50935-0.61526 0.56349
  -3   8   2    1.77   22.91  55 0.24273-0.50599 0.69580-0.19702-0.61555 0.73279
  -3  14   2    7.39   26.89  55 0.24771-0.51046 0.69256 0.17911-0.61615 0.73675
  -2  10   3  383.83   26.31  56 0.23536-0.38740 0.70053-0.07943-0.61463 0.83282
  -2  11   3  824.06   33.28  55 0.23992-0.39310 0.69761-0.01495-0.61521 0.83319
  -2  12   3   -4.91   30.80  56 0.23881-0.38842 0.69832 0.04881-0.61507 0.83536
  -1  -2 -11    6.92   68.25  59 0.19020-0.45152 0.72807-0.85537-0.60795-0.32774
  -1   4   2  742.22   30.87  55 0.24026-0.30887 0.69739-0.44795-0.61525 0.76592
  -1   7   3  112.67   24.73  56 0.23754-0.29190 0.69914-0.26367-0.61491 0.84957
   1  -3  -3 1471.21   33.48  55 0.24700-0.19437 0.69302-0.88123-0.61607 0.38128
   2  11   4    1.66   35.15  55 0.23917 0.00997 0.69809-0.01789-0.61511 0.98505
   2  12   4   18.45   39.28  56 0.22870 0.02106 0.70476 0.04003-0.61376 0.98659
   4   1   1  489.85   24.67  55 0.24245 0.15905 0.69598-0.63573-0.61552 0.76861
   4   3   2   17.18   25.52  56 0.23398 0.18350 0.70142-0.51657-0.61445 0.85329
   5  -4  -5  130.88   23.49  56 0.23920 0.17111 0.69808-0.95032-0.61512 0.28436
   5  -3  -3  143.43   17.01  55 0.24700 0.19319 0.69302-0.88304-0.61607 0.45246
   5   0   0    8.50   21.44  55 0.24202 0.24198 0.69626-0.69906-0.61547 0.70272
   6  -4  -6  137.64   27.17  56 0.23855 0.25313 0.69849-0.95176-0.61504 0.21804
   6  11   3  227.60   67.94  58 0.20564 0.41798 0.71894-0.04147-0.61043 0.96789
   7  -4  -9  315.53   39.21  56 0.23945 0.30379 0.69791-0.95226-0.61515-0.01387
   7  -4  -8   -6.43   30.92  56 0.24131 0.31776 0.69672-0.94978-0.61538 0.06863
   7  -1  -2  264.23   19.17  55 0.24415 0.40364 0.69488-0.76104-0.61573 0.57113
   8  -1  -3  382.57   27.53  55 0.24067 0.48791 0.69713-0.76364-0.61530 0.50422
   8   0  -2   12.15   24.82  55 0.24192 0.50199 0.69632-0.70143-0.61545 0.58789
   8   3   0   57.34   29.80  56 0.24011 0.53272 0.69749-0.51565-0.61523 0.75536
   9  -2  -6   12.33   27.20  55 0.24415 0.53923 0.69488-0.82565-0.61573 0.26971
   9   3  -1   32.06   32.05  56 0.23637 0.62059 0.69989-0.51923-0.61476 0.68987
   9   5   0   24.90   38.05  55 0.24044 0.62877 0.69728-0.39212-0.61527 0.77361
  10   3  -2   -6.17   29.86  55 0.24522 0.69342 0.69418-0.51369-0.61585 0.62290
  -6   5  -7   68.99   40.66  56 0.22452-0.91090 0.70734-0.39643-0.61327-0.07399
  -6   5  -6   97.14   36.19  56 0.22621-0.89905 0.70628-0.39501-0.61350 0.01012
  -6   5  -5  116.88   29.38  57 0.22067-0.87779 0.70973-0.39906-0.61273 0.09227
  -6   8  -2  102.28   29.44  57 0.22346-0.83640 0.70800-0.20971-0.61312 0.34398
  -5   8   0    5.54   25.83  57 0.22507-0.71095 0.70699-0.20763-0.61334 0.53013
  -4   7   1  232.74   25.03  56 0.22546-0.59949 0.70675-0.27130-0.61340 0.62967
  -3  -1  -8  285.30   42.93  57 0.21953-0.63009 0.71044-0.77276-0.61257-0.10705
  -3   0  -3 2208.33   42.23  56 0.23056-0.56676 0.70354-0.70301-0.61408 0.31083
  -2   3   1 1757.11   38.79  57 0.22463-0.40429 0.70727-0.51903-0.61328 0.66317
  -2   9   3   40.23   25.41  57 0.22354-0.37512 0.70795-0.14765-0.61313 0.83124
  -2  13   3  179.81   25.65  56 0.23133-0.38483 0.70306 0.10412-0.61419 0.83348
  -2  14   3   99.24   34.90  57 0.22043-0.37480 0.70988 0.15970-0.61270 0.83195
  -1  -3  -7  133.06   37.73  59 0.19670-0.39681 0.72423-0.91162-0.60910 0.00685
  -1   2   1 8477.25   86.02  57 0.22542-0.30871 0.70678-0.58096-0.61339 0.68030
   0  -3  -4  323.65   26.57  57 0.22458-0.28354 0.70730-0.89505-0.61327 0.27792
   1  -4  -9  549.07   38.14  57 0.21669-0.25228 0.71219-0.96349-0.61216-0.12183
   1  -4  -6   34.30   22.81  57 0.22317-0.21517 0.70818-0.95937-0.61308 0.12840
   1   5   3  383.77   33.58  57 0.21580-0.07655 0.71274-0.40245-0.61203 0.88091
   1  11   4  -14.01   30.38  57 0.22436-0.06812 0.70744-0.02319-0.61324 0.96860
   1  12   4   87.18   32.94  56 0.22401-0.07161 0.70766 0.03686-0.61320 0.96770
   2  -4  -5  733.56   27.65  57 0.22141-0.10102 0.70927-0.96043-0.61283 0.22925
   2  10   4  696.51   42.69  57 0.22066 0.02757 0.70974-0.09035-0.61273 0.98365
   2  13   4   28.29   40.40  57 0.21971 0.02924 0.71033 0.09515-0.61259 0.98451
   5  -2  -2  302.72   22.45  57 0.22551 0.22876 0.70672-0.83335-0.61340 0.53347
   5  -1  -1  352.87   22.63  57 0.22385 0.24518 0.70775-0.77308-0.61317 0.61696
   6  -4  -7  155.63   25.66  57 0.22131 0.25580 0.70934-0.96358-0.61282 0.13341
   6  -3  -4   92.69   17.52  56 0.22990 0.29153 0.70396-0.89495-0.61400 0.38392
   6   5   2  508.08   30.24  57 0.22421 0.38443 0.70753-0.40066-0.61322 0.88608
   7  -3  -5   -1.01   19.45  56 0.23312 0.37200 0.70192-0.89337-0.61442 0.31713
   7   2   0    7.98   23.33  57 0.21988 0.45736 0.71022-0.59024-0.61262 0.73561
   7   4   1   11.42   25.41  57 0.21949 0.47260 0.71046-0.46594-0.61256 0.81996
   7   7   2   17.62   33.29  57 0.22358 0.48139 0.70793-0.27704-0.61314 0.90405
   8  -3  -8    1.90   34.10  57 0.22275 0.43599 0.70845-0.90244-0.61302 0.08178
   8  -3  -7  165.06   26.35  56 0.23205 0.43825 0.70260-0.89612-0.61428 0.16942
   8   6   1   14.70   31.47  57 0.22033 0.56812 0.70995-0.34182-0.61268 0.83827
   9  -2  -7   14.36   39.10  57 0.22507 0.54308 0.70699-0.83772-0.61334 0.18402
  10   1  -4   51.16   41.09  56 0.22566 0.68151 0.70663-0.65165-0.61342 0.45418
  10   2  -3   10.34   35.77  57 0.22489 0.69205 0.70711-0.58915-0.61332 0.53717
  -6   6  -3   35.78   28.82  57 0.21133-0.83979 0.71539-0.34120-0.61130 0.25797
  -6  10  -1   43.06   30.85  58 0.20897-0.80736 0.71682-0.09466-0.61095 0.42594
  -6  11  -1   60.69   36.46  57 0.21187-0.81187 0.71506-0.02994-0.61138 0.42668
  -6  12  -1  -39.85   40.30  58 0.21127-0.81133 0.71543 0.03205-0.61129 0.42827
  -5   2  -7   86.88   29.52  57 0.20815-0.79632 0.71732-0.59346-0.61082-0.05800
  -5   2  -6   84.01   29.43  57 0.20992-0.78374 0.71625-0.59217-0.61109 0.02466
  -5   4  -2    6.55   24.04  57 0.21163-0.72741 0.71521-0.46515-0.61135 0.35838
  -4   2  -2  278.72   25.28  57 0.21170-0.62977 0.71517-0.59019-0.61136 0.37540
  -4   3  -1 3125.97   39.28  57 0.21157-0.61517 0.71525-0.52747-0.61134 0.45904
  -3   7   2  263.05   18.99  57 0.21845-0.48182 0.71103-0.27546-0.61235 0.72873
  -2   5   2  380.72   20.28  57 0.21953-0.38527 0.71036-0.39851-0.61250 0.74571
   0   3   2    7.98   21.97  58 0.20801-0.17896 0.71740-0.53054-0.61080 0.77880
   1  -4  -8   -7.42   30.13  58 0.20263-0.22406 0.72064-0.97326-0.60997-0.04251
   1  10   4   -9.60   27.85  58 0.21181-0.05520 0.71510-0.09263-0.61137 0.96731
   1  13   4   31.05   35.49  57 0.21290-0.06034 0.71443 0.09280-0.61154 0.96727
   2  -4 -10   14.84   35.42  59 0.19959-0.15510 0.72245-0.97417-0.60949-0.18994
   3  -4 -11  124.30   36.01  58 0.21142-0.08655 0.71534-0.96720-0.61132-0.25435
   3  -4  -5  450.81   25.00  58 0.21064 0.00465 0.71581-0.96737-0.61120 0.24415
   3  11   4  143.49   46.31  58 0.19774 0.14849 0.72354-0.04319-0.60919 0.99831
   3  12   4   34.26   46.36  58 0.19941 0.14742 0.72256 0.02086-0.60946 0.99932
   4  -4 -11   17.81   42.13  58 0.20996 0.01304 0.71623-0.97093-0.61110-0.23888
   4  -4  -5  242.37   17.52  57 0.21989 0.09367 0.71014-0.96222-0.61255 0.26439
   4  -3  -3  188.38   16.35  57 0.22061 0.12230 0.70970-0.89917-0.61265 0.43127
   4   6   3   43.98   31.71  59 0.19082 0.23987 0.72761-0.35794-0.60805 0.92921
   5  -4  -6  156.24   25.31  58 0.21059 0.18331 0.71584-0.96887-0.61119 0.19661
   5   4   2   -1.43   23.39  58 0.20839 0.30758 0.71717-0.47066-0.61086 0.86697
   6  -4 -10   62.72   30.26  57 0.21917 0.21242 0.71058-0.96614-0.61245-0.11926
   6  -4  -9  111.10   34.25  58 0.21060 0.23500 0.71584-0.97047-0.61119-0.03687
   6  -4  -8   83.67   31.44  58 0.21078 0.24994 0.71572-0.96965-0.61122 0.04675
   6   1   0  205.27   17.44  57 0.21774 0.36303 0.71147-0.65272-0.61224 0.71752
   7  -3  -6   64.02   26.89  58 0.20660 0.38106 0.71826-0.91091-0.61058 0.23062
   8  -2  -5  153.73   23.46  57 0.21917 0.48142 0.71058-0.84047-0.61245 0.33524
   9  -1  -5   20.73   24.45  57 0.22025 0.57623 0.70992-0.77920-0.61260 0.35172
   9   2  -2   49.27   32.76  58 0.21031 0.63008 0.71601-0.59780-0.61115 0.60171
   9   6   0   20.58   35.94  58 0.20808 0.66284 0.71736-0.35005-0.61081 0.77039
  -6   5  -4   -1.67   21.24  58 0.20440-0.84719 0.71956-0.40789-0.61046 0.17413
  -6   7  -2   84.22   20.51  58 0.20440-0.81751 0.71956-0.28286-0.61046 0.34191
  -6   9  -1   38.09   28.38  58 0.19935-0.79865 0.72257-0.16189-0.60966 0.42401
  -5   2  -5  160.60   26.57  58 0.19735-0.75705 0.72375-0.59885-0.60935 0.10726
  -5   3  -3   43.04   16.55  58 0.20368-0.73358 0.71999-0.53290-0.61035 0.27435
  -5   5  -1   11.74   17.78  58 0.20151-0.70277 0.72128-0.40912-0.61001 0.44069
  -5   7   0  830.13   23.10  58 0.20548-0.69077 0.71891-0.28227-0.61063 0.52704
  -5  11   1   44.96   32.57  59 0.19578-0.66916 0.72467-0.03962-0.60909 0.60890
  -5  12   1   34.55   34.32  59 0.19582-0.66989 0.72465 0.02255-0.60910 0.60950
  -5  13   1    5.92   35.18  59 0.19465-0.66571 0.72534 0.08266-0.60891 0.61041
  -4   6   1    4.87   23.43  59 0.19538-0.57001 0.72491-0.35043-0.60902 0.62471
  -4  10   2  476.33   30.27  58 0.19647-0.55575 0.72427-0.10275-0.60920 0.71033
  -4  11   2  251.58   23.55  58 0.20187-0.56144 0.72106-0.03753-0.61007 0.71160
  -4  12   2  195.50   25.25  58 0.20187-0.56211 0.72106 0.02438-0.61007 0.71211
  -4  13   2  170.62   36.96  58 0.19729-0.55862 0.72378 0.08473-0.60934 0.71174
  -3  -1  -5   57.85   26.96  58 0.19373-0.55879 0.72588-0.78811-0.60876 0.13893
  -3   4   1 2202.35   36.32  59 0.19458-0.47111 0.72538-0.47488-0.60890 0.64179
  -2  -2  -5   43.34   40.43  60 0.17260-0.44082 0.73799-0.86214-0.60510 0.15258
  -2   8   3   54.97   17.16  58 0.20187-0.35288 0.72106-0.22385-0.61006 0.82822
   0  10   4   33.96   30.32  59 0.18730-0.13056 0.72962-0.10789-0.60768 0.94517
   0  11   4   40.52   29.80  58 0.19863-0.14224 0.72299-0.04052-0.60955 0.94690
   0  12   4  471.96   34.52  58 0.19947-0.14319 0.72249 0.02096-0.60968 0.94761
   0  13   4   62.94   36.65  58 0.19480-0.13925 0.72525 0.08196-0.60893 0.94616
   1  -4  -7 1092.38   34.03  59 0.19797-0.20569 0.72338-0.97371-0.60944 0.04133
   1   9   4  643.97   36.44  59 0.18692-0.03320 0.72984-0.17218-0.60762 0.96134
   1  14   4   77.18   41.69  58 0.19722-0.04521 0.72383 0.14439-0.60932 0.96505
   2  -3  -3 1933.44   32.87  58 0.20584-0.05712 0.71869-0.90744-0.61068 0.39305
   2  14   4  158.39   43.00  58 0.19704 0.05177 0.72393 0.14253-0.60929 0.98238
   3  -3  -3   86.81   15.59  58 0.20404 0.04250 0.71977-0.90861-0.61040 0.41139
   3   1   1   45.33   19.91  58 0.19827 0.10608 0.72320-0.66239-0.60949 0.74514
   3  13   4   45.58   50.81  59 0.18550 0.16025 0.73066 0.07431-0.60738 0.99740
   4   0   0 1892.34   34.66  59 0.19402 0.19329 0.72571-0.72889-0.60880 0.67767
   5  -4 -10    0.20   37.23  59 0.19718 0.13997 0.72385-0.97766-0.60932-0.13949
   5  -4  -7  214.84   26.08  59 0.19333 0.18605 0.72612-0.97999-0.60869 0.11004
   5  -3  -4  401.82   23.82  59 0.19361 0.23013 0.72595-0.91673-0.60874 0.36070
   5   2   1  213.84   23.58  59 0.19787 0.29979 0.72344-0.60241-0.60943 0.77939
   6  -3  -5  559.62   25.89  59 0.19222 0.31326 0.72677-0.91850-0.60851 0.29471
   6  -2  -3   59.39   16.76  58 0.20404 0.33202 0.71977-0.84893-0.61040 0.46295
   6   0  -1   13.32   22.03  59 0.19491 0.37162 0.72519-0.72913-0.60895 0.63047
   6   3   1  185.64   24.70  59 0.19555 0.39892 0.72481-0.54290-0.60905 0.79714
   7  -2  -4   27.17   18.80  58 0.20440 0.41410 0.71956-0.84904-0.61046 0.39809
   8  -2  -6  326.11   30.34  59 0.19285 0.49143 0.72640-0.85769-0.60861 0.24667
   8  -1  -4   21.88   28.33  59 0.19610 0.51785 0.72449-0.79171-0.60914 0.41419
   8   2  -1   19.09   20.70  58 0.20512 0.55386 0.71912-0.59975-0.61057 0.66743
   8   4   0  275.39   31.52  59 0.19342 0.58029 0.72606-0.48394-0.60870 0.74831
   9  -1  -6   71.85   33.63  59 0.19445 0.58795 0.72545-0.79497-0.60887 0.26437
   9   0  -4    9.60   23.91  58 0.20584 0.60757 0.71869-0.72459-0.61068 0.43245
   9   1  -3  166.79   25.05  58 0.20187 0.62409 0.72106-0.66584-0.61007 0.51616
   9   4  -1   36.40   35.58  59 0.19393 0.66136 0.72576-0.48318-0.60879 0.68363
  10   3  -3  260.51   37.70  59 0.19104 0.73115 0.72745-0.54874-0.60831 0.53254
  -6   4  -7    8.99   37.92  60 0.18092-0.86822 0.73339-0.48473-0.60657-0.08041
  -6   4  -6  272.36   32.40  59 0.18521-0.85756 0.73094-0.48203-0.60732 0.00596
  -6   4  -5   -4.71   31.16  60 0.18055-0.83747 0.73360-0.48412-0.60651 0.08666
  -6   5  -3   41.46   27.47  59 0.18044-0.80763 0.73366-0.42177-0.60649 0.25291
  -6   6  -2  164.26   25.62  60 0.17955-0.79195 0.73417-0.36003-0.60634 0.33721
  -6   8  -1   19.46   26.74  59 0.18527-0.78429 0.73090-0.23236-0.60733 0.42157
  -5   2  -8    0.45   35.49  60 0.18382-0.79004 0.73173-0.60854-0.60708-0.14721
  -5   6   0   23.17   22.67  59 0.17984-0.66406 0.73400-0.36034-0.60639 0.52075
  -5   9   1   50.96   27.74  60 0.18111-0.65340 0.73328-0.17259-0.60661 0.60560
  -5  10   1  390.55   24.42  59 0.19142-0.66257 0.72734-0.10536-0.60837 0.60907
  -4   0  -7   -2.45   31.41  60 0.17402-0.66615 0.73730-0.73792-0.60535-0.04745
  -4   0  -6  923.64   37.70  60 0.17770-0.65459 0.73522-0.73481-0.60601 0.03669
  -4   1  -3   53.42   23.45  59 0.18406-0.61699 0.73159-0.66848-0.60712 0.28792
  -4   4   0 1974.81   29.49  59 0.19106-0.57958 0.72755-0.47694-0.60831 0.54053
  -4   9   2   30.09   23.92  59 0.18489-0.54567 0.73112-0.17024-0.60726 0.70731
  -4  14   2   74.27   29.78  59 0.19034-0.55271 0.72797 0.14256-0.60818 0.70960
  -3   6   2   -5.48   22.44  59 0.18382-0.44635 0.73173-0.35756-0.60708 0.72342
  -3  11   3   12.15   29.69  59 0.18237-0.43161 0.73257-0.04824-0.60683 0.80798
  -3  12   3 1021.36   36.84  59 0.18300-0.43190 0.73220 0.01247-0.60694 0.80950
  -3  13   3   99.17   34.87  60 0.18016-0.43009 0.73383 0.07428-0.60644 0.80828
  -1   6   3   45.53   23.93  59 0.18522-0.23876 0.73093-0.35899-0.60732 0.84195
   0  -3 -10   20.29   42.19  61 0.16413-0.31298 0.74279-0.93214-0.60352-0.23162
   0  -1  -1 3705.90  107.16  59 0.18464-0.20060 0.73126-0.79453-0.60722 0.52144
   0  14   4  298.98   41.75  59 0.18199-0.12737 0.73278 0.13427-0.60676 0.94465
   2  -4  -9    3.94   26.68  59 0.18164-0.12156 0.73298-0.98797-0.60670-0.11420
   2  -4  -6  339.88   25.49  60 0.18211-0.07742 0.73271-0.98332-0.60678 0.13950
   2   9   4   -2.62   31.38  59 0.18164 0.06863 0.73298-0.17487-0.60670 0.97754
   3  -4 -10   73.02   34.70  60 0.18226-0.04023 0.73263-0.98500-0.60681-0.17669
   3  -4  -6   93.01   21.15  60 0.17801 0.02388 0.73504-0.98694-0.60606 0.15591
   3  10   4   55.65   48.71  61 0.16118 0.18455 0.74441-0.12571-0.60296 0.99143
   4  -4 -10  194.00   32.34  60 0.18253 0.05615 0.73247-0.98495-0.60685-0.15825
   4  -4  -6  941.16   23.35  59 0.18961 0.10789 0.72839-0.98107-0.60806 0.17540
   4  -2  -2  482.61   18.97  59 0.19106 0.16604 0.72755-0.85530-0.60831 0.50923
   4  -1  -1  272.00   22.80  60 0.17948 0.19289 0.73421-0.79893-0.60632 0.59185
   5  -4  -9   -3.86   24.15  59 0.18672 0.16566 0.73007-0.98357-0.60757-0.05810
   5  -4  -8    8.41   26.30  59 0.18527 0.18025 0.73090-0.98463-0.60733 0.02540
   6  -1  -2   34.68   16.02  59 0.19106 0.36037 0.72755-0.79353-0.60831 0.54575
   7  -3  -9  -34.28   33.59  60 0.17947 0.36782 0.73422-0.92778-0.60632-0.02601
   7  -3  -8   36.54   30.71  60 0.18010 0.37962 0.73386-0.92728-0.60643 0.05882
   7  -3  -7  -13.64   22.88  59 0.18889 0.38696 0.72881-0.92074-0.60794 0.14370
   7  -1  -3  410.58   25.12  59 0.18441 0.44741 0.73140-0.79793-0.60718 0.47799
   7   0  -2  -10.27   24.95  60 0.18092 0.46953 0.73339-0.73796-0.60657 0.56091
   7   1  -1  496.00   21.10  59 0.18998 0.47181 0.72818-0.67143-0.60812 0.64616
   7   8   2   12.97   34.82  60 0.18108 0.52364 0.73330-0.24072-0.60660 0.89753
   8   0  -3  -12.97   19.29  59 0.18636 0.54529 0.73028-0.73517-0.60751 0.49544
   8   1  -2   11.10   19.32  59 0.18817 0.55627 0.72923-0.67233-0.60782 0.58081
   8   7   1  202.55   38.00  60 0.18076 0.60659 0.73348-0.30430-0.60655 0.83123
   9   7   0   30.39   43.73  60 0.17650 0.69410 0.73590-0.30681-0.60579 0.76548
  10   2  -4  163.63   36.76  59 0.18519 0.72180 0.73095-0.61378-0.60731 0.44848
  -7   7  -5  -48.65   36.56  61 0.16576-0.91946 0.74198-0.30702-0.60394 0.06820
  -7   8  -4   34.70   29.10  60 0.17303-0.91421 0.73793-0.24012-0.60528 0.15170
  -7   9  -3  -18.66   35.68  61 0.16867-0.89617 0.74036-0.17925-0.60448 0.23502
  -6   4  -4   70.39   26.57  61 0.16526-0.80620 0.74225-0.49301-0.60385 0.16728
  -6   7  -1  438.61   28.91  61 0.16573-0.76302 0.74199-0.30674-0.60393 0.41854
  -6  10   0   53.92   33.38  60 0.16713-0.75111 0.74122-0.11863-0.60419 0.50244
  -6  11   0  126.45   26.07  60 0.17194-0.75652 0.73854-0.05423-0.60508 0.50448
  -6  12   0   58.07   29.14  60 0.17340-0.75877 0.73772 0.00898-0.60535 0.50443
  -5   2  -4  101.49   24.15  60 0.17294-0.71691 0.73798-0.61360-0.60526 0.18582
  -5   8   1  185.35   25.60  61 0.16496-0.63664 0.74241-0.24374-0.60379 0.60273
  -4   8   2  552.51   28.47  60 0.16746-0.52725 0.74104-0.24350-0.60426 0.70380
  -3  10   3   88.49   20.96  60 0.17485-0.42357 0.73691-0.11515-0.60561 0.80680
  -3  14   3   48.12   37.00  60 0.17090-0.42169 0.73912 0.13186-0.60489 0.80781
  -2   7   3 1191.81   31.24  60 0.16986-0.32125 0.73970-0.30431-0.60470 0.82208
  -1  11   4  492.97   31.99  61 0.16579-0.20711 0.74196-0.05929-0.60394 0.92299
  -1  12   4   90.93   33.21  60 0.16834-0.20961 0.74055 0.00444-0.60442 0.92421
  -1  13   4  403.83   37.55  61 0.16519-0.20738 0.74228 0.06385-0.60383 0.92345
   0   5   3 1724.03   42.82  61 0.16064-0.11797 0.74478-0.43384-0.60297 0.85468
   0   9   4   12.97   25.52  61 0.16617-0.10924 0.74175-0.18273-0.60402 0.94037
   1  -3 -11   29.15   43.51  62 0.15205-0.21885 0.74942-0.93935-0.60129-0.30011
   1   1   1 1059.94   64.62  61 0.16307-0.05107 0.74345-0.68137-0.60343 0.70490
   2  -4  -8   81.62   27.05  61 0.16284-0.08654 0.74358-0.99570-0.60339-0.03083
   2  -4  -7   18.70   24.30  61 0.16503-0.07496 0.74238-0.99406-0.60380 0.05286
   2   1   1 5834.09   79.85  61 0.16253 0.04651 0.74375-0.68257-0.60333 0.72212
   3  -4  -9  306.43   31.63  61 0.16441-0.00606 0.74272-0.99587-0.60369-0.09543
   4  -4  -9   33.10   28.40  61 0.16807 0.08493 0.74070-0.99296-0.60437-0.07684
   4  -4  -8  454.74   29.68  61 0.16539 0.10436 0.74218-0.99508-0.60387 0.00609
   4  -4  -7   24.00   23.78  60 0.17003 0.11309 0.73961-0.99127-0.60473 0.08956
   6  -3  -6   -4.97   25.63  61 0.16612 0.32833 0.74177-0.93367-0.60401 0.20552
   6   6   2  180.27   33.42  61 0.15574 0.45262 0.74744-0.37823-0.60202 0.87468
   7  -2  -5   27.48   25.92  61 0.16721 0.43589 0.74117-0.87026-0.60421 0.30788
   7   5   1   19.57   26.70  61 0.16404 0.52794 0.74292-0.43641-0.60362 0.81080
   8  -2  -8  152.21   34.50  61 0.16495 0.49118 0.74242-0.87373-0.60379 0.07451
   8  -2  -7   44.82   24.36  60 0.17485 0.49550 0.73691-0.86793-0.60561 0.15977
   9  -1  -7   20.58   28.99  60 0.17594 0.59116 0.73629-0.80612-0.60581 0.17765
   9   0  -5   54.48   30.70  60 0.17029 0.62533 0.73946-0.74605-0.60478 0.34403
   9   3  -2  166.92   33.67  61 0.16617 0.67452 0.74175-0.56035-0.60402 0.59508
  -7   7  -4   53.00   35.46  61 0.15375-0.89420 0.74852-0.31270-0.60169 0.14799
  -7   8  -3   10.60   33.55  62 0.15412-0.88135 0.74832-0.24924-0.60177 0.23217
  -7  10  -2   39.89   35.49  61 0.15501-0.86746 0.74784-0.12491-0.60194 0.31604
  -6   9   0    3.33   28.25  61 0.15595-0.74014 0.74734-0.18657-0.60213 0.50042
  -5   2  -9   26.01   47.32  62 0.14932-0.76898 0.75089-0.62761-0.60081-0.23708
  -5   3  -2   39.04   21.80  61 0.15630-0.67187 0.74715-0.55957-0.60219 0.34929
  -5   4  -1 2042.67   33.32  61 0.15683-0.65708 0.74686-0.49750-0.60230 0.43316
  -4   0  -8  648.23   44.49  61 0.14886-0.65521 0.75113-0.75168-0.60072-0.13568
  -4   0  -5    7.53   23.60  62 0.15349-0.61635 0.74866-0.74875-0.60164 0.11439
  -4   5   1 1861.53   32.36  61 0.15451-0.52877 0.74811-0.43626-0.60184 0.61707
  -3   1  -1   33.84   22.80  61 0.15291-0.45829 0.74897-0.68597-0.60153 0.46673
  -3   9   3   28.55   18.48  61 0.16069-0.40932 0.74476-0.18443-0.60304 0.80403
  -1  10   4   32.38   27.37  61 0.15373-0.19400 0.74853-0.12694-0.60169 0.92125
  -1  14   4   41.88   40.26  61 0.15408-0.19582 0.74834 0.12131-0.60176 0.92295
   1  -2  -2   80.43   17.05  61 0.15850-0.09173 0.74595-0.87098-0.60262 0.45246
   3  -4  -8   23.34   25.83  62 0.15371 0.01811 0.74854-0.99984-0.60169-0.01473
   3  -4  -7  186.33   19.24  61 0.16033 0.02737 0.74496-0.99715-0.60297 0.07025
   3  -2  -2    4.62   14.97  61 0.16179 0.09958 0.74416-0.87062-0.60325 0.48781
   3   3   2 1409.94   44.59  62 0.14355 0.17591 0.75394-0.56893-0.59964 0.81929
   4  -3  -4    0.65   14.57  61 0.16106 0.16867 0.74456-0.93404-0.60311 0.33735
   5  -3  -5   65.57   22.93  62 0.15275 0.25779 0.74906-0.93904-0.60150 0.27038
   5  -2  -3  705.46   19.97  61 0.15777 0.28208 0.74635-0.87378-0.60248 0.43871
   5   1   0 1318.11   30.68  62 0.14982 0.33381 0.75062-0.69134-0.60091 0.68831
   5   8   3  215.02   40.48  63 0.13694 0.38962 0.75739-0.26450-0.59826 0.93691
   6  -3 -10  -29.99   34.36  62 0.15120 0.28421 0.74989-0.94311-0.60119-0.13227
   6  -2  -4  110.57   23.31  62 0.15314 0.36777 0.74885-0.87664-0.60157 0.37177
   7   3   0  543.32   22.82  61 0.15923 0.51773 0.74556-0.56313-0.60276 0.72580
   7   9   2  172.03   40.89  62 0.14298 0.56127 0.75424-0.19987-0.59952 0.89046
   8  -1  -5  239.16   22.54  61 0.16251 0.53790 0.74376-0.81160-0.60339 0.32633
   8   3  -1   54.10   28.40  62 0.15320 0.60527 0.74881-0.56754-0.60159 0.65783
   8   5   0  102.21   28.89  62 0.14756 0.62574 0.75182-0.44623-0.60046 0.74154
   8   8   1    5.01   40.79  62 0.14765 0.64023 0.75177-0.25987-0.60047 0.82585
   9   1  -4    2.66   23.13  61 0.15777 0.65535 0.74635-0.69005-0.60248 0.42376
   9   2  -3   18.83   30.17  61 0.15558 0.67044 0.74753-0.62970-0.60205 0.50859
   9   5  -1    9.91   36.26  62 0.15266 0.70102 0.74910-0.44429-0.60148 0.67510
  -7   6  -5  253.51   40.22  62 0.13889-0.89240 0.75641-0.38434-0.59867 0.06268
  -7   7  -3   11.87   31.10  63 0.13522-0.86064 0.75831-0.32236-0.59790 0.22794
  -7   9  -2  192.68   27.46  62 0.14547-0.85612 0.75296-0.19374-0.60004 0.31488
  -6   3  -6    5.93   30.24  63 0.13485-0.80455 0.75850-0.57149-0.59782-0.00425
  -6   4  -3  472.17   29.81  62 0.13801-0.76410 0.75687-0.50826-0.59849 0.24575
  -6   5  -2  489.57   22.54  62 0.14547-0.75724 0.75296-0.44218-0.60004 0.33092
  -6   6  -1    6.04   25.89  63 0.13797-0.73530 0.75689-0.38218-0.59848 0.41396
  -6   8   0   76.50   28.52  62 0.13966-0.72358 0.75601-0.25812-0.59883 0.49703
  -5   2  -3 1244.34   31.53  63 0.13604-0.66504 0.75789-0.63279-0.59807 0.26172
  -5   5   0 2064.18   33.05  62 0.14005-0.62565 0.75581-0.44446-0.59892 0.51370
  -5   7   1   27.42   23.96  62 0.14181-0.61332 0.75489-0.31827-0.59928 0.59794
  -5  11   2  154.38   29.48  63 0.13583-0.59326 0.75799-0.07414-0.59803 0.68151
  -5  12   2  -17.64   34.50  63 0.13815-0.59482 0.75680-0.00932-0.59852 0.68403
  -5  13   2  327.44   40.87  62 0.13763-0.59614 0.75706 0.05014-0.59841 0.68192
  -4   7   2   99.49   23.54  62 0.14113-0.50091 0.75524-0.31968-0.59914 0.69856
  -3  -1  -9    5.46   59.25  63 0.12377-0.54739 0.76413-0.82734-0.59541-0.20644
  -3   2   0  822.03   25.43  62 0.14803-0.44002 0.75161-0.62603-0.60056 0.54860
  -3   5   2  844.57   27.41  63 0.13471-0.39700 0.75857-0.44663-0.59779 0.71390
  -3   8   3   27.02   24.61  62 0.13881-0.38705 0.75645-0.25814-0.59866 0.79936
  -2   1   0   48.50   26.20  63 0.13587-0.32691 0.75797-0.69672-0.59804 0.56366
  -2   4   2 2241.67   35.12  62 0.14621-0.31210 0.75258-0.50266-0.60019 0.73323
  -1   9   4    9.47   24.11  62 0.13559-0.17525 0.75812-0.19984-0.59798 0.91563
   1  -3  -4   34.51   20.89  63 0.13707-0.09904 0.75735-0.94504-0.59829 0.28170
   1   8   4   14.41   28.73  63 0.13537 0.01869 0.75823-0.26173-0.59793 0.95118
   2  -2  -2 3465.76   44.66  62 0.14474 0.01982 0.75335-0.87955-0.59989 0.46632
   3  -3  -4 3213.53   39.20  63 0.13603 0.09532 0.75789-0.94701-0.59807 0.31485
   3  -1  -1    0.49   21.46  63 0.13852 0.13858 0.75660-0.82063-0.59859 0.56656
   3   0   0    1.33   15.35  62 0.14584 0.14648 0.75277-0.75467-0.60011 0.65195
   5  -1  -2 1350.41   28.68  63 0.13599 0.31833 0.75792-0.82327-0.59806 0.51755
   6  -3  -9  263.59   31.72  63 0.13879 0.30794 0.75646-0.94781-0.59865-0.04804
   6  -3  -8   40.53   30.49  63 0.13854 0.32330 0.75659-0.94781-0.59860 0.03421
   6  -3  -7  700.03   23.53  62 0.14767 0.33032 0.75180-0.94309-0.60048 0.12140
   6   2   0  130.80   21.73  62 0.14083 0.43882 0.75540-0.63452-0.59908 0.70319
   7  -2  -6   10.23   25.48  63 0.13961 0.44718 0.75604-0.88464-0.59882 0.21957
   7  -1  -4  520.52   26.85  63 0.13825 0.47940 0.75675-0.82343-0.59854 0.38643
   8  -1  -6   -7.36   30.54  63 0.13724 0.55047 0.75727-0.82541-0.59832 0.23459
   8   0  -4   51.34   26.87  62 0.14022 0.57343 0.75572-0.76111-0.59895 0.40396
   8   2  -2  382.16   27.75  63 0.13492 0.60946 0.75846-0.63949-0.59783 0.57087
   9   0  -6  -12.83   27.19  62 0.14547 0.63819 0.75296-0.75924-0.60004 0.25378
  -7   6  -4    9.41   31.42  64 0.12353-0.86765 0.76425-0.38975-0.59544 0.14032
  -7   8  -2   14.54   24.89  63 0.13051-0.84106 0.76073-0.26246-0.59697 0.31084
  -7  10  -1   -5.49   37.72  64 0.12463-0.82129 0.76370-0.14082-0.59568 0.39499
  -6   3  -7   51.91   36.77  63 0.12398-0.81093 0.76403-0.57802-0.59554-0.09218
  -6   3  -5   22.53   30.10  63 0.12647-0.78353 0.76277-0.57598-0.59609 0.07533
  -6  11   1   45.26   35.09  63 0.12463-0.69459 0.76370-0.07886-0.59568 0.57833
  -6  12   1   -7.20   34.87  64 0.12574-0.69656 0.76315-0.01444-0.59593 0.58091
  -5   1  -6   -7.60   30.61  64 0.11667-0.69141 0.76767-0.70559-0.59389 0.00740
  -5  10   2  261.56   28.14  63 0.12729-0.58520 0.76236-0.14012-0.59627 0.67968
  -4   2  -1  841.50   24.04  63 0.13308-0.53668 0.75941-0.63388-0.59753 0.44500
  -4   3   0   -2.89   22.79  64 0.12518-0.51288 0.76342-0.57528-0.59581 0.52934
  -4  11   3  468.52   33.69  63 0.12399-0.46998 0.76402-0.08116-0.59554 0.77992
  -4  12   3   66.76   31.10  63 0.12794-0.47441 0.76203-0.01554-0.59641 0.78089
  -4  13   3  276.93   34.65  63 0.12624-0.47354 0.76289 0.04474-0.59604 0.78104
  -4  14   3   15.33   37.30  64 0.12096-0.46832 0.76554 0.10488-0.59486 0.78020
  -3  -1  -4  235.86   27.97  64 0.11474-0.46566 0.76862-0.82983-0.59345 0.20768
  -3   0  -2   -6.95   20.94  64 0.12078-0.43897 0.76563-0.76426-0.59482 0.37810
  -2   0  -1    9.49   23.46  64 0.12353-0.33344 0.76425-0.76401-0.59544 0.47693
  -2   6   3   25.94   24.01  63 0.12303-0.27384 0.76451-0.39068-0.59533 0.81274
  -2  11   4   81.19   30.82  63 0.12569-0.26357 0.76317-0.07976-0.59592 0.89805
  -2  12   4  429.00   26.88  63 0.13014-0.26872 0.76091-0.01648-0.59689 0.89929
  -2  13   4   24.07   32.92  63 0.12867-0.26688 0.76166 0.04621-0.59657 0.89963
  -2  14   4   25.72   39.91  64 0.12251-0.26095 0.76477 0.10476-0.59521 0.89819
   0  -3  -5  686.58   33.45  65 0.11147-0.18581 0.77022-0.95761-0.59270 0.17347
   0   8   4  876.33   33.31  63 0.12473-0.06805 0.76365-0.26755-0.59570 0.93178
   2  -3 -11  347.25   39.36  64 0.11986-0.08891 0.76609-0.95765-0.59462-0.28919
   2  -3  -4   39.65   21.53  64 0.12318 0.01195 0.76443-0.95286-0.59536 0.29508
   4  -3 -11    0.47   39.93  64 0.12261 0.10368 0.76471-0.95710-0.59523-0.25502
   4   2   1  846.37   29.61  64 0.12042 0.28184 0.76581-0.64437-0.59474 0.74745
   5  -3 -10  437.72   34.31  64 0.11988 0.21545 0.76608-0.95910-0.59462-0.15334
   5  -3  -6  120.37   24.89  64 0.12410 0.27032 0.76397-0.95388-0.59556 0.18118
   5   0  -1  333.53   18.29  63 0.13161 0.33761 0.76016-0.76316-0.59721 0.60055
   6  -1  -3  226.56   17.85  63 0.12794 0.40895 0.76203-0.82816-0.59641 0.45009
   6   4   1    3.68   24.32  64 0.12316 0.47413 0.76444-0.51855-0.59536 0.78373
   7  -2  -7  494.77   32.37  64 0.12369 0.44850 0.76417-0.89427-0.59547 0.13214
   7   0  -3  823.23   26.77  64 0.12096 0.51114 0.76554-0.77134-0.59486 0.46545
   7   2  -1   65.88   23.38  63 0.12593 0.53538 0.76305-0.64281-0.59597 0.63440
   7  10   2   34.08   46.24  64 0.11431 0.59113 0.76883-0.15177-0.59335 0.88489
   8  -1  -7   93.73   31.40  64 0.11912 0.55129 0.76645-0.83538-0.59445 0.14852
   8   1  -3  334.55   21.45  63 0.13161 0.59777 0.76016-0.70362-0.59721 0.48655
   8   9   1   10.75   43.71  64 0.12010 0.66891 0.76597-0.21131-0.59467 0.82070
   9   0  -7  349.07   36.07  63 0.12649 0.64035 0.76277-0.76913-0.59609 0.16922
   9   1  -5   31.54   34.73  64 0.12323 0.67337 0.76441-0.70895-0.59537 0.33425
   9   4  -2   24.92   33.88  63 0.12405 0.71617 0.76399-0.52151-0.59555 0.58567
   9   6  -1   51.98   34.72  64 0.11934 0.73661 0.76635-0.39960-0.59450 0.66917
  -7   5  -6   -1.79   36.84  65 0.10690-0.87436 0.77242-0.46195-0.59158-0.02716
  -7   5  -5   19.80   33.00  65 0.10377-0.85795 0.77392-0.46291-0.59084 0.05395
  -7   6  -3  404.75   34.33  64 0.10883-0.83242 0.77149-0.39792-0.59204 0.22397
  -7   7  -2   49.67   32.97  65 0.10872-0.81935 0.77154-0.33547-0.59201 0.30599
  -7   9  -1   -4.75   25.27  64 0.11445-0.80980 0.76875-0.20820-0.59334 0.39219
  -6   3  -4   34.63   28.26  64 0.11040-0.75232 0.77072-0.58370-0.59240 0.15529
  -6   7   0  248.64   21.46  64 0.11740-0.69988 0.76730-0.33127-0.59401 0.49371
  -6   9   1  431.87   29.97  65 0.10474-0.67334 0.77345-0.21399-0.59107 0.57367
  -6  10   1   15.59   23.29  64 0.11740-0.68697 0.76730-0.14468-0.59401 0.57633
  -5   1  -7   82.61   31.53  64 0.11044-0.70009 0.77070-0.70846-0.59241-0.07653
  -5   1  -5  112.59   27.01  64 0.10875-0.66738 0.77152-0.70902-0.59202 0.08993
  -5   6   1  109.66   25.38  64 0.10966-0.58108 0.77109-0.39675-0.59223 0.59131
  -5   9   2   29.62   20.44  64 0.11445-0.57212 0.76875-0.20807-0.59334 0.67632
  -4   0  -4 2607.45   44.53  64 0.11265-0.56057 0.76963-0.76900-0.59293 0.19037
  -4   1  -2   83.54   22.18  64 0.11315-0.53128 0.76938-0.70615-0.59304 0.35733
  -4   6   2 1177.88   29.11  65 0.10552-0.46488 0.77308-0.39945-0.59126 0.69078
  -4  10   3   49.78   21.40  64 0.11482-0.46103 0.76857-0.14600-0.59343 0.77755
  -3   3   1  249.17   19.58  64 0.11703-0.39364 0.76748-0.57959-0.59393 0.62663
  -3   7   3   40.78   23.99  65 0.10707-0.35501 0.77234-0.33653-0.59162 0.79200
  -2  10   4  726.10   30.06  64 0.11323-0.24997 0.76934-0.14833-0.59306 0.89567
  -1   3   2 1546.11   38.84  64 0.11147-0.17944 0.77021-0.58273-0.59265 0.74363
  -1   5   3  309.83   26.19  65 0.10856-0.16174 0.77162-0.46019-0.59197 0.82682
   0  -3  -9   20.87   32.89  65 0.10029-0.23332 0.77558-0.96435-0.59001-0.16078
   3  -3 -11   89.24   35.05  65 0.11016 0.01749 0.77084-0.96156-0.59235-0.27249
   4  -3  -5  125.87   16.66  64 0.11850 0.19485 0.76675-0.95678-0.59426 0.24576
   4  -2  -3  602.04   19.91  64 0.11372 0.22887 0.76911-0.89690-0.59317 0.41053
   5  -3  -9   -7.08   31.91  65 0.10819 0.24518 0.77179-0.96393-0.59189-0.07455
   5  -3  -7  307.66   26.53  65 0.10898 0.27158 0.77141-0.96237-0.59207 0.09421
   5  -2  -4   16.17   20.86  65 0.10525 0.32038 0.77321-0.90143-0.59119 0.34325
   5   3   1   71.91   21.66  65 0.10414 0.39372 0.77374-0.58994-0.59093 0.76207
   5   5   2  465.30   29.13  65 0.10933 0.40332 0.77124-0.46380-0.59216 0.84659
   6  -2  -5  -15.94   16.71  64 0.11703 0.39197 0.76748-0.89581-0.59393 0.27899
   6   0  -2 2335.80   30.24  64 0.11409 0.43689 0.76893-0.77314-0.59326 0.52945
   6   1  -1  424.85   19.09  64 0.11776 0.44778 0.76712-0.70931-0.59410 0.61432
   7  -2  -9  186.73   27.95  64 0.11629 0.42793 0.76784-0.89930-0.59376-0.03679
   7  -2  -8    3.34   24.12  64 0.11629 0.44495 0.76784-0.89735-0.59376 0.04570
   7   1  -2  273.16   19.15  64 0.11593 0.53175 0.76802-0.71101-0.59368 0.54755
   7   6   1 1149.49   36.80  65 0.10910 0.58217 0.77136-0.40339-0.59210 0.79785
   8  -1  -8  124.20   36.65  65 0.10910 0.54630 0.77136-0.83982-0.59210 0.06308
   8   0  -5  -42.04   29.15  65 0.10801 0.59520 0.77188-0.77772-0.59184 0.31177
   8   4  -1   46.99   27.52  65 0.10588 0.65440 0.77291-0.52948-0.59134 0.64809
   8   6   0   44.14   30.56  65 0.10606 0.66901 0.77282-0.40476-0.59139 0.73263
   9   2  -4   -0.27   30.75  65 0.11040 0.70107 0.77072-0.65184-0.59240 0.41365
   9   3  -3   -1.56   30.59  65 0.11040 0.71605 0.77072-0.58975-0.59240 0.49748
  -7   5  -4   36.69   34.10  65 0.09418-0.83253 0.77848-0.46692-0.58858 0.13504
  -7   8  -1   31.35   29.32  65 0.09750-0.79333 0.77692-0.27853-0.58939 0.38704
  -7  11   0   64.07   40.59  65 0.09530-0.77789 0.77795-0.09321-0.58885 0.47117
  -6   4  -2  433.10   21.96  65 0.10156-0.71302 0.77500-0.52603-0.59037 0.32142
  -6   5  -1  389.47   20.82  65 0.10230-0.69907 0.77465-0.46314-0.59055 0.40529
  -5   1  -8  102.91   40.83  66 0.08359-0.68755 0.78336-0.72154-0.58594-0.16612
  -5   3  -1   70.96   22.30  65 0.09824-0.59769 0.77657-0.58953-0.58957 0.42098
  -5   4   0   -8.01   23.51  66 0.09307-0.57666 0.77899-0.52845-0.58831 0.50434
  -5   8   2    7.82   25.41  66 0.09455-0.55031 0.77830-0.27903-0.58867 0.67324
  -4   0  -9    0.10   49.84  67 0.07644-0.59822 0.78658-0.78819-0.58410-0.23624
  -4   4   1 1864.83   28.84  65 0.10008-0.47417 0.77570-0.52553-0.59002 0.60535
  -4   9   3  262.03   20.91  65 0.09935-0.44473 0.77605-0.21672-0.58984 0.77367
  -3  13   4    0.31   35.28  66 0.09123-0.32266 0.77985 0.02758-0.58785 0.87335
  -2   2   1  321.83   23.51  65 0.10045-0.28064 0.77552-0.65008-0.59011 0.63947
  -2   9   4   58.19   26.58  66 0.09359-0.23050 0.77875-0.21895-0.58844 0.89006
  -1   8   4   -0.50   25.62  66 0.09418-0.13415 0.77848-0.28052-0.58858 0.90927
   1  -3 -10  197.82   34.67  66 0.09457-0.14524 0.77829-0.96818-0.58868-0.22858
   2  -1  -1    8.49   15.70  65 0.10340 0.07586 0.77412-0.83748-0.59081 0.54171
   2   0   0 4811.74   63.90  65 0.09572 0.09873 0.77776-0.77906-0.58896 0.62288
   2   8   4  710.76   47.30  66 0.08229 0.16849 0.78395-0.28866-0.58561 0.95600
   4  -3 -10    3.31   34.76  66 0.09473 0.14645 0.77822-0.96925-0.58872-0.17752
   4  -3  -6   42.82   21.38  66 0.09096 0.20870 0.77997-0.97100-0.58779 0.15474
   4   4   2  624.79   30.58  66 0.09371 0.32317 0.77869-0.53295-0.58847 0.82518
   5  -3  -8  611.31   24.40  65 0.10340 0.26287 0.77412-0.96564-0.59081 0.01019
   6  -2  -6   50.35   23.90  66 0.09086 0.40143 0.78002-0.90913-0.58776 0.19110
   6   7   2   66.77   28.97  66 0.09205 0.51768 0.77947-0.34990-0.58806 0.85986
   7  -1  -5  404.03   21.20  65 0.10340 0.50012 0.77412-0.84155-0.59081 0.29546
   7   4   0  136.31   25.22  65 0.09858 0.57746 0.77641-0.53225-0.58965 0.71174
   9   1  -6   42.46   33.54  65 0.09697 0.68369 0.77717-0.72174-0.58926 0.24511
  -7   6  -2   12.37   30.42  67 0.07946-0.79079 0.78524-0.41123-0.58485 0.29860
  -7   7  -1  -15.37   28.00  67 0.07724-0.76977 0.78623-0.35014-0.58428 0.38286
  -7   9   0  315.83   32.35  67 0.07593-0.75555 0.78682-0.22669-0.58394 0.46688
  -7  10   0   43.21   28.17  66 0.08833-0.76978 0.78120-0.15859-0.58710 0.46877
  -6   3  -3  255.57   25.88  66 0.08284-0.70917 0.78371-0.59634-0.58572 0.23401
  -6   6   0 1301.12   26.44  66 0.08796-0.67013 0.78137-0.40696-0.58701 0.48631
  -6   8   1    7.94   20.11  66 0.08649-0.65431 0.78205-0.28290-0.58664 0.57004
  -5   1  -4  824.62   31.22  66 0.08243-0.62672 0.78389-0.72087-0.58561 0.16700
  -5   2  -2   48.28   16.76  66 0.08501-0.60017 0.78272-0.65663-0.58627 0.33383
  -4   8   3  182.92   26.39  67 0.07729-0.42147 0.78621-0.28826-0.58429 0.76819
  -3  11   4  450.50   33.35  66 0.08163-0.31525 0.78426-0.10181-0.58541 0.87119
  -3  12   4   72.68   24.51  66 0.08760-0.32267 0.78154-0.03596-0.58692 0.87262
  -3  14   4    3.30   38.52  67 0.08168-0.31494 0.78424 0.08862-0.58542 0.87410
   1  -1  -1  541.93   28.68  66 0.08538-0.00331 0.78255-0.84648-0.58636 0.51826
   2  -3 -10   14.40   32.03  66 0.07835-0.03273 0.78574-0.97727-0.58457-0.21680
   3  -3 -10   18.79   32.40  66 0.08015 0.06242 0.78493-0.97654-0.58503-0.19874
   3  -3  -5   19.55   15.36  66 0.08833 0.12878 0.78120-0.97052-0.58710 0.22084
   4  -3  -9   10.84   29.67  66 0.07983 0.17482 0.78507-0.97741-0.58495-0.09834
   4  -3  -7   32.26   22.54  67 0.07465 0.20961 0.78739-0.97817-0.58361 0.06773
   4  -1  -2  213.19   21.74  67 0.07909 0.27833 0.78540-0.85100-0.58476 0.48562
   6  -2 -10  173.82   34.83  67 0.07999 0.35079 0.78500-0.91528-0.58499-0.14548
   6  -2  -7    3.71   24.31  67 0.07743 0.40348 0.78615-0.91638-0.58433 0.10147
   6  -1  -4   19.33   23.09  67 0.07872 0.44342 0.78557-0.85215-0.58466 0.35448
   7  -1  -6  189.01   27.85  67 0.07835 0.50948 0.78574-0.85459-0.58457 0.20486
   8   0  -6   15.03   28.22  66 0.08198 0.60397 0.78410-0.79072-0.58550 0.22339
   8   1  -4   49.35   21.15  66 0.08686 0.62848 0.78188-0.72562-0.58673 0.39185
   8   2  -3   16.25   27.53  67 0.07805 0.65180 0.78587-0.66726-0.58449 0.47330
   8   3  -2   -9.87   26.17  67 0.08113 0.66317 0.78449-0.60257-0.58528 0.55638
   9   1  -7   37.82   39.24  67 0.07953 0.68640 0.78521-0.72970-0.58487 0.15701
   9   2  -5  204.65   35.85  67 0.07798 0.71857 0.78590-0.66906-0.58447 0.32367
   9   5  -2  152.86   27.48  66 0.08538 0.75523 0.78255-0.47874-0.58636 0.57676
   9   7  -1   39.24   37.21  67 0.08255 0.76985 0.78384-0.35587-0.58564 0.65941
  -7   4  -6  -22.30   36.02  68 0.06141-0.82822 0.79318-0.54446-0.57999-0.03859
  -7   4  -5    2.50   32.21  68 0.06160-0.81312 0.79310-0.54388-0.58004 0.04482
  -7   5  -3   14.92   23.29  67 0.07289-0.79778 0.78818-0.47653-0.58305 0.21304
  -6   2  -6  387.84   32.32  68 0.06099-0.73159 0.79336-0.66834-0.57987-0.02169
  -6   7   1  252.61   26.38  68 0.06245-0.62959 0.79273-0.35644-0.58027 0.56306
  -6  10   2   75.96   30.26  68 0.06151-0.61515 0.79314-0.17095-0.58002 0.64573
  -6  11   2   41.02   25.73  67 0.06956-0.62479 0.78964-0.10488-0.58217 0.64866
  -6  12   2  320.48   30.00  67 0.07437-0.62814 0.78752-0.04123-0.58344 0.65193
  -5   5   1   74.59   18.05  67 0.06919-0.53975 0.78981-0.47786-0.58208 0.58081
  -5   7   2  452.85   26.08  67 0.06837-0.52380 0.79017-0.35384-0.58186 0.66558
  -5  11   3   13.81   32.97  67 0.06623-0.50937 0.79110-0.10651-0.58129 0.74828
  -5  12   3    5.90   26.94  67 0.07067-0.51258 0.78916-0.04158-0.58247 0.75194
  -5  13   3   21.68   29.40  67 0.07215-0.51605 0.78850 0.01994-0.58286 0.75059
  -3   4   2   50.62   22.61  67 0.06822-0.33046 0.79023-0.54058-0.58182 0.69783
  -3   6   3 2114.27   34.69  68 0.06365-0.31084 0.79222-0.41817-0.58059 0.78103
  -3  10   4   45.84   26.88  67 0.06993-0.30410 0.78948-0.16809-0.58227 0.86703
  -2   8   4   77.31   24.56  68 0.06292-0.19931 0.79253-0.29512-0.58040 0.88174
   0  -3  -8   -1.63   25.96  68 0.06456-0.18203 0.79182-0.98111-0.58084-0.08748
   0  -3  -6  189.49   28.07  68 0.05928-0.14769 0.79409-0.98191-0.57941 0.07798
   0   7   4  107.48   25.35  68 0.06127-0.00387 0.79324-0.35846-0.57995 0.91566
   1  -3  -5   -1.33   21.09  68 0.06475-0.04142 0.79174-0.97935-0.58089 0.18035
   2  -3  -5 1270.51   31.38  68 0.06625 0.05278 0.79109-0.97938-0.58129 0.19663
   3  -2  -3  710.77   21.78  67 0.07067 0.17501 0.78916-0.91643-0.58247 0.38201
   4  -3  -8   24.23   19.74  67 0.07141 0.19802 0.78883-0.98005-0.58266-0.01674
   4   0  -1   -6.88   20.53  68 0.06364 0.31102 0.79222-0.79471-0.58059 0.56593
   4   1   0   59.95   15.83  67 0.07252 0.31365 0.78834-0.72979-0.58296 0.65116
   5  -2 -11  198.60   41.83  68 0.06505 0.25507 0.79161-0.92202-0.58097-0.25048
   5  -2  -5  677.34   26.09  68 0.06485 0.34446 0.79170-0.91969-0.58092 0.24943
   5  -1  -3  978.56   26.40  68 0.06552 0.37355 0.79141-0.85678-0.58110 0.41570
   5   9   3    2.84   40.14  68 0.05888 0.46867 0.79426-0.23739-0.57930 0.92009
   6  -2  -9  130.15   23.98  67 0.07178 0.37573 0.78867-0.91957-0.58276-0.06541
   6  -2  -8  201.51   28.18  67 0.06745 0.39392 0.79057-0.91984-0.58161 0.01739
   6   3   0   17.75   23.54  68 0.06478 0.51467 0.79173-0.60860-0.58090 0.68497
   7  -1  -7  132.32   28.06  68 0.06263 0.51126 0.79266-0.86139-0.58032 0.11706
   7   0  -4   -2.19   17.37  67 0.07437 0.54598 0.78752-0.79184-0.58344 0.36962
   7   3  -1   -8.02   25.30  68 0.06530 0.59901 0.79150-0.60867-0.58104 0.61864
   7   7   1    3.23   28.48  68 0.06234 0.63232 0.79278-0.36023-0.58024 0.78719
   8   0  -7   29.89   32.54  68 0.06500 0.60555 0.79163-0.79816-0.58096 0.13523
   8   7   0   37.69   34.28  68 0.06365 0.70938 0.79222-0.36270-0.58059 0.72118
   9   3  -4  579.81   33.34  67 0.06654 0.74387 0.79097-0.61114-0.58137 0.40339
   9   4  -3  158.98   31.84  67 0.06891 0.75689 0.78993-0.54773-0.58200 0.48828
  -7   4  -4   28.64   31.79  68 0.05045-0.78829 0.79784-0.54825-0.57696 0.12343
  -7   5  -2   25.43   27.31  69 0.04724-0.75505 0.79918-0.48736-0.57606 0.28988
  -7   6  -1 1084.36   31.26  69 0.04686-0.74031 0.79933-0.42501-0.57595 0.37494
  -7   8   0  176.79   23.81  68 0.05787-0.73739 0.79472-0.29620-0.57902 0.46219
  -7  11   1   13.78   36.35  69 0.05194-0.71953 0.79722-0.11094-0.57738 0.54487
  -6   2  -7   -7.71   36.53  69 0.04860-0.73456 0.79861-0.67456-0.57644-0.10989
  -6   2  -5   59.39   27.38  68 0.05526-0.71232 0.79583-0.67157-0.57830 0.05814
  -6   3  -2   89.01   23.76  69 0.04610-0.65691 0.79965-0.61293-0.57574 0.30674
  -6   4  -1   14.68   18.03  68 0.05676-0.65416 0.79520-0.54511-0.57871 0.39265
  -6   5   0  458.27   27.49  68 0.05045-0.63234 0.79785-0.48576-0.57696 0.47558
  -6   9   2   39.90   28.19  68 0.04799-0.60038 0.79886-0.23908-0.57627 0.64138
  -5  10   3  541.17   24.47  68 0.05564-0.49718 0.79567-0.17404-0.57841 0.74607
  -4   0  -3   -2.65   22.34  69 0.05194-0.48432 0.79722-0.79687-0.57738 0.25904
  -4   5   2  188.73   17.81  68 0.05898-0.41791 0.79425-0.48290-0.57932 0.67841
  -4   7   3  437.41   25.64  69 0.04670-0.39093 0.79940-0.36383-0.57591 0.75911
  -4  13   4   57.50   35.39  69 0.04593-0.37737 0.79972 0.00804-0.57569 0.84384
  -3   9   4 1146.87   32.62  68 0.05003-0.28306 0.79802-0.23854-0.57684 0.86173
  -2   5   3 1197.54   27.61  68 0.05750-0.20810 0.79488-0.48298-0.57891 0.79626
  -1  -2 -10   15.07   43.54  69 0.03661-0.28186 0.80350-0.93084-0.57301-0.27936
  -1   7   4 1452.58   35.22  69 0.04761-0.08698 0.79902-0.36425-0.57616 0.89445
   0  -3  -7  184.35   27.09  69 0.04876-0.15181 0.79855-0.98737-0.57649-0.00865
   0  -2 -11   15.87   43.54  69 0.04128-0.20413 0.80162-0.92919-0.57436-0.34225
   1  -3  -9    5.14   26.08  69 0.05008-0.08614 0.79800-0.98654-0.57686-0.15509
   1   0   0   -1.28   26.80  68 0.05008 0.04742 0.79800-0.79857-0.57686 0.59434
   1   7   4  197.23   33.63  69 0.03642 0.11729 0.80358-0.36961-0.57296 0.92587
   2  -3  -9  685.11   33.34  69 0.04641 0.01420 0.79952-0.99011-0.57583-0.14112
   3  -3  -9   18.99   21.18  68 0.05750 0.10015 0.79488-0.98617-0.57892-0.12139
   3  -3  -8  322.87   26.13  69 0.04502 0.12718 0.80009-0.99077-0.57543-0.04043
   3  -3  -7  540.54   26.30  69 0.04498 0.14183 0.80011-0.99028-0.57542 0.04237
   3  -3  -6 1126.00   24.73  68 0.05898 0.14241 0.79425-0.98416-0.57932 0.12931
   4  -2  -4 1048.33   22.87  68 0.05527 0.27283 0.79582-0.92356-0.57830 0.31257
   5   2   0  415.14   23.80  68 0.05277 0.43037 0.79687-0.67571-0.57761 0.66389
   6   0  -3   13.63   22.07  69 0.05033 0.48575 0.79789-0.80150-0.57693 0.43021
   6   5   1  437.56   29.20  69 0.05009 0.54480 0.79799-0.49151-0.57686 0.76462
   7  -1  -9  -12.12   27.03  68 0.05601 0.49011 0.79551-0.86313-0.57851-0.05263
   7  -1  -8  468.76   25.94  68 0.05564 0.50317 0.79567-0.86491-0.57841 0.03199
   7   1  -3  416.20   20.08  68 0.05676 0.57572 0.79520-0.73839-0.57871 0.44946
   7   2  -2  173.26   23.48  69 0.05141 0.59545 0.79744-0.67739-0.57723 0.53154
   8   0  -8  249.78   28.26  68 0.05750 0.59783 0.79488-0.80270-0.57892 0.04974
   8   1  -5  255.98   28.17  69 0.05148 0.64757 0.79742-0.74093-0.57725 0.29839
   8   5  -1  207.85   23.94  68 0.05824 0.70097 0.79457-0.49028-0.57912 0.63487
   9   2  -6   26.07   32.70  69 0.05130 0.72823 0.79749-0.68002-0.57720 0.23338
   9   6  -2    9.94   38.80  69 0.04953 0.79320 0.79823-0.43056-0.57670 0.56639
  -8   7  -3  157.26   36.27  69 0.03825-0.85999 0.80276-0.36758-0.57345 0.18853
  -8   8  -2  170.41   37.24  69 0.04020-0.84755 0.80197-0.30388-0.57401 0.27234
  -8   9  -1   -6.68   35.90  70 0.03312-0.82299 0.80481-0.24534-0.57195 0.35400
  -7   7   0  251.76   32.11  69 0.03490-0.71315 0.80410-0.36904-0.57247 0.45493
  -7  10   1   40.90   26.81  69 0.04426-0.71094 0.80032-0.17760-0.57517 0.54077
  -6   2  -4  491.73   28.46  69 0.04092-0.68202 0.80168-0.67700-0.57422 0.13864
  -5   1  -9   40.40   47.03  70 0.02813-0.64553 0.80678-0.74632-0.57048-0.26529
  -5   1  -3  139.35   18.16  69 0.04352-0.57280 0.80063-0.73809-0.57496 0.23862
  -5   6   2   -8.12   24.01  70 0.03442-0.48889 0.80429-0.42918-0.57233 0.65614
  -5   9   3   27.45   26.12  69 0.03818-0.48168 0.80279-0.24132-0.57342 0.74089
  -4   2   0   42.49   16.80  69 0.04203-0.42937 0.80123-0.67594-0.57453 0.50634
  -4  11   4   20.21   32.79  69 0.03647-0.36779 0.80348-0.11891-0.57293 0.84091
  -4  12   4   60.71   25.49  69 0.04278-0.37463 0.80093-0.05427-0.57475 0.84347
  -2  -2  -8  566.94   62.10  74-0.03483-0.27489 0.82916-0.95500-0.55023-0.15331
  -2   3   2  197.37   18.46  69 0.04278-0.20782 0.80093-0.61340-0.57475 0.70805
   1  -3  -8   91.36   28.33  70 0.02708-0.04666 0.80719-0.99650-0.57016-0.07947
   1  -3  -6   75.02   23.55  70 0.03053-0.02195 0.80584-0.99480-0.57119 0.08660
   2  -3  -8   33.29   23.71  70 0.03034 0.04543 0.80591-0.99693-0.57113-0.06377
   2  -3  -6  328.71   24.84  70 0.03547 0.07096 0.80388-0.99264-0.57264 0.10607
   2  -2  -3 3732.78   46.39  70 0.03172 0.11832 0.80537-0.93172-0.57154 0.35455
   4  -2 -11   -3.52   38.03  70 0.03665 0.18978 0.80340-0.93273-0.57298-0.27621
   4   7   3   10.58   33.91  70 0.02559 0.40459 0.80776-0.37483-0.56972 0.89141
   5  -2 -10    0.46   25.68  69 0.04352 0.29472 0.80063-0.93018-0.57496-0.17414
   5  -2  -6  328.42   19.53  69 0.04055 0.35496 0.80183-0.93072-0.57411 0.15963
   5   0  -2   -8.86   14.53  69 0.04352 0.41307 0.80063-0.80354-0.57496 0.49384
   5   1  -1  387.33   23.88  70 0.03583 0.43301 0.80373-0.74410-0.57274 0.57601
   6  -1  -5  141.97   18.00  69 0.04278 0.46472 0.80093-0.86771-0.57475 0.26100
   6   1  -2   30.97   22.40  70 0.03645 0.51412 0.80349-0.74469-0.57292 0.50983
   6   2  -1  177.69   17.12  69 0.04129 0.52475 0.80153-0.68101-0.57432 0.59503
   6   8   2  102.59   30.95  70 0.03258 0.57591 0.80502-0.31149-0.57179 0.84556
   7   0  -5   69.72   19.21  69 0.04018 0.56364 0.80198-0.80759-0.57400 0.27762
   7   5   0  111.92   20.45  69 0.04278 0.63422 0.80093-0.49468-0.57475 0.69706
   8   2  -4  239.30   29.14  70 0.03424 0.68100 0.80437-0.68526-0.57228 0.37923
   8   4  -2  213.56   29.74  70 0.03400 0.71024 0.80446-0.56070-0.57221 0.54618
   8   8   0  244.77   39.92  70 0.02834 0.74436 0.80669-0.31409-0.57054 0.71242
   9   2  -7   49.18   35.93  69 0.03653 0.72970 0.80345-0.68681-0.57295 0.14569
   9   3  -5   16.64   35.83  69 0.03609 0.76200 0.80363-0.62459-0.57282 0.31236
   9   5  -3   -2.87   32.05  70 0.03312 0.79742 0.80481-0.49924-0.57195 0.47785
  -8   7  -2   33.81   34.30  70 0.01973-0.82391 0.81001-0.37466-0.56802 0.26579
  -7   4  -3   14.40   22.28  70 0.02872-0.75325 0.80653-0.55706-0.57072 0.20071
  -7   9   1    4.04   24.71  70 0.03058-0.69561 0.80580-0.24452-0.57127 0.53800
  -6   2  -8  124.46   43.57  70 0.02006-0.71935 0.80988-0.68772-0.56812-0.20107
  -6   6   1   -1.63   18.10  70 0.03021-0.59750 0.80595-0.43080-0.57116 0.55452
  -6   8   2  196.14   21.68  70 0.02538-0.57959 0.80784-0.31046-0.56972 0.63501
  -5   2  -1  187.33   23.09  70 0.02398-0.52317 0.80838-0.68360-0.56930 0.39995
  -5   3   0   -0.35   16.80  70 0.03021-0.51440 0.80595-0.61754-0.57116 0.48744
  -5   4   1  864.83   26.50  71 0.01757-0.48835 0.81083-0.56153-0.56736 0.56482
  -5   8   3 1025.53   29.16  71 0.01711-0.45998 0.81101-0.31420-0.56722 0.73241
  -4   1  -1  470.83   21.68  70 0.02872-0.43204 0.80653-0.74361-0.57072 0.41751
  -4   3   1  239.73   18.37  70 0.02984-0.40337 0.80610-0.61858-0.57105 0.58600
  -4  10   4  435.66   31.90  70 0.02352-0.35562 0.80856-0.18787-0.56916 0.83598
  -3   1   0   12.12   23.54  71 0.01981-0.31104 0.80998-0.74673-0.56804 0.51657
  -3   8   4  404.73   26.98  70 0.02135-0.25576 0.80939-0.31264-0.56851 0.85219
  -2  -1  -2   74.89   23.67  70 0.02231-0.24586 0.80902-0.87094-0.56880 0.36705
  -2   7   4  361.33   26.16  71 0.01921-0.15663 0.81021-0.37484-0.56786 0.86857
  -1  12   5   87.13   33.79  70 0.02117-0.04852 0.80946-0.06445-0.56845 0.97170
  -1  13   5   12.38   35.45  70 0.02334-0.04962 0.80863-0.00021-0.56911 0.97391
  -1  14   5  180.68   43.25  70 0.02151-0.04960 0.80933 0.05877-0.56855 0.97259
   0  12   5   56.10   34.92  70 0.02061 0.05033 0.80968-0.06456-0.56828 0.98925
   0  13   5  273.53   39.55  70 0.02382 0.04396 0.80844-0.00291-0.56925 0.99083
   0  14   5  100.26   44.01  70 0.02175 0.04768 0.80924 0.05879-0.56863 0.99000
   1  -3  -7  122.08   25.26  71 0.01911-0.02396 0.81025-0.99952-0.56783 0.00087
   2  -3  -7 2201.02   38.01  71 0.02219 0.06986 0.80907-0.99780-0.56876 0.01875
   3  -2 -11   31.66   34.11  70 0.01827 0.10976 0.81057-0.94157-0.56757-0.30107
   3  -1  -2    5.65   21.39  71 0.01920 0.24282 0.81021-0.87496-0.56785 0.45240
   3   2   1 1961.33   41.90  71 0.01570 0.28941 0.81154-0.68834-0.56678 0.70321
   5  -2  -9  160.68   24.38  70 0.02946 0.32322 0.80624-0.93652-0.57094-0.09185
   5  -2  -8  207.90   28.69  71 0.02118 0.34508 0.80946-0.93769-0.56846-0.01178
   5  -2  -7  158.70   19.75  70 0.02649 0.35542 0.80740-0.93625-0.57005 0.07314
   5   6   2   88.05   29.38  71 0.01424 0.49790 0.81209-0.44230-0.56634 0.82140
   6  -1 -10    4.36   33.78  71 0.01907 0.41706 0.81026-0.87906-0.56781-0.16553
   6  -1  -6  107.42   24.57  71 0.01852 0.47456 0.81047-0.87748-0.56765 0.17120
   7   0  -6   -0.37   25.41  70 0.02055 0.57264 0.80970-0.81739-0.56826 0.18710
   7   8   1   54.72   30.11  71 0.01634 0.67518 0.81130-0.31869-0.56698 0.77448
   8   1  -6   30.25   22.44  70 0.02909 0.65672 0.80639-0.75087-0.57083 0.20868
   8   3  -3   49.23   20.35  70 0.02724 0.70276 0.80711-0.62646-0.57027 0.45917
   8   6  -1   14.48   29.85  71 0.01579 0.74422 0.81151-0.44402-0.56681 0.62396
   9   4  -4    3.41   26.34  70 0.02649 0.78648 0.80740-0.56444-0.57005 0.39150
   9   7  -2   64.93   37.12  71 0.01609 0.82452 0.81139-0.38311-0.56691 0.55785
  -8   6  -3   14.03   33.85  71 0.00791-0.83146 0.81435-0.44022-0.56445 0.17754
  -8   8  -1   31.27   28.79  71 0.01323-0.80538 0.81237-0.31382-0.56611 0.34708
  -7   3  -6  108.14   35.62  72 0.00153-0.76824 0.81667-0.63080-0.56244-0.05719
  -7   3  -5   10.24   32.07  71 0.00579-0.75599 0.81512-0.62851-0.56379 0.02865
  -7   4  -2   20.77   26.48  72 0.00217-0.71028 0.81644-0.56649-0.56264 0.27654
  -7   5  -1   10.73   25.17  71 0.00951-0.70447 0.81375-0.50143-0.56495 0.36232
  -7   6   0   42.45   28.42  72 0.00444-0.68428 0.81562-0.44093-0.56336 0.44445
  -7   8   1  303.22   24.43  71 0.01137-0.67682 0.81306-0.31618-0.56553 0.53013
  -7  11   2   85.04   40.34  71 0.00520-0.65650 0.81534-0.13042-0.56360 0.61283
  -6   2  -3   63.28   19.40  71 0.01397-0.63978 0.81209-0.68781-0.56634 0.21306
  -6   4   0   18.69   23.22  72 0.00245-0.58545 0.81634-0.56602-0.56273 0.46061
  -6  11   3  -12.20   36.32  72 0.00654-0.54560 0.81485-0.12888-0.56402 0.71648
  -6  12   3   40.82   29.34  71 0.01434-0.55462 0.81195-0.06496-0.56645 0.71694
  -4   6   3    7.23   23.98  72 0.00542-0.35056 0.81526-0.44066-0.56367 0.74711
  -4   9   4   10.64   27.96  71 0.00544-0.33584 0.81525-0.25463-0.56368 0.83051
  -3  -1  -3  195.55   23.79  71 0.00759-0.34261 0.81446-0.87671-0.56435 0.26146
  -3   2   1  217.42   20.10  71 0.01360-0.29048 0.81223-0.68669-0.56622 0.59827
  -3   5   3   32.94   23.30  72 0.00609-0.25379 0.81501-0.50276-0.56388 0.76404
  -2  12   5   40.35   35.20  71 0.00574-0.12875 0.81514-0.06923-0.56377 0.95004
  -2  13   5   17.72   38.66  71 0.00951-0.13276 0.81375-0.00585-0.56495 0.95161
  -2  14   5  210.85   44.78  71 0.00709-0.13325 0.81465 0.05215-0.56420 0.95052
  -1  11   5    9.57   30.35  72 0.00629-0.03226 0.81494-0.13106-0.56395 0.96842
   0  -2  -3 1273.03   45.69  72-0.00405-0.04003 0.81867-0.94400-0.56065 0.30864
   0  11   5  162.47   32.49  71 0.00561 0.06359 0.81519-0.13308-0.56373 0.98377
   1  -2 -11  190.28   38.71  72 0.00576-0.06881 0.81513-0.94353-0.56378-0.33608
   1  -2  -3  246.07   24.20  72 0.00059 0.05161 0.81701-0.94310-0.56214 0.32715
   1  13   5   62.03   41.62  72-0.00271 0.16906 0.81820-0.01188-0.56108 0.99981
   2  -2 -11    4.69   37.41  72 0.00357 0.02756 0.81593-0.94555-0.56309-0.32051
   3  -2  -4    8.10   20.41  71 0.00556 0.22639 0.81521-0.94229-0.56372 0.28110
   4  -2 -10  309.29   31.38  72 0.00676 0.23432 0.81477-0.94328-0.56409-0.20001
   4  -2  -5  759.70   21.48  71 0.01545 0.29930 0.81153-0.93945-0.56679 0.21932
   4  -1  -3 1555.20   29.57  72 0.00245 0.34127 0.81634-0.88120-0.56273 0.38142
   5  -1  -4  983.29   22.81  71 0.01545 0.41028 0.81153-0.87703-0.56679 0.32020
   5   4   1 2088.96   38.94  72 0.00662 0.49104 0.81482-0.56826-0.56405 0.73555
   6  -1  -9  120.58   32.70  72 0.00505 0.44374 0.81539-0.88410-0.56356-0.08278
   6  -1  -7  143.05   27.10  72 0.00508 0.47348 0.81538-0.88306-0.56356 0.08365
   6   0  -4 1109.77   28.35  72 0.00398 0.51831 0.81579-0.81981-0.56322 0.33475
   7   0  -7   33.13   27.26  71 0.00471 0.57204 0.81552-0.82296-0.56345 0.09902
   7   1  -4  546.86   21.73  71 0.01211 0.60683 0.81279-0.75539-0.56576 0.35518
   7   4  -1   58.87   26.65  72 0.00564 0.65594 0.81518-0.57109-0.56374 0.60242
   8   1  -8   65.42   37.05  72 0.00652 0.64911 0.81486-0.75992-0.56402 0.03518
   8   1  -7  116.80   25.03  71 0.01434 0.65744 0.81195-0.75659-0.56645 0.12243
   8   2  -5  174.09   28.24  72 0.00198 0.69912 0.81651-0.69826-0.56258 0.28575
   9   3  -6  621.69   30.27  71 0.01174 0.77193 0.81293-0.63265-0.56565 0.22452
  -8   5  -4   21.08   36.97  73-0.01336-0.82285 0.82200-0.51080-0.55747 0.08756
  -8   6  -2  154.44   33.42  73-0.01097-0.79428 0.82118-0.44750-0.55826 0.25628
  -8   7  -1  172.56   36.09  72-0.00973-0.78128 0.82075-0.38463-0.55866 0.33954
  -8   9   0   -6.88   28.81  72-0.00295-0.77474 0.81836-0.25737-0.56087 0.42729
  -7   3  -4  416.42   34.28  72-0.00690-0.73043 0.81976-0.63432-0.55959 0.10670
  -7  10   2   66.42   33.39  72-0.00593-0.64546 0.81941-0.19625-0.55990 0.60953
  -6   3  -1  175.09   19.03  72-0.00035-0.59590 0.81743-0.63054-0.56170 0.37590
  -6   5   1  115.85   25.62  73-0.00928-0.55843 0.82059-0.50845-0.55881 0.54047
  -6   7   2   49.18   20.11  72-0.00110-0.55278 0.81770-0.38067-0.56146 0.62743
  -6  10   3  -14.58   23.64  72-0.00407-0.53422 0.81876-0.19484-0.56051 0.71262
  -5   0  -6    2.78   31.89  73-0.01187-0.56120 0.82149-0.82139-0.55796-0.02836
  -5   0  -5   34.13   28.74  73-0.01819-0.54031 0.82366-0.82417-0.55587 0.05322
  -5   1  -2  236.46   24.91  72-0.00770-0.50627 0.82004-0.75752-0.55933 0.30640
  -5   5   2  435.26   26.37  73-0.00993-0.44635 0.82082-0.50878-0.55860 0.64037
  -5   7   3   37.06   23.98  73-0.01200-0.42962 0.82154-0.38493-0.55792 0.72404
  -5  11   4  147.93   32.40  73-0.01092-0.41667 0.82116-0.13738-0.55827 0.80900
  -5  12   4   64.48   34.37  72-0.00521-0.42393 0.81916-0.07170-0.56014 0.81243
  -5  13   4  222.79   31.98  72-0.00147-0.42887 0.81783-0.01156-0.56134 0.81249
  -4   4   2 1159.67   24.94  72-0.00073-0.35895 0.81756-0.56798-0.56158 0.66012
  -3   0  -1  956.97   31.11  73-0.01183-0.29423 0.82148-0.82083-0.55798 0.42193
  -2  11   5  494.30   34.54  72-0.00618-0.11864 0.81950-0.13696-0.55982 0.94570
  -1   4   3 4363.76   54.31  72-0.00433-0.05006 0.81885-0.56931-0.56042 0.79482
  -1  10   5 1247.31   35.83  73-0.01278-0.01407 0.82181-0.20178-0.55766 0.95990
   0   4   3  129.85   24.37  72-0.00412 0.04678 0.81877-0.56998-0.56049 0.81208
   1  12   5  460.90   44.08  72-0.01010 0.17614 0.82088-0.07786-0.55854 0.99652
   4  -2  -9  102.69   29.95  73-0.01038 0.26507 0.82098-0.95086-0.55845-0.12333
   4  -2  -6  926.48   27.93  73-0.00962 0.30930 0.82071-0.94903-0.55870 0.12760
   4   3   1 2925.48   44.80  73-0.01153 0.41344 0.82137-0.63669-0.55807 0.71186
   5  -1 -11   15.11   36.19  73-0.00665 0.32720 0.81967-0.88778-0.55967-0.27003
   5  10   3  379.04   47.18  74-0.02319 0.54951 0.82534-0.20806-0.55419 0.89331
   6  -1  -8  151.15   21.18  72 0.00076 0.46274 0.81703-0.88510-0.56206-0.00114
   6   4   0    6.15   23.85  73-0.00890 0.58811 0.82046-0.57536-0.55894 0.66298
   6   9   2   11.46   38.14  74-0.02274 0.63091 0.82519-0.26999-0.55434 0.82731
   7   0  -9   17.32   25.98  72 0.00002 0.54503 0.81730-0.82498-0.56182-0.06848
   7   0  -8    3.55   23.71  72-0.00295 0.56410 0.81836-0.82408-0.56087 0.01295
   7   2  -3  622.50   26.67  72-0.00578 0.63831 0.81936-0.69922-0.55995 0.43213
   7   3  -2  493.55   28.05  73-0.00847 0.65576 0.82031-0.63789-0.55908 0.51463
   7   6   0    2.66   28.73  73-0.01038 0.68702 0.82098-0.45279-0.55845 0.68106
   8   5  -2    4.66   28.34  73-0.01187 0.75626 0.82149-0.51658-0.55796 0.53073
   8   9   0  -18.59   35.68  73-0.00574 0.77777 0.81935-0.26510-0.55996 0.69910
   9   4  -5   11.13   33.26  73-0.00704 0.80312 0.81981-0.57741-0.55954 0.29751
   9   5  -4   35.91   34.02  73-0.01146 0.82311 0.82135-0.51762-0.55810 0.38109
   9   6  -3  429.27   35.96  72-0.00623 0.83150 0.81952-0.45216-0.55981 0.46784
  -8   5  -3  265.96   34.56  74-0.02528-0.79361 0.82600-0.51537-0.55358 0.16843
  -8   8   0  252.19   37.25  73-0.02144-0.75501 0.82473-0.32727-0.55488 0.42112
  -7   3  -3  127.48   31.19  73-0.02442-0.69804 0.82572-0.63852-0.55387 0.18484
  -7   7   1   29.11   22.24  73-0.01355-0.65201 0.82204-0.38518-0.55751 0.52281
  -7   9   2  314.60   34.63  73-0.02135-0.62898 0.82470-0.26514-0.55491 0.60483
  -6   2  -2  570.54   27.96  73-0.02314-0.58763 0.82529-0.70061-0.55430 0.28506
  -6   9   3  743.16   31.95  73-0.02024-0.51883 0.82432-0.26504-0.55528 0.70530
  -5   0  -7   67.43   36.60  74-0.03205-0.55535 0.82822-0.82901-0.55126-0.11678
  -5  10   4  146.86   32.62  73-0.02412-0.40350 0.82562-0.20333-0.55397 0.80459
  -4  -1  -6   12.22   31.75  74-0.02811-0.44784 0.82694-0.88940-0.55261-0.01682
  -4   0  -2 1523.07   35.21  73-0.02086-0.39689 0.82453-0.82405-0.55507 0.31856
  -4   8   4  690.68   29.64  73-0.02267-0.30805 0.82514-0.32803-0.55446 0.82157
  -3   3   2 3357.79   39.00  73-0.01727-0.24552 0.82332-0.63542-0.55628 0.67191
  -3   7   4    4.44   16.71  73-0.01690-0.21396 0.82319-0.38577-0.55640 0.84235
  -3  12   5  559.32   35.50  73-0.01999-0.20085 0.82424-0.07980-0.55537 0.92461
  -3  13   5  -20.57   28.95  73-0.01541-0.20183 0.82268-0.01291-0.55689 0.92784
  -2  10   5   11.83   29.15  73-0.02426-0.09820 0.82567-0.20364-0.55392 0.93981
  -1   6   4  279.49   26.22  74-0.02449-0.01534 0.82574-0.45301-0.55385 0.87159
   0  -2 -10  218.61   40.04  75-0.03726-0.10815 0.82989-0.95795-0.54945-0.28502
   0  10   5   14.15   28.72  74-0.02507 0.09638 0.82593-0.20472-0.55365 0.97448
   1  11   5   14.31   36.92  74-0.03346 0.20121 0.82868-0.14667-0.55077 0.98804
   2   3   2  452.16   39.39  74-0.03225 0.25503 0.82829-0.64227-0.55119 0.75354
   3  -2 -10   36.59   29.70  74-0.02176 0.16451 0.82483-0.95383-0.55477-0.22681
   3   0  -1  728.46   24.09  73-0.01690 0.29300 0.82319-0.82497-0.55640 0.52463
   3   1   0   25.59   19.16  74-0.02384 0.31371 0.82553-0.76470-0.55407 0.60666
   4  -2  -8  334.36   28.35  74-0.02293 0.29224 0.82522-0.95328-0.55437-0.04396
   4  -2  -7   23.11   23.60  74-0.02358 0.30746 0.82544-0.95288-0.55415 0.03902
   5  -1 -10  137.38   31.36  74-0.02774 0.36520 0.82681-0.89591-0.55274-0.19533
   5  -1  -5  747.87   25.23  74-0.02174 0.43216 0.82482-0.89026-0.55478 0.22389
   5   0  -3  210.49   21.86  74-0.02388 0.46344 0.82554-0.82912-0.55405 0.39013
   6   1  -3  297.02   23.69  74-0.02352 0.55994 0.82542-0.76739-0.55417 0.40797
   6   6   1   58.28   24.04  73-0.01793 0.61197 0.82354-0.45471-0.55605 0.74448
   7   1  -5  365.98   25.97  74-0.02204 0.62518 0.82492-0.76770-0.55468 0.25883
   7   9   1   19.96   35.60  74-0.02364 0.71459 0.82546-0.27114-0.55413 0.76109
   8   2  -6  365.53   30.60  73-0.02198 0.70749 0.82491-0.70605-0.55469 0.19348
   8   3  -4   -6.66   20.27  73-0.01541 0.73217 0.82268-0.64139-0.55689 0.36037
   8   4  -3   66.10   27.68  73-0.02204 0.75025 0.82493-0.58251-0.55467 0.44339
   8   7  -1  292.32   36.29  74-0.02476 0.78334 0.82583-0.39666-0.55375 0.61039
   9   4  -6   26.59   34.47  74-0.02589 0.81034 0.82620-0.58545-0.55337 0.20854
  -8   6  -1  -10.48   33.25  75-0.03942-0.75114 0.83068-0.45604-0.54866 0.33033
  -8   9   1   39.23   35.33  75-0.04078-0.72092 0.83111-0.27083-0.54819 0.49668
  -7   4  -1  -14.91   25.75  75-0.03683-0.65898 0.82986-0.57934-0.54957 0.34798
  -7   5   0   82.29   20.36  74-0.03311-0.64676 0.82867-0.51587-0.55086 0.43217
  -7   8   2   77.64   29.04  75-0.04165-0.60861 0.83138-0.33335-0.54788 0.59719
  -6   1  -6   -7.54   31.61  75-0.03775-0.63334 0.83015-0.76839-0.54925-0.05351
  -6   1  -5  137.12   30.20  74-0.03522-0.62007 0.82935-0.76771-0.55013 0.03100
  -6   6   2  297.10   25.33  74-0.03485-0.51828 0.82923-0.45523-0.55026 0.61618
  -6   8   3   26.27   27.03  75-0.04239-0.49709 0.83161-0.33264-0.54762 0.69739
  -5   0  -4    5.74   25.69  75-0.03905-0.50512 0.83056-0.83036-0.54879 0.12886
  -4  -1  -5  193.90   30.12  74-0.03869-0.42278 0.83045-0.89257-0.54892 0.06291
  -3  11   5   59.78   24.26  74-0.03014-0.18990 0.82771-0.14442-0.55189 0.92091
  -2   4   3  165.93   18.50  74-0.03052-0.11969 0.82783-0.57831-0.55176 0.76896
  -2   6   4 1912.12   35.86  75-0.03894-0.09778 0.83053-0.45709-0.54883 0.84956
  -1   1   1  556.43   36.37  74-0.03452-0.04896 0.82912-0.76557-0.55037 0.61762
   0   1   1 3903.45  110.52  74-0.03662 0.05123 0.82979-0.76668-0.54964 0.63445
   0   6   4  816.90   33.19  74-0.03898 0.09606 0.83054-0.45784-0.54882 0.88423
   2  -2 -10   95.71   32.43  75-0.04123 0.08879 0.83125-0.96032-0.54803-0.25163
   3  -2  -5  541.86   25.04  75-0.03806 0.25538 0.83025-0.95689-0.54914 0.18300
   4  -1 -11  236.75   35.83  75-0.04123 0.26672 0.83125-0.90011-0.54803-0.30007
   4   0  -2  630.34   25.11  75-0.03757 0.39555 0.83009-0.83228-0.54931 0.45099
   4   5   2  780.93   35.77  75-0.04934 0.46500 0.83375-0.52505-0.54514 0.78232
   5  -1  -6  524.82   24.74  75-0.04233 0.43845 0.83159-0.89848-0.54764 0.13401
   5   3   0   -2.18   21.78  75-0.03979 0.52637 0.83080-0.64675-0.54853 0.63535
   6   0  -5   -6.31   17.11  74-0.02940 0.53850 0.82747-0.83169-0.55214 0.23717
   6   2  -2  636.76   26.52  75-0.03760 0.58854 0.83010-0.70914-0.54930 0.48685
   6   3  -1  790.30   22.74  74-0.03274 0.59868 0.82855-0.64593-0.55099 0.57200
   7   1  -6  180.02   25.92  75-0.04230 0.63192 0.83158-0.77521-0.54765 0.16960
   8   2  -8  115.52   37.63  75-0.03979 0.69569 0.83080-0.71425-0.54853 0.02002
   8   2  -7   63.44   31.36  74-0.03522 0.70515 0.82935-0.71194-0.55013 0.10502
   9   5  -5   27.75   35.30  75-0.04276 0.83925 0.83172-0.52818-0.54749 0.28687
   9   7  -3   40.11   40.60  75-0.03777 0.86323 0.83016-0.40212-0.54924 0.45603
  -8   4  -4   67.48   34.93  76-0.05606-0.77733 0.83591-0.58670-0.54249 0.07351
  -8   5  -2  106.85   31.17  75-0.04925-0.75798 0.83386-0.52240-0.54496 0.24258
  -8   7   0   40.86   26.03  75-0.04550-0.73187 0.83272-0.39593-0.54630 0.41146
  -7   3  -2  386.37   30.03  75-0.05282-0.65485 0.83494-0.64802-0.54367 0.25810
  -7   6   1  213.96   22.12  75-0.04476-0.61932 0.83249-0.45923-0.54656 0.51225
  -7  11   3   40.45   36.01  75-0.05069-0.58610 0.83430-0.14908-0.54444 0.67849
  -6   1  -7   70.31   40.66  75-0.05435-0.63005 0.83540-0.77346-0.54311-0.14243
  -6   1  -4   56.71   25.25  75-0.04735-0.59309 0.83329-0.77103-0.54564 0.10997
  -6   3   0   12.64   24.42  76-0.05514-0.52762 0.83563-0.64772-0.54282 0.44079
  -6  12   4  272.93   42.97  75-0.05255-0.47207 0.83486-0.08973-0.54376 0.77862
  -5   2   0  353.54   19.71  75-0.04624-0.43875 0.83294-0.70739-0.54604 0.46091
  -5   3   1  166.31   17.14  75-0.04624-0.42427 0.83294-0.64481-0.54604 0.54472
  -5   6   3    8.09   23.56  75-0.04958-0.39195 0.83396-0.45910-0.54484 0.71135
  -5   9   4  301.63   22.54  75-0.04328-0.38411 0.83203-0.27233-0.54709 0.79795
  -4  -1  -7    8.59   37.68  75-0.05581-0.43481 0.83583-0.89827-0.54258-0.11000
  -4   5   3 1037.91   23.66  75-0.04476-0.29985 0.83249-0.52085-0.54656 0.72940
  -4   7   4  119.43   24.04  76-0.05631-0.27365 0.83598-0.40153-0.54240 0.80864
  -4  12   5   19.74   37.79  75-0.05069-0.26572 0.83430-0.08772-0.54444 0.89707
  -4  13   5  306.73   32.16  75-0.04624-0.27025 0.83294-0.02645-0.54604 0.89905
  -3  10   5  279.71   29.48  75-0.04661-0.17230 0.83306-0.21253-0.54590 0.91458
  -2   9   5  810.86   32.17  75-0.05261-0.07000 0.83488-0.27636-0.54374 0.92911
  -1  -2  -9   89.07   34.88  77-0.06687-0.16100 0.83904-0.96600-0.53849-0.23034
  -1   0   0    6.53   31.33  75-0.04972-0.04786 0.83401-0.83366-0.54479 0.52756
  -1   9   5   12.38   24.59  76-0.05133 0.02611 0.83450-0.27364-0.54420 0.94921
   1  -2 -10  116.95   31.72  76-0.05188 0.00259 0.83466-0.96237-0.54401-0.27289
   2  -2  -4 1436.16   29.14  75-0.04402 0.17920 0.83226-0.95873-0.54683 0.24625
   2  -1  -2  228.13   25.24  76-0.05283 0.21746 0.83494-0.89853-0.54366 0.41032
   3  -2  -9  262.47   22.86  75-0.04587 0.20469 0.83283-0.96169-0.54617-0.15344
   4  -1  -4  156.91   21.88  76-0.05261 0.38089 0.83488-0.89971-0.54374 0.27829
   4   1  -1  290.43   22.19  76-0.05722 0.43019 0.83625-0.77646-0.54207 0.52765
   4   2   0   24.79   21.56  76-0.05318 0.44003 0.83505-0.71316-0.54354 0.61303
   5  -1  -9  161.00   22.61  75-0.04513 0.39637 0.83260-0.90073-0.54643-0.11817
   5  -1  -8  139.56   27.11  76-0.05362 0.42105 0.83518-0.90227-0.54338-0.03776
   5  -1  -7  198.53   25.89  76-0.05355 0.43453 0.83516-0.90209-0.54340 0.04567
   5   1  -2 1448.14   28.62  75-0.05032 0.50481 0.83419-0.77458-0.54457 0.46393
   5   2  -1 1250.82   28.86  76-0.05654 0.52598 0.83605-0.71487-0.54231 0.54566
   6   0 -10   77.04   28.12  75-0.04402 0.47697 0.83226-0.83902-0.54683-0.18445
   6   0  -9   14.04   30.00  76-0.05647 0.50550 0.83603-0.84290-0.54234-0.10621
   6   0  -6 1575.88   32.32  76-0.05241 0.54480 0.83482-0.83893-0.54382 0.14709
   6  10   2  241.38   41.23  76-0.06612 0.67495 0.83883-0.22164-0.53878 0.81180
   7   1  -9    6.49   34.69  76-0.05328 0.59998 0.83508-0.77892-0.54350-0.08823
   7   1  -7  159.96   29.89  76-0.05402 0.62949 0.83530-0.77919-0.54323 0.08108
   7   2  -4   37.13   17.93  75-0.04772 0.66638 0.83340-0.71448-0.54550 0.33254
   7   5  -1   75.97   24.98  75-0.04854 0.71055 0.83365-0.52798-0.54521 0.58381
   7   7   0  264.90   30.47  76-0.05768 0.73486 0.83639-0.40618-0.54190 0.66458
   7  10   1  -10.62   38.81  76-0.05458 0.74762 0.83547-0.21716-0.54303 0.74994
   8   3  -5  222.82   23.01  75-0.04624 0.74698 0.83294-0.65279-0.54604 0.26746
   8   6  -2    8.70   32.08  76-0.05402 0.79815 0.83530-0.46825-0.54323 0.51573
   8   8  -1  -23.60   33.31  76-0.05606 0.81886 0.83591-0.34240-0.54249 0.59895
   9   6  -4   36.94   28.84  75-0.04550 0.85738 0.83272-0.46723-0.54630 0.36908
  -8   4  -3  187.82   33.70  77-0.06974-0.74949 0.83988-0.59101-0.53757 0.15210
  -8   8   1    6.76   26.52  76-0.06165-0.70047 0.83757-0.33892-0.54059 0.49086
  -7   2  -6   55.91   39.74  77-0.07408-0.69281 0.84108-0.71727-0.53593-0.08365
  -7   2  -5   85.19   34.42  76-0.06814-0.68431 0.83943-0.71513-0.53817 0.00208
  -7   7   2   63.49   30.38  76-0.06704-0.58324 0.83912-0.40248-0.53858 0.58767
  -7  10   3  107.74   27.25  76-0.06239-0.57381 0.83779-0.21557-0.54031 0.67427
  -6   1  -3  438.37   27.39  77-0.07093-0.55442 0.84021-0.77729-0.53712 0.18477
  -6   2  -1   41.62   24.29  77-0.06855-0.52790 0.83954-0.71384-0.53802 0.35236
  -6   4   1  187.33   18.84  76-0.05795-0.50943 0.83649-0.58716-0.54196 0.52384
  -6   7   3   41.55   26.20  77-0.06897-0.46880 0.83966-0.40369-0.53786 0.68707
  -6  11   4    8.51   26.91  76-0.06128-0.46189 0.83746-0.15188-0.54073 0.77713
  -5   1  -1   63.09   23.77  77-0.06842-0.43117 0.83950-0.77607-0.53807 0.36949
  -5   4   2   69.09   22.88  76-0.06394-0.39206 0.83823-0.58815-0.53974 0.62220
  -5   8   4  451.60   28.92  76-0.06785-0.35875 0.83935-0.34150-0.53828 0.78901
  -4  -1  -4   73.51   26.61  77-0.07317-0.37299 0.84083-0.90265-0.53627 0.13432
  -4   1   0   80.49   23.42  76-0.06582-0.32190 0.83877-0.77514-0.53904 0.47189
  -4   2   1  471.61   20.66  76-0.05795-0.31571 0.83649-0.71076-0.54196 0.55736
  -4  11   5  235.46   26.50  76-0.06091-0.25543 0.83736-0.15449-0.54086 0.89308
  -3   4   3   -5.04   23.04  77-0.06683-0.17823 0.83906-0.58852-0.53866 0.74067
  -3   6   4  109.11   24.50  76-0.06629-0.16668 0.83890-0.46487-0.53886 0.82328
  -3   9   5   13.54   25.93  77-0.06968-0.14879 0.83986-0.28066-0.53759 0.90510
   0   9   5  291.45   30.38  76-0.06862 0.14002 0.83956-0.28190-0.53799 0.95745
   1  10   5    4.03   38.22  77-0.07595 0.24408 0.84160-0.22223-0.53521 0.97113
   3  -2  -8   66.17   24.06  76-0.06353 0.23600 0.83811-0.96591-0.53989-0.07595
   3  -2  -7  284.51   24.00  77-0.06793 0.25526 0.83937-0.96718-0.53825 0.00562
   3  -2  -6 1226.68   25.16  76-0.05980 0.26235 0.83703-0.96453-0.54127 0.09166
   3  -1 -11   80.42   34.01  77-0.07386 0.20332 0.84102-0.90842-0.53601-0.33066
   3  -1  -3  922.74   27.98  77-0.06829 0.31452 0.83947-0.90426-0.53811 0.33803
   3   6   3  905.72   49.61  78-0.08620 0.42067 0.84434-0.47334-0.53126 0.83429
   4  -1 -10   24.72   29.21  77-0.07127 0.31172 0.84031-0.90801-0.53699-0.22923
   5   0 -11  270.13   40.87  77-0.06905 0.39144 0.83968-0.84688-0.53783-0.29326
   5   0  -4    0.81   20.41  76-0.06757 0.49613 0.83927-0.84434-0.53838 0.28924
   5   7   2  277.83   33.12  77-0.07461 0.58725 0.84123-0.41006-0.53572 0.78956
   5  11   3   76.88   47.76  77-0.07856 0.60547 0.84230-0.16233-0.53422 0.87346
   6   0  -8  495.73   28.80  76-0.06509 0.52751 0.83856-0.84364-0.53931-0.02479
   6   0  -7   -8.89   19.40  76-0.06202 0.54130 0.83768-0.84213-0.54045 0.05794
   6   1  -4   23.27   23.15  77-0.06777 0.59008 0.83932-0.78136-0.53831 0.30772
   7   1  -8  491.06   26.22  76-0.05758 0.61796 0.83638-0.78072-0.54209-0.00349
   7   3  -3  165.75   18.87  76-0.06276 0.69697 0.83789-0.65529-0.54018 0.41166
   7   4  -2   13.84   24.34  77-0.06640 0.71221 0.83893-0.59513-0.53882 0.49294
   8   3  -6   13.47   32.06  76-0.06647 0.75271 0.83895-0.65938-0.53880 0.17601
   8   4  -4  597.15   25.44  76-0.06165 0.77697 0.83757-0.59429-0.54059 0.34619
   8   5  -3  419.39   30.49  76-0.06573 0.79467 0.83874-0.53345-0.53907 0.42776
   9   5  -6   14.36   36.18  77-0.06584 0.84511 0.83878-0.53540-0.53903 0.19484
  -8   5  -1   67.39   23.81  77-0.07638-0.71511 0.84169-0.53012-0.53506 0.31591
  -8   6   0   16.44   24.51  77-0.07490-0.70176 0.84129-0.46736-0.53562 0.40017
  -8   7   1  230.79   31.86  78-0.08565-0.67537 0.84417-0.40895-0.53148 0.48055
  -8   9   2   70.57   35.21  78-0.08554-0.66126 0.84414-0.28425-0.53152 0.56363
  -7   2  -4   11.00   22.49  77-0.07490-0.66318 0.84129-0.71693-0.53562 0.08237
  -7   4   0  104.45   25.32  77-0.07890-0.60117 0.84237-0.59262-0.53409 0.41549
  -7   5   1   71.81   27.94  77-0.08218-0.58256 0.84325-0.53108-0.53283 0.49764
  -7   9   3    7.31   31.27  77-0.07896-0.55767 0.84239-0.28192-0.53407 0.66734
  -6   5   2  108.62   19.01  77-0.07527-0.47684 0.84139-0.52980-0.53548 0.60157
  -6  10   4   27.14   25.77  77-0.07342-0.45130 0.84088-0.21850-0.53618 0.76999
  -5   0  -8   -2.15   40.21  77-0.08229-0.51816 0.84328-0.84459-0.53278-0.21786
  -5   0  -3   55.22   17.32  77-0.07453-0.45405 0.84119-0.84091-0.53576 0.20010
  -5  12   5   67.67   36.07  78-0.08575-0.32739 0.84420-0.09849-0.53144 0.86625
  -4   3   2  278.11   18.87  77-0.07416-0.28471 0.84108-0.65333-0.53590 0.63529
  -4  10   5   22.53   23.21  77-0.07638-0.23984 0.84169-0.21952-0.53506 0.88680
  -2   1   1   -0.14   18.37  77-0.07305-0.10366 0.84078-0.77731-0.53632 0.58737
  -1  -1 -11  148.24   46.81  79-0.09276-0.16488 0.84601-0.91088-0.52869-0.40550
  -1   2   2   75.24   25.74  78-0.08284 0.01503 0.84343-0.71887-0.53257 0.68248
   2  -2  -9   39.56   25.66  77-0.07643 0.13785 0.84171-0.96976-0.53504-0.18172
   3   4   2  682.50   35.15  78-0.08600 0.40587 0.84426-0.59713-0.53135 0.75046
   4  -1  -5 1660.61   29.50  78-0.08593 0.39993 0.84424-0.91012-0.53137 0.18278
   5   5   1   32.70   24.52  78-0.08398 0.58233 0.84373-0.53605-0.53213 0.70316
   6   5   0  426.93   21.72  77-0.07490 0.65575 0.84129-0.53451-0.53562 0.63989
   6   7   1  501.06   31.75  77-0.08017 0.67488 0.84272-0.41174-0.53360 0.72125
   7   2  -5   20.69   19.63  77-0.07748 0.68219 0.84199-0.72298-0.53463 0.23818
   8   3  -8   36.84   38.22  78-0.08271 0.73948 0.84339-0.66390-0.53262 0.00339
   8   3  -7  167.45   32.44  77-0.07986 0.75011 0.84264-0.66261-0.53372 0.08856
   8   9  -1   51.83   36.28  78-0.08763 0.84726 0.84469-0.29072-0.53071 0.58763
   9   6  -5  171.93   30.81  77-0.07490 0.87259 0.84129-0.47502-0.53562 0.27527
  -8   4  -2   91.37   30.59  78-0.09251-0.71373 0.84602-0.59751-0.52893 0.22632
  -7   2  -3    3.28   26.92  79-0.09444-0.63092 0.84651-0.72193-0.52817 0.15879
  -7   3  -1   -0.08   18.61  78-0.08890-0.60470 0.84510-0.65741-0.53035 0.32902
  -7   6   2  -11.68   26.40  79-0.09831-0.54969 0.84747-0.47323-0.52663 0.57649
  -7   8   3  150.34   30.77  79-0.09935-0.53564 0.84773-0.34945-0.52621 0.65920
  -6   1  -8   -0.40   46.08  79-0.10218-0.59771 0.84842-0.78787-0.52508-0.24502
  -6   9   4   28.23   22.70  78-0.09149-0.43309 0.84576-0.28530-0.52933 0.76291
  -5   5   3   94.37   24.55  78-0.09555-0.34576 0.84679-0.53411-0.52773 0.69444
  -5   7   4  968.63   30.83  79-0.09914-0.32669 0.84768-0.41165-0.52630 0.77681
  -5  11   5  209.04   36.82  78-0.09610-0.31709 0.84692-0.16465-0.52751 0.86212
  -4   6   4  334.35   25.07  79-0.10025-0.22840 0.84795-0.47443-0.52585 0.79332
  -4   9   5    8.03   29.69  79-0.09794-0.21539 0.84738-0.28596-0.52678 0.87912
  -2   0   0 4827.56   64.91  79-0.09702-0.09850 0.84715-0.84618-0.52714 0.49281
  -2   2   2 3483.09   47.93  78-0.09457-0.07091 0.84654-0.72077-0.52812 0.66188
  -2   8   5  107.98   25.46  78-0.09179-0.03045 0.84584-0.34894-0.52922 0.91453
  -1   8   5  308.01   28.30  78-0.09603 0.07121 0.84691-0.35099-0.52754 0.92968
   0  -2  -9  252.23   30.45  79-0.09946-0.03239 0.84776-0.97539-0.52617-0.22528
   1  -2  -9  278.34   30.41  79-0.09757 0.06139 0.84729-0.97467-0.52692-0.20712
   1  -2  -4  188.58   22.33  79-0.09523 0.13260 0.84671-0.97220-0.52786 0.21019
   2  -2  -8   99.84   25.75  79-0.09997 0.17593 0.84788-0.97564-0.52596-0.10753
   2  -2  -5  331.41   19.26  78-0.08816 0.20860 0.84491-0.97166-0.53064 0.14679
   2  -1 -11  162.11   36.84  79-0.09990 0.13169 0.84786-0.91539-0.52599-0.35727
   2  13   5  114.89   53.03  79-0.11058 0.37670 0.85042-0.04531-0.52167 0.97704
   4  -1  -9  813.42   30.59  79-0.09590 0.34971 0.84687-0.91301-0.52759-0.15497
   5   0 -10   -3.94   33.93  79-0.09628 0.43484 0.84697-0.85108-0.52744-0.22161
   5  12   3   36.97   54.10  80-0.11545 0.64256 0.85154-0.10933-0.51967 0.85972
   6   1 -10   13.36   33.41  79-0.09862 0.53367 0.84755-0.79218-0.52651-0.20615
   6   1  -5  160.25   25.06  79-0.09804 0.60518 0.84741-0.79019-0.52674 0.21293
   6   2  -3   42.02   22.91  79-0.09611 0.63194 0.84693-0.72589-0.52750 0.38047
   6  11   2   72.35   44.03  79-0.09927 0.70874 0.84771-0.16904-0.52624 0.79905
   7   2  -6   14.26   28.10  79-0.09755 0.68714 0.84729-0.72823-0.52693 0.14686
   7   6  -1  211.79   29.62  79-0.09843 0.76068 0.84750-0.48058-0.52658 0.56403
   7   8   0  166.34   33.48  79-0.09981 0.77757 0.84784-0.35534-0.52603 0.64783
   8   4  -5  -11.55   22.10  78-0.09038 0.79276 0.84548-0.60137-0.52977 0.24945
   8   7  -2   12.79   25.80  78-0.09038 0.83535 0.84548-0.41588-0.52977 0.50237
  -8   3  -5   28.06   41.63  80-0.11221-0.73775 0.85081-0.66477-0.52120-0.03222
  -8   3  -4   23.27   37.71  80-0.11324-0.72194 0.85105-0.66452-0.52078 0.05088
  -8   5   0   41.15   31.42  79-0.11100-0.66550 0.85053-0.53877-0.52169 0.38595
  -8   6   1    9.27   29.77  80-0.11394-0.64508 0.85121-0.47723-0.52049 0.46938
  -8   8   2  141.54   27.55  79-0.10695-0.63998 0.84959-0.35196-0.52334 0.55646
  -6   1  -2  134.44   23.77  79-0.10753-0.50358 0.84972-0.78661-0.52311 0.25511
  -6   3   1  831.19   27.47  80-0.11498-0.45192 0.85145-0.66404-0.52006 0.50146
  -6   6   3   26.60   20.09  79-0.10474-0.43418 0.84906-0.47486-0.52424 0.67350
  -6   8   4  118.48   27.45  80-0.11505-0.40903 0.85146-0.35332-0.52003 0.75354
  -5  10   5   94.36   33.60  79-0.11134-0.30207 0.85061-0.22837-0.52156 0.85624
  -4   0  -1    6.47   16.44  79-0.10474-0.29776 0.84906-0.84826-0.52424 0.37222
  -4   4   3  362.80   19.32  79-0.10658-0.23752 0.84950-0.59930-0.52349 0.70681
  -3  -1  -2 1827.93   42.19  79-0.11127-0.20996 0.85060-0.91223-0.52158 0.30267
  -3   8   5  417.15   22.56  79-0.10437-0.11358 0.84897-0.35165-0.52439 0.89259
  -2   5   4 1154.48   32.04  80-0.11346-0.02299 0.85110-0.53975-0.52069 0.82135
   0  -1 -11  113.51   40.13  80-0.12191-0.03875 0.85300-0.91812-0.51718-0.39958
   1  -1 -11  150.40   33.93  80-0.11689 0.05324 0.85188-0.91851-0.51927-0.38145
   2  -2  -7   45.12   22.89  80-0.11221 0.20383 0.85081-0.97779-0.52120-0.02867
   2  -2  -6  791.09   28.04  80-0.11091 0.21615 0.85051-0.97681-0.52173 0.05419
   2  12   5   37.96   57.03  82-0.14238 0.40692 0.85724-0.11393-0.50846 0.96347
   3  -1 -10  282.05   33.60  80-0.11241 0.25664 0.85086-0.91753-0.52112-0.26095
   4  -1  -8    1.49   24.29  80-0.10971 0.38057 0.85023-0.91513-0.52222-0.07662
   4  -1  -7  520.31   26.44  80-0.11245 0.39727 0.85087-0.91699-0.52110 0.00587
   4  -1  -6  -40.52   16.44  79-0.10658 0.40738 0.84950-0.91426-0.52349 0.09049
   4   0 -11   24.59   37.98  79-0.11216 0.33848 0.85080-0.85728-0.52122-0.32897
   4   0  -3   -4.51   14.58  79-0.10695 0.45198 0.84959-0.85170-0.52334 0.34088
   4   8   3    4.81   33.12  80-0.11621 0.54682 0.85173-0.35677-0.51955 0.84099
   5   0  -9  610.79   30.66  80-0.11466 0.46684 0.85138-0.85651-0.52019-0.14444
   5   0  -5  529.72   20.03  79-0.10363 0.51356 0.84879-0.85282-0.52469 0.19297
   5   1  -3  940.38   26.39  80-0.11166 0.55166 0.85069-0.79161-0.52142 0.35700
   6   1  -9  151.30   29.57  80-0.11578 0.56467 0.85163-0.79570-0.51973-0.12657
   6   3  -2   -6.50   21.35  80-0.10934 0.66064 0.85015-0.66612-0.52237 0.45783
   6   4  -1  223.51   18.62  79-0.10253 0.66826 0.84853-0.60405-0.52513 0.54511
   7   2  -9  185.97   28.05  79-0.10290 0.64829 0.84862-0.73117-0.52498-0.10541
   7   2  -8   29.20   29.74  79-0.11003 0.66929 0.85031-0.73172-0.52209-0.02417
   7   2  -7  525.29   24.29  79-0.10695 0.68177 0.84959-0.73149-0.52334 0.05987
   7   3  -4   33.62   18.93  79-0.10326 0.72248 0.84870-0.66684-0.52483 0.31191
   7   5  -2   13.53   25.17  80-0.11652 0.76471 0.85180-0.54538-0.51942 0.47371
   8   4  -6  347.58   31.41  80-0.11060 0.79589 0.85044-0.60758-0.52186 0.15965
   8   5  -4   17.79   23.26  79-0.10363 0.81923 0.84879-0.54345-0.52469 0.32948
   8   6  -3    0.34   23.99  79-0.10437 0.83603 0.84897-0.47989-0.52439 0.41158
  -9   6  -1   -2.83   36.94  81-0.12436-0.76610 0.85360-0.47962-0.51612 0.28086
  -8   3  -3   10.16   35.11  80-0.12418-0.69639 0.85356-0.66667-0.51620 0.12983
  -8   4  -1   10.49   23.49  80-0.11903-0.67145 0.85243-0.60257-0.51835 0.30015
  -7   2  -2  142.76   21.26  80-0.11830-0.58923 0.85227-0.72815-0.51865 0.23318
  -7   4   1   66.50   26.91  80-0.12677-0.53743 0.85412-0.60392-0.51511 0.47976
  -7   7   3   63.40   30.04  80-0.12640-0.50933 0.85404-0.41762-0.51526 0.64777
  -7  10   4  178.73   35.96  80-0.12370-0.49750 0.85346-0.23151-0.51640 0.73350
  -6   2   0  122.56   23.37  80-0.12295-0.45818 0.85329-0.72849-0.51671 0.41471
  -6   4   2  142.44   25.07  80-0.12425-0.42835 0.85358-0.60426-0.51617 0.58145
  -5   0  -2    1.30   22.67  81-0.12454-0.38980 0.85364-0.85325-0.51605 0.26490
  -5   2   1 1241.73   28.64  80-0.12295-0.34757 0.85329-0.72818-0.51671 0.51507
  -5   3   2  -14.51   22.56  81-0.12748-0.32638 0.85427-0.66577-0.51481 0.59847
  -4  -1  -3   50.25   23.01  81-0.12763-0.30417 0.85430-0.91611-0.51475 0.19544
  -4   8   5    1.51   28.13  81-0.12730-0.18589 0.85423-0.35489-0.51489 0.86702
  -3   1   1    3.98   17.86  80-0.11719-0.15915 0.85202-0.78884-0.51911 0.55154
  -3   2   2  -19.24   24.65  81-0.12528-0.13457 0.85380-0.72788-0.51574 0.63389
  -3   5   4  189.06   25.03  81-0.12711-0.10634 0.85419-0.54317-0.51497 0.79803
  -3  13   6   12.60   38.97  80-0.12638-0.07791 0.85403-0.04922-0.51527 0.96611
  -2  -2  -7  434.69   48.39  83-0.16620-0.12980 0.86162-0.98656-0.49784-0.12163
  -2  -1 -10   16.14   52.68  84-0.16450-0.17498 0.86134-0.92456-0.49861-0.36730
  -2  12   6  444.87   42.07  81-0.13342 0.02436 0.85551-0.11211-0.51229 0.98154
  -2  13   6  103.54   41.76  80-0.12529 0.01748 0.85380-0.04719-0.51573 0.98590
  -1   5   4 2087.79   40.32  80-0.12261 0.08294 0.85322-0.54225-0.51686 0.83500
   0   8   5  112.09   30.21  81-0.13665 0.20756 0.85617-0.36062-0.51090 0.93007
   1  -2  -8   19.97   24.73  81-0.13007 0.10965 0.85482-0.98224-0.51371-0.13771
   1   4   3  231.72   40.88  82-0.14426 0.28433 0.85767-0.60945-0.50761 0.77622
   2   0  -1   10.23   16.12  80-0.12197 0.30130 0.85308-0.85412-0.51712 0.46787
   3  -1  -4 1191.99   28.88  81-0.12615 0.35831 0.85399-0.91790-0.51537 0.23211
   5   0  -8   12.86   26.05  81-0.12607 0.49288 0.85397-0.85832-0.51540-0.06662
   5   0  -7  676.12   27.94  81-0.12858 0.51053 0.85450-0.85863-0.51434 0.01728
   5   0  -6  -13.44   16.73  80-0.12124 0.51923 0.85292-0.85613-0.51743 0.10114
   5   1 -11   22.66   35.18  81-0.12848 0.45162 0.85448-0.79853-0.51439-0.31889
   5   4   0   11.46   20.54  81-0.13152 0.61568 0.85512-0.60914-0.51310 0.59981
   6   1  -8  151.80   29.66  81-0.12564 0.58862 0.85388-0.79619-0.51558-0.04790
   6   1  -7  147.14   28.35  81-0.12616 0.60381 0.85399-0.79605-0.51537 0.03495
   6   1  -6   97.97   18.01  80-0.11682 0.60967 0.85194-0.79431-0.51926 0.12243
   6   8   1   47.75   31.59  81-0.13130 0.72723 0.85507-0.36134-0.51319 0.70224
   7   4  -3   93.75   18.56  80-0.11682 0.75039 0.85194-0.60781-0.51926 0.39025
   8   4  -8  192.94   36.11  80-0.12267 0.77910 0.85323-0.61135-0.51683-0.01233
   8   4  -7   49.05   26.33  80-0.11940 0.79141 0.85251-0.61021-0.51820 0.07196
   8   5  -5  297.96   30.96  81-0.13072 0.83178 0.85495-0.54965-0.51344 0.23659
   8   8  -2  192.29   34.68  80-0.12415 0.86814 0.85355-0.36149-0.51621 0.48884
  -9   5  -2  126.56   37.66  81-0.13625-0.76640 0.85606-0.54550-0.51106 0.19189
  -8   3  -2    5.84   31.85  82-0.14211-0.66246 0.85723-0.66933-0.50853 0.20653
  -8   7   2  -10.26   25.00  81-0.13185-0.61475 0.85516-0.41841-0.51294 0.54620
  -8   9   3   23.28   35.81  82-0.13926-0.59663 0.85667-0.29515-0.50976 0.62696
  -7   3   0  555.93   22.13  81-0.13148-0.54703 0.85508-0.66848-0.51310 0.39364
  -7   5   2   24.15   26.25  81-0.13735-0.51278 0.85628-0.54389-0.51059 0.55917
  -7   9   4   46.21   36.35  81-0.14100-0.48043 0.85701-0.29645-0.50901 0.72556
  -6   7   4    1.70   26.14  82-0.14266-0.37839 0.85734-0.42064-0.50829 0.74201
  -6  11   5   23.63   29.23  81-0.13515-0.37506 0.85584-0.17135-0.51153 0.82941
  -5   1   0 1292.07   30.13  81-0.13761-0.34720 0.85634-0.79348-0.51047 0.42484
  -5   6   4   41.21   25.86  81-0.13846-0.28861 0.85651-0.48212-0.51011 0.76023
  -5   9   5   -4.89   22.47  81-0.13185-0.27886 0.85516-0.29352-0.51294 0.84898
  -3  12   6   -0.07   35.38  81-0.13735-0.06739 0.85628-0.11048-0.51059 0.96352
  -2   3   3 2051.47   38.48  82-0.14151-0.00915 0.85711-0.66965-0.50879 0.72582
  -2   7   5   66.85   25.94  81-0.14168 0.02052 0.85715-0.42192-0.50871 0.89361
  -1  -2  -8   -1.50   30.30  82-0.14650-0.06682 0.85808-0.98412-0.50661-0.17754
  -1  12   6    0.39   38.50  81-0.14101 0.12997 0.85701-0.11490-0.50901 0.99175
  -1  13   6  421.61   44.10  81-0.13913 0.12668 0.85664-0.05180-0.50982 0.99714
   0  -2  -8  306.87   32.03  83-0.15325 0.03615 0.85934-0.98516-0.50364-0.16454
   0  -2  -4  142.60   23.14  82-0.14269 0.08331 0.85734-0.98284-0.50828 0.17307
   0   2   2  507.48   40.47  82-0.14795 0.17694 0.85835-0.73366-0.50597 0.67378
   1  -2  -5 2406.97   41.44  82-0.14157 0.16456 0.85712-0.98324-0.50876 0.10727
   1  -1  -2 2564.12   50.68  82-0.14349 0.21056 0.85750-0.92115-0.50793 0.35637
   1   6   4   -0.69   29.94  81-0.14101 0.29535 0.85701-0.48468-0.50901 0.86052
   2  -1 -10    1.15   29.26  82-0.14759 0.19441 0.85829-0.92462-0.50613-0.29460
   3  -1  -9  549.70   31.48  82-0.14199 0.30024 0.85721-0.92343-0.50858-0.19068
   3   0  -2   10.82   15.31  81-0.13038 0.39197 0.85485-0.85666-0.51357 0.39792
   4   0 -10  337.71   31.38  82-0.14613 0.38692 0.85801-0.86315-0.50677-0.25875
   4   4   1   29.87   22.09  82-0.14136 0.54283 0.85708-0.61090-0.50885 0.66167
   5   2  -2  323.29   22.34  81-0.13831 0.59260 0.85648-0.73499-0.51017 0.42922
   5   8   2   10.27   31.79  82-0.14716 0.66111 0.85820-0.36349-0.50632 0.76197
   6   2  -4   86.19   16.97  81-0.13515 0.65782 0.85584-0.73543-0.51153 0.28127
   6   6   0 1442.14   34.23  81-0.13927 0.71925 0.85667-0.48723-0.50976 0.61408
   7   3  -5   24.10   20.11  81-0.13111 0.73560 0.85501-0.67353-0.51325 0.21649
   7   7  -1   50.14   29.77  82-0.14285 0.80577 0.85738-0.42689-0.50820 0.54662
   7   9   0  352.50   32.96  81-0.13721 0.81319 0.85626-0.30113-0.51065 0.63369
   8   6  -4   18.75   33.33  82-0.14139 0.85707 0.85709-0.48993-0.50884 0.31357
   8   7  -3  361.39   34.92  82-0.14050 0.86993 0.85691-0.42757-0.50922 0.39788
  -9   5  -1  -17.16   34.67  83-0.15692-0.72967 0.86001-0.54882-0.50188 0.26710
  -9   6   0   20.56   35.82  82-0.15180-0.72300 0.85908-0.48511-0.50415 0.35207
  -9   7   1   -8.85   39.15  83-0.15546-0.70283 0.85975-0.42355-0.50253 0.43492
  -8   4   0  286.07   31.10  82-0.15406-0.62113 0.85949-0.61036-0.50315 0.36891
  -8   5   1  167.58   29.48  82-0.15217-0.60824 0.85915-0.54830-0.50399 0.45313
  -8   8   3  -26.56   36.84  83-0.15637-0.57474 0.85991-0.36103-0.50212 0.61884
  -7   1  -5   -2.91   33.27  83-0.15619-0.59594 0.85988-0.79755-0.50221-0.03347
  -7   1  -4   22.45   31.08  82-0.15646-0.58054 0.85993-0.79701-0.50208 0.04904
  -7   2  -1  245.85   26.25  82-0.15234-0.54065 0.85918-0.73419-0.50392 0.30222
  -7   6   3  313.42   27.98  83-0.15883-0.47599 0.86035-0.48729-0.50103 0.63323
  -6   0  -6   52.62   36.78  83-0.16618-0.50361 0.86161-0.86233-0.49771-0.10584
  -6   0  -5    2.07   28.67  82-0.15254-0.50286 0.85922-0.85931-0.50383-0.01609
  -6   0  -4   49.75   27.71  82-0.15620-0.48334 0.85988-0.85950-0.50220 0.06641
  -6   1  -1  109.47   22.30  82-0.15112-0.44539 0.85896-0.79574-0.50446 0.31872
  -6   5   3   -6.64   18.15  82-0.14596-0.39092 0.85799-0.54504-0.50673 0.65745
  -6  10   5   26.79   27.62  82-0.14962-0.36063 0.85868-0.23620-0.50512 0.82307
  -5   4   3  967.47   23.87  82-0.14998-0.29068 0.85874-0.60886-0.50496 0.67138
  -5   8   5  267.58   30.73  83-0.15782-0.25544 0.86017-0.36271-0.50147 0.83492
  -4   5   4  218.49   25.13  82-0.15330-0.17642 0.85936-0.54798-0.50349 0.77053
  -4  12   6   21.18   36.59  82-0.15254-0.14928 0.85922-0.11322-0.50383 0.93994
  -3   0   0   43.94   18.23  82-0.14559-0.14214 0.85792-0.85747-0.50689 0.45646
  -3   3   3  118.88   24.50  82-0.15480-0.09227 0.85963-0.67251-0.50283 0.70274
  -3   7   5   46.88   17.98  82-0.14669-0.07156 0.85813-0.42227-0.50641 0.87454
  -3  11   6  145.81   32.76  82-0.15126-0.05322 0.85898-0.17611-0.50439 0.95719
  -2  11   6  248.03   32.62  82-0.15032 0.04281 0.85881-0.17702-0.50481 0.97450
  -1   3   3 1606.60   38.63  83-0.15713 0.10326 0.86005-0.67283-0.50178 0.73600
  -1   7   5   13.85   23.82  82-0.15785 0.13318 0.86017-0.42567-0.50146 0.90242
   1  -2  -7  524.73   28.90  83-0.15418 0.14848 0.85952-0.98555-0.50310-0.06431
   1  -2  -6   79.42   22.63  83-0.15744 0.16673 0.86010-0.98647-0.50165 0.01742
   1   9   5   18.41   34.48  83-0.15915 0.32764 0.86040-0.30234-0.50088 0.93758
   2  -1  -3 2249.83   38.66  82-0.15297 0.30226 0.85930-0.92304-0.50364 0.28607
   3  -1  -5   64.54   21.37  83-0.15722 0.37501 0.86006-0.92504-0.50174 0.13573
   3   0 -11  217.14   37.14  83-0.15570 0.28628 0.85979-0.86424-0.50242-0.36303
   4   0  -4  594.49   24.86  83-0.15531 0.48369 0.85972-0.86211-0.50260 0.23723
   4   1  -2  208.11   16.93  82-0.14888 0.50681 0.85854-0.79907-0.50544 0.40718
   5   1 -10  173.89   34.88  83-0.15689 0.49455 0.86000-0.80381-0.50189-0.24601
   5   1  -4  997.18   27.05  83-0.15511 0.58035 0.85968-0.80035-0.50269 0.25492
   5   3  -1  175.34   17.18  82-0.14596 0.61552 0.85799-0.67422-0.50673 0.50963
   6   2 -10  212.25   34.69  82-0.15274 0.58649 0.85925-0.74084-0.50374-0.22664
   7   3  -9   -2.37   27.41  82-0.14815 0.69491 0.85840-0.67668-0.50576-0.12616
   7   3  -8   18.62   34.42  83-0.15619 0.71601 0.85988-0.67916-0.50221-0.04487
   7   3  -7   25.85   30.29  83-0.15614 0.73093 0.85987-0.67891-0.50223 0.03850
   7   3  -6   37.37   21.62  82-0.14779 0.73775 0.85833-0.67727-0.50592 0.12565
   7   4  -4   25.48   26.10  82-0.15487 0.77357 0.85964-0.61573-0.50279 0.28969
   8   5  -7   56.06   36.79  83-0.15612 0.82825 0.85987-0.55581-0.50224 0.05606
   8   5  -6  191.11   25.54  82-0.14779 0.83437 0.85833-0.55369-0.50592 0.14410
   8   9  -2   37.97   35.84  82-0.15160 0.89570 0.85904-0.30568-0.50424 0.47662
  -8   3  -1    3.98   31.40  84-0.16998-0.62055 0.86230-0.67453-0.49613 0.27776
  -8   6   2   22.20   23.56  83-0.16233-0.58512 0.86102-0.48670-0.49960 0.53161
  -7   1  -6   23.18   36.79  83-0.16920-0.59735 0.86217-0.80004-0.49648-0.12340
  -7   1  -3   25.27   29.45  84-0.17104-0.55199 0.86247-0.79961-0.49564 0.12585
  -7   8   4  135.16   25.26  83-0.16306-0.45764 0.86115-0.36346-0.49927 0.71565
  -6   0  -3   -4.04   24.11  84-0.17325-0.45021 0.86282-0.86120-0.49463 0.14358
  -6   9   5  620.31   36.40  83-0.16859-0.34118 0.86207-0.30358-0.49676 0.81369
  -4   1   1  283.30   19.09  83-0.16343-0.21005 0.86121-0.79797-0.49911 0.51417
  -4   2   2  474.93   20.41  83-0.16161-0.19749 0.86090-0.73549-0.49993 0.59882
  -4   7   5  618.80   22.98  83-0.16488-0.15074 0.86146-0.42695-0.49845 0.84874
  -4  11   6   43.25   33.93  83-0.16581-0.13607 0.86161-0.17717-0.49803 0.93451
  -3  -1  -9    6.51   59.24  88-0.23605-0.18613 0.87036-0.93366-0.46406-0.33695
  -3  10   6  379.37   34.18  84-0.17077-0.03297 0.86243-0.24168-0.49577 0.94756
  -2  10   6  276.40   30.62  84-0.17428 0.06876 0.86299-0.24303-0.49415 0.96338
  -1  -2  -4  393.82   39.28  85-0.19200 0.03616 0.86558-0.99043-0.48585 0.13333
  -1  11   6  537.18   37.13  83-0.16979 0.15885 0.86227-0.18087-0.49621 0.98258
   1  -1 -10  157.63   34.35  84-0.17782 0.12734 0.86354-0.92931-0.49251-0.32440
   2   1   0   19.88   22.95  84-0.16949 0.36204 0.86222-0.80125-0.49635 0.53054
   2   2   1 1062.88   40.26  83-0.16775 0.37636 0.86193-0.73833-0.49715 0.61505
   3  -1  -8  521.96   22.30  83-0.16197 0.33624 0.86096-0.92670-0.49977-0.11598
   3  -1  -7  396.10   23.95  84-0.17321 0.36009 0.86282-0.92874-0.49464-0.03860
   3  -1  -6   33.90   22.16  84-0.17289 0.37519 0.86277-0.92793-0.49479 0.04511
   4   0  -9  -13.88   28.85  84-0.17034 0.42738 0.86236-0.86622-0.49596-0.18799
   4   2  -1  476.32   23.91  84-0.17378 0.54655 0.86291-0.74142-0.49438 0.47897
   4   3   0    8.52   19.77  84-0.17274 0.56153 0.86274-0.67823-0.49486 0.56458
   4   6   2  619.22   33.62  84-0.17867 0.59517 0.86367-0.49366-0.49212 0.72799
   5   6   1   -0.94   24.50  84-0.16925 0.66944 0.86218-0.49068-0.49646 0.66632
   6   2  -9   74.44   33.04  84-0.16998 0.61775 0.86230-0.74376-0.49613-0.15145
   6   2  -5   -0.88   17.13  83-0.16197 0.67118 0.86096-0.73995-0.49977 0.18420
   6   3  -3 1307.27   25.23  83-0.16051 0.69748 0.86071-0.67782-0.50042 0.35446
   6   4  -2  114.91   23.58  84-0.17180 0.72312 0.86259-0.61849-0.49529 0.43140
   6   5  -1   80.54   23.88  83-0.16716 0.73234 0.86184-0.55477-0.49742 0.51804
   7   5  -3  126.21   25.34  83-0.16676 0.79946 0.86177-0.55559-0.49759 0.36871
   7   6  -2   12.65   19.85  83-0.16306 0.81136 0.86115-0.49291-0.49927 0.45363
   7  10   0   24.63   34.49  83-0.16742 0.84307 0.86188-0.24625-0.49730 0.61931
   8   6  -5    1.38   30.98  84-0.16852 0.86841 0.86206-0.49394-0.49679 0.21654
   8   7  -4   76.15   32.00  84-0.17281 0.89045 0.86275-0.43338-0.49483 0.29953
   8   8  -3    2.97   36.45  84-0.17016 0.90158 0.86233-0.36932-0.49604 0.38321
  -9   4  -2   26.33   30.20  84-0.17818-0.72465 0.86358-0.61466-0.49229 0.17242
  -9   5   0   25.73   37.54  84-0.18483-0.68817 0.86457-0.55289-0.48919 0.33653
  -9   6   1   64.67   37.77  84-0.18452-0.67428 0.86452-0.49076-0.48933 0.42051
  -8   2  -5   15.87   40.04  84-0.18145-0.66796 0.86407-0.74011-0.49077-0.06292
  -8   2  -4   -9.16   32.81  85-0.18181-0.65538 0.86413-0.74022-0.49060 0.02035
  -8   2  -3  212.87   34.73  84-0.18530-0.63312 0.86463-0.73989-0.48897 0.10348
  -8   7   3  333.38   35.98  84-0.18301-0.54876 0.86430-0.42876-0.49004 0.60686
  -7   3   1    9.86   24.47  84-0.17999-0.48469 0.86386-0.67620-0.49145 0.45598
  -7   4   2  -10.29   27.26  85-0.18326-0.46651 0.86434-0.61433-0.48993 0.54012
  -6   2   1  191.71   24.94  84-0.18242-0.38445 0.86422-0.73829-0.49032 0.47291
  -6   3   2   34.66   23.09  84-0.18249-0.37192 0.86423-0.67642-0.49029 0.55597
  -6   6   4 1479.93   27.75  84-0.17927-0.34255 0.86375-0.48996-0.49179 0.72584
  -5  -1  -5  101.28   30.14  85-0.18954-0.36824 0.86523-0.92717-0.48697-0.01549
  -5   0  -1   51.15   22.12  84-0.18018-0.31878 0.86389-0.86309-0.49136 0.32349
  -5   5   4  233.09   26.91  84-0.18449-0.24088 0.86452-0.55332-0.48935 0.73937
  -5  11   6   -4.98   39.52  85-0.18543-0.21035 0.86465-0.17946-0.48891 0.90796
  -4   3   3  205.31   18.06  84-0.17999-0.16443 0.86386-0.67569-0.49145 0.67473
  -4  10   6  311.36   34.37  84-0.18257-0.11775 0.86424-0.24384-0.49025 0.92558
  -1  -1 -10    4.44   38.40  85-0.19586-0.04798 0.86608-0.93125-0.48396-0.36823
   0  -2  -7  200.11   26.02  85-0.18555 0.08435 0.86467-0.99078-0.48885-0.09624
   0   5   4 1227.50   37.87  84-0.18468 0.24288 0.86455-0.55409-0.48926 0.82429
   0  13   6   96.36   47.08  85-0.18525 0.27165 0.86463-0.05911-0.48899 0.99315
   2  -1  -9   -3.80   27.06  85-0.18507 0.24835 0.86460-0.93015-0.48908-0.22916
   3   1  -1    1.34   13.91  84-0.17564 0.45309 0.86319-0.80220-0.49347 0.46099
   3   3   1   -2.81   19.06  85-0.18126 0.48718 0.86405-0.67850-0.49086 0.62524
   4   0  -8   18.91   23.01  85-0.18797 0.45837 0.86501-0.86903-0.48771-0.11213
   4   0  -5   -6.42   20.66  85-0.18326 0.49846 0.86434-0.86627-0.48993 0.14029
   4   1 -11  271.93   36.06  84-0.18002 0.40490 0.86386-0.80723-0.49144-0.35727
   5   1  -9  113.43   22.04  84-0.17782 0.53006 0.86353-0.80637-0.49246-0.17285
   5   1  -5  771.24   25.27  84-0.18189 0.59186 0.86414-0.80535-0.49057 0.15898
   5   2 -11  159.76   40.84  85-0.18450 0.50713 0.86452-0.74586-0.48935-0.34161
   6   2  -8  236.82   22.25  84-0.17927 0.64244 0.86375-0.74521-0.49179-0.07301
   6   2  -7    5.14   26.81  85-0.18344 0.66255 0.86437-0.74300-0.48984 0.00753
   6   2  -6   52.02   18.87  84-0.17709 0.67043 0.86342-0.74343-0.49280 0.09511
   6   9   1   89.14   28.80  84-0.17945 0.77482 0.86378-0.30791-0.49170 0.67955
   7   4  -9  375.90   35.50  85-0.18850 0.73549 0.86509-0.62249-0.48746-0.14111
   7   4  -5  455.77   22.81  84-0.17927 0.78365 0.86375-0.62024-0.49179 0.19475
   7   8  -1  364.13   33.93  84-0.18247 0.84506 0.86422-0.37144-0.49030 0.52765
   7  11   0   25.58   36.88  85-0.18869 0.86560 0.86511-0.18657-0.48737 0.60983
   8   6  -6    0.11   32.78  85-0.18308 0.86911 0.86431-0.49623-0.49001 0.12637
  -9   4  -1  225.62   36.96  85-0.19841-0.68828 0.86640-0.61792-0.48280 0.24727
  -9   7   2   94.63   36.11  85-0.19480-0.64940 0.86594-0.43045-0.48453 0.49966
  -8   2  -2  117.38   29.74  86-0.20311-0.60142 0.86699-0.74224-0.48053 0.17782
  -8   3   0   50.11   27.89  86-0.20233-0.57299 0.86689-0.67931-0.48091 0.34516
  -8   4   1   22.14   21.88  85-0.19408-0.56775 0.86584-0.61614-0.48487 0.43296
  -8   5   2   38.26   31.29  85-0.19792-0.54933 0.86634-0.55444-0.48304 0.51488
  -8   9   4   34.35   30.41  85-0.19155-0.52695 0.86550-0.30541-0.48608 0.68604
  -7   1  -7   45.39   44.36  85-0.20063-0.57916 0.86668-0.80543-0.48173-0.22019
  -7   1  -2   42.41   25.90  85-0.19372-0.51396 0.86580-0.80316-0.48505 0.19891
  -7   2   0   -0.79   18.40  85-0.19336-0.48514 0.86575-0.74012-0.48522 0.36760
  -7   5   3   95.35   27.80  85-0.19697-0.43799 0.86622-0.55484-0.48349 0.61571
  -7   7   4  201.86   24.22  85-0.19046-0.42977 0.86536-0.43064-0.48660 0.70297
  -7  10   5   57.20   30.98  85-0.19010-0.41672 0.86531-0.24325-0.48677 0.78742
  -6   0  -7    0.81   39.85  85-0.19878-0.48318 0.86645-0.86682-0.48262-0.20161
  -6   1   0  212.60   23.30  86-0.20184-0.37972 0.86683-0.80345-0.48114 0.37911
  -6   4   3   12.36   23.99  86-0.19836-0.34306 0.86640-0.61635-0.48282 0.63370
  -6   8   5  -10.98   23.51  85-0.19300-0.31480 0.86570-0.36655-0.48539 0.80438
  -5  -1  -6    5.26   36.72  87-0.21544-0.35807 0.86839-0.93166-0.47448-0.11277
  -5  -1  -4  815.58   33.17  85-0.19783-0.34510 0.86633-0.92855-0.48308 0.06354
  -5   2   2  307.84   23.58  86-0.20213-0.25323 0.86687-0.74127-0.48100 0.56305
  -5   7   5   38.30   19.25  85-0.19083-0.22164 0.86541-0.42940-0.48642 0.82051
  -5  10   6  264.17   34.23  86-0.20247-0.19635 0.86691-0.24668-0.48084 0.89832
  -4  -1  -2   79.06   21.79  85-0.19422-0.22362 0.86586-0.92732-0.48481 0.24995
  -4   0   0 1740.03   31.00  85-0.19408-0.19434 0.86584-0.86502-0.48487 0.41613
  -3   4   4  179.02   24.61  86-0.20056-0.03243 0.86668-0.61707-0.48176 0.76525
  -3   6   5  823.38   28.73  85-0.19870-0.01982 0.86644-0.49373-0.48266 0.84995
  -3   9   6  634.97   33.03  85-0.19900-0.00558 0.86648-0.30857-0.48252 0.93388
  -1  -2  -7  252.70   30.66  86-0.20584 0.00739 0.86732-0.99262-0.47920-0.12272
  -1  10   6   46.36   31.49  86-0.20101 0.19035 0.86673-0.24597-0.48154 0.96801
   0  -2  -6  229.34   25.18  86-0.20311 0.11592 0.86699-0.99285-0.48053-0.02097
   0  -2  -5    9.40   20.36  85-0.19670 0.12352 0.86619-0.99141-0.48362 0.06585
   0  -1 -10   17.73   32.47  86-0.19815 0.05139 0.86637-0.93099-0.48292-0.35146
   0  12   6  184.56   43.50  86-0.20164 0.28770 0.86681-0.12347-0.48124 0.98503
   2   0 -11    5.68   25.76  85-0.19155 0.22540 0.86550-0.86932-0.48608-0.39855
   2   5   3  341.02   52.95  89-0.24389 0.48107 0.87090-0.56105-0.46002 0.74611
   3   0 -10   -0.37   28.15  85-0.19408 0.33801 0.86584-0.87042-0.48487-0.29901
   3   2   0  910.88   29.36  85-0.19786 0.48851 0.86634-0.74297-0.48306 0.53480
   4   0  -7  -10.12   23.47  86-0.19769 0.48361 0.86631-0.86872-0.48314-0.03364
   4   0  -6   20.93   21.40  85-0.19603 0.49551 0.86610-0.86925-0.48394 0.05147
   5   1  -8  137.95   19.74  85-0.19155 0.55903 0.86550-0.80801-0.48608-0.09446
   5   1  -7  185.04   25.95  86-0.19859 0.58030 0.86643-0.80764-0.48271-0.01532
   5   1  -6  438.60   19.64  85-0.19444 0.59153 0.86589-0.80719-0.48470 0.07005
   5   2  -3  713.36   20.49  85-0.19336 0.63392 0.86575-0.74407-0.48522 0.32113
   6   3 -10   24.20   39.02  86-0.19914 0.63292 0.86650-0.68563-0.48245-0.24882
   6   3  -4  115.97   24.67  86-0.19816 0.71949 0.86637-0.68379-0.48292 0.25260
   6   7   0  256.03   26.19  85-0.19368 0.77397 0.86579-0.43462-0.48506 0.58927
   7   4  -8   14.76   34.96  85-0.19733 0.75791 0.86627-0.62359-0.48332-0.06414
   7   4  -7  588.14   33.91  86-0.19945 0.77553 0.86654-0.62281-0.48230 0.02087
   7   4  -6   23.62   20.24  85-0.19372 0.78367 0.86580-0.62237-0.48505 0.10459
   7   5  -4  638.89   29.52  86-0.20016 0.81930 0.86663-0.56022-0.48195 0.27063
   7   7  -2   87.46   27.68  86-0.20350 0.85192 0.86704-0.43670-0.48034 0.43552
   8   6  -7  -19.38   28.23  85-0.18902 0.86180 0.86516-0.49694-0.48728 0.03921
   8   7  -5  253.94   37.51  86-0.19815 0.89929 0.86637-0.43683-0.48292 0.20466
   8   8  -4   67.09   33.57  86-0.20311 0.91890 0.86699-0.37572-0.48053 0.28521
   8   9  -3   -4.34   34.71  86-0.19733 0.92696 0.86627-0.31179-0.48332 0.37043
  -9   3  -3    0.03   41.91  87-0.21451-0.70189 0.86811-0.68132-0.47480 0.07233
  -8   6   3   -7.21   33.26  87-0.21307-0.51857 0.86796-0.49367-0.47551 0.59247
  -8   8   4  134.96   38.89  86-0.21225-0.50556 0.86787-0.37078-0.47592 0.67534
  -7   9   5   35.01   28.05  86-0.20768-0.39861 0.86735-0.30725-0.47816 0.77846
  -6   0  -2  261.19   25.37  86-0.20716-0.40322 0.86729-0.86739-0.47842 0.20899
  -5   0  -9  107.25   75.40  87-0.22735-0.38944 0.86939-0.87044-0.46837-0.36714
  -5   1   1  378.44   24.93  86-0.21123-0.25937 0.86775-0.80483-0.47642 0.47478
  -5   3   3  150.06   23.50  86-0.21298-0.22755 0.86795-0.68078-0.47556 0.64125
  -4   4   4 1145.68   30.02  87-0.21468-0.11492 0.86813-0.61892-0.47471 0.74119
  -4   6   5   19.57   23.72  86-0.21003-0.10549 0.86762-0.49349-0.47701 0.82854
  -4   9   6  -12.40   23.09  86-0.20660-0.09173 0.86723-0.30580-0.47869 0.91502
  -2  -1  -1 6420.22   83.99  86-0.21167 0.00153 0.86780-0.92995-0.47620 0.35739
  -2   4   4  233.33   19.89  86-0.20588 0.06991 0.86714-0.61841-0.47904 0.77972
  -2   6   5    5.37   17.26  86-0.20516 0.08397 0.86706-0.49363-0.47939 0.86440
  -2   9   6   -3.68   26.94  87-0.21307 0.10588 0.86796-0.30676-0.47551 0.94821
   2  -1  -8   10.70   24.50  86-0.21391 0.29057 0.86805-0.93429-0.47510-0.15970
   2  -1  -4  193.44   21.63  86-0.21009 0.34568 0.86763-0.93105-0.47698 0.17680
   3   0  -3 3743.61   40.23  86-0.20408 0.45097 0.86693-0.86877-0.47992 0.28038
   4   1 -10   20.96   33.07  87-0.21343 0.45381 0.86800-0.81061-0.47533-0.29060
   4   1  -3 1550.74   30.17  86-0.21199 0.55541 0.86784-0.80748-0.47604 0.29399
   4   9   3 1166.53   46.48  87-0.22500 0.65595 0.86917-0.31314-0.46955 0.79063
   5   2 -10   19.53   35.40  86-0.21208 0.54956 0.86785-0.74930-0.47600-0.27309
   5   5   0 2103.53   36.77  87-0.21338 0.69760 0.86799-0.55975-0.47536 0.56212
   5   9   2   34.39   29.68  86-0.21247 0.72569 0.86789-0.31174-0.47581 0.73078
   6   3  -9  283.32   31.22  87-0.21691 0.66638 0.86837-0.68758-0.47361-0.17334
   6  10   1   38.16   34.29  87-0.21499 0.81037 0.86816-0.25073-0.47456 0.66358
   7   6  -3  373.63   27.87  86-0.20943 0.84289 0.86755-0.49866-0.47730 0.34931
   7   9  -1   10.15   32.98  86-0.21271 0.87636 0.86792-0.31344-0.47569 0.51439
   8   7  -6  122.29   39.32  87-0.21270 0.89835 0.86792-0.43906-0.47570 0.11346
  -9   3  -2    5.52   38.79  88-0.22850-0.67510 0.86942-0.68317-0.46802 0.14797
  -9   4   0   54.62   36.85  87-0.22600-0.64764 0.86919-0.62002-0.46929 0.31664
  -9   5   1   13.56   27.22  87-0.21884-0.63940 0.86849-0.55688-0.47289 0.40483
  -9   6   2  -10.51   33.56  88-0.22546-0.62042 0.86914-0.49500-0.46956 0.48580
  -8   2  -1    4.52   29.70  88-0.22779-0.56238 0.86936-0.74402-0.46839 0.24968
  -7   1  -1    9.51   26.47  87-0.22600-0.46819 0.86919-0.80652-0.46929 0.26644
  -7   6   4   74.34   22.69  87-0.22278-0.39772 0.86889-0.49466-0.47091 0.68745
  -7   8   5  209.10   32.77  88-0.22952-0.37604 0.86951-0.37186-0.46751 0.76687
  -6   5   4   12.20   18.21  87-0.22099-0.30282 0.86871-0.55665-0.47181 0.70478
  -6   7   5  262.33   22.56  87-0.22242-0.28600 0.86885-0.43398-0.47109 0.78799
  -6  10   6   19.88   38.87  88-0.22895-0.26593 0.86946-0.24754-0.46780 0.86877
  -5  -1  -3  138.02   25.59  87-0.22348-0.30578 0.86895-0.93082-0.47056 0.13533
  -5   6   5  383.61   28.69  88-0.22937-0.18254 0.86950-0.49633-0.46758 0.80049
  -5   9   6   89.52   31.45  87-0.22562-0.17286 0.86916-0.30853-0.46948 0.88855
  -3  -1  -1   32.63   21.69  88-0.22867-0.07623 0.86944-0.93088-0.46794 0.33307
  -2  -2  -6  729.66   53.27  90-0.26389-0.01762 0.87180-0.99660-0.44952-0.08690
  -2   0 -11   -8.05   48.47  88-0.23517-0.11999 0.86999-0.87390-0.46462-0.48880
  -1  -2  -6  410.69   35.10  89-0.24558 0.06111 0.87077-0.99605-0.45923-0.05968
   0   7   5   88.20   29.88  88-0.23088 0.30295 0.86963-0.43541-0.46681 0.88597
   0  11   6  428.42   43.12  88-0.23188 0.31782 0.86972-0.18887-0.46631 0.96979
   1  -1  -9  395.76   29.37  88-0.22836 0.19435 0.86941-0.93439-0.46810-0.26568
   1   0 -11   41.48   34.18  88-0.22628 0.16140 0.86922-0.87312-0.46915-0.42943
   3   0  -9  286.87   29.71  88-0.22775 0.38703 0.86935-0.87320-0.46840-0.23020
   3   1 -11   74.01   37.64  88-0.22735 0.35606 0.86932-0.81207-0.46861-0.39779
   5   2  -4   32.75   21.84  88-0.22870 0.65530 0.86944-0.74876-0.46792 0.21988
   5   3  -2    8.18   15.60  87-0.21812 0.67347 0.86842-0.68489-0.47325 0.39257
   5   4  -1  872.59   27.98  88-0.22723 0.69672 0.86931-0.62328-0.46867 0.47181
   6   3  -8   28.53   30.26  88-0.22884 0.69290 0.86945-0.68853-0.46785-0.09679
   6   3  -5  592.21   21.99  87-0.21991 0.72750 0.86860-0.68680-0.47235 0.15934
   6   4  -3    2.59   17.05  87-0.21991 0.75874 0.86860-0.62260-0.47235 0.32431
   6   5  -2  104.03   24.47  88-0.22922 0.78065 0.86949-0.56249-0.46766 0.40631
   6   6  -1   -8.26   23.17  88-0.22475 0.79051 0.86908-0.49868-0.46992 0.48917
   7   5  -9   26.68   35.47  87-0.22457 0.77044 0.86906-0.56517-0.47001-0.16052
   7   5  -5  113.30   21.91  87-0.22206 0.82665 0.86882-0.56356-0.47127 0.17525
   8   8  -5   31.46   35.24  87-0.22529 0.92588 0.86913-0.37860-0.46965 0.19135
   8   9  -4   21.09   39.70  88-0.22761 0.94289 0.86934-0.31616-0.46848 0.27377
  -9   3  -1  -10.46   32.59  89-0.24419-0.64122 0.87066-0.68334-0.46011 0.22466
  -9   7   3  -31.98   36.96  89-0.24027-0.59084 0.87037-0.43390-0.46214 0.56247
  -8   3   1   31.71   28.92  89-0.24172-0.51979 0.87048-0.68285-0.46140 0.40891
  -8   4   2  182.06   28.76  88-0.23906-0.50729 0.87028-0.62121-0.46277 0.49437
  -8   7   4   36.70   32.49  88-0.23742-0.48050 0.87015-0.43407-0.46362 0.66271
  -7   2   1  101.50   26.34  88-0.23981-0.42388 0.87034-0.74514-0.46239 0.42716
  -7   3   2  417.79   21.95  88-0.23350-0.41568 0.86984-0.68285-0.46563 0.51376
  -7   4   3   76.03   27.17  88-0.24112-0.39397 0.87044-0.62065-0.46170 0.59407
  -6   0  -1  -21.05   21.37  89-0.24383-0.35052 0.87063-0.86903-0.46030 0.27584
  -5   0   0   -5.51   23.48  89-0.24205-0.24151 0.87050-0.86900-0.46122 0.37727
  -5   4   4  265.23   24.31  88-0.23829-0.18847 0.87022-0.62052-0.46317 0.71269
  -4   8   6  967.34   31.97  88-0.23783-0.06318 0.87019-0.37419-0.46340 0.89768
  -3   8   6  314.41   22.83  88-0.23528 0.03073 0.86998-0.37363-0.46472 0.91615
  -1  -2  -5  138.95   29.95  90-0.25586 0.08558 0.87138-0.99647-0.45397 0.01855
  -1   4   4    2.29   22.62  89-0.24383 0.20787 0.87063-0.62046-0.46030 0.77829
  -1   6   5   -6.30   24.27  89-0.24259 0.22097 0.87054-0.49587-0.46094 0.86344
  -1   9   6   54.09   30.02  89-0.24333 0.23374 0.87059-0.31180-0.46056 0.94635
   0   0 -11   15.49   36.77  89-0.24446 0.08252 0.87067-0.87530-0.45997-0.45908
   2  -1  -7  244.17   18.46  88-0.23600 0.32769 0.87004-0.93482-0.46435-0.08613
   2  -1  -6  829.68   28.00  89-0.24449 0.35025 0.87068-0.93513-0.45995-0.00692
   2  -1  -5  185.74   21.78  88-0.23828 0.35848 0.87022-0.93404-0.46317 0.07976
   2   0 -10  538.14   33.78  89-0.24182 0.28907 0.87049-0.87440-0.46134-0.33826
   4   1  -9  857.66   32.18  89-0.24135 0.49642 0.87045-0.81245-0.46158-0.22019
   4   2 -11   67.52   34.66  88-0.23912 0.46419 0.87028-0.75132-0.46274-0.38516
   5   2  -9  153.05   22.91  88-0.23457 0.58763 0.86992-0.75111-0.46508-0.19928
   5   7   1   49.39   25.25  89-0.24119 0.73951 0.87044-0.43862-0.46167 0.63213
   6   3  -7  721.50   23.65  88-0.23421 0.71339 0.86989-0.68840-0.46526-0.01422
   6   3  -6   29.43   18.73  88-0.23207 0.72517 0.86971-0.68777-0.46636 0.06880
   6   4 -10   83.17   40.21  89-0.24118 0.67452 0.87044-0.62768-0.46168-0.26899
   6   8   0   76.36   28.38  88-0.24042 0.82080 0.87038-0.37720-0.46207 0.56655
   6  11   1   75.90   37.18  89-0.24300 0.83840 0.87057-0.19165-0.46073 0.64974
   7   5  -8  179.36   26.97  88-0.23457 0.79564 0.86992-0.56533-0.46508-0.08098
   7   5  -7   -4.38   29.78  89-0.24009 0.81433 0.87036-0.56376-0.46224-0.00181
   7   5  -6  512.75   25.48  88-0.23457 0.82504 0.86992-0.56397-0.46508 0.08692
   7   6  -4   40.27   28.40  89-0.24104 0.85974 0.87043-0.50235-0.46175 0.24902
   7   7  -3   51.75   27.35  89-0.24632 0.88042 0.87080-0.44060-0.45900 0.33012
   7   8  -2  112.51   29.03  88-0.23948 0.88693 0.87031-0.37844-0.46256 0.41777
   7  10  -1    7.74   37.33  89-0.24063 0.90393 0.87040-0.25196-0.46196 0.49962
  -9   4   1    1.33   34.46  90-0.25681-0.60059 0.87138-0.62162-0.45356 0.38489
  -9   5   2  138.09   36.56  89-0.25626-0.58695 0.87135-0.56024-0.45385 0.46823
  -8   1  -4    9.87   36.29  89-0.25521-0.57912 0.87130-0.80905-0.45441-0.01592
  -8   1  -3  108.32   30.90  90-0.25795-0.56033 0.87144-0.80917-0.45295 0.06686
  -8   2   0  316.65   28.26  90-0.25842-0.51664 0.87147-0.74640-0.45270 0.31669
  -8   5   3  327.81   24.45  89-0.24777-0.48352 0.87085-0.55976-0.45834 0.57385
  -7   0  -4   -3.43   29.60  90-0.25681-0.48064 0.87138-0.87129-0.45356 0.00092
  -7   5   4  577.75   29.00  90-0.25970-0.35999 0.87153-0.56072-0.45202 0.66740
  -7   7   5   55.34   33.35  90-0.25665-0.34921 0.87137-0.43541-0.45365 0.75281
  -6   1   1  438.14   26.09  90-0.25773-0.30932 0.87143-0.80810-0.45307 0.43422
  -6   2   2  536.57   21.10  89-0.24599-0.30624 0.87073-0.74573-0.45927 0.52424
  -6   3   3 1225.82   25.32  89-0.25025-0.28709 0.87101-0.68393-0.45703 0.60583
  -6   6   5    5.83   27.96  90-0.25663-0.25047 0.87137-0.49646-0.45366 0.77136
  -6   9   6  -11.06   26.71  89-0.24883-0.24387 0.87092-0.30987-0.45778 0.85999
  -5  -1  -2  207.82   24.22  90-0.26002-0.25374 0.87155-0.93337-0.45185 0.19905
  -5   8   6  357.25   30.28  89-0.25182-0.14501 0.87110-0.37445-0.45620 0.87406
  -3  -2  -5  270.12   49.88  92-0.28835-0.07612 0.87240-0.99684-0.43631-0.03305
  -3   1   2   -7.92   17.81  89-0.24848-0.01073 0.87089-0.80707-0.45797 0.57538
  -3   2   3  737.18   29.16  90-0.25644 0.00900 0.87136-0.74600-0.45376 0.65353
  -3   5   5   28.37   22.29  90-0.25874 0.04109 0.87148-0.56025-0.45253 0.81899
  -2   8   6   99.64   25.49  89-0.25168 0.14514 0.87109-0.37377-0.45628 0.92566
  -1   0 -11   41.97   39.53  90-0.25627-0.00258 0.87135-0.87483-0.45385-0.48141
   0  -1  -9  283.76   33.13  90-0.26511 0.13400 0.87178-0.93605-0.44911-0.30175
   0   3   3 3401.29   66.58  90-0.26210 0.30551 0.87165-0.68485-0.45073 0.70235
   2   0  -2   95.49   23.84  89-0.25324 0.41665 0.87118-0.87236-0.45545 0.32354
   3   0  -8   10.85   23.49  90-0.25463 0.42703 0.87126-0.87396-0.45472-0.16011
   3   0  -4   -4.93   14.62  89-0.24777 0.48086 0.87085-0.87240-0.45834 0.17513
   4   1  -8   30.94   23.09  90-0.26052 0.53074 0.87157-0.81340-0.45158-0.14788
   4   1  -4  154.51   16.03  89-0.24919 0.57818 0.87094-0.81130-0.45759 0.19248
   4   2  -2  497.13   24.28  90-0.25493 0.61287 0.87128-0.74874-0.45456 0.35626
   4   5   1  613.60   28.96  90-0.25603 0.65815 0.87134-0.56269-0.45397 0.60703
   5   2  -8  214.94   20.43  89-0.25096 0.61822 0.87105-0.75150-0.45666-0.12489
   5   2  -7  149.49   24.39  90-0.25981 0.64179 0.87154-0.75144-0.45196-0.04669
   5   2  -5  657.05   21.13  89-0.25096 0.66238 0.87105-0.75026-0.45666 0.12596
   5  10   2   -0.64   35.37  90-0.26228 0.77634 0.87165-0.25181-0.45063 0.70501
   6   4  -9  134.03   32.00  90-0.25946 0.70911 0.87152-0.62854-0.45215-0.19500
   6   4  -4   20.47   22.32  90-0.25497 0.77493 0.87128-0.62663-0.45454 0.22471
   6  12   1  -12.19   42.68  90-0.26287 0.85905 0.87168-0.12799-0.45031 0.63906
   7   6  -5  182.93   27.90  90-0.26000 0.86492 0.87155-0.50344-0.45185 0.15586
   7  11  -1   74.17   36.90  90-0.25946 0.92267 0.87152-0.19298-0.45215 0.49124
  -9   2  -3   66.73   36.67  91-0.27286-0.64293 0.87191-0.74800-0.44500 0.04205
  -9   3   0   63.81   35.18  91-0.27080-0.60222 0.87184-0.68501-0.44613 0.29338
  -9   6   3  304.56   36.22  90-0.26643-0.56161 0.87168-0.49975-0.44850 0.54764
  -8   1  -5   87.82   36.93  90-0.26595-0.58387 0.87166-0.81109-0.44876-0.10461
  -8   1  -2   -6.67   31.20  91-0.27119-0.53325 0.87186-0.80903-0.44592 0.14375
  -8   6   4   12.79   31.30  90-0.26714-0.45080 0.87171-0.49815-0.44812 0.64727
  -8   8   5   31.21   39.34  90-0.26961-0.43311 0.87180-0.37412-0.44678 0.72918
  -7   0  -5  279.57   33.02  90-0.26564-0.48618 0.87165-0.87323-0.44893-0.08717
  -7   0  -3  407.09   29.00  90-0.26398-0.45781 0.87158-0.87249-0.44983 0.08070
  -7   1   0  100.57   18.94  90-0.26326-0.41499 0.87155-0.80963-0.45022 0.33096
  -6   4   4   10.01   25.84  90-0.26882-0.25527 0.87177-0.62235-0.44721 0.68045
  -6   8   6   56.27   30.61  91-0.27237-0.22182 0.87190-0.37445-0.44527 0.84550
  -5  -1  -7   73.93   42.36  91-0.27778-0.30918 0.87205-0.93517-0.44230-0.22657
  -4  -1  -1  473.53   26.08  90-0.26527-0.13731 0.87163-0.93360-0.44913 0.29695
  -4   1   2  210.59   18.33  90-0.26114-0.09740 0.87145-0.80846-0.45136 0.55043
  -4   2   3  670.23   21.88  90-0.26361-0.08070 0.87156-0.74622-0.45003 0.63281
  -4   5   5  287.46   20.17  90-0.26114-0.05380 0.87145-0.56063-0.45136 0.80140
  -4   7   6   32.33   26.49  91-0.27453-0.02600 0.87196-0.43642-0.44409 0.87879
  -4  11   7   48.02   36.40  91-0.27382-0.01232 0.87194-0.18868-0.44447 0.96364
  -3   0   1  696.96   30.29  91-0.27052-0.00607 0.87183-0.87117-0.44628 0.47826
  -3  12   7  110.40   38.91  90-0.26432 0.07459 0.87159-0.12700-0.44965 0.98623
  -2   1   2  243.91   22.53  90-0.26043 0.09568 0.87142-0.80845-0.45174 0.58501
  -2   2   3 3861.52   48.46  91-0.27320 0.12224 0.87192-0.74691-0.44482 0.66169
   0  10   6  356.56   38.79  91-0.27845 0.36478 0.87207-0.25324-0.44192 0.94513
   1  -1  -8  160.75   26.25  91-0.27013 0.25057 0.87182-0.93629-0.44650-0.20369
   1  -1  -3   97.04   16.15  90-0.26114 0.31397 0.87145-0.93463-0.45136 0.21755
   2   1 -11  143.59   36.67  91-0.27136 0.30390 0.87186-0.81464-0.44582-0.43718
   3   0  -7  382.09   25.03  91-0.26966 0.45745 0.87180-0.87443-0.44675-0.08572
   3   0  -5 1858.35   32.20  91-0.26986 0.48744 0.87181-0.87378-0.44664 0.08037
   3   1 -10  305.57   32.68  91-0.26935 0.41306 0.87179-0.81331-0.44692-0.33551
   3   1  -2    3.79   21.52  90-0.27018 0.53207 0.87182-0.81123-0.44647 0.33082
   4   1  -7  561.57   25.04  91-0.27338 0.55845 0.87193-0.81316-0.44472-0.07046
   4   1  -5 1689.57   30.02  91-0.26988 0.58428 0.87181-0.81230-0.44663 0.09825
   4   2 -10  276.97   34.15  91-0.27207 0.51346 0.87189-0.75286-0.44544-0.31972
   5   2  -6  353.51   19.20  90-0.26079 0.65730 0.87143-0.75061-0.45155 0.03712
   5   3 -10  428.06   28.02  90-0.26149 0.59991 0.87147-0.69067-0.45117-0.29652
   5   3  -3  146.79   20.98  90-0.26745 0.70772 0.87172-0.68784-0.44795 0.28381
   6   4  -8   51.74   28.57  91-0.27312 0.73744 0.87192-0.62819-0.44486-0.11984
   6   4  -5   97.33   25.75  91-0.27172 0.77972 0.87187-0.62712-0.44563 0.13217
   6   5  -3    2.55   22.23  91-0.27136 0.81172 0.87186-0.56277-0.44582 0.29752
   6   7  -1  260.32   28.27  91-0.27020 0.83635 0.87182-0.44088-0.44645 0.46716
   7   6  -8  -18.39   33.72  91-0.26855 0.82868 0.87176-0.50309-0.44735-0.10029
   7   6  -7   16.70   30.55  91-0.27172 0.84781 0.87187-0.50428-0.44563-0.01804
   7   6  -6   24.18   31.65  91-0.27045 0.86040 0.87183-0.50376-0.44632 0.06630
   7   9  -2  317.14   32.34  90-0.26865 0.91636 0.87177-0.31683-0.44730 0.40205
  -9   2  -2   46.83   38.11  91-0.28296-0.61955 0.87225-0.74790-0.43967 0.11985
  -8   3   2   24.20   28.39  91-0.28442-0.46205 0.87227-0.68468-0.43885 0.47003
  -8   4   3   91.70   28.41  92-0.28708-0.44461 0.87231-0.62282-0.43736 0.55236
  -7   0  -6    5.42   38.65  92-0.28790-0.47751 0.87232-0.87268-0.43690-0.18218
  -7   0  -2  -11.47   26.50  92-0.28261-0.42627 0.87224-0.87245-0.43986 0.15454
  -7   9   6   58.49   29.86  91-0.27841-0.31321 0.87215-0.31245-0.44219 0.82632
  -6  -1  -4   63.42   30.14  92-0.29186-0.34754 0.87236-0.93486-0.43467-0.00032
  -6   0  -8   25.46   52.79  91-0.28851-0.40948 0.87233-0.87374-0.43656-0.33210
  -5   1   2 1373.39   30.39  92-0.28570-0.16982 0.87229-0.80926-0.43814 0.52005
  -5   2   3  762.98   26.48  91-0.28395-0.15679 0.87226-0.74744-0.43911 0.60457
  -5   5   5   91.03   19.08  91-0.27490-0.13639 0.87206-0.56099-0.44413 0.77734
  -5   7   6  443.25   32.89  91-0.28371-0.11304 0.87226-0.43753-0.43925 0.85640
  -4   0   1   10.17   23.16  91-0.28331-0.09021 0.87225-0.87144-0.43947 0.45491
  -4   3   4   23.76   22.89  92-0.28449-0.04498 0.87227-0.68481-0.43881 0.70518
  -3  -2  -4  834.25   46.94  92-0.29718-0.05304 0.87237-0.99670-0.43165 0.04581
  -3   3   4 3339.07   41.28  92-0.28560 0.05280 0.87229-0.68529-0.43819 0.72154
  -3   7   6  403.41   27.67  91-0.27876 0.07542 0.87216-0.43794-0.44200 0.89337
  -3  11   7   53.19   34.55  91-0.27983 0.09078 0.87218-0.18887-0.44141 0.97776
  -2  -1  -9   57.00   36.83  93-0.29589-0.02964 0.87237-0.93633-0.43238-0.35341
  -2   5   5  238.65   25.42  91-0.28101 0.15952 0.87221-0.56174-0.44075 0.82501
  -2  12   7   15.19   41.17  92-0.28618 0.19390 0.87230-0.12767-0.43787 0.99112
  -1  -1  -9   30.00   33.47  92-0.29188 0.06312 0.87236-0.93637-0.43466-0.33295
   1   0 -10    4.73   31.58  92-0.28401 0.23544 0.87227-0.87506-0.43908-0.37922
   1   8   5  463.28   42.42  92-0.29302 0.46218 0.87236-0.37708-0.43401 0.87010
   2   0  -9  -15.81   27.50  92-0.28331 0.34624 0.87225-0.87455-0.43947-0.27825
   3   0  -6   11.50   15.48  91-0.27490 0.47787 0.87206-0.87473-0.44413-0.00592
   3   2 -11   57.82   33.64  92-0.28875 0.41826 0.87233-0.75279-0.43642-0.43083
   3   5   2   83.19   25.58  92-0.28955 0.60936 0.87234-0.56317-0.43597 0.65509
   3  10   4   51.78   48.56  94-0.31386 0.66328 0.87216-0.25353-0.42200 0.80903
   4   1  -6  -14.41   16.33  91-0.27665 0.57763 0.87211-0.81214-0.44316 0.00954
   4   3 -11  -20.37   34.11  91-0.28401 0.51212 0.87227-0.69182-0.43908-0.41492
   4   3  -1  276.09   22.32  91-0.28068 0.65327 0.87220-0.68744-0.44093 0.42629
   4   4   0 2163.90   37.52  92-0.28381 0.67153 0.87226-0.62526-0.43919 0.50835
   4   7   2  308.61   28.13  92-0.28361 0.70037 0.87226-0.43980-0.43930 0.67550
   5   3  -9    8.32   30.31  92-0.28471 0.63901 0.87228-0.68923-0.43869-0.22850
   5   6   0   15.99   23.19  91-0.28354 0.76796 0.87226-0.50194-0.43934 0.52595
   6   4  -7  168.01   27.53  91-0.28125 0.75941 0.87221-0.62819-0.44062-0.03971
   6   4  -6  131.77   24.96  91-0.28114 0.77419 0.87221-0.62743-0.44068 0.04357
   6   6  -2  342.73   25.74  91-0.28029 0.83155 0.87219-0.50324-0.44115 0.37802
   6   9   0   16.02   27.63  91-0.27934 0.85938 0.87217-0.31704-0.44168 0.54566
   7   7  -4  228.88   22.89  91-0.27490 0.89455 0.87206-0.44156-0.44413 0.23127
   7   8  -3  120.92   22.95  91-0.27806 0.91229 0.87214-0.37958-0.44239 0.31328
  -9   2  -1   57.91   36.57  92-0.29866-0.58883 0.87218-0.74744-0.43087 0.19437
  -9   3   1    9.39   31.29  92-0.29790-0.55631 0.87218-0.68475-0.43131 0.36174
  -9   4   2   25.05   31.47  92-0.29477-0.54966 0.87218-0.62310-0.43309 0.44772
  -9   5   3  -16.71   36.71  93-0.29842-0.53007 0.87218-0.56056-0.43101 0.53016
  -8   1  -1  219.86   28.10  92-0.29374-0.49626 0.87218-0.81028-0.43368 0.21460
  -8   2   1   33.13   28.47  93-0.29790-0.46546 0.87218-0.74825-0.43131 0.37942
  -8   5   4   29.69   29.48  93-0.30102-0.41674 0.87217-0.56064-0.42952 0.62832
  -8   7   5  231.64   34.29  92-0.29538-0.40704 0.87219-0.43739-0.43275 0.71567
  -7   2   2  166.56   19.15  92-0.29024-0.35870 0.87216-0.74727-0.43566 0.48381
  -7   3   3  141.92   19.29  92-0.29024-0.34417 0.87216-0.68548-0.43566 0.56770
  -7   6   5  151.61   23.95  92-0.28919-0.31650 0.87215-0.49904-0.43625 0.73611
  -7   8   6   27.17   34.82  93-0.29935-0.29131 0.87218-0.37521-0.43048 0.81328
  -6  -1  -5  139.32   34.73  93-0.30079-0.35372 0.87217-0.93463-0.42965-0.08979
  -6  -1  -3  458.41   29.37  92-0.29884-0.32651 0.87218-0.93409-0.43077 0.07823
  -6   0   0  123.14   17.42  92-0.29093-0.29047 0.87217-0.87144-0.43526 0.33348
  -6   5   5  538.39   29.67  92-0.29732-0.21067 0.87219-0.56210-0.43164 0.74768
  -6   7   6   38.23   29.49  93-0.30206-0.19248 0.87216-0.43650-0.42892 0.82933
  -5   3   4  407.03   25.82  92-0.29823-0.12777 0.87218-0.68543-0.43112 0.68008
  -5  10   7   86.92   40.34  92-0.29741-0.08565 0.87219-0.25073-0.43159 0.93306
  -4  10   7   14.56   33.98  92-0.29268 0.00657 0.87218-0.25079-0.43428 0.95300
  -3  10   7   33.37   32.51  93-0.30128 0.11224 0.87217-0.25106-0.42937 0.96513
  -2  -2  -5   43.10   38.30  96-0.34506 0.07773 0.87052-0.99532-0.40328-0.04870
  -2   0   1   16.42   18.29  92-0.28814 0.10963 0.87214-0.87132-0.43684 0.48656
  -2   7   6  143.09   26.06  93-0.30332 0.19703 0.87215-0.43788-0.42820 0.89635
  -2  11   7  128.30   39.94  93-0.30553 0.21392 0.87213-0.19020-0.42692 0.98005
  -1  -1  -1 1084.09   65.11  93-0.30987 0.19620 0.87206-0.93478-0.42440 0.32267
  -1   8   6  183.95   29.58  93-0.29940 0.28968 0.87218-0.37628-0.43045 0.91577
   1  -1  -7  866.61   29.88  93-0.30158 0.29551 0.87217-0.93679-0.42920-0.13826
   1   0  -1 1158.77   43.15  93-0.29997 0.38242 0.87218-0.87318-0.43012 0.36218
   3   1  -9  532.21   28.50  93-0.30236 0.46111 0.87216-0.81434-0.42875-0.27071
   3   7   3  864.05   44.85  94-0.31428 0.64922 0.87197-0.43898-0.42182 0.72420
   4   2  -9  119.57   26.87  93-0.30115 0.55663 0.87217-0.75231-0.42944-0.25374
   4  10   3    6.52   35.56  93-0.29956 0.73093 0.87218-0.25327-0.43036 0.75156
   5   3  -4  397.24   24.06  93-0.29780 0.72279 0.87218-0.68930-0.43136 0.18333
   5   4  -2   74.48   16.16  92-0.29024 0.74478 0.87216-0.62694-0.43566 0.35557
   5   5  -1   71.48   22.52  93-0.29818 0.76629 0.87218-0.56519-0.43114 0.43466
   5   8   1  668.51   31.10  93-0.29893 0.79844 0.87218-0.37834-0.43072 0.60050
   5  11   2  273.99   37.52  93-0.29744 0.81127 0.87219-0.19255-0.43157 0.68555
   6   5  -9   95.47   35.78  93-0.29787 0.74677 0.87218-0.56650-0.43133-0.21562
   6   5  -4   11.36   23.45  93-0.30068 0.82370 0.87217-0.56504-0.42972 0.19931
   7   7  -8   36.34   35.51  93-0.29688 0.85621 0.87219-0.44362-0.43189-0.11375
   7   7  -7   36.87   32.57  93-0.30036 0.87718 0.87218-0.44237-0.42990-0.03396
   7   7  -6  238.95   31.18  93-0.30068 0.89101 0.87217-0.44258-0.42972 0.05066
   7   7  -5   31.37   23.33  92-0.29233 0.89737 0.87217-0.44197-0.43448 0.13788
   7  10  -2  115.72   27.10  92-0.29024 0.93934 0.87216-0.25555-0.43566 0.39044
  -9   6   4   67.17   40.26  93-0.31223-0.50228 0.87194-0.49866-0.42294 0.60469
  -7   0  -1  858.62   29.72  93-0.30706-0.38561 0.87203-0.87208-0.42595 0.22413
  -7   1   1  428.10   21.12  93-0.30612-0.35708 0.87205-0.80944-0.42649 0.39211
  -7   4   4   15.79   20.38  93-0.30231-0.31863 0.87209-0.62283-0.42869 0.64446
  -6   2   3   38.22   25.36  93-0.31121-0.22698 0.87196-0.74670-0.42353 0.57214
  -5  -1  -1   56.35   17.06  93-0.30612-0.19315 0.87205-0.93369-0.42649 0.25832
  -5   0   1  358.18   24.60  93-0.30838-0.16234 0.87201-0.87120-0.42518 0.42352
  -4   9   7   -5.23   30.53  94-0.31441 0.03155 0.87188-0.31150-0.42166 0.93913
  -2   3   4   44.33   24.35  94-0.31170 0.17572 0.87195-0.68500-0.42325 0.72406
   1  -1  -4 1095.44   31.98  94-0.31290 0.35036 0.87192-0.93570-0.42255 0.10427
   1   1 -11  179.21   37.52  94-0.31207 0.24829 0.87194-0.81408-0.42303-0.47702
   2   0  -8  605.46   27.24  94-0.31670 0.39323 0.87182-0.87509-0.42032-0.21338
   4   2  -3  670.54   20.48  93-0.30404 0.64756 0.87207-0.75012-0.42770 0.24547
   5   3  -8  655.42   24.35  93-0.30335 0.67080 0.87208-0.69040-0.42810-0.15312
   5   3  -7  322.81   25.92  94-0.31462 0.69661 0.87188-0.68986-0.42154-0.07646
   5   3  -5   72.97   23.43  94-0.31307 0.72482 0.87192-0.68870-0.42245 0.09102
   5   4 -10    9.76   27.04  93-0.30473 0.64392 0.87207-0.62666-0.42730-0.32237
   5  12   2   13.93   39.84  95-0.32344 0.83612 0.87160-0.13069-0.41632 0.67101
   6   5  -8   10.13   32.23  94-0.31165 0.77683 0.87195-0.56419-0.42328-0.14250
   6   8  -1    0.92   28.11  94-0.31096 0.87855 0.87196-0.37622-0.42368 0.44339
   6  10   0   81.38   30.18  93-0.30913 0.88945 0.87200-0.25494-0.42475 0.52913
   7   8  -4  148.18   24.02  93-0.30370 0.92380 0.87208-0.37959-0.42790 0.21530
   7   9  -3   27.52   24.49  93-0.30404 0.93861 0.87207-0.31714-0.42770 0.29899
   7  11  -2   88.40   36.27  93-0.30888 0.95717 0.87200-0.19352-0.42489 0.38010
  -9   2   0   67.43   31.02  94-0.32197-0.55095 0.87160-0.74752-0.41709 0.26475
  -8   1   0  113.83   27.44  94-0.32189-0.45456 0.87160-0.80990-0.41714 0.28118
  -8   6   5    1.85   35.70  95-0.32472-0.37738 0.87150-0.49795-0.41545 0.70009
  -7   5   5  129.81   29.80  94-0.32485-0.28046 0.87149-0.56089-0.41537 0.71504
  -7   7   6  261.99   35.32  94-0.32599-0.26483 0.87144-0.43648-0.41469 0.79801
  -6  -1  -2   98.87   24.57  94-0.32029-0.28969 0.87166-0.93427-0.41809 0.14918
  -6   1   2   11.60   17.64  94-0.31682-0.23590 0.87177-0.80888-0.42014 0.48512
  -6   3   4   86.45   19.04  94-0.32060-0.20283 0.87165-0.68519-0.41790 0.65001
  -5   4   5  173.56   25.70  94-0.32563-0.08484 0.87146-0.62307-0.41491 0.74785
  -5   6   6    0.53   26.38  94-0.32163-0.07569 0.87161-0.49832-0.41729 0.83479
  -5   9   7   71.11   28.13  94-0.31923-0.06354 0.87170-0.31255-0.41872 0.92051
  -4   4   5  254.91   19.90  94-0.32026 0.00567 0.87166-0.62319-0.41811 0.76821
  -4   6   6  191.47   21.32  94-0.31750 0.01791 0.87175-0.50028-0.41973 0.85321
  -3   4   5  459.72   25.43  95-0.32978 0.11231 0.87127-0.62244-0.41242 0.77962
  -3   6   6   99.60   25.63  95-0.32860 0.12483 0.87133-0.49796-0.41313 0.86465
  -3   9   7   11.89   29.44  95-0.32952 0.14094 0.87128-0.31228-0.41257 0.94830
  -2  10   7   -8.96   35.43  95-0.33202 0.24283 0.87116-0.24783-0.41106 0.96491
   0  -1  -8   13.88   23.45  94-0.32264 0.20532 0.87158-0.93573-0.41669-0.25055
   0  -1  -2   95.39   26.61  94-0.32135 0.29123 0.87162-0.93443-0.41746 0.24959
   0   0 -10   28.44   29.79  95-0.32386 0.17730 0.87153-0.87454-0.41596-0.41711
   1  -1  -6 2327.80   38.97  94-0.32379 0.33195 0.87153-0.93516-0.41600-0.06853
   1  -1  -5   57.52   21.80  95-0.32839 0.35195 0.87134-0.93502-0.41325 0.01201
   1  13   6   15.96   61.83  96-0.34514 0.53033 0.87036-0.06436-0.40304 0.92511
   2   0  -3   -8.29   20.76  94-0.32300 0.47302 0.87156-0.87271-0.41647 0.20001
   2   1 -10    1.28   28.59  95-0.32300 0.37105 0.87156-0.81161-0.41647-0.38279
   3   1  -3  943.04   27.96  95-0.32607 0.57267 0.87144-0.81127-0.41464 0.21491
   3   2  -1  179.95   17.62  94-0.32094 0.59748 0.87164-0.74872-0.41770 0.38512
   4   2  -8  382.29   26.86  95-0.32474 0.59436 0.87149-0.75070-0.41544-0.18340
   4   3 -10   11.11   33.20  95-0.32472 0.56650 0.87150-0.68755-0.41545-0.35098
   5   3  -6  144.44   17.91  94-0.31854 0.71482 0.87172-0.68928-0.41912 0.00463
   5   4  -9  -16.99   29.33  95-0.32746 0.68276 0.87138-0.62575-0.41381-0.25453
   5  13   2  107.49   48.02  95-0.33523 0.84941 0.87099-0.06634-0.40911 0.66441
   6   5  -7   57.64   22.09  94-0.32026 0.79951 0.87166-0.56525-0.41811-0.06294
   6   5  -6  251.83   26.08  94-0.32326 0.81629 0.87155-0.56475-0.41632 0.01989
   6   5  -5  556.36   22.19  94-0.31647 0.82447 0.87178-0.56514-0.42034 0.10705
   6   6  -9   -8.39   33.94  95-0.32678 0.77887 0.87141-0.50152-0.41422-0.23651
   6   6  -3   43.33   17.95  94-0.31785 0.85573 0.87174-0.50209-0.41953 0.27284
   6   7  -2   37.50   24.82  94-0.32346 0.87444 0.87155-0.44027-0.41620 0.35319
   6  11   0  132.57   33.26  95-0.32944 0.91159 0.87129-0.19204-0.41262 0.51741
   7   8  -7  241.09   39.03  95-0.32581 0.90161 0.87145-0.37971-0.41480-0.04790
   7   8  -6   93.37   34.63  95-0.32588 0.91679 0.87145-0.37926-0.41476 0.03501
   7   8  -5  228.58   26.20  94-0.31957 0.92477 0.87169-0.37898-0.41851 0.12284
   7   9  -4   26.27   31.43  94-0.32656 0.94829 0.87142-0.31569-0.41435 0.20161
   7  10  -3  100.48   37.39  95-0.32554 0.95955 0.87146-0.25488-0.41496 0.28613
  -9   1  -3   37.74   40.50  96-0.33992-0.57685 0.87059-0.80947-0.40627 0.00261
  -9   3   2  140.16   31.71  95-0.33644-0.50649 0.87080-0.68506-0.40840 0.42351
  -9   4   3  154.05   32.99  95-0.33490-0.49353 0.87089-0.62263-0.40934 0.50842
  -8   0  -4  209.14   39.62  96-0.34365-0.48975 0.87034-0.87145-0.40398-0.06481
  -8   0  -3   -8.21   32.89  96-0.34035-0.47892 0.87056-0.87093-0.40601 0.02016
  -8   2   2  330.33   27.69  95-0.33592-0.40893 0.87083-0.74693-0.40872 0.44107
  -8   3   3   38.02   21.37  95-0.33148-0.40071 0.87107-0.68440-0.41141 0.52631
  -8   4   4  605.98   34.24  95-0.33870-0.37666 0.87067-0.62251-0.40702 0.60649
  -7   0  -7   14.54   48.16  96-0.34423-0.43565 0.87031-0.87227-0.40363-0.29877
  -7   0   0  -10.02   25.82  96-0.33916-0.33902 0.87064-0.87021-0.40674 0.28861
  -6  -1  -6   -0.71   37.17  96-0.34465-0.32613 0.87028-0.93468-0.40337-0.20029
  -6   0   1   12.30   23.48  95-0.33899-0.22760 0.87065-0.86953-0.40685 0.38777
  -6   4   5  104.16   25.70  96-0.34090-0.16681 0.87053-0.62144-0.40567 0.72164
  -6   6   6 1150.01   31.93  95-0.33567-0.15737 0.87084-0.49886-0.40887 0.80924
  -6   9   7  216.45   29.03  95-0.33080-0.14797 0.87110-0.31319-0.41182 0.89617
  -4  -2  -4    5.93   26.43  96-0.34522-0.10063 0.87024-0.99464-0.40302 0.00095
  -4  -1   0   66.71   23.59  95-0.33821-0.04923 0.87070-0.93283-0.40732 0.33878
  -3  -2  -3  315.91   30.77  96-0.34822 0.01254 0.87002-0.99465-0.40116 0.09891
  -3  -1   0   21.41   21.27  96-0.33817 0.04672 0.87070-0.93284-0.40735 0.35597
  -3   0 -10    7.13   51.55  97-0.35617-0.08193 0.86937-0.87323-0.39619-0.49098
  -1   1   2 2651.47   49.40  95-0.33388 0.26548 0.87094-0.80800-0.40996 0.56105
  -1   2   3  263.21   25.18  96-0.34320 0.28954 0.87038-0.74585-0.40426 0.63830
  -1   5   5  292.44   27.42  96-0.34090 0.31701 0.87053-0.56021-0.40568 0.80672
  -1  12   7    8.65   45.80  96-0.34696 0.35284 0.87011-0.12441-0.40194 0.97441
   0   1 -11  145.22   40.01  96-0.34740 0.18636 0.87008-0.81190-0.40167-0.51537
   0   9   6    3.96   32.86  97-0.34812 0.43670 0.87002-0.31040-0.40122 0.90664
   1   0  -9   35.43   27.73  96-0.33765 0.30247 0.87073-0.87341-0.40767-0.32637
   2   0  -7   -2.19   20.68  96-0.34103 0.43388 0.87052-0.87300-0.40560-0.14693
   2   1  -1    6.71   22.00  95-0.33899 0.51974 0.87065-0.80926-0.40685 0.35757
   2   2 -11   42.91   37.06  96-0.33879 0.37113 0.87066-0.75044-0.40697-0.47642
   3   1  -8  532.38   21.50  95-0.33012 0.50346 0.87114-0.81268-0.41223-0.20396
   3   2 -10   20.65   23.81  95-0.33012 0.47455 0.87114-0.75123-0.41223-0.37152
   3   3 -11   73.28   34.96  96-0.34209 0.47170 0.87045-0.68881-0.40495-0.46204
   4   2  -7   23.51   23.76  96-0.33948 0.62474 0.87062-0.74945-0.40654-0.10935
   4   2  -4 1159.32   23.28  95-0.33285 0.66180 0.87100-0.74905-0.41058 0.14487
   4   4 -11   44.38   29.16  95-0.33217 0.55865 0.87103-0.62762-0.41099-0.43837
   4  11   3   38.78   38.01  96-0.34783 0.78028 0.87005-0.18841-0.40140 0.72339
   5   4  -3 1026.96   23.47  95-0.33148 0.77190 0.87107-0.62519-0.41141 0.24689
   5   5 -10   18.88   34.51  95-0.33974 0.67935 0.87060-0.56470-0.40639-0.34446
   5   7   0  895.62   30.78  96-0.34117 0.82604 0.87051-0.43850-0.40551 0.49192
   5   9   1   -4.99   30.08  96-0.34774 0.84591 0.87005-0.31392-0.40146 0.57177
   6   6  -4 1618.92   31.23  96-0.34166 0.86472 0.87048-0.50169-0.40521 0.17507
   6   9  -1  469.08   29.30  96-0.34224 0.90959 0.87044-0.31496-0.40486 0.42534
   6  12   0  122.89   41.14  96-0.34588 0.92788 0.87019-0.12820-0.40261 0.50721
   7   9  -5   43.60   33.35  96-0.34171 0.94714 0.87047-0.31586-0.40518 0.10924
   7  11  -3   26.73   41.09  96-0.34054 0.97546 0.87055-0.19158-0.40589 0.27750
  -9   1  -2  100.30   28.34  96-0.34534-0.55669 0.87021-0.80938-0.40291 0.08355
  -9   2   1  155.35   31.13  96-0.35002-0.50790 0.86986-0.74623-0.40001 0.33166
  -9   5   4   25.53   27.39  96-0.34331-0.47108 0.87035-0.55986-0.40416 0.58624
  -8   0  -2   12.45   28.30  96-0.35032-0.45633 0.86983-0.87092-0.39982 0.09622
  -8   1   1  509.74   30.93  96-0.35310-0.40671 0.86961-0.80760-0.39808 0.34593
  -8   5   5  246.78   32.12  97-0.35572-0.34542 0.86938-0.55964-0.39643 0.67883
  -8   7   6  157.65   35.80  97-0.35426-0.33279 0.86951-0.43508-0.39736 0.76356
  -7   1   2  269.16   27.09  96-0.35216-0.29550 0.86968-0.80739-0.39867 0.44773
  -7   2   3  535.68   21.43  96-0.34365-0.29024 0.87032-0.74600-0.40395 0.53620
  -7   3   4   20.85   25.27  96-0.34805-0.27221 0.87001-0.68309-0.40123 0.61673
  -7   6   6   -9.40   30.58  97-0.35447-0.23337 0.86949-0.49585-0.39722 0.78058
  -6  -1  -1  101.26   24.16  96-0.35039-0.24563 0.86983-0.93228-0.39977 0.21468
  -6   8   7   34.85   36.17  97-0.35447-0.12495 0.86949-0.37257-0.39722 0.88188
  -5   8   7  160.74   25.79  96-0.34500-0.03645 0.87023-0.37410-0.40312 0.90440
  -4   1   3 1565.38   32.24  97-0.35390 0.00957 0.86954-0.80659-0.39758 0.58029
  -4   8   7   15.33   23.73  96-0.34636 0.06096 0.87013-0.37312-0.40228 0.92060
  -1   0 -10   -1.68   32.52  97-0.35177 0.10939 0.86972-0.87251-0.39891-0.45314
   0   6   5   44.65   28.35  96-0.35368 0.42674 0.86956-0.49740-0.39772 0.81640
   2   0  -4  199.30   22.07  97-0.35582 0.49054 0.86938-0.87126-0.39637 0.09571
   3   1  -7  379.33   24.90  97-0.35199 0.53972 0.86970-0.81000-0.39877-0.13419
   3   1  -4 1189.37   27.56  97-0.35543 0.58740 0.86941-0.80911-0.39662 0.11332
   3   3   0 7056.47   64.82  96-0.35098 0.64204 0.86978-0.68392-0.39941 0.45079
   3   4   1   13.29   19.43  96-0.34873 0.65340 0.86996-0.62264-0.40081 0.53587
   4   2  -6  974.59   22.77  96-0.34738 0.64732 0.87006-0.74856-0.40165-0.03056
   4   2  -5  815.08   21.76  96-0.34568 0.66022 0.87018-0.74862-0.40270 0.05400
   4   3  -9   35.27   27.94  97-0.35310 0.60943 0.86961-0.68724-0.39808-0.28500
   4   3  -2  315.49   17.59  96-0.34500 0.70345 0.87023-0.68555-0.40312 0.30494
   4   6   1    4.25   22.47  96-0.34975 0.75257 0.86988-0.49854-0.40018 0.55343
   5   4  -8   36.86   26.89  96-0.34938 0.71655 0.86991-0.62528-0.40040-0.18105
   5   4  -4  240.99   22.49  97-0.35502 0.78132 0.86944-0.62386-0.39688 0.14915
   5   5  -2  449.41   24.82  97-0.35230 0.80724 0.86967-0.56161-0.39858 0.31775
   5   6  -1   97.80   21.03  97-0.35640 0.82730 0.86933-0.49844-0.39601 0.39799
   6   6  -8  239.64   26.20  96-0.34432 0.80889 0.87028-0.50262-0.40354-0.16037
   6   6  -7   18.11   30.22  97-0.35414 0.83388 0.86952-0.50092-0.39743-0.08377
   6   6  -5  -18.95   26.29  97-0.35346 0.86404 0.86958-0.49868-0.39785 0.08229
   6   7  -9   60.82   35.67  97-0.35515 0.80563 0.86943-0.43968-0.39679-0.25127
   6   7  -3   50.17   23.59  97-0.35515 0.89404 0.86943-0.43737-0.39680 0.25002
   6   8  -2  236.77   27.10  97-0.35711 0.90973 0.86926-0.37546-0.39556 0.33230
   7   9  -6   58.86   29.01  96-0.34704 0.93797 0.87008-0.31567-0.40186 0.02226
   7  10  -4  195.31   28.54  96-0.34704 0.96714 0.87008-0.25324-0.40186 0.18953
  -9   1  -1   37.36   26.83  97-0.35803-0.52977 0.86914-0.80796-0.39490 0.15842
  -8   0  -5   -4.11   40.18  98-0.36408-0.48574 0.86856-0.87111-0.39106-0.16212
  -8   0  -1   -9.47   29.45  98-0.36542-0.42508 0.86843-0.86910-0.39021 0.17151
  -7  -1  -4   18.74   32.93  98-0.37244-0.36519 0.86767-0.93108-0.38569-0.06780
  -7  -1  -3   18.67   29.21  97-0.36647-0.35578 0.86832-0.93062-0.38953 0.01976
  -7   4   5  504.93   30.76  97-0.36428-0.24002 0.86854-0.62050-0.39094 0.69046
  -5  -1   0 1289.28   27.00  97-0.35735-0.12773 0.86920-0.93127-0.39533 0.30990
  -5   1   3  929.92   22.79  97-0.35971-0.08132 0.86898-0.80612-0.39384 0.55959
  -5   2   4   14.75   23.87  97-0.36307-0.06324 0.86866-0.74373-0.39170 0.64111
  -5   5   6  333.50   28.41  97-0.36382-0.03266 0.86859-0.55884-0.39123 0.80781
  -4  -2  -5   17.77   30.95  98-0.37407-0.08691 0.86748-0.99277-0.38464-0.10107
  -4  -2  -3   -9.03   21.86  98-0.36408-0.06742 0.86856-0.99367-0.39106 0.07292
  -4   0   2  613.56   27.12  98-0.36760 0.00856 0.86820-0.86742-0.38881 0.48781
  -4   2   4 1180.99   24.72  97-0.36105 0.03172 0.86886-0.74417-0.39298 0.65945
  -4   5   6   13.88   26.20  98-0.36593 0.06596 0.86837-0.55736-0.38988 0.82413
  -3   1   3  926.91   30.72  98-0.36660 0.11971 0.86830-0.80527-0.38945 0.58941
  -3   8   7  279.20   32.28  97-0.36463 0.17664 0.86850-0.37304-0.39071 0.92618
  -2   0 -10   59.89   40.67  98-0.37071 0.03071 0.86786-0.87082-0.38681-0.48109
  -2   4   5  819.68   29.98  97-0.36547 0.24486 0.86842-0.61994-0.39017 0.77430
  -2   6   6  593.47   30.16  97-0.36438 0.25835 0.86853-0.49690-0.39087 0.85889
  -2   9   7  542.51   34.70  97-0.36499 0.27388 0.86847-0.31118-0.39048 0.94268
  -1  -1  -8   95.11   27.38  98-0.36832 0.15544 0.86812-0.93260-0.38834-0.29694
  -1   1 -11  158.44   42.79  98-0.37525 0.11763 0.86735-0.80849-0.38387-0.55021
  -1   7   6   78.18   27.07  97-0.36624 0.35739 0.86834-0.43425-0.38968 0.87493
  -1  11   7   66.16   37.22  97-0.36610 0.37164 0.86835-0.18705-0.38977 0.95966
   0  -1  -7  460.85   28.36  98-0.36967 0.26702 0.86798-0.93219-0.38748-0.19705
   1   1 -10  160.26   30.12  98-0.37043 0.32087 0.86789-0.80983-0.38699-0.43024
   2   0  -6 1267.91   25.93  97-0.36038 0.46602 0.86892-0.87098-0.39341-0.07391
   2   0  -5   -0.61   21.52  97-0.36542 0.48632 0.86843-0.87022-0.39021 0.00645
   2   1  -9   -3.64   26.64  97-0.36374 0.42583 0.86859-0.80959-0.39128-0.32593
   3   1  -6   27.64   21.57  98-0.36574 0.56778 0.86839-0.80771-0.39000-0.05888
   3   1  -5   48.42   20.65  98-0.36609 0.58384 0.86836-0.80803-0.38978 0.02394
   3   2  -9  260.74   28.72  98-0.36642 0.52531 0.86832-0.74806-0.38956-0.30967
   4   4 -10  203.59   34.93  98-0.36709 0.60894 0.86825-0.62474-0.38914-0.37653
   4   4  -1 1926.83   33.47  98-0.36967 0.74311 0.86798-0.62118-0.38748 0.37218
   4   8   2  414.20   29.77  98-0.36455 0.78189 0.86851-0.37372-0.39076 0.62671
   5   4  -7  204.23   25.42  97-0.36268 0.74448 0.86870-0.62366-0.39195-0.10571
   5   4  -6  174.46   24.30  98-0.36809 0.76506 0.86815-0.62350-0.38849-0.02562
   5   4  -5  144.49   24.46  98-0.36642 0.77844 0.86832-0.62268-0.38956 0.05831
   5   5  -9  -17.91   32.50  98-0.36642 0.72073 0.86832-0.56030-0.38956-0.27724
   6   6  -6 1192.67   27.14  97-0.35803 0.85223 0.86914-0.50041-0.39490-0.00164
   6  10  -1    9.08   32.50  97-0.36575 0.93461 0.86839-0.25016-0.38999 0.41155
   7  10  -5   70.97   29.35  97-0.35904 0.96493 0.86904-0.25232-0.39426 0.09832
  -9   1   0  107.09   34.23  98-0.37696-0.49494 0.86706-0.80596-0.38254 0.23034
  -9   2   2   12.04   30.60  98-0.37895-0.46087 0.86681-0.74253-0.38124 0.39505
  -9   3   3   11.94   24.99  98-0.37430-0.45392 0.86737-0.68118-0.38428 0.48340
  -9   4   4    9.70   35.79  99-0.37829-0.43549 0.86689-0.61873-0.38168 0.56501
  -8   2   3   -5.68   29.79  99-0.37912-0.35176 0.86679-0.74215-0.38113 0.49716
  -8   3   4    9.27   30.66  99-0.37962-0.33609 0.86673-0.67963-0.38081 0.58037
  -8   6   6   -2.39   33.34  99-0.38194-0.30582 0.86644-0.49392-0.37929 0.74575
  -7  -1  -2   63.98   27.38  98-0.37725-0.33079 0.86702-0.93010-0.38236 0.09652
  -7   0   1  440.58   27.46  98-0.37715-0.28596 0.86703-0.86733-0.38242 0.34770
  -7   8   7  241.10   30.48  98-0.37096-0.20460 0.86775-0.37184-0.38643 0.85404
  -6   1   3  285.32   25.13  98-0.37709-0.16039 0.86704-0.80470-0.38246 0.53141
  -6   2   4   73.38   26.11  98-0.37696-0.14565 0.86705-0.74219-0.38254 0.61549
  -6   5   6  205.53   21.70  98-0.37296-0.12007 0.86752-0.55720-0.38514 0.78558
  -6   7   7  -11.62   31.31  99-0.38028-0.09588 0.86665-0.43093-0.38037 0.86478
  -5   0   2    3.34   15.80  98-0.37430-0.07979 0.86737-0.86642-0.38428 0.46773
  -5   3   5   64.82   24.79  99-0.38095-0.03051 0.86656-0.67969-0.37994 0.71333
  -5   7   7    6.07   29.84  99-0.37729-0.00344 0.86701-0.42984-0.38233 0.88650
  -4   7   7 1356.37   37.77  99-0.38037 0.09555 0.86664-0.43257-0.38032 0.89754
  -3   0   2    8.76   23.80  98-0.37895 0.11905 0.86681-0.86559-0.38124 0.49598
  -3   2   4   17.05   23.18  98-0.37786 0.14527 0.86695-0.74230-0.38196 0.66626
  -2  -1   0   21.04   25.16  99-0.38292 0.18866 0.86631-0.92799-0.37864 0.34518
   0   4   4 2181.79   49.56  98-0.37807 0.43692 0.86692-0.61819-0.38182 0.71706
   1   0  -8    7.31   24.45  99-0.38161 0.36141 0.86648-0.86927-0.37950-0.27165
   1   2 -11  222.75   34.81  99-0.38214 0.31929 0.86641-0.74666-0.37915-0.52135
   3   3 -10  -11.45   29.71  99-0.38111 0.52780 0.86654-0.68320-0.37983-0.40661
   4   3  -8   13.69   25.92  99-0.37895 0.64894 0.86681-0.68346-0.38124-0.21727
   4   5   0  271.70   18.71  98-0.37363 0.76206 0.86745-0.55823-0.38471 0.45348
   4  12   3   12.86   40.52  99-0.38074 0.81315 0.86659-0.12372-0.38008 0.70192
   5   6 -10   89.15   28.80  98-0.37230 0.71127 0.86760-0.50000-0.38557-0.36324
   5  10   1  498.72   33.34  99-0.37985 0.88016 0.86670-0.24874-0.38066 0.55100
   6   7  -8    5.70   25.83  98-0.37196 0.83731 0.86764-0.43533-0.38579-0.17986
   6   7  -7   14.49   29.81  99-0.38293 0.86272 0.86631-0.43577-0.37863-0.10209
   6   7  -4    4.50   24.22  99-0.37895 0.89943 0.86681-0.43645-0.38124 0.15185
 -10   3   2    7.49   30.64  99-0.38689-0.55305 0.86572-0.68039-0.37598 0.37432
  -9   5   5  -26.55   39.42 100-0.39151-0.40752 0.86508-0.55499-0.37290 0.64051
  -8   0   0  103.90   27.24  99-0.38808-0.38739 0.86556-0.86643-0.37519 0.23960
  -8   1   2    5.85   27.73 100-0.39151-0.35494 0.86508-0.80348-0.37290 0.40555
  -8   4   5   -1.71   33.10 100-0.39200-0.30933 0.86501-0.61618-0.37257 0.65656
  -7  -1  -5   13.37   38.54 100-0.39714-0.35634 0.86424-0.92887-0.36913-0.16868
  -7  -1  -1   12.65   24.35 100-0.39545-0.29828 0.86450-0.92736-0.37026 0.16740
  -7   5   6  507.37   30.98  99-0.38997-0.19989 0.86530-0.55592-0.37393 0.75713
  -7   7   7    1.64   34.52 100-0.39414-0.17875 0.86469-0.42941-0.37114 0.83850
  -6  -1   0  189.23   18.10  99-0.38656-0.19419 0.86577-0.92826-0.37619 0.27495
  -6   0   2 2482.83   35.44  99-0.39248-0.15952 0.86494-0.86471-0.37225 0.43762
  -6   3   5  603.64   28.33  99-0.39030-0.11720 0.86525-0.67965-0.37371 0.68965
  -5  -2  -4   92.01   28.69 100-0.39811-0.14521 0.86409-0.98931-0.36847-0.05034
  -5  -2  -3 1161.38   35.26 100-0.39519-0.13346 0.86454-0.98915-0.37044 0.03495
  -4  -2  -2  253.99   24.52 100-0.39435-0.02307 0.86466-0.98901-0.37100 0.13580
  -4   3   5  111.31   17.84  99-0.38358 0.06929 0.86617-0.67956-0.37816 0.72833
  -3   5   6  163.09   18.69  99-0.38523 0.18258 0.86595-0.55599-0.37707 0.82795
  -1   0   1 1193.11   46.31 100-0.39171 0.30819 0.86505-0.86481-0.37277 0.44013
  -1   3   4   31.54   22.10  99-0.38804 0.34936 0.86557-0.67936-0.37521 0.69345
  -1  10   7  568.13   43.31 100-0.40007 0.40544 0.86379-0.24554-0.36715 0.93686
   0   0  -9    0.38   25.90 100-0.38969 0.25899 0.86534-0.86736-0.37411-0.37607
   2   2 -10   93.45   23.26  99-0.38623 0.43424 0.86581-0.74568-0.37641-0.42387
   2   3 -11  375.91   38.93 100-0.39308 0.42676 0.86485-0.68298-0.37185-0.51114
   3   2  -8   78.98   23.56 100-0.39486 0.56922 0.86459-0.74399-0.37066-0.24667
   3   2  -2   -6.22   21.50 100-0.39184 0.65435 0.86503-0.74116-0.37268 0.25648
   3   4 -11  143.99   28.99  99-0.38689 0.51763 0.86572-0.62182-0.37598-0.48989
   4   3  -7    5.23   22.22 100-0.39545 0.68116 0.86450-0.68128-0.37026-0.14574
   4   3  -3  194.74   16.19  99-0.38358 0.72787 0.86617-0.68125-0.37816 0.19591
   4  13   3   94.51   46.34 100-0.39698 0.83031 0.86427-0.05861-0.36923 0.69089
   5   5  -8  120.74   22.16  99-0.38722 0.75491 0.86568-0.55949-0.37576-0.20567
   5   5  -3   80.90   17.20  99-0.38490 0.82555 0.86599-0.55891-0.37729 0.21380
   5   8   0   16.22   23.57 100-0.38992 0.87354 0.86530-0.37130-0.37396 0.46059
   6   7  -6   61.80   22.24  99-0.38821 0.88256 0.86554-0.43449-0.37510-0.02209
   6   7  -5  275.67   21.43  99-0.38623 0.89520 0.86581-0.43490-0.37641 0.06300
   6   8  -8   52.35   34.33 100-0.39480 0.85996 0.86460-0.37248-0.37070-0.19340
   6   8  -3   42.44   20.86  99-0.38689 0.92533 0.86572-0.37181-0.37598 0.22961
   6   9  -2   29.99   21.96  99-0.38490 0.93794 0.86599-0.30992-0.37729 0.31470
   6  11  -1   41.86   25.72  99-0.38590 0.95383 0.86586-0.18579-0.37663 0.39814
 -10   2   1   42.95   36.91 100-0.40380-0.55258 0.86315-0.74008-0.36470 0.27861
  -9   1   1   89.59   30.23 100-0.40184-0.45573 0.86347-0.80250-0.36603 0.29699
  -7   1   3  424.18   21.78 100-0.40100-0.23238 0.86360-0.80142-0.36660 0.49898
  -7   2   4   34.60   19.88 100-0.39838-0.22187 0.86402-0.73964-0.36837 0.58395
  -7   3   5    8.99   26.37 100-0.40589-0.19784 0.86281-0.67633-0.36327 0.66135
  -4  -1   1  275.84   24.04 101-0.40842 0.03486 0.86238-0.92393-0.36154 0.37741
  -4  10   8  183.51   41.18 100-0.40286 0.13208 0.86330-0.24504-0.36534 0.96774
  -3  -2  -2  322.49   26.67 101-0.40719 0.08590 0.86259-0.98699-0.36238 0.14434
  -3   3   5   35.74   23.84 100-0.40474 0.18714 0.86300-0.67611-0.36406 0.73153
  -3   7   7   22.61   29.37 100-0.40427 0.21619 0.86307-0.42827-0.36438 0.89990
  -3  11   8   23.72   38.77 101-0.40808 0.23503 0.86243-0.18095-0.36177 0.98064
  -2   8   7   15.12   30.00 101-0.40612 0.31506 0.86277-0.36610-0.36312 0.91569
   0  -1  -6 1170.81   34.10 101-0.40899 0.32017 0.86228-0.92660-0.36114-0.14029
   2   1  -8   13.95   17.21 100-0.40002 0.47693 0.86376-0.80464-0.36726-0.26676
   4   3  -6    6.88   22.04 101-0.40721 0.70743 0.86258-0.67885-0.36237-0.07001
   4   3  -4    6.93   20.55 100-0.40362 0.73316 0.86318-0.67881-0.36482 0.09949
   4   4  -9   26.82   22.32 100-0.39740 0.65397 0.86417-0.61988-0.36904-0.31389
   4   5 -10  179.36   36.71 101-0.40508 0.64609 0.86294-0.55737-0.36382-0.40167
   5   5  -7    5.72   25.02 101-0.40345 0.78537 0.86321-0.55466-0.36493-0.13359
   5   5  -4  290.25   24.03 101-0.40498 0.83060 0.86296-0.55532-0.36389 0.11539
   5   6  -9  391.59   26.56 100-0.39838 0.75247 0.86402-0.49631-0.36837-0.29552
   5   6  -2    5.13   21.13 101-0.40378 0.85963 0.86315-0.49149-0.36471 0.28314
   5   7  -1   42.09   24.83 101-0.40541 0.87536 0.86288-0.43062-0.36360 0.36643
   5  11   1    4.37   32.27 101-0.40492 0.90609 0.86297-0.17988-0.36393 0.53471
   6   8  -7   66.69   34.55 101-0.40652 0.88662 0.86270-0.37016-0.36284-0.11789
   6   8  -4  147.95   27.73 101-0.40515 0.92812 0.86293-0.37025-0.36378 0.13290
   6  10  -2   78.26   31.69 101-0.40635 0.95986 0.86273-0.24507-0.36296 0.29985
   6  12  -1   23.72   28.89 100-0.39871 0.96673 0.86397-0.12212-0.36815 0.38974
  -8   5   6  133.05   26.51 101-0.41257-0.27436 0.86156-0.55183-0.35852 0.72535
  -6   6   7   27.73   24.14 101-0.41290-0.06634 0.86150-0.48917-0.35830 0.84270
  -5  -1   1  362.34   19.89 101-0.41095-0.05889 0.86185-0.92377-0.35964 0.35883
  -5   4   6  176.62   20.91 101-0.41030 0.01454 0.86197-0.61381-0.36009 0.77724
  -5   6   7  915.64   27.19 101-0.41062 0.03033 0.86191-0.48979-0.35987 0.86120
  -2   1   3 2263.06   37.15 101-0.41355 0.26343 0.86139-0.79855-0.35785 0.57539
   2   2   0 9629.06   86.78 101-0.41192 0.60673 0.86168-0.73777-0.35897 0.39273
   4   3  -5  120.97   16.66 101-0.41030 0.72508 0.86197-0.67790-0.36009 0.01105
   5   5  -6  359.70   20.68 101-0.40997 0.80709 0.86202-0.55548-0.36031-0.05441
   5   5  -5   82.92   17.57 101-0.41127 0.82358 0.86179-0.55416-0.35942 0.02874
   6   8  -6   53.49   23.59 101-0.41290 0.90752 0.86150-0.36833-0.35830-0.03862
   6   8  -5    3.84   21.26 101-0.41257 0.92247 0.86156-0.36609-0.35852 0.04363
   6   9  -3  744.85   25.84 101-0.41160 0.95026 0.86174-0.30649-0.35919 0.21188
;
_shelx_hkl_checksum              1702
loop_
_space_group_symop_operation_xyz
'x, y, z'
'-x+1/2, y+1/2, -z+1/2'
'-x, -y, -z'
'x-1/2, -y-1/2, z-1/2'
loop_
_atom_site_label
_atom_site_type_symbol
_atom_site_fract_x
_atom_site_fract_y
_atom_site_fract_z
_atom_site_U_iso_or_equiv
_atom_site_adp_type
_atom_site_occupancy
_atom_site_site_symmetry_order
_atom_site_calc_flag
_atom_site_refinement_flags_posn
_atom_site_refinement_flags_adp
_atom_site_refinement_flags_occupancy
_atom_site_disorder_assembly
_atom_site_disorder_group
Cu1 Cu 0.5000 0.5000 0.5000 0.01568(11) Uani 1 2 d S . P . .
S1 S 0.69826(8) 0.33592(5) 0.04314(8) 0.02104(14) Uani 1 1 d . . . . .
O1 O 0.6036(2) 0.41025(14) 0.3425(2) 0.0195(4) Uani 1 1 d . . . . .
O3 O 0.7402(2) 0.43312(15) 0.7139(2) 0.0226(4) Uani 1 1 d . . . . .
H3A H 0.7594 0.3790 0.6534 0.027 Uiso 1 1 calc R U . . .
O2 O 0.7566(2) 0.26977(16) 0.4944(2) 0.0288(4) Uani 1 1 d . . . . .
N1 N 0.8612(2) 0.13971(16) 0.0537(3) 0.0161(4) Uani 1 1 d . . . . .
C2 C 0.7476(3) 0.2659(2) 0.2209(3) 0.0193(5) Uani 1 1 d . . . . .
C3 C 0.8338(3) 0.1622(2) 0.2056(3) 0.0181(5) Uani 1 1 d . . . . .
H3 H 0.8759(12) 0.1042(17) 0.301(3) 0.022 Uiso 1 1 calc R U . . .
C1 C 0.6995(3) 0.3176(2) 0.3660(3) 0.0201(5) Uani 1 1 d . . . . .
C4 C 0.7971(3) 0.22481(19) -0.0416(3) 0.0191(5) Uani 1 1 d . . . . .
H4 H 0.8050(4) 0.2245(2) -0.146(3) 0.023 Uiso 1 1 calc R U . . .
C5 C 0.9052(3) 0.4956(3) 0.7659(4) 0.0357(6) Uani 1 1 d . . . . .
H5A H 0.9604 0.5167 0.6751 0.054 Uiso 1 1 calc R U . . .
H5B H 0.9897 0.4463 0.8374 0.054 Uiso 1 1 calc R U . . .
H5C H 0.8789 0.5666 0.8209 0.054 Uiso 1 1 calc R U . . .
loop_
_atom_site_aniso_label
_atom_site_aniso_U_11
_atom_site_aniso_U_22
_atom_site_aniso_U_33
_atom_site_aniso_U_23
_atom_site_aniso_U_13
_atom_site_aniso_U_12
Cu1 0.02263(19) 0.00968(17) 0.0173(2) 0.0001(2) 0.01047(16) 0.00010(18)
S1 0.0276(3) 0.0164(3) 0.0202(4) 0.0005(3) 0.0072(3) 0.0058(2)
O1 0.0282(8) 0.0143(8) 0.0188(10) -0.0007(7) 0.0119(7) 0.0036(6)
O3 0.0276(8) 0.0211(9) 0.0187(10) -0.0015(8) 0.0031(8) 0.0017(7)
O2 0.0429(10) 0.0252(10) 0.0187(11) 0.0007(9) 0.0065(8) 0.0135(8)
N1 0.0200(9) 0.0134(9) 0.0164(12) -0.0009(8) 0.0069(8) 0.0005(7)
C2 0.0186(10) 0.0185(12) 0.0218(16) -0.0013(11) 0.0063(10) 0.0006(9)
C3 0.0206(11) 0.0157(11) 0.0187(14) -0.0018(11) 0.0053(10) 0.0003(9)
C1 0.0236(11) 0.0155(11) 0.0231(15) -0.0024(11) 0.0092(11) 0.0000(9)
C4 0.0237(11) 0.0166(11) 0.0178(14) -0.0024(11) 0.0057(10) 0.0003(9)
C5 0.0292(12) 0.0351(15) 0.0405(18) 0.0043(18) -0.0005(12) -0.0032(14)
loop_
_atom_type_symbol
_atom_type_description
_atom_type_scat_dispersion_real
_atom_type_scat_dispersion_imag
_atom_type_scat_source
C C 0.0033 0.0016 'International Tables Vol C Tables 4.2.6.8 and 6.1.1.4'
H H 0.0000 0.0000 'International Tables Vol C Tables 4.2.6.8 and 6.1.1.4'
Cu Cu 0.3201 1.2651 'International Tables Vol C Tables 4.2.6.8 and 6.1.1.4'
N N 0.0061 0.0033 'International Tables Vol C Tables 4.2.6.8 and 6.1.1.4'
O O 0.0106 0.0060 'International Tables Vol C Tables 4.2.6.8 and 6.1.1.4'
S S 0.1246 0.1234 'International Tables Vol C Tables 4.2.6.8 and 6.1.1.4'
loop_
_geom_angle_atom_site_label_1
_geom_angle_atom_site_label_2
_geom_angle_atom_site_label_3
_geom_angle
_geom_angle_site_symmetry_1
_geom_angle_site_symmetry_3
O1 Cu1 O1 180.0 . 3_666
O1 Cu1 N1 91.48(7) . 4_566
O1 Cu1 N1 88.52(7) 3_666 4_566
O1 Cu1 N1 88.52(7) . 2_655
O1 Cu1 N1 91.48(7) 3_666 2_655
N1 Cu1 N1 180.00(6) 4_566 2_655
C4 S1 C2 89.76(13) . .
C1 O1 Cu1 126.99(17) . .
C5 O3 H3A 109.5 . .
C4 N1 C3 111.0(2) . .
C4 N1 Cu1 126.43(17) . 2_645
C3 N1 Cu1 122.41(17) . 2_645
C3 C2 C1 127.9(2) . .
C3 C2 S1 110.41(19) . .
C1 C2 S1 121.65(18) . .
C2 C3 N1 113.8(2) . .
C2 C3 H3 123.1 . .
N1 C3 H3 123.1 . .
O2 C1 O1 127.0(2) . .
O2 C1 C2 118.8(2) . .
O1 C1 C2 114.1(2) . .
N1 C4 S1 115.1(2) . .
N1 C4 H4 122.5 . .
S1 C4 H4 122.5 . .
O3 C5 H5A 109.5 . .
O3 C5 H5B 109.5 . .
H5A C5 H5B 109.5 . .
O3 C5 H5C 109.5 . .
H5A C5 H5C 109.5 . .
H5B C5 H5C 109.5 . .
loop_
_geom_bond_atom_site_label_1
_geom_bond_atom_site_label_2
_geom_bond_distance
_geom_bond_site_symmetry_2
Cu1 O1 1.9709(16) .
Cu1 O1 1.9710(16) 3_666
Cu1 N1 2.0053(18) 4_566
Cu1 N1 2.0053(18) 2_655
S1 C4 1.701(2) .
S1 C2 1.715(3) .
O1 C1 1.277(3) .
O3 C5 1.426(3) .
O3 H3A 0.8400 .
O2 C1 1.244(3) .
N1 C4 1.311(3) .
N1 C3 1.390(3) .
N1 Cu1 2.0053(18) 2_645
C2 C3 1.368(3) .
C2 C1 1.489(3) .
C3 H3 1.06(3) .
C4 H4 0.92(3) .
C5 H5A 0.9800 .
C5 H5B 0.9800 .
C5 H5C 0.9800 .
loop_
_geom_hbond_atom_site_label_D
_geom_hbond_atom_site_label_H
_geom_hbond_atom_site_label_A
_geom_hbond_distance_DH
_geom_hbond_distance_HA
_geom_hbond_distance_DA
_geom_hbond_angle_DHA
_geom_hbond_site_symmetry_A
O3 H3A O2 0.84 1.86 2.684(3) 168.0 .
C3 H3 S1 1.06 2.98 3.621(3) 119.6 4_666
C4 H4 O3 0.92 2.68 3.168(3) 113.8 1_554
O3 H3A O2 0.84 1.86 2.684(3) 168.0 .
C3 H3 S1 1.06 2.98 3.621(3) 119.6 4_666
C4 H4 O3 0.92 2.68 3.168(3) 113.8 1_554
loop_
_geom_torsion_atom_site_label_1
_geom_torsion_atom_site_label_2
_geom_torsion_atom_site_label_3
_geom_torsion_atom_site_label_4
_geom_torsion
_geom_torsion_site_symmetry_1
_geom_torsion_site_symmetry_2
_geom_torsion_site_symmetry_3
_geom_torsion_site_symmetry_4
C4 S1 C2 C3 -0.72(18) . . . .
C4 S1 C2 C1 178.9(2) . . . .
C1 C2 C3 N1 -179.1(2) . . . .
S1 C2 C3 N1 0.5(2) . . . .
C4 N1 C3 C2 0.1(3) . . . .
Cu1 N1 C3 C2 175.47(15) 2_645 . . .
Cu1 O1 C1 O2 -5.1(4) . . . .
Cu1 O1 C1 C2 176.24(14) . . . .
C3 C2 C1 O2 7.6(4) . . . .
S1 C2 C1 O2 -171.90(19) . . . .
C3 C2 C1 O1 -173.5(2) . . . .
S1 C2 C1 O1 6.9(3) . . . .
C3 N1 C4 S1 -0.7(2) . . . .
Cu1 N1 C4 S1 -175.82(11) 2_645 . . .
C2 S1 C4 N1 0.84(19) . . . .
