#------------------------------------------------------------------------------
#$Date: 2021-03-03 10:12:29 +0200 (Wed, 03 Mar 2021) $
#$Revision: 262382 $
#$URL: file:///home/coder/svn-repositories/cod/cif/1/56/07/1560768.cif $
#------------------------------------------------------------------------------
#
# This file is available in the Crystallography Open Database (COD),
# http://www.crystallography.net/
#
# All data on this site have been placed in the public domain by the
# contributors.
#
data_1560768
loop_
_publ_author_name
'Smaha, Rebecca W.'
'He, Wei'
'Sheckelton, John P.'
'Wen, Jiajia'
'Lee, Young S.'
_publ_section_title
;
 Synthesis-dependent properties of barlowite and Zn-substituted barlowite
;
_journal_name_full               'Journal of Solid State Chemistry'
_journal_page_first              123
_journal_page_last               129
_journal_paper_doi               10.1016/j.jssc.2018.08.016
_journal_volume                  268
_journal_year                    2018
_chemical_formula_moiety         '1(Br1), 1(Cu4 D6 O6), 1(F1)'
_chemical_formula_sum            'Br Cu4 D6 F O6'
_chemical_formula_weight         461.17
_chemical_name_systematic        barlowite
_space_group_crystal_system      hexagonal
_space_group_IT_number           194
_space_group_name_Hall           '-P 6c 2c'
_space_group_name_H-M_alt        'P 63/m m c'
_atom_sites_solution_hydrogens   difmap
_cell_angle_alpha                90
_cell_angle_beta                 90
_cell_angle_gamma                120
_cell_formula_units_Z            2
_cell_length_a                   6.6713(2)
_cell_length_b                   6.6713(2)
_cell_length_c                   9.2849(2)
_cell_measurement_reflns_used    9929
_cell_measurement_temperature    296(2)
_cell_measurement_theta_max      20.125
_cell_measurement_theta_min      3.273
_cell_volume                     357.873(17)
_computing_cell_refinement       'SAINT V8.38A (?, 2016)'
_computing_data_reduction        'SAINT V8.38A (?, 2016)'
_computing_molecular_graphics    'Olex2 (Dolomanov et al., 2009)'
_computing_publication_material  'Olex2 (Dolomanov et al., 2009)'
_computing_structure_refinement  'ShelXL (Sheldrick, 2015)'
_computing_structure_solution    'SHELXT 2014/5 (Sheldrick, 2014)'
_diffrn_ambient_temperature      296.15
_diffrn_measured_fraction_theta_full 0.966
_diffrn_measured_fraction_theta_max 0.971
_diffrn_measurement_device_type  'Bruker APEX-II CCD'
_diffrn_measurement_method       '\f and \w scans'
_diffrn_radiation_type           synchrotron
_diffrn_radiation_wavelength     0.41328
_diffrn_reflns_av_R_equivalents  0.0620
_diffrn_reflns_av_unetI/netI     0.0164
_diffrn_reflns_Laue_measured_fraction_full 0.966
_diffrn_reflns_Laue_measured_fraction_max 0.971
_diffrn_reflns_limit_h_max       9
_diffrn_reflns_limit_h_min       -9
_diffrn_reflns_limit_k_max       9
_diffrn_reflns_limit_k_min       -9
_diffrn_reflns_limit_l_max       12
_diffrn_reflns_limit_l_min       -12
_diffrn_reflns_number            11531
_diffrn_reflns_point_group_measured_fraction_full 0.966
_diffrn_reflns_point_group_measured_fraction_max 0.971
_diffrn_reflns_theta_full        14.357
_diffrn_reflns_theta_max         17.150
_diffrn_reflns_theta_min         2.050
_diffrn_standards_number         0
_exptl_absorpt_coefficient_mu    3.903
_exptl_absorpt_correction_T_max  0.7187
_exptl_absorpt_correction_T_min  0.6817
_exptl_absorpt_correction_type   multi-scan
_exptl_absorpt_process_details
; 
'SADABS-2016/2 (Bruker,2016/2) was used for absorption correction.
wR2(int) was 0.1041 before and 0.0886 after correction. The Ratio 
of minimum to maximum transmission is 0.9485. The \l/2 correction 
factor is Not present.'
;
_exptl_crystal_colour            'clear green'
_exptl_crystal_colour_lustre     clear
_exptl_crystal_colour_primary    green
_exptl_crystal_density_diffrn    4.280
_exptl_crystal_description       hexagonal
_exptl_crystal_F_000             428
_exptl_crystal_size_max          0.05
_exptl_crystal_size_mid          0.04
_exptl_crystal_size_min          0.03
_refine_diff_density_max         0.352
_refine_diff_density_min         -0.595
_refine_diff_density_rms         0.094
_refine_ls_extinction_coef       0.079(5)
_refine_ls_extinction_expression Fc^*^=kFc[1+0.001xFc^2^\l^3^/sin(2\q)]^-1/4^
_refine_ls_extinction_method     'SHELXL-2016/6 (Sheldrick 2016)'
_refine_ls_goodness_of_fit_ref   1.173
_refine_ls_hydrogen_treatment    refxyz
_refine_ls_matrix_type           full
_refine_ls_number_parameters     22
_refine_ls_number_reflns         237
_refine_ls_number_restraints     1
_refine_ls_restrained_S_all      1.172
_refine_ls_R_factor_all          0.0133
_refine_ls_R_factor_gt           0.0133
_refine_ls_shift/su_max          0.000
_refine_ls_shift/su_mean         0.000
_refine_ls_structure_factor_coef Fsqd
_refine_ls_weighting_details
'w=1/[\s^2^(Fo^2^)+(0.0179P)^2^+0.1231P] where P=(Fo^2^+2Fc^2^)/3'
_refine_ls_weighting_scheme      calc
_refine_ls_wR_factor_gt          0.0345
_refine_ls_wR_factor_ref         0.0345
_reflns_Friedel_coverage         0.000
_reflns_Friedel_fraction_full    .
_reflns_Friedel_fraction_max     .
_reflns_number_gt                237
_reflns_number_total             237
_reflns_threshold_expression     'I > 2\s(I)'
_cod_data_source_file            JSSC-2018-268-123.cif
_cod_data_source_block           1_WH40
_cod_original_cell_volume        357.87(2)
_cod_database_code               1560768
_shelx_space_group_comment
;
The symmetry employed for this shelxl refinement is uniquely defined
by the following loop, which should always be used as a source of
symmetry information in preference to the above space-group names.
They are only intended as comments.
;
_shelx_res_file
;
TITL sg194_0p7_a.res in P6(3)/mmc
    sg194_0p7_a.res
    created by SHELXL-2016/6 at 17:55:37 on 30-Nov-2017
REM Old TITL sg194_0p7 in P6(3)/mmc
REM SHELXT solution in P6(3)/mmc
REM R1 0.280, Rweak 0.009, Alpha 0.045, Orientation as input
REM Formula found by SHELXT: Br Cu3 F O7
CELL 0.41328 6.6713 6.6713 9.2849 90 90 120
ZERR 1.99992 0.0002 0.0002 0.0002 0 0 0
LATT 1
SYMM -Y,+X-Y,+Z
SYMM +Y-X,-X,+Z
SYMM -X,-Y,0.5+Z
SYMM +Y,-X+Y,0.5+Z
SYMM -Y+X,+X,0.5+Z
SYMM +Y,+X,-Z
SYMM -Y+X,-Y,-Z
SYMM -X,-X+Y,-Z
SYMM -Y,-X,0.5-Z
SYMM +Y-X,+Y,0.5-Z
SYMM +X,+X-Y,0.5-Z
SFAC Br Cu D F O
DISP Br 0.286 0.964 2319.32
DISP Cu 0.247 0.471 1146.04
DISP D 0 0 0.64
DISP F 0.004 0.003 14.4
DISP O 0.002 0.002 10.24
UNIT 2 8 12 2 12
DFIX 0.84 O1 D1

L.S. 30
PLAN  5
TEMP 23
fmap 2
acta
REM <olex2.extras>
REM <HklSrc "%.\\sg194_0p7_a.hkl">
REM </olex2.extras>

WGHT    0.017900    0.123100
EXTI    0.079496
FVAR       0.55315
BR1   1    0.666667    0.333333    0.750000    10.08333    0.01839    0.01839 =
         0.01300    0.00000    0.00000    0.00920
CU1   2    0.500000    0.000000    0.500000    10.25000    0.00957    0.00886 =
         0.01974    0.00366    0.00183    0.00443
PART 2
CU2   2    0.629488    0.258976    0.250000    10.08333    0.01000    0.01572 =
         0.00806    0.00000    0.00000    0.00786
PART 0
O1    5    0.797931    0.202069    0.408034    10.50000    0.00981    0.00981 =
         0.01478   -0.00087    0.00087    0.00481

F1    4    1.000000    0.000000    0.750000    10.08333    0.01669    0.01669 =
         0.02952    0.00000    0.00000    0.00834
D1    3    0.863207    0.136793    0.373417    10.50000   -1.50000
HKLF 4




REM  sg194_0p7_a.res in P6(3)/mmc
REM R1 =  0.0133 for     237 Fo > 4sig(Fo)  and  0.0133 for all     237 data
REM     22 parameters refined using      1 restraints

END

WGHT      0.0179      0.1231

REM Highest difference peak  0.352,  deepest hole -0.595,  1-sigma level  0.094
Q1    1   0.9618 -0.0764  0.8304  10.50000  0.05    0.35
Q2    1   0.8610  0.1390  0.5146  10.50000  0.05    0.22
Q3    1   0.7287  0.1186  0.4438  11.00000  0.05    0.21
Q4    1   0.7489 -0.1256  0.4161  10.50000  0.05    0.19
Q5    1   0.6720  0.1589  0.3795  11.00000  0.05    0.19
;
_shelx_res_checksum              4882
_shelx_hkl_file
;
   1  -1   0 2115.69  184.88
   0  -1   0 1980.20  184.88
   0  -1   0 1975.50  184.78
   0   1   0 1963.40  184.78
   1  -1   0 2238.78  184.78
   0  -1   0 2279.97  184.78
  -1   1   0 2248.77  184.78
  -1   0   0 1963.90  184.78
  -1   0   0 2144.49  184.88
   2  -1   0  607.34   59.69
   2  -1   0  763.92   59.69
   1   1   0  674.43   59.49
   2  -1   0  715.43   59.49
   1  -2   0  628.94   59.69
   1  -2   0  656.43   59.59
   1  -2   0  651.43   59.49
  -1  -1   0  663.93   59.49
  -1  -1   0  615.14   59.59
  -1   2   0  770.72   59.59
   2   0   0 1826.22  142.19
   2  -2   0 1435.36  142.19
   2  -2   0 1525.75  142.19
   0  -2   0 1353.36  142.19
   0  -2   0 1703.93  142.19
  -2   2   0 1382.36  141.99
   0  -2   0 1595.54  142.09
   2   0   0 1627.94  142.09
  -2   0   0 1860.21  142.29
  -2   0   0 1667.53  142.09
  -2   0   0 1780.32  142.09
   3  -2   0  423.16   40.80
   3  -2   0  489.35   40.90
   2  -3   0  526.35   40.90
  -2   3   0  395.96   40.60
   1  -3   0  402.66   40.80
   2   1   0  447.56   40.60
   3  -2   0  473.05   40.70
   1  -3   0  485.75   40.60
  -1   3   0  482.55   40.60
  -1   3   0  509.75   41.00
  -2  -1   0  452.05   40.70
  -2  -1   0  429.36   40.80
  -2  -1   0  472.35   40.80
   3  -1   0  441.86   41.20
   2  -3   0  446.26   40.60
  -1   3   0  482.65   40.80
   3  -1   0  421.06   40.60
  -1  -2   0  484.65   40.90
  -3   2   0  502.55   40.70
  -1  -2   0  380.16   40.70
  -1  -2   0  484.95   40.70
   0  -3   0   52.59    4.70
  -3   0   0   51.09    4.70
  -3   0   0   49.70    4.70
  -3   0   0   43.10    4.90
   3  -3   0   39.30    4.80
   3  -3   0   50.59    4.90
   0  -3   0   62.39    5.00
  -3   3   0   48.60    4.70
   0   3   0   44.70    4.60
   0  -3   0   47.10    4.90
   0   3   0   43.90    4.90
  -2   4   0 9677.33  788.52
  -2  -2   0 8273.57  788.02
   2  -4   0 8619.04  788.32
   2   2   0 8743.83  788.12
   2  -4   0 9999.00  788.12
   4  -2   0 9053.49  788.32
   2  -4   0 9206.08  788.12
   2   2   0 9053.39  788.42
   4  -2   0 9002.90  788.12
   4  -2   0 8877.01  788.02
   4  -2   0 8273.17  788.32
  -2   4   0 8810.42  788.12
  -2   4   0 8195.18  788.22
   2  -4   0 7752.82  788.32
  -2  -2   0 9927.01  788.12
  -4   2   0 9495.05  788.12
  -4   2   0 9033.20  788.02
  -2  -2   0 8768.82  788.32
  -2  -2   0 9545.25  788.32
   4  -3   0 1119.49   91.49
   3  -4   0 1180.98   91.59
   3  -4   0  861.11   91.59
   3  -4   0  972.00   91.59
  -4   1   0 1129.59   91.49
  -4   1   0  920.81   91.79
  -3   4   0  967.90   91.39
  -3   4   0  965.80   91.59
  -1  -3   0 1010.20   91.39
  -1  -3   0  986.30   91.39
   4  -3   0  903.51   91.59
  -1   4   0 1074.79   91.39
   4  -1   0 1076.19   91.49
  -3  -1   0  905.11   91.59
  -4   3   0 1029.70   91.39
  -3  -1   0 1158.78   91.49
   1  -4   0 1091.49   91.69
   4  -3   0 1055.69   91.69
   4  -3   0 1145.29   91.49
  -1   4   0  999.20   91.69
  -3  -1   0 1162.88   91.49
   1  -4   0 1045.20   91.39
  -1  -3   0 1002.80   91.69
   1   3   0 1169.18   91.39
   1  -4   0  987.50   91.49
   1  -4   0  982.20   91.59
   0  -4   0 1653.33  142.49
   0   4   0 1503.95  142.49
  -4   4   0 1354.86  142.79
   4  -4   0 1676.73  142.29
   0  -4   0 1594.74  142.19
  -4   0   0 1756.02  142.29
   4  -4   0 1737.53  142.59
   5  -2   0 1082.39   99.79
  -2  -3   0 1095.29   99.99
   3   2   0 1180.18  100.09
  -2  -3   0 1179.68   99.69
  -2   5   0  961.20   99.79
   2   3   0 1130.69  100.09
   3  -5   0  978.20   99.79
   3  -5   0 1301.37   99.79
  -3  -2   0 1081.99   99.79
  -3  -2   0 1109.09   99.69
   2   3   0 1207.38  100.19
  -2   5   0 1246.28   99.99
   5  -2   0 1058.99   99.99
  -5   2   0 1219.08   99.89
  -3   5   0 1113.89  100.19
   2   3   0 1084.69   99.69
   3   2   0 1127.29   99.79
   5  -3   0 1076.49   99.79
  -3   5   0 1022.60   99.69
  -2  -3   0 1211.28   99.79
  -5   3   0 1280.57   99.89
   5  -3   0 1243.18  100.09
   5  -3   0 1163.08   99.69
   2  -5   0 1078.39  100.09
  -3   5   0 1017.60   99.99
  -2   5   0 1081.49   99.69
  -5   2   0 1154.98   99.79
   5  -2   0 1200.68   99.79
  -3   5   0 1211.28   99.89
  -2   5   0 1240.38  100.29
   2  -5   0 1124.89   99.79
   2  -5   0 1056.19   99.69
   3  -5   0  958.80  100.09
  -3  -2   0 1171.78   99.99
   3  -5   0 1131.49   99.99
   2  -5   0 1053.29   99.99
  -4  -1   0   52.99    5.60
   5  -4   0   48.70    5.20
   5  -4   0   53.09    5.30
  -4  -1   0   42.40    5.10
  -5   1   0   58.49    5.40
   5  -4   0   56.89    5.60
  -1   5   0   44.70    5.20
   1  -5   0   51.79    5.30
   1  -5   0   54.99    5.30
   1  -5   0   65.49    5.60
   4   1   0   49.60    5.20
  -5   4   0   46.20    5.50
   1   4   0   54.09    5.70
   1   4   0   56.19    5.60
  -1  -4   0   51.29    5.60
   4  -5   0   46.50    5.60
  -5   4   0   50.49    5.20
  -4   5   0   66.29    5.70
  -1  -4   0   51.29    5.30
  -4   5   0   49.00    5.20
   1  -5   0   57.89    5.70
  -4   5   0   65.19    5.90
   5  -1   0   53.19    5.30
   4  -5   0   47.20    5.20
  -1  -4   0   54.09    5.50
   1   4   0   60.79    5.40
   1   4   0   40.10    5.00
  -5   1   0   59.69    5.80
  -5   1   0   40.50    5.50
  -4   5   0   59.89    5.40
  -4  -1   0   59.69    5.30
  -1  -4   0   59.09    5.30
   5  -4   0   49.10    5.60
   5  -1   0   44.90    5.20
  -5   1   0   61.09    5.40
  -1   5   0   50.19    5.20
  -1   5   0   61.69    5.80
   4  -5   0   43.00    5.30
  -4  -1   0   49.00    5.50
  -1   5   0   47.10    5.40
   5  -5   0    0.60    0.80
   5  -5   0    0.20    0.50
   0  -5   0    0.70    0.70
   0   5   0    1.20    0.80
  -5   5   0    1.30    0.70
  -5   5   0    0.90    0.70
   5  -5   0    0.30    0.60
   5  -5   0    0.40    0.60
   0   5   0    2.50    1.00
   0  -5   0    0.80    0.70
  -5   0   0    1.30    0.80
  -5   5   0    1.30    0.70
   0   5   0   -0.10    0.50
  -5   5   0    0.70    0.90
   5   0   0    1.40    0.80
   0   5   0    1.10    0.70
  -5   0   0    1.40    0.70
  -5   0   0    1.00    0.70
   0  -5   0    1.30    0.90
  -5   0   0    5.60    1.40
   0  -5   0    0.60    0.60
   3  -6   0  181.48   18.00
   3   3   0  200.58   18.10
   3   3   0  185.48   18.50
   3   3   0  210.58   18.20
  -3  -3   0  223.78   18.30
  -3   6   0  172.18   18.20
   6  -3   0  203.08   18.20
   3  -6   0  191.88   18.10
  -3   6   0  197.38   18.60
   3  -6   0  202.78   18.40
   6  -3   0  168.28   18.00
   6  -3   0  223.88   18.60
   6  -3   0  184.78   18.30
  -3  -3   0  221.18   18.60
   3  -6   0  197.68   18.50
  -6   3   0  189.18   18.10
  -3  -3   0  180.58   18.00
  -3   6   0  243.68   18.30
  -3   6   0  174.78   18.00
   3   3   0  222.18   18.70
  -2  -4   0 1298.87  116.09
   4  -6   0 1341.57  115.79
  -2   6   0 1170.78  115.89
   2  -6   0 1201.18  115.69
   4   2   0 1256.17  115.99
  -2   6   0 1200.68  116.09
  -6   2   0 1284.17  115.69
   4  -6   0 1387.76  116.29
   2   4   0 1445.96  116.19
   2   4   0 1410.66  116.09
  -2  -4   0 1103.39  115.59
   4  -6   0 1417.66  115.79
  -4  -2   0 1462.35  116.09
   6  -2   0 1350.06  116.19
  -4  -2   0 1448.85  115.69
  -6   2   0 1344.67  115.79
  -4   6   0 1300.57  115.69
   4   2   0 1302.07  115.69
   4   2   0 1267.57  116.09
  -4   6   0 1296.77  115.69
   2  -6   0 1483.15  116.19
  -2  -4   0 1158.38  115.79
   6  -2   0 1262.17  116.39
   6  -4   0 1340.97  115.69
  -2   6   0 1285.07  115.79
  -4  -2   0 1230.18  115.99
   6  -4   0 1283.67  116.09
   6  -2   0 1318.37  115.69
   4   2   0 1260.77  115.59
  -4  -2   0 1312.67  115.69
   6  -4   0 1235.18  115.89
   4  -6   0 1236.78  115.99
  -4   6   0 1452.55  116.19
   2   4   0 1287.17  115.69
   2   4   0 1352.06  115.69
   6  -4   0 1212.58  115.69
  -2   6   0 1387.06  115.69
   6  -2   0 1343.17  115.69
   1  -6   0  530.35   54.39
   1  -6   0  558.24   54.79
  -1   6   0  552.94   54.89
  -1  -5   0  653.23   54.49
   5   1   0  573.04   54.49
   1   5   0  670.53   55.09
  -6   5   0  600.04   54.79
  -5  -1   0  638.04   54.89
   5  -6   0  623.34   54.99
  -6   5   0  594.44   54.49
  -5  -1   0  708.23   54.59
  -1  -5   0  552.54   54.69
  -1  -5   0  635.64   54.89
   6  -5   0  560.04   54.39
  -6   5   0  568.04   54.39
  -1   6   0  605.64   54.89
   5   1   0  586.54   54.89
  -6   1   0  618.24   54.39
  -6   1   0  572.44   54.49
  -6   1   0  597.04   54.99
  -6   1   0  571.84   54.79
  -5   6   0  665.73   54.59
  -1   6   0  602.04   54.49
  -1   6   0  595.64   54.39
   6  -1   0  642.44   54.59
  -1  -5   0  662.63   54.59
   5  -6   0  677.53   54.79
   6  -5   0  597.04   54.89
  -6   5   0  608.34   54.79
  -5  -1   0  561.94   54.39
   1   5   0  590.44   54.79
   6  -5   0  631.44   54.89
  -5   6   0  731.63   55.19
  -5   6   0  653.93   54.89
   1  -6   0  577.44   54.69
   5  -6   0  591.24   54.49
   6  -5   0  661.43   54.59
   1   5   0  615.14   54.49
   1  -6   0  621.74   54.49
  -6   6   0 2027.50  196.28
   6  -6   0 2379.46  196.88
   0  -6   0 2335.67  196.48
   0  -6   0 2195.88  196.78
   0  -6   0 2122.29  196.68
  -6   6   0 2157.48  196.88
  -6   6   0 2378.66  196.98
   0   6   0 2096.89  196.78
  -6   0   0 1965.90  196.68
   6  -6   0 2432.76  196.48
  -6   0   0 1931.41  196.68
  -6   0   0 2276.07  196.48
  -6   0   0 2097.19  196.38
   6  -6   0 2381.06  196.48
   0   6   0 2367.36  196.58
  -6   6   0 2260.57  196.48
   0   6   0 2251.87  196.98
   0   6   0 2106.89  196.28
   6   0   0 2547.95  196.58
  -4   7   0  134.19   13.30
   3  -7   0  138.09   12.80
   4   3   0  150.38   12.80
   3   4   0  134.19   13.10
  -4   7   0  125.99   13.00
  -4  -3   0  116.29   12.90
  -3   7   0  148.89   12.80
   3  -7   0  119.79   12.60
  -7   4   0  129.89   12.70
  -3  -4   0  131.09   13.10
   3   4   0  132.09   12.70
  -4   7   0  133.89   12.80
  -4  -3   0  155.48   12.90
   4  -7   0  130.99   13.20
   3  -7   0  151.18   13.40
  -4   7   0  128.39   12.70
  -4  -3   0  133.39   13.10
   7  -4   0  106.49   12.80
  -7   4   0  126.19   13.00
  -4  -3   0  120.99   12.70
   4   3   0  146.19   13.20
  -3  -4   0  149.69   12.80
  -3  -4   0  146.59   12.80
  -3  -4   0  140.49   13.20
  -3   7   0  134.09   13.30
   3   4   0  163.28   13.40
   3   4   0  130.79   12.70
   4  -7   0  156.98   13.30
   4  -7   0  132.19   12.70
   4   3   0  158.98   12.90
   7  -4   0  134.39   13.20
   4   3   0  122.29   13.10
   3  -7   0  122.49   12.90
   7  -3   0  107.49   12.90
   7  -4   0  128.59   12.60
   7  -4   0  144.29   12.90
   4  -7   0  136.39   12.80
  -3   7   0  134.49   12.70
  -7   3   0  127.59   12.60
   7  -3   0  169.18   13.30
   7  -3   0  123.89   12.80
   7  -3   0  132.99   12.70
   2   5   0   13.60    2.70
   7  -5   0   11.40    1.90
   7  -5   0   14.50    2.50
   7  -5   0   12.70    2.20
  -2   7   0   20.50    2.80
  -5   7   0   15.90    2.60
   5  -7   0   13.80    2.10
   5  -7   0    9.90    2.30
  -5   7   0   10.10    1.90
  -5  -2   0   13.00    2.10
  -7   5   0   13.60    2.10
   2  -7   0   13.50    2.60
   5  -7   0   15.40    2.40
   2  -7   0   12.60    2.10
   5   2   0   16.80    2.40
   5   2   0    8.50    2.10
  -5   7   0   17.50    3.00
   7  -5   0   16.10    2.70
   7  -2   0   14.40    2.20
  -5  -2   0   14.60    2.60
  -2  -5   0   12.40    2.20
  -2  -5   0   12.90    2.50
  -2  -5   0   12.40    2.40
   2   5   0   10.00    1.90
  -7   2   0   11.70    2.00
  -5  -2   0   15.80    2.60
  -7   5   0   13.80    2.60
  -2   7   0   12.30    2.10
  -2   7   0   13.00    2.60
  -2   7   0   14.60    2.60
   2  -7   0   11.20    2.00
   2   5   0   18.00    2.80
   2  -7   0   11.80    2.30
  -7   5   0   15.90    2.40
  -2  -5   0   13.40    2.00
   5  -7   0   11.00    2.20
  -5  -2   0   17.00    2.40
   5   2   0   11.60    2.40
  -7   2   0   12.10    2.60
   2   5   0   13.20    2.20
  -5   7   0   10.60    1.90
   5   2   0   20.10    2.60
  -7   5   0   16.30    2.60
  -1  -6   0  100.29    9.20
   1   6   0   92.59    9.30
  -7   6   0  105.39    9.40
   6  -7   0   86.39    9.30
   1  -7   0   89.99    9.30
  -1   7   0   97.89    9.30
  -1  -6   0   98.69    9.70
  -1   7   0  102.89    9.40
   1  -7   0   87.29    9.30
  -7   1   0   86.69    9.30
   6   1   0  107.99    9.40
  -6   7   0   88.99    9.60
  -1   7   0  112.69    9.90
  -6  -1   0  124.79   10.10
   1   6   0   86.59    9.60
   1  -7   0   86.99    9.50
  -6   7   0   95.49    9.30
  -7   6   0   84.69    9.20
   6  -7   0   82.29    9.50
   7  -1   0  118.19    9.60
  -1  -6   0   81.69    9.60
   1  -7   0  103.59    9.80
  -6   7   0   75.69    9.50
   6   1   0  113.49   10.50
  -7   1   0   93.19    9.70
  -6   7   0   97.89    9.40
  -7   1   0   76.89    9.50
  -6  -1   0  111.79    9.50
  -7   6   0   89.39    9.60
  -7   6   0   92.29    9.60
  -6  -1   0  104.09    9.30
  -1  -6   0   95.09    9.30
   7  -6   0   89.29    9.20
   7  -6   0   96.69    9.70
  -1   7   0  105.09   10.00
   7  -6   0   84.79    9.30
  -7   1   0   93.29    9.20
   1   6   0   88.99    9.20
   6  -7   0   99.49    9.90
   1   6   0   99.59    9.80
   6   1   0   99.89    9.40
   6   1   0  113.09   10.00
   6  -7   0   92.89    9.30
   0   7   0  465.65   39.50
  -7   7   0  412.56   39.50
  -4   8   0 1302.87  112.89
  -4   8   0 1451.75  111.59
  -4   8   0 1095.99  111.39
  -8   4   0 1221.08  111.49
   4   4   0 1388.46  111.69
   4  -8   0 1095.69  112.09
   3   5   0  197.58   18.40
   5   3   0  205.88   18.40
  -5   8   0  196.28   18.40
  -3   8   0  191.68   18.30
   2  -8   0  676.13   64.79
  -8   6   0  792.02   65.09
  -8   2   0  805.82   65.89
   6   2   0  749.03   64.29
  -8   6   0  774.72   64.59
  -2   8   0  669.83   64.99
   2   6   0  662.53   64.79
   2   6   0  749.13   65.09
   6  -8   0  693.33   64.29
   8  -6   0  669.73   64.19
   6  -8   0  755.42   64.79
   2  -8   0  603.14   64.09
  -2  -6   0  702.93   64.29
   6   2   0  843.02   64.99
  -6   8   0  686.13   64.79
  -6   8   0  705.13   64.79
  -2  -6   0  830.82   64.99
  -6  -2   0  651.63   64.19
  -6  -2   0  710.93   64.69
  -8   7   0    8.20    1.90
  -7  -1   0    7.80    2.10
   1   7   0    7.30    1.70
   1   7   0    9.50    2.50
  -1  -7   0    8.70    1.80
   7  -8   0    9.30    2.00
  -7  -1   0    9.10    1.80
   7   1   0   10.10    1.90
   8  -7   0    7.10    1.60
  -1   8   0   10.10    2.50
   1  -8   0    9.60    1.90
   7  -8   0    9.80    1.90
   7   1   0   14.00    2.80
   8  -7   0    8.10    2.20
  -1   8   0    6.20    1.80
  -7   8   0   10.00    2.00
   1  -8   0    7.40    2.10
  -1  -7   0    7.60    2.00
   8  -1   0    9.10    1.90
  -7   8   0   10.00    2.10
  -8   7   0    9.40    2.30
  -8   0   0  531.55   51.89
   0   8   0  606.94   51.49
   0  -8   0  554.04   51.29
   8   0   0  549.54   51.79
   8  -8   0  657.33   52.09
  -8   8   0  552.64   51.39
   8  -8   0  547.75   51.29
   0  -8   0  650.03   51.89
  -8   8   0  526.35   51.79
   8   0   0  506.15   51.19
   0   8   0  625.24   52.29
  -4   9   0  112.09   11.50
   4  -9   0  133.79   11.10
  -9   5   0  105.49   11.40
   4   5   0  126.39   11.00
   4   5   0  116.99   11.60
   5  -9   0  114.59   11.40
   5   4   0  111.89   11.40
  -4   9   0  112.19   10.80
  -5  -4   0   91.79   11.00
   4  -9   0   92.79   11.00
  -4  -5   0   94.99   11.10
  -5   9   0  121.39   11.60
   5  -9   0  108.19   10.80
  -5  -4   0  116.29   10.80
  -4  -5   0  115.09   10.80
   5   4   0  111.09   10.90
  -9   5   0  118.79   10.90
  -9   4   0  107.09   10.80
  -5   9   0  112.29   10.90
  -6  -3   0    7.60    1.90
  -6  -3   0    9.30    1.80
  -9   6   0    7.30    2.10
  -9   6   0    7.70    1.80
  -3   9   0    7.80    1.90
  -9   3   0    7.80    1.80
  -3  -6   0    7.40    1.90
   3  -9   0    6.20    1.70
   6   3   0   11.70    2.20
   6   3   0    9.00    2.30
  -6   9   0    7.60    2.00
   9  -6   0    8.20    2.10
  -3   9   0    8.70    2.30
   6  -9   0    6.50    1.70
   3  -9   0    7.10    1.70
   9  -3   0    5.00    2.00
   3   6   0    7.50    1.80
  -3  -6   0    5.10    1.40
   3   6   0    5.90    2.00
   9  -3   0   10.40    1.90
  -6   9   0    9.90    1.90
  -7  -2   0    1.00    0.80
   7   2   0    2.30    1.10
   7   2   0    2.30    1.40
  -2  -7   0    1.00    0.90
  -7  -2   0    1.90    1.30
   2   7   0    0.80    1.20
  -9   2   0    1.00    1.30
  -7   9   0    0.60    0.90
   9  -7   0    1.20    0.90
  -9   7   0    1.50    0.90
   7  -9   0    1.70    1.10
  -2  -7   0    1.90    1.30
  -9   7   0    1.30    1.00
   2  -9   0    0.80    0.90
  -9   2   0    0.30    0.90
   9  -2   0    2.00    1.10
   7  -9   0    1.70    1.20
   2  -9   0    1.10    0.90
  -2   9   0    1.40    1.10
  -2   9   0    1.00    1.10
   2   7   0    2.00    1.00
  -7   9   0    1.10    1.30
   9  -7   0    0.80    0.90
   1   0  -1   32.70    3.00
   1   0  -1   28.80    3.10
   0  -1   1   27.60    3.10
   1  -1   1   34.50    3.10
   1  -1  -1   32.70    3.00
   1   0  -1   34.40    3.20
  -1   0  -1   33.20    3.00
   0   1  -1   33.90    3.00
   0   1  -1   33.40    3.10
   0   1  -1   31.50    3.10
   1  -1  -1   33.10    3.10
   1  -1   1   38.20    3.10
   1   0  -1   36.60    3.10
   0  -1  -1   35.30    3.00
   1  -1   1   28.20    3.00
   1   0   1   31.40    3.00
   0  -1   1   29.30    3.00
  -1   1   1   33.10    3.00
   0  -1  -1   33.20    3.10
   1  -1  -1   33.50    3.10
  -1   0   1   29.20    3.10
  -1   1  -1   31.00    3.00
   0  -1  -1   31.60    3.10
  -1   0   1   33.10    3.10
  -1   1   1   30.70    3.00
  -1   1  -1   35.20    3.10
  -1   0  -1   27.20    3.10
   1  -1   1   41.00    3.20
   0  -1   1   35.40    3.00
  -1   0  -1   31.80    3.00
  -1   0  -1   32.30    3.10
  -1   0   1   35.30    3.00
   0  -1  -1   34.10    3.00
  -1  -1  -1   -0.20    0.30
  -2   1   1    0.40    0.40
   2  -1  -1    0.20    0.30
  -1   2  -1    1.20    0.40
  -2   1  -1   -0.30    0.40
  -1  -1   1   -0.10    0.20
   2  -1   1   -0.60    0.40
   1   1  -1    0.50    0.30
   1   1   1    0.50    0.40
  -1  -1  -1    0.50    0.40
  -1   2  -1    0.30    0.30
  -1  -1  -1    0.10    0.40
   1  -2   1    1.50    0.40
   1  -2   1    0.00    0.50
   1  -2   1    0.10    0.30
   2  -1  -1   -0.20    0.30
   2  -1   1    0.30    0.40
  -1   2   1   -0.10    0.40
  -2   1   1    0.10    0.30
   1  -2  -1    0.10    0.30
   1  -2  -1   -0.40    0.40
  -1  -1   1    0.30    0.50
   1   1  -1   -0.10    0.30
  -1   2  -1   -0.50    0.50
   1   1   1    0.20    0.40
  -2   1  -1    0.20    0.30
  -1  -1   1    0.10    0.40
   1  -2   1    0.30    0.40
   1   1  -1    0.00    0.40
   1  -2  -1    0.20    0.50
  -2   1   1    0.00    0.40
   2  -1   1    0.20    0.40
   2  -1  -1   -0.40    0.40
  -1   2   1    0.20    0.30
   1   1  -1   -0.10    0.40
  -2   1   1    0.20    0.50
  -1   2   1    0.10    0.30
   1   1   1    2.80    0.50
   2  -1   1   -0.10    0.30
  -2   1  -1    0.10    0.40
  -2   1  -1    0.40    0.30
  -1  -1   1   -0.10    0.30
  -1   2  -1    0.30    0.40
   1   1   1    0.10    0.30
   2  -1  -1   -0.20    0.30
   1  -2  -1   -0.30    0.40
  -1  -1  -1    0.10    0.40
  -1   2   1   -0.10    0.30
   0   2   1  549.85   50.89
  -2   2  -1  493.65   50.89
   0   2   1  636.94   51.09
   2  -2   1  597.34   51.09
   0   2   1  564.14   50.99
  -2   0   1  563.64   50.89
   2  -2  -1  567.64   50.89
  -2   2  -1  503.25   50.89
   2   0  -1  596.54   51.09
   2   0   1  629.44   50.89
  -2   0  -1  507.65   50.89
  -2   2   1  587.84   50.89
   2   0   1  521.25   51.09
  -2   2   1  517.75   50.99
  -2   0   1  633.34   51.09
  -2   2   1  539.65   50.89
   0  -2  -1  574.84   50.89
   2  -2   1  525.75   50.89
   2   0  -1  551.64   50.89
   2  -2  -1  541.05   50.89
   2   0   1  590.44   50.89
   2   0  -1  638.94   51.09
  -2   0  -1  622.94   51.09
  -2   0   1  578.54   51.09
   0  -2  -1  601.74   50.89
  -2   0  -1  612.94   50.89
   2  -2   1  623.34   51.09
   0   2  -1  569.04   50.89
   2  -2  -1  618.84   51.09
  -2   0  -1  665.83   51.09
   0   2  -1  486.05   50.99
   0  -2   1  641.14   51.19
   2  -3   1   93.79    9.10
  -3   2  -1   93.39    8.90
   3  -2  -1   98.89    9.10
  -2  -1  -1  100.29    9.10
   2   1  -1   95.89    9.00
  -3   2  -1   93.99    8.90
   2  -3   1  109.69    9.10
   1   2   1   87.09    9.10
  -3   1   1   85.89    9.00
  -2   3   1   96.89    8.90
  -1   3  -1  117.89    9.10
   2   1  -1   83.69    9.00
   2  -3   1  110.99    8.90
  -3   1   1   94.59    8.90
  -1  -2   1  100.59    9.10
   1  -3  -1   80.49    8.80
  -2   3   1   91.99    9.10
   1  -3  -1   93.59    9.00
   1  -3  -1   97.59    9.10
   2  -3   1   91.79    8.90
   1   2   1   86.19    8.80
  -1  -2   1   93.19    9.00
   3  -2  -1   86.39    8.90
  -3   2  -1  102.59    9.10
  -2  -1  -1  109.59    9.00
  -2  -1  -1  115.99    9.10
  -1  -2   1  102.39    8.90
   1  -3  -1   90.99    8.90
   2   1  -1   90.19    8.80
  -3   1   1   87.79    9.00
   3  -1   1   98.39    8.90
   1   2   1   85.49    8.80
   2   1  -1   91.29    8.90
   3  -1   1   98.79    8.90
  -1  -2   1  100.79    8.90
  -1   3  -1   79.39    8.80
   1   2  -1   91.59    9.00
   2  -3  -1  109.19    8.90
   1   2  -1   96.89    8.90
   3  -1  -1   99.69    8.90
  -3   2   1  101.99    9.10
   3  -2   1   95.69    9.10
   3  -1  -1   97.89    9.20
   3  -2   1   99.19    9.10
  -1   3   1  100.49    9.00
  -3   2   1  101.69    8.90
  -3   1  -1   91.79    9.00
   2   1   1  101.69    8.90
  -3   1  -1   95.19    8.80
   3  -2   1   93.89    8.90
  -3   1  -1   88.99    8.90
   1   2  -1   83.79    8.80
  -1  -2  -1   92.39    9.00
  -1   3   1  116.69    8.90
  -1   3   1   98.99    9.10
  -2  -1   1   98.19    8.90
  -1  -2  -1   88.09    8.80
  -2  -1   1   87.59    8.80
  -1   3   1   98.09    8.90
  -2   3  -1  103.69    8.90
   1  -3   1   91.29    8.80
   2   1   1   93.89    8.80
  -2   3  -1   96.19    9.00
   2  -3  -1  102.69    9.10
  -1  -2  -1   94.79    9.00
   2  -3  -1  105.39    8.90
  -3   2   1   93.89    8.80
  -2  -1   1   99.79    9.10
   1  -3   1  120.29    9.20
  -3   3  -1   81.29    7.30
  -3   0   1   85.99    7.30
  -3   0  -1   92.19    7.40
   3   0  -1   76.79    7.50
   0   3   1   76.89    7.40
  -3   3  -1   64.69    7.50
   0   3  -1   72.89    7.30
   3  -3   1   69.59    7.40
  -3   3   1   71.59    7.40
   3   0  -1   72.69    7.30
   3   0   1   87.69    7.30
   3  -3   1   76.69    7.50
   3   0   1   97.29    7.60
   0   3   1   71.39    7.50
  -3   3   1   75.39    7.50
   0  -3  -1   70.59    7.30
  -3   0   1   73.89    7.30
  -3   3  -1   97.59    7.60
  -3   0  -1   79.99    7.50
   3   0   1   81.79    7.30
   0   3  -1   73.09    7.50
   0   3  -1   88.29    7.60
   3  -3  -1   70.19    7.30
   3  -3  -1   79.59    7.30
   3  -3  -1   88.69    7.70
   3  -3   1   62.89    7.20
   0  -3  -1   74.39    7.50
  -3   0   1   67.89    7.40
  -3   3   1   78.09    7.30
   3   0  -1   82.19    7.60
  -3   3  -1   84.89    7.30
  -3   0   1   67.69    7.40
   0  -3   1   78.19    7.30
   0   3   1   96.69    7.50
   4  -2  -1   -0.50    0.40
  -2   4   1    0.00    0.30
  -4   2  -1    0.00    0.60
   2   2   1    0.10    0.40
   2   2  -1    0.00    0.40
   2  -4   1    0.40    0.40
  -4   2   1    0.10    0.40
   2  -4   1    0.30    0.50
  -2   4  -1    0.60    0.70
  -4   2  -1   -0.10    0.30
   2  -4  -1    0.30    0.60
  -2   4   1    0.10    0.60
   2   2   1   -0.10    0.40
   4  -2   1   -0.20    0.40
  -2   4  -1    0.20    0.50
  -2  -2  -1    0.00    0.40
  -2  -2  -1   -0.30    0.40
   4  -2   1    0.90    0.70
  -4   2   1   -0.20    0.50
  -2  -2   1    0.10    0.40
   4  -2   1    0.30    0.50
  -2   4  -1    0.50    0.60
   4  -2  -1   -0.20    0.40
  -2   4   1   -0.20    0.50
   4  -2  -1    0.10    0.30
  -2  -2   1    0.40    0.40
  -2  -2  -1   -0.40    0.50
   2  -4  -1    0.10    0.40
   2   2  -1   -0.30    0.40
   4  -2   1   -0.10    0.50
   2  -4  -1   -0.10    0.50
  -4   2  -1    0.20    0.50
   2   2  -1   -0.30    0.50
  -2  -2  -1    0.00    0.50
   2   2   1   -0.10    0.60
  -4   2   1   -0.20    0.60
  -2   4   1    0.10    0.40
   4  -2  -1   -0.10    0.60
   2  -4   1    0.40    0.60
  -4   2  -1   -0.30    0.30
   2   2   1   -0.10    0.40
  -4   2   1    0.30    0.50
   2  -4  -1    0.10    0.40
  -2  -2   1    0.10    0.40
  -2  -2   1    0.40    0.70
   2  -4   1    0.20    0.40
  -1   4  -1  130.99   12.60
  -3   4   1  119.69   12.60
  -4   3  -1  132.59   12.40
   1   3   1  127.79   12.40
   3   1  -1  155.98   12.70
   1  -4  -1  118.19   12.50
  -3  -1  -1  133.19   12.70
   4  -3  -1  124.69   12.60
   4  -3  -1  121.39   12.60
   3  -4   1  150.28   12.50
  -3  -1  -1  124.59   12.60
  -3  -1  -1  151.58   12.50
   4  -1   1  129.89   12.40
   3   1  -1  159.58   12.50
   4  -3  -1  144.09   12.40
   1   3   1  134.19   12.60
   4  -1   1  110.39   12.50
   1  -4  -1  156.98   12.50
  -3   4   1  120.09   12.30
   3  -4   1  128.79   12.70
   1  -4  -1  159.68   12.40
   4  -1   1  146.19   12.80
   1   3   1  127.89   12.30
  -4   1   1  145.69   12.40
   1  -4  -1  150.18   12.70
   4  -1   1  148.99   12.70
  -3   4   1  134.09   12.40
  -4   3  -1  165.78   13.00
  -3  -1  -1  118.79   12.40
  -1  -3   1  124.19   12.40
   4  -3  -1  125.69   12.40
   3  -4  -1  143.39   12.60
  -4   3   1  144.19   12.40
   4  -3   1  138.69   12.40
   3   1   1  112.59   12.50
   4  -1  -1  145.49   12.80
  -1  -3  -1  145.99   12.40
   1   3  -1  130.59   12.60
  -1   4   1  139.99   12.50
   4  -1  -1  114.89   12.30
   3   1   1  139.39   12.40
  -1  -3  -1  132.19   12.70
   1   3  -1  121.89   12.60
  -1  -3  -1  128.59   12.30
   3  -4  -1  128.49   12.40
  -4   3   1  130.19   12.30
   1  -4   1  127.29   12.60
  -1   4   1  132.89   12.30
  -4   1  -1  145.59   12.50
  -4   3   1  165.88   12.90
  -4   3   1  114.79   12.50
   3  -4  -1  142.39   12.70
   3  -4  -1  139.29   12.40
  -4   1  -1  168.48   12.80
  -4   1  -1  131.49   12.80
   1  -4   1  135.49   12.40
  -3   4  -1  152.98   12.70
   4  -1  -1  106.39   12.50
   4  -1  -1  158.58   12.50
   4  -3   1  125.19   12.70
  -3   4  -1  116.99   12.60
  -4   1  -1  124.49   12.30
  -4   0   1  432.46   35.90
  -4   4  -1  377.26   35.40
  -4   4  -1  377.86   35.70
   0   4   1  365.96   35.90
  -4   0  -1  381.36   35.60
   4  -4   1  442.76   35.80
   4   0  -1  366.56   35.40
   4   0  -1  393.66   35.80
   4  -4   1  401.76   35.50
   4   0   1  462.85   35.80
  -4   0  -1  353.46   35.60
  -4   4   1  362.06   35.40
   0  -4   1  342.57   35.60
  -4   4  -1  392.66   35.80
   4   0  -1  430.86   35.80
   0   4  -1  426.86   35.50
  -4   0  -1  391.06   35.50
   0  -4   1  414.96   35.80
   0  -4   1  349.37   35.40
  -4   4  -1  397.36   35.50
   0   4  -1  350.36   35.40
   0   4  -1  417.66   35.80
  -4   0   1  431.16   35.80
  -4   4   1  409.06   35.80
   4  -4  -1  416.96   35.70
   4   0   1  450.75   35.50
   4  -4  -1  379.16   35.50
   4  -4   1  404.26   35.80
  -4   0   1  393.16   35.40
   3   2  -1   51.89    5.80
   2  -5  -1   48.60    5.50
  -5   2   1   57.59    5.90
  -2  -3   1   44.40    5.70
  -3  -2  -1   44.90    5.50
   5  -3  -1   51.59    5.60
  -3   5   1   60.89    6.10
   5  -2   1   56.69    5.60
  -2  -3   1   58.79    5.90
   5  -2   1   58.49    5.90
  -5   2   1   59.39    5.60
  -3   5   1   67.09    5.80
  -5   3  -1   64.69    5.90
  -5   2   1   58.69    5.60
   2   3   1   56.89    5.90
   3  -5   1   62.69    5.70
  -3   5   1   47.70    5.70
   3   2  -1   48.70    5.50
   5  -3  -1   59.49    5.90
  -2  -3   1   57.59    5.60
   5  -2   1   68.49    6.10
  -2   5  -1   72.49    5.90
   3  -5   1   61.29    6.10
  -2   5  -1   54.69    5.70
  -2   5  -1   59.79    6.10
   2  -5  -1   60.49    6.00
   2  -5  -1   46.80    5.70
   3   2  -1   52.09    5.50
   5  -3  -1   56.89    5.60
  -5   3  -1   55.79    5.90
  -5   3  -1   48.60    5.60
  -2  -3   1   62.99    5.60
   5  -2   1   50.89    5.50
  -5   3  -1   53.59    5.90
  -3  -2  -1   75.19    6.00
  -2   5  -1   62.79    5.60
  -5   2   1   64.19    6.00
  -3   5   1   54.49    5.60
   2   3   1   54.29    5.60
   3  -5   1   54.09    5.60
  -2   5   1   59.49    5.60
  -5   2  -1   61.99    6.00
   5  -3   1   53.79    5.60
  -5   2  -1   62.49    5.90
   5  -2  -1   59.19    5.90
  -2  -3  -1   57.09    5.80
   3   2   1   53.39    5.60
   3  -5  -1   71.89    6.00
  -2  -3  -1   60.99    5.60
  -3   5  -1   50.79    5.50
   3   2   1   61.39    5.70
   2   3  -1   53.39    5.60
   2   3  -1   69.89    5.70
  -2   5   1   70.79    5.90
  -3  -2   1   53.69    5.60
  -2   5   1   50.29    5.60
  -5   2  -1   51.39    5.60
   5  -3   1   48.70    5.70
  -2  -3  -1   58.09    5.60
  -2   5   1   65.89    6.20
  -3   5  -1   56.09    6.00
   2   3  -1   59.29    6.00
   2   3  -1   46.70    5.70
   5  -2  -1   61.69    6.00
   2  -5   1   57.69    6.00
   3  -5  -1   51.49    5.60
   3  -5  -1   52.29    6.00
   2  -5   1   56.39    5.90
   5  -3   1   55.69    5.90
   5  -2  -1   55.59    5.60
   2  -5   1   49.90    5.50
  -3  -2   1   47.40    5.50
  -3   5  -1   77.49    6.10
  -5   3   1   62.59    6.00
  -5   3   1   52.79    5.60
   5  -3   1   49.90    5.50
   3  -5  -1   51.29    5.50
  -3  -2   1   58.69    5.90
  -3   5  -1   51.09    5.60
   3   2   1   52.19    5.80
  -2  -3  -1   49.80    5.80
   1  -5  -1   68.59    6.90
   4   1  -1   72.29    7.00
   4   1  -1   65.19    7.30
  -5   4  -1   73.19    7.00
  -4   5   1   75.59    7.20
   4  -5   1   96.39    7.50
  -5   4  -1   71.29    7.20
   5  -1   1   73.19    7.00
  -5   1   1   70.09    7.20
  -5   1   1   71.49    7.00
  -4  -1  -1   64.39    6.90
   5  -4  -1   77.29    7.60
  -4  -1  -1   81.89    7.40
  -1   5  -1   67.69    7.20
   5  -4  -1   78.19    7.30
   4  -5   1   72.79    7.10
  -1  -4   1   60.69    6.90
  -5   1   1   66.19    6.90
   1   4   1   79.39    7.40
   5  -4  -1   87.19    7.10
   1   4   1   68.79    7.30
   1   4   1   69.39    6.90
   4   1  -1   64.19    7.20
   4   1  -1   72.49    7.00
   1  -5  -1   67.89    6.90
  -5   4  -1   74.89    7.10
  -4  -1  -1   85.69    7.60
   4  -5   1   78.29    7.50
  -1   5  -1   83.79    7.10
  -1   5  -1   74.19    7.00
   1  -5  -1   76.59    7.20
  -4   5   1   65.19    7.30
   5  -1   1   61.29    6.90
  -1  -4   1   66.29    7.30
   4  -5   1   80.39    7.10
   5  -1   1   60.79    7.10
  -1   5  -1   71.59    7.40
  -4   5   1   76.29    7.00
  -5   4  -1   84.59    7.40
  -4   5   1   75.99    7.00
   5  -1   1   93.09    7.60
  -5   1   1   69.99    7.40
   5  -4  -1   73.69    7.00
   5  -1  -1   61.49    6.90
   1   4  -1   66.69    6.90
  -4  -1   1   64.09    6.90
  -5   1  -1   71.09    7.00
   4  -5  -1   56.99    6.90
   4  -5  -1   92.09    7.10
   1  -5   1   68.49    7.30
  -4   5  -1   74.99    7.00
  -4   5  -1   66.79    7.00
  -5   1  -1   70.19    7.20
  -4  -1   1   61.39    7.10
  -1  -4  -1   58.79    6.90
  -5   4   1   66.29    7.20
  -4  -1   1   70.09    6.90
  -5   4   1   83.19    7.00
   4  -5  -1   74.99    7.20
  -4   5  -1   74.19    7.30
   5  -4   1   73.39    6.90
   5  -4   1   64.49    7.20
   4   1   1   73.89    7.00
  -1  -4  -1   67.09    7.20
   5  -4   1   69.69    7.00
   1   4  -1   68.39    7.00
  -5   4   1   77.79    7.30
  -5   4   1   67.99    7.00
   1  -5   1   77.79    7.30
  -1  -4  -1   65.79    7.30
  -1  -4  -1   71.49    7.00
   5  -1  -1   61.79    7.10
  -4  -1   1   79.89    7.40
   5  -4   1   64.19    7.20
  -4   5  -1   69.59    7.30
   4   1   1   62.89    6.90
  -1   5   1   79.99    7.30
   1  -5   1   67.09    7.20
   4   1   1   70.29    7.30
   4   1   1   82.69    7.50
   1  -5   1   72.29    7.00
   1   4  -1   78.89    7.60
  -5   1  -1   83.79    7.50
  -1   5   1   70.59    7.30
  -1   5   1   86.49    7.20
  -1   5   1   73.99    7.00
   0  -5   1  108.29    9.80
   5   0  -1  102.99    9.90
  -5   0   1   91.79    9.50
  -5   5  -1   97.49    9.50
  -5   5   1  114.89   10.00
   5  -5  -1  116.29   10.00
   5   0  -1   96.79    9.60
   0   5   1   94.59    9.60
   5  -5   1   98.09    9.50
   5   0   1  112.59   10.10
  -5   5   1  114.79    9.70
   5  -5  -1  112.49   10.10
  -5   5   1  110.69    9.60
  -5   5   1  107.09   10.00
   5   0   1   92.89    9.80
   5   0   1   92.29    9.50
   0  -5  -1   88.29    9.40
   5   0   1   87.69    9.50
  -5   5  -1   85.39    9.70
  -5   0  -1   98.09    9.90
  -5   0   1  115.29   10.10
  -5   5  -1  103.69    9.60
  -5   5  -1   95.79    9.90
   0   5   1  103.49    9.50
  -5   0  -1   92.29    9.50
   0   5   1   94.49    9.80
  -5   0   1   97.29    9.50
   0   5  -1  105.59    9.90
   0   5  -1   96.59    9.50
   0  -5   1  105.29   10.00
   5  -5   1   84.59    9.80
   0   5   1  109.89    9.90
   0  -5  -1   98.19    9.70
   0  -5  -1   79.39    9.70
   5  -5   1  119.09   10.00
   5  -5  -1  101.99    9.50
   5   0  -1  101.19    9.60
  -5   0  -1   78.49    9.60
   0   5  -1  100.99    9.90
   0   5  -1   98.99    9.60
   0  -5  -1  122.19    9.90
   5  -5   1  127.49    9.70
   0  -5   1   95.79    9.50
  -5   0   1  106.39    9.90
   0  -5   1   88.89    9.70
   5  -5  -1   88.79    9.50
   5   0  -1  115.19   10.10
   3  -6  -1   -0.10    0.70
  -3  -3  -1   -0.20    0.50
   6  -3  -1   -0.30    0.60
  -6   3  -1    0.00    0.70
   6  -3   1    0.00    0.40
  -3   6  -1   -0.20    0.50
  -3   6  -1    0.00    0.60
  -3  -3  -1    0.20    0.70
  -6   3   1    0.30    0.70
  -3  -3   1   -0.40    0.60
   3   3   1    0.30    0.70
  -3  -3  -1   -0.50    0.60
   6  -3   1   -0.20    0.60
   3   3  -1   -0.10    0.70
   6  -3   1    0.50    0.50
  -3  -3   1   -0.10    0.50
  -3  -3  -1    0.10    0.50
   3   3  -1    0.30    0.50
  -3   6  -1    0.40    0.60
   3  -6   1    0.10    0.60
   3  -6   1    0.70    0.80
  -3   6   1   -0.40    0.70
   6  -3  -1    0.10    0.60
   3   3  -1   -0.20    0.50
   3   3   1    0.30    0.60
  -6   3   1    0.40    0.80
   3   3   1    0.80    1.00
  -6   3   1    0.20    0.50
  -6   3   1   -0.10    0.40
   3  -6  -1   -0.50    0.50
  -3   6   1    0.50    0.60
   6  -3  -1   -0.50    0.40
  -3   6   1    0.10    0.70
   3   3  -1    0.60    0.80
  -6   3  -1   -0.20    0.70
   3  -6  -1    0.40    0.70
  -3   6   1    0.50    0.50
  -3  -3   1    0.10    0.50
   6  -3   1   -0.40    0.60
  -3  -3   1   -0.60    0.60
  -6   3  -1    0.60    0.70
   3  -6  -1    0.20    0.60
   3  -6   1    0.20    0.50
   3   3   1    0.10    0.50
   3  -6   1   -0.10    0.50
  -6   3  -1    0.30    0.60
  -3   6  -1   -0.30    0.50
  -4  -2  -1  112.19   12.10
   4   2  -1  121.59   12.20
   2   4   1  110.89   11.80
   2  -6  -1  149.29   12.00
  -2  -4   1  117.09   11.80
  -4   6   1  115.59   11.80
   6  -2   1  141.59   12.40
  -4  -2  -1  138.39   11.90
  -6   2   1  138.49   12.00
  -6   2   1  101.19   12.00
  -4   6   1  147.49   12.60
   2  -6  -1  126.89   12.30
  -2   6  -1  117.89   12.40
   6  -2   1  122.29   12.20
  -4   6   1  138.49   12.30
   4   2  -1  107.69   11.80
  -2  -4   1  134.19   11.90
   6  -4  -1  119.99   11.80
  -2   6  -1  115.39   12.10
   2  -6  -1  110.99   11.90
   4  -6   1  126.09   12.20
  -4  -2  -1  125.89   12.20
  -4   6   1  129.79   11.90
   6  -4  -1  152.48   12.40
   2   4   1  148.69   12.40
  -6   2   1  148.89   11.90
  -6   2   1  135.19   12.40
   2  -6  -1  108.69   12.10
   4  -6   1  116.69   12.30
  -6   4  -1  120.99   12.20
   2   4   1  115.19   11.80
  -2   6  -1  127.49   12.00
   6  -2   1  137.89   12.00
   2   4   1  154.98   12.50
   4   2  -1  127.59   12.30
  -2   6  -1  120.99   12.00
  -6   4  -1  156.58   12.10
   6  -2   1  151.68   12.00
  -2  -4   1  143.19   12.20
   4  -6   1  111.69   11.80
  -6   4  -1  129.19   11.90
   4  -6   1  129.89   12.00
  -6   4  -1  138.49   12.40
  -2  -4   1  104.39   12.10
   4  -6  -1  126.79   11.90
   6  -4   1  141.79   12.50
  -2   6   1  134.79   12.20
  -2  -4  -1  118.59   12.20
   2  -6   1  153.28   12.00
   4  -6  -1  125.19   12.40
  -2  -4  -1  100.89   11.90
  -6   4   1  128.29   12.30
   6  -2  -1  116.19   11.80
   6  -4   1  136.69   12.20
   2   4  -1  122.79   11.90
  -6   2  -1  123.29   11.80
   4   2   1  136.79   12.40
   6  -2  -1  101.79   12.10
  -2  -4  -1  142.99   11.90
   6  -4   1  153.48   12.00
  -6   2  -1  115.19   12.10
  -2   6   1  118.49   12.30
  -2  -4  -1  125.69   11.90
  -4   6  -1  119.79   12.30
  -4  -2   1  137.99   12.00
   4   2   1  130.99   12.00
   4   2   1  115.99   11.80
   2   4  -1  108.79   11.80
  -4  -2   1  118.79   11.80
   6  -4   1  125.49   11.90
  -6   2  -1  123.89   11.90
   4  -6  -1  134.79   12.30
  -6   4   1  127.89   12.30
   2   4  -1  118.39   12.10
  -6   2  -1  135.49   12.40
   6  -2  -1  129.79   12.00
  -6   4   1  124.59   11.90
  -4  -2   1  127.19   12.20
  -6   4   1  111.89   11.80
  -4   6  -1  120.79   12.30
   2   4  -1  136.79   12.30
  -4   6  -1  135.69   12.00
   2  -6   1  128.39   12.30
  -2   6   1  141.59   12.10
  -2   6   1  117.49   11.80
  -4   6  -1  119.29   11.90
  -1   6  -1  355.26   34.80
  -6   5  -1  385.16   35.20
  -5   6   1  370.26   35.20
  -5   6   1  405.56   35.20
   1  -6  -1  386.46   35.20
  -1   6  -1  429.56   34.90
   5  -6   1  442.76   35.50
  -1  -5   1  399.46   34.80
  -1   6  -1  401.36   35.40
   6  -1   1  407.36   35.30
   5   1  -1  380.96   35.30
   1  -6  -1  416.76   34.90
  -1  -5   1  420.26   34.90
   1   5   1  354.06   34.70
  -1  -5   1  362.46   35.60
  -5   6   1  414.56   34.80
  -6   1   1  404.66   35.30
   1  -6  -1  386.46   35.10
   5   1  -1  366.16   35.20
  -1  -5   1  346.07   35.00
   5  -6   1  398.36   35.20
  -6   1   1  383.26   34.70
   6  -5  -1  387.46   34.80
   5  -6   1  405.96   35.00
   6  -1   1  333.37   35.00
   6  -5  -1  416.26   35.20
  -6   5  -1  385.06   34.90
   1  -6  -1  330.47   34.70
   1   5   1  396.46   34.90
   6  -5  -1  368.06   35.20
  -5  -1  -1  346.67   34.70
   5  -6   1  392.76   34.80
  -6   1   1  430.76   34.90
   5   1  -1  341.87   34.70
  -6   5  -1  360.66   34.70
  -1   6  -1  370.96   35.20
   1   5   1  374.06   35.30
  -6   5  -1  406.56   35.20
   6  -1   1  401.06   34.80
  -5   6   1  346.77   34.80
   1   5   1  399.16   35.20
  -5  -1  -1  386.16   35.40
  -5  -1  -1  381.86   35.10
   5   1  -1  316.27   34.70
   1   5  -1  364.16   35.20
  -5  -1   1  361.96   34.70
   5   1   1  376.66   35.30
  -5   6  -1  430.06   34.90
  -5   6  -1  401.26   35.20
   6  -5   1  431.66   35.30
   5   1   1  407.16   34.90
  -6   5   1  382.46   34.80
  -1  -5  -1  375.26   34.70
  -6   5   1  372.46   35.00
  -1   6   1  406.26   35.20
   6  -1  -1  464.75   35.50
  -6   5   1  325.67   35.00
   1  -6   1  434.76   35.00
  -1   6   1  389.66   34.90
  -1  -5  -1  395.46   35.40
   5  -6  -1  359.16   35.20
   1   5  -1  391.76   35.20
   5  -6  -1  383.06   34.80
  -5  -1   1  467.55   35.40
  -6   1  -1  347.97   35.00
   6  -1  -1  353.26   35.10
  -6   1  -1  353.76   35.20
  -1   6   1  367.36   35.20
   5  -6  -1  407.46   35.20
   1   5  -1  390.76   34.90
   1   5  -1  374.96   34.80
   6  -1  -1  381.76   34.80
   6  -1  -1  325.67   34.70
  -1  -5  -1  414.56   35.20
   1  -6   1  330.07   35.00
  -6   1  -1  380.16   34.80
  -5   6  -1  355.26   35.20
  -5  -1   1  434.96   35.40
   6  -5   1  367.36   34.80
  -5   6  -1  419.96   34.90
  -6   1  -1  450.15   34.90
   5   1   1  383.86   35.20
  -6   5   1  435.76   34.90
  -5  -1   1  464.85   35.00
  -1  -5  -1  420.76   35.10
   6  -6  -1   95.29   10.00
   0  -6   1  110.79    9.80
  -6   0   1  111.89    9.80
  -6   6  -1  123.89   10.70
   0   6   1   85.89    9.60
  -6   6   1  104.19   10.10
   6  -6  -1   82.69    9.60
   6   0  -1   93.69   10.00
  -6   0   1  126.89   10.30
  -6   6  -1  127.29   10.10
   0   6  -1   94.99   10.00
  -6   0   1   94.29    9.60
  -6   0  -1   86.69    9.90
   0  -6   1  110.69    9.70
   0  -6  -1  101.69    9.60
   0   6   1   99.49    9.60
  -6   6   1   91.49   10.00
   6  -6   1   85.69    9.50
   6   0  -1   97.39    9.70
   6   0  -1   96.39    9.70
   0   6  -1  104.89   10.20
  -6   0   1  110.19   10.10
   0  -6  -1   93.39   10.00
   6  -6   1  118.09   10.20
  -6   6   1   93.89    9.70
   6   0   1  103.79   10.20
  -6   0  -1  100.19    9.70
  -6   0  -1  114.09    9.80
   6   0   1   99.59   10.10
  -6   0  -1  115.89   10.20
   0   6  -1  101.89    9.80
  -6   6  -1   99.99    9.70
   0   6  -1   94.89    9.50
   0  -6  -1   92.79    9.80
  -6   6   1  111.69    9.70
   6   0   1   90.19    9.60
   6  -6   1   93.99    9.70
   6  -6   1   99.59   10.20
   0   6   1  106.69   10.20
   6   0   1  100.19    9.80
   0   6   1   98.29   10.10
   6   0  -1   88.09    9.90
  -3   7  -1  187.48   15.30
  -4   7   1  160.78   15.50
  -7   4  -1  194.18   15.80
   4  -7   1  174.38   15.30
  -7   3   1  154.18   15.20
   3  -7  -1  193.58   15.70
   7  -4  -1  174.98   15.70
  -4   7   1  169.48   15.30
  -4  -3  -1  186.98   15.90
  -3  -4   1  130.89   15.40
   7  -3   1  175.28   15.80
  -3  -4   1  150.98   15.60
   3   4   1  182.98   15.80
   7  -4  -1  149.79   15.60
  -3   7  -1  147.19   15.40
  -4  -3  -1  140.19   15.10
   4   3  -1  171.88   15.30
  -3   7  -1  144.99   15.60
   7  -3   1  188.58   15.40
  -7   3   1  161.68   15.60
  -7   4  -1  152.68   15.30
  -7   4  -1  159.78   15.70
  -3  -4   1  160.18   15.10
   7  -4  -1  148.99   15.20
   7  -4  -1  140.89   15.10
   4  -7   1  161.48   15.20
  -7   4  -1  150.78   15.20
  -3  -4   1  182.88   15.30
  -4   7   1  157.38   15.70
  -7   3   1  152.98   15.50
   3  -7  -1  139.09   15.10
   4   3  -1  144.39   15.60
  -3   7  -1  156.78   15.30
   4  -7   1  154.38   15.60
   3   4   1  185.38   15.40
   7  -3   1  148.19   15.50
  -4   7   1  147.59   15.10
  -7   3   1  148.59   15.20
   3   4   1  199.38   15.90
   3  -7  -1  160.68   15.70
  -4  -3  -1  145.39   15.50
   4   3  -1  162.48   15.20
   3   4   1  148.99   15.20
   7  -3   1  176.28   15.40
   4   3   1  156.78   15.20
  -4  -3   1  165.88   15.10
  -7   3  -1  179.28   15.50
   4  -7  -1  153.98   15.60
   7  -3  -1  198.58   15.80
   7  -4   1  169.88   15.30
  -3   7   1  200.98   15.70
   3  -7   1  203.08   15.50
  -4   7  -1  137.29   15.10
  -7   4   1  191.78   15.90
   3   4  -1  165.88   15.70
   3   4  -1  147.39   15.10
   4   3   1  182.28   15.40
   4   3   1  151.38   15.50
   7  -3  -1  161.98   15.20
   7  -3  -1  200.38   16.00
   4   3   1  169.68   15.70
  -3   7   1  160.18   15.20
  -3   7   1  181.88   15.20
  -4  -3   1  165.08   15.60
   7  -4   1  173.98   15.20
   7  -4   1  206.58   16.30
   7  -4   1  153.38   15.50
  -3  -4  -1  152.58   15.60
  -4   7  -1  175.18   15.90
  -7   3  -1  155.68   15.60
  -7   3  -1  174.48   15.80
  -4   7  -1  171.28   15.60
  -3  -4  -1  137.39   15.40
   7  -3  -1  155.98   15.20
  -7   4   1  168.38   15.30
   3   4  -1  152.18   15.20
   3  -7   1  150.38   15.20
   4  -7  -1  145.19   15.10
  -3   7   1  170.28   15.80
  -7   4   1  173.38   15.70
  -3  -4  -1  150.88   15.10
   4  -7  -1  166.28   15.70
  -7   4   1  165.48   15.20
  -4  -3   1  159.58   15.20
  -4   7  -1  161.68   15.20
  -2   7  -1    0.10    0.70
   2  -7  -1    0.30    0.90
  -5   7   1    0.40    0.80
  -5  -2  -1    0.40    0.60
  -7   5  -1    0.50    0.80
   5   2  -1   -0.20    0.40
  -5  -2  -1    0.30    0.60
  -2  -5   1   -0.10    0.40
   7  -5  -1   -0.10    0.60
   2  -7  -1    0.80    0.60
  -2   7  -1    0.70    0.80
  -2  -5   1    0.30    0.70
   2   5   1    0.50    0.50
   7  -2   1    0.80    0.70
  -2   7  -1    0.70    0.90
  -7   5  -1    0.60    0.80
  -5   7   1   -0.10    0.60
   5   2  -1   -0.10    0.80
   5  -7   1    0.50    0.70
   5  -7   1   -0.10    0.70
   7  -5  -1    1.10    0.90
  -7   5  -1   -0.30    0.60
  -7   5  -1    1.10    1.00
   2   5   1    0.60    0.90
  -7   2   1    0.20    0.60
  -7   2   1    0.70    0.80
  -7   2   1    0.80    0.80
   7  -2   1    0.10    0.60
   7  -5  -1   -0.30    0.60
  -5  -2  -1    0.00    0.80
   2   5   1    0.00    0.90
  -2  -5   1    0.50    0.80
  -5   7   1    0.20    0.80
  -5   7   1    0.00    0.60
   2   5   1    0.60    0.70
   7  -2   1    1.00    1.00
   7  -2   1   -0.70    0.60
  -2   7  -1   -0.20    0.50
   2  -7  -1    0.00    0.50
   5   2  -1    0.80    0.70
   5  -7   1    0.30    0.80
   7  -5  -1    0.70    0.70
  -7   2   1    0.40    0.90
  -5  -2  -1    0.20    0.40
   5   2  -1   -0.20    0.80
  -2   7   1    0.30    0.70
  -7   2  -1    0.20    0.90
   5   2   1   -0.10    0.60
  -5   7  -1    0.10    0.90
  -2   7   1    2.00    0.90
   7  -5   1    0.10    0.80
  -5   7  -1   -0.20    0.70
   2  -7   1    0.80    0.80
  -5   7  -1    0.10    0.70
  -7   2  -1    0.10    0.70
   5  -7  -1    0.00    0.60
   5  -7  -1   -0.20    0.80
   7  -5   1    0.00    0.80
   7  -2  -1   -0.10    0.60
   7  -5   1    0.20    0.50
   2   5  -1    0.80    0.70
  -7   5   1    0.10    0.80
  -5  -2   1    0.10    0.90
   2   5  -1    0.40    0.70
  -5   7  -1    0.50    0.80
  -7   2  -1    0.80    0.80
  -7   5   1    0.60    0.70
  -5  -2   1    0.80    0.60
   5  -7  -1    0.60    0.80
   5   2   1    1.20    0.80
  -2  -5  -1   -0.20    0.60
  -5  -2   1    0.20    0.60
  -7   2  -1    0.20    0.50
   5   2   1   -0.20    0.80
  -7   5   1    0.20    0.80
   7  -2  -1    0.30    0.70
  -2  -5  -1   -0.30    0.70
   5   2   1    0.30    0.90
   7  -2  -1    0.20    0.80
   2  -7   1    0.00    0.60
  -7   5   1    0.10    0.60
   2   5  -1    0.00    0.70
   2   5  -1    0.40    1.00
   7  -5   1    0.10    0.80
  -2  -5  -1   -0.10    0.70
  -2   7   1    0.00    0.60
   7  -2  -1    0.30    0.80
  -2   7   1    0.50    0.70
  -5  -2   1    0.40    0.80
  -6  -1  -1  103.69    9.70
   7  -6  -1   96.99    9.70
   1  -7  -1   89.39    9.50
   7  -6  -1   93.69    9.10
   1   6   1   74.39    9.30
  -1   7  -1   83.89    9.40
  -6   7   1   83.59    9.40
   6  -7   1  105.09    9.90
   1  -7  -1   85.69    9.30
   6  -7   1   86.89    9.40
   1   6   1  111.59    9.30
  -1   7  -1   95.09    9.20
  -7   6  -1   90.29    9.10
   1   6   1   84.09    9.40
  -1   7  -1   92.59    9.00
  -6   7   1   85.89    9.00
   6  -7   1   91.89    9.20
  -6   7   1   90.99    9.40
   1  -7  -1  107.89    9.20
  -1  -6   1   96.39    9.10
  -6  -1  -1   94.09    9.10
   6   1  -1  122.29    9.50
   6   1  -1   93.59    9.60
   7  -6  -1   88.79    9.10
  -7   1   1   86.29    8.90
   6  -7   1  117.89    9.30
  -6   7   1   87.99    9.10
   7  -1   1   98.39    9.10
   6   1  -1   90.59    9.50
  -6  -1  -1  113.09    9.70
   7  -6  -1  104.69    9.60
   7  -1   1   92.89    9.50
  -7   6  -1   89.89    9.20
   6   1  -1  111.39    9.30
   7  -1   1   92.09    9.20
  -7   1   1   93.09    9.50
  -7   1   1   85.29    9.30
  -1  -6   1   90.69    9.00
   1   6   1   85.59    9.00
  -6  -1  -1   88.09    9.00
  -1   7  -1   96.99    9.70
  -7   1   1   79.69    8.90
   1   6  -1   88.49    9.00
  -6  -1   1   89.09    9.00
   7  -1  -1   88.69    9.40
   6  -7  -1   93.79    9.70
  -1   7   1   79.49    9.40
  -7   6   1   87.39    9.30
   6   1   1   90.49    9.50
  -6   7  -1   91.79    9.10
  -7   1  -1  103.89    9.20
   7  -6   1   88.59    9.20
  -7   6   1   98.39    9.10
  -1  -6  -1   91.29    9.50
  -7   1  -1   94.69    9.50
   1   6  -1   83.69    9.40
   1   6  -1   79.19    9.30
   6  -7  -1   88.49    9.10
   7  -1  -1   93.79    9.60
   1  -7   1   93.29    9.00
   7  -6   1  110.29    9.70
  -7   1  -1   87.79    9.00
  -1  -6  -1   97.09    9.50
  -6   7  -1   90.09    9.10
   6   1   1   78.19    8.90
  -6  -1   1   94.69    9.20
   7  -1  -1   90.09    9.10
  -7   6   1   83.99    9.00
  -6  -1   1   91.89    9.50
   1   6  -1   90.19    9.10
  -6   7  -1  102.89    9.70
  -6  -1   1  114.49    9.80
   7  -6   1   90.19    9.50
   6   1   1   92.49    9.70
  -7   1  -1   97.39    9.70
   6   1   1  112.49    9.30
  -7   6   1   85.29    9.40
  -1  -6  -1   99.99    9.20
  -6   7  -1   96.99    9.50
  -1   7   1   93.19    9.10
  -1   7   1  103.19    9.70
   6  -7  -1   92.09    9.40
   7  -6   1   73.89    8.80
   1  -7   1   83.59    9.00
   7  -1  -1   90.79    9.10
   6  -7  -1   98.49    9.30
  -1   7   1  102.29    9.00
   7   0   1  143.69   14.40
   0   7   1  172.88   14.40
  -7   7   1  147.99   14.30
  -7   0   1  149.39   14.40
   0   7   1  148.29   14.40
   4  -8   1   -0.20    0.70
  -4  -4   1    0.00    0.70
   8  -4   1    0.50    0.70
   4  -8  -1   -0.40    0.70
  -4  -4  -1   -0.10    0.80
  -4   8   1    0.40    1.00
  -4   8   1    0.20    0.80
   4   4   1    0.40    0.90
   4   4   1    0.30    0.50
   4   4   1    0.70    0.80
  -8   4   1    0.30    0.80
  -4   8   1    0.50    0.70
   4  -8  -1    0.70    0.70
  -4  -4  -1   -0.40    0.40
  -8   4   1   -0.50    0.70
  -5   8   1  198.88   17.70
  -8   3   1  200.38   17.20
   3   5   1  218.38   17.30
  -5   8   1  166.88   17.00
   8  -3   1  193.48   17.30
   3   5   1  172.18   17.40
  -8   5   1  184.88   17.10
  -3   8   1  154.08   17.10
  -3   8   1  164.48   17.00
   8  -5   1  176.98   17.20
   5   3   1  204.98   17.30
  -2   8  -1  171.68   16.80
  -8   6  -1  158.88   16.60
   8  -2   1  198.18   16.40
   8  -6  -1  191.98   16.20
   2   6   1  195.48   16.20
  -8   6  -1  165.38   16.10
   8  -2   1  185.78   16.60
  -8   2   1  177.18   16.70
  -6  -2  -1  139.89   16.30
   8  -6  -1  154.68   16.40
  -6   8   1  173.28   16.10
  -6  -2  -1  184.28   16.20
   6   2  -1  157.68   16.50
  -2  -6   1  158.28   16.00
  -8   2   1  170.68   16.10
   6  -8   1  163.38   16.10
   6   2  -1  172.58   16.10
  -8   6   1  168.78   16.60
   6   2   1  181.88   16.70
   2   6  -1  175.18   16.80
   8  -6   1  196.58   16.10
  -6   8  -1  142.99   16.40
  -6  -2   1  184.38   16.10
   8  -6   1  163.28   16.50
   8  -2  -1  178.38   16.10
   2  -8   1  171.38   16.10
  -8   2  -1  171.38   16.70
  -8   2  -1  171.58   16.20
  -6  -2   1  150.98   16.40
   8  -2  -1  204.08   17.00
  -2   8   1  166.08   16.00
  -1   8  -1   35.60    5.00
   7   1  -1   33.90    4.90
  -7   8   1   26.10    4.40
  -1  -7   1   36.50    4.10
  -8   1   1   42.00    4.20
   1   7   1   30.50    4.50
   1  -8  -1   44.30    4.70
   8  -1   1   36.00    4.20
   7  -8   1   38.30    4.20
   8  -1   1   41.20    4.70
   1  -8  -1   30.20    4.30
   8  -7  -1   30.60    4.20
  -1   8  -1   45.10    5.00
  -7  -1  -1   36.20    4.40
  -7  -1  -1   32.50    4.80
   7  -8   1   47.00    4.90
   7   1  -1   35.20    4.10
  -7   8   1   37.60    4.20
  -8   7  -1   33.80    4.90
  -8   1   1   34.90    4.80
   8  -7  -1   25.90    4.30
   1   7   1   38.70    5.10
   8  -1  -1   37.20    4.50
   7  -8  -1   21.30    3.90
   7  -8  -1   32.50    4.60
   7   1   1   37.30    4.10
  -7  -1   1   30.20    4.60
   7   1   1   34.40    5.00
  -8   1  -1   39.00    4.30
  -1   8   1   38.20    5.10
  -1  -7  -1   33.90    4.00
  -7   8  -1   29.50    4.70
  -8   7   1   32.30    4.80
   8  -7   1   49.10    4.50
   1  -8   1   36.90    4.10
  -7  -1   1   35.00    4.30
   8  -7   1   37.00    4.50
   8  -1  -1   37.00    4.50
  -1  -7  -1   29.70    4.40
  -8   7   1   37.90    4.20
  -1   8   1   32.00    4.20
  -8   1  -1   43.30    4.90
   8   0   1    7.90    1.90
  -8   0   1   11.20    2.50
   0   8   1   12.40    2.20
   8  -8   1   10.90    2.10
   0  -8  -1    8.20    1.80
   8  -8   1   10.80    2.40
   0  -8  -1    7.80    1.90
   8  -8  -1   11.30    2.00
   8   0  -1   10.90    2.40
   0  -8   1   10.60    2.00
   0   8   1   14.00    2.80
  -8   0   1   10.60    2.10
   0   8  -1    8.10    1.90
  -8   0  -1   11.20    2.00
   8   0   1    9.80    2.40
  -8   8   1   11.70    2.30
  -8   8  -1    9.00    2.30
  -8   0  -1   12.70    2.60
  -8   8   1    6.90    2.10
   8   0  -1   12.30    2.20
   8  -8  -1    8.70    2.20
   9  -5  -1   64.69    6.50
   4  -9  -1   60.99    6.60
  -5   9   1   58.29    6.60
  -9   5  -1   65.09    7.20
   9  -4   1   62.69    6.50
  -4  -5   1   61.39    6.50
  -5  -4  -1   64.49    6.50
  -5  -4  -1   50.69    6.70
   4   5   1   78.49    7.50
  -9   5  -1   56.39    6.50
  -9   4   1   64.29    6.60
  -4   9  -1   59.09    7.00
  -9   4   1   61.99    7.10
   4  -9  -1   56.29    6.80
   5   4  -1   61.89    7.10
   9  -4   1   62.29    7.00
   4   5   1   54.69    6.50
  -4   9  -1   50.79    6.40
   5  -9   1   68.89    6.60
  -5   9   1   69.79    7.20
   9  -5  -1   70.19    7.00
  -9   5   1   52.69    6.50
  -9   4  -1   49.50    6.40
   9  -5   1   57.99    6.80
   4   5  -1   65.09    7.10
  -5   9  -1   54.99    7.00
   5   4   1   58.29    6.50
   4  -9   1   67.09    6.60
  -5  -4   1   76.39    7.20
   9  -4  -1   72.19    7.20
  -4  -5  -1   65.09    7.00
   5  -9  -1   60.59    6.50
  -5  -4   1   66.39    6.50
  -4  -5  -1   59.59    6.40
  -4   9   1   76.39    7.40
   9  -4  -1   61.39    6.50
  -5   9  -1   71.29    6.80
  -9   5   1   65.69    7.10
   5   4   1   57.79    7.00
  -4   9   1   65.29    6.60
  -9   4  -1   68.69    7.20
   9  -5   1   64.49    6.70
   5  -9  -1   60.09    6.90
  -6  -3  -1   10.20    2.20
   3  -9  -1    8.00    2.00
   9  -6  -1    8.70    1.80
  -9   3   1   10.30    2.40
   3   6   1    8.60    2.00
  -6   9   1   10.50    2.10
   6   3  -1   14.00    2.70
  -6   9   1    7.80    2.10
   3  -9  -1   14.10    2.30
   3   6   1    9.00    2.40
  -3  -6   1   11.60    2.10
   9  -6  -1    7.70    2.10
   6  -9   1   10.60    2.00
  -6  -3  -1    7.40    1.80
  -3   9  -1    7.80    2.00
   9  -3   1    9.10    2.20
   9  -3   1   12.50    2.00
  -9   6  -1   12.70    2.30
   6   3   1    7.90    2.20
  -9   6   1   13.00    2.10
   6  -9  -1    8.70    1.70
   6  -9  -1    6.60    1.80
  -9   3  -1    9.50    2.10
  -3  -6  -1    9.70    2.20
   9  -6   1   10.30    2.00
  -6   9  -1   10.40    2.00
   3  -9   1   14.10    2.10
   3   6  -1   13.40    2.40
  -6   9  -1    6.80    2.10
   9  -6   1    9.20    2.30
  -9   3  -1    8.20    2.20
  -3   9   1    9.90    2.40
  -3  -6  -1    7.90    1.80
  -9   6   1    9.70    2.40
   9  -3  -1   10.60    2.00
  -6  -3   1   11.00    2.00
   9  -3  -1   10.50    2.20
  -6  -3   1    9.10    2.30
   3   6  -1   10.20    2.40
   6   3   1    7.60    1.70
  -3   9   1   10.00    2.10
  -7   9   1   41.10    4.80
  -2  -7   1   28.20    4.10
  -9   2   1   39.30    4.80
   9  -2   1   29.30    4.30
  -9   7  -1   39.60    5.30
   2   7   1   36.60    4.70
   9  -7  -1   35.00    4.50
   9  -7  -1   29.60    4.60
   7  -9   1   45.00    4.40
  -9   2   1   43.10    5.00
  -2   9  -1   32.90    4.50
   7   2  -1   46.50    5.10
   2   7   1   31.10    4.90
   2  -9  -1   30.40    4.20
  -7   9   1   36.10    4.60
  -7  -2  -1   36.00    4.50
   9  -2   1   31.90    4.90
  -7  -2  -1   31.20    4.60
   2  -9  -1   32.40    5.00
   2  -9   1   31.40    5.20
  -2   9   1   36.70    5.20
   7  -9  -1   28.90    4.60
  -7   9  -1   36.90    5.10
   7   2   1   36.80    5.10
   9  -2  -1   44.50    5.00
  -2   9   1   36.80    4.70
   9  -7   1   45.90    5.70
   9  -2  -1   36.30    4.60
   7  -9  -1   27.20    4.10
  -7   9  -1   31.10    4.20
  -9   7   1   32.60    5.00
   9  -7   1   35.60    4.10
   7   2   1   41.70    4.70
  -2  -7  -1   43.50    5.70
  -7  -2   1   37.70    4.90
   2   7  -1   32.10    5.10
  -2  -7  -1   41.70    4.90
   2   7  -1   35.70    4.60
  -9   2  -1   26.90    4.20
  -9   2  -1   27.80    4.70
  -7  -2   1   37.10    4.60
   2  -9   1   39.90    4.50
  -9   7   1   35.60    4.60
   1   0   2   66.99    5.40
  -1   0  -2   69.69    5.30
   1  -1   2   55.89    5.40
  -1   1  -2   53.29    5.20
   1   0   2   70.19    5.40
  -1   0   2   64.09    5.20
   0   1  -2   63.29    5.40
   0   1  -2   54.69    5.30
   0   1   2   56.99    5.30
  -1   1  -2   68.39    5.40
   1  -1   2   57.09    5.20
   0  -1  -2   50.09    5.30
   1  -1   2   57.09    5.30
  -1   0  -2   56.19    5.30
   1   0  -2   62.39    5.40
   0  -1   2   55.59    5.20
  -1   0   2   49.40    5.20
   1  -1  -2   58.09    5.30
   1  -1  -2   56.49    5.20
   1  -1  -2   62.69    5.40
   0  -1  -2   63.89    5.30
  -1   1  -2   55.69    5.30
   1   0  -2   57.09    5.20
   0  -1  -2   58.29    5.30
   1  -1  -2   55.79    5.20
  -1   0   2   64.59    5.30
   0   1   2   65.29    5.20
  -1   0  -2   59.39    5.30
  -1   1   2   58.09    5.20
   0   1  -2   68.29    5.30
   0  -1  -2   52.69    5.20
   0  -1   2   64.49    5.40
   1  -1   2   59.79    5.30
  -1   1  -2   49.30    5.30
   1   0   2   63.89    5.20
   0  -1   2   56.39    5.40
   0   1   2   55.19    5.30
   0   1  -2   52.19    5.20
   0   1   2   58.29    5.20
  -1   0  -2   49.30    5.20
  -1   1   2   50.79    5.30
   0  -1   2   50.39    5.20
  -1   1   2   62.59    5.20
  -1   1   2   54.99    5.30
   1   0  -2   48.70    5.30
   2  -1  -2 5816.12  508.15
   1   1  -2 5520.15  508.15
   1   1   2 6248.38  508.15
  -1   2   2 5679.93  508.25
  -1  -1  -2 5307.27  508.15
   1  -2   2 6226.68  508.15
   1  -2   2 5298.67  508.15
   2  -1   2 5477.55  508.05
   1   1   2 5647.93  508.25
   1   1   2 5463.95  508.25
  -2   1  -2 5845.42  508.15
   1  -2  -2 5674.53  508.05
  -1   2  -2 5915.71  508.15
  -1   2  -2 6086.29  508.15
  -2   1  -2 5559.34  508.25
   2  -1   2 5615.94  508.25
   2  -1  -2 5768.12  508.15
   2  -1  -2 6185.08  508.25
   1  -2  -2 6236.18  508.15
  -1  -1   2 5423.56  508.05
  -1  -1   2 5547.65  508.25
  -1  -1  -2 5686.13  508.25
   1   1  -2 5898.11  508.15
   1  -2   2 5906.31  508.15
   1  -2   2 5571.24  508.25
   1   1  -2 5476.35  508.25
  -2   1   2 5312.47  508.25
  -1  -1   2 4888.41  508.15
   2  -1   2 5636.74  508.25
  -1  -1  -2 6437.56  508.15
  -1  -1   2 5672.93  508.15
   1  -2  -2 5878.01  508.25
  -1   2  -2 5022.50  508.15
  -1  -1  -2 5794.52  508.15
   1  -2  -2 5577.54  508.15
   2  -1  -2 5817.62  508.25
   2  -1   2 6366.56  508.15
  -2   1   2 6513.45  508.15
  -2   1   2 5863.31  508.05
  -1   2   2 6217.48  508.05
  -2   1  -2 5729.53  508.25
   1   1   2 6125.09  508.05
  -1   2   2 6594.74  508.15
   2  -2  -2 5184.18  476.75
   2  -2  -2 5967.00  476.65
  -2   2  -2 5837.52  476.65
   2   0  -2 4854.11  476.75
   0  -2   2 6150.68  476.65
   0  -2  -2 5062.49  476.65
   2  -2   2 5962.50  476.95
   0   2   2 5128.69  476.55
   0   2  -2 5455.05  476.65
   2   0  -2 5723.63  476.65
   2   0   2 5705.83  476.65
  -2   2  -2 6158.98  476.85
  -2   0  -2 5535.85  476.65
   2  -2   2 6002.00  476.65
  -2   0   2 5155.48  476.75
   0  -2  -2 5048.90  476.55
   2   0   2 5304.77  476.75
   2   0  -2 5386.26  476.65
  -2   0  -2 5144.09  476.75
   2   0   2 5188.68  476.75
   0   2  -2 5105.49  476.75
   2   0  -2 5238.38  476.85
  -2   2  -2 5110.69  476.65
  -2   0   2 5225.48  476.55
  -2   2   2 5362.66  476.55
  -2   0  -2 5126.59  476.75
   2  -2   2 4940.91  476.55
   2  -2  -2 5049.99  476.55
   0   2  -2 5408.86  476.65
   0  -2   2 5580.84  476.65
  -2   0  -2 6181.78  476.75
   0   2   2 5430.86  476.75
   0   2   2 5544.75  476.75
   0  -2   2 5468.35  476.75
   0  -2  -2 5878.51  476.75
  -2   2   2 4790.02  476.75
  -2   0   2 5076.49  476.65
   2  -2  -2 5821.72  476.85
  -2   2   2 5136.09  476.55
  -3   2  -2    0.10    0.50
  -3   2  -2    0.40    0.40
  -3   1   2    0.10    0.30
  -2  -1  -2    0.40    0.40
  -3   2  -2    1.00    0.50
   2   1  -2    0.20    0.50
   1   2   2    0.30    0.40
  -1  -2   2    0.30    0.40
  -2   3   2    0.40    0.40
  -2   3   2    0.00    0.40
   3  -2  -2    0.20    0.30
   2  -3   2    0.10    0.40
  -2  -1  -2    0.20    0.40
  -2  -1  -2    0.70    0.60
  -1   3  -2    0.20    0.40
   1   2   2    0.30    0.40
   1  -3  -2    0.20    0.40
  -1   3  -2    0.20    0.60
   2   1  -2    1.00    0.50
   2  -3   2    0.20    0.40
   3  -1   2    0.10    0.40
   3  -2  -2    0.30    0.40
   1  -3  -2    0.50    0.40
   2   1  -2    0.50    0.50
  -3   1   2   -0.20    0.40
  -3   1   2    0.30    0.50
   2   1  -2    1.00    0.60
   1  -3  -2    0.90    0.60
   1   2   2    0.40    0.50
  -1  -2   2    0.20    0.50
   1  -3  -2   -0.10    0.40
  -3   1   2    0.20    0.40
  -1   3  -2    0.30    0.40
   1   2   2    0.50    0.50
   2  -3   2    0.60    0.40
   3  -1   2    1.30    0.40
  -1   3  -2    0.30    0.40
   3  -1   2   -0.10    0.40
   3  -2  -2    0.50    0.50
  -3   2  -2    0.60    0.60
  -1  -2   2    0.00    0.30
  -1  -2   2    0.90    0.60
  -2   3   2   -0.20    0.50
   2  -3   2    3.70    0.70
  -2   3   2    0.30    0.50
   2  -3  -2    0.50    0.40
  -2  -1   2    0.30    0.50
  -2  -1   2    0.60    0.40
  -2   3  -2    1.70    0.70
  -2   3  -2   -0.10    0.50
   1   2  -2    1.50    0.60
  -1   3   2    0.10    0.40
  -3   1  -2    0.10    0.50
   2  -3  -2    0.40    0.40
   1  -3   2    0.40    0.60
   1  -3   2    0.10    0.50
  -3   2   2   -0.20    0.40
  -3   2   2    0.00    0.30
  -1   3   2    0.80    0.50
   1   2  -2    0.20    0.50
  -3   1  -2    0.50    0.50
   1   2  -2    0.00    0.30
  -2   3  -2    1.00    0.40
   3  -2   2    0.10    0.40
   3  -1  -2    0.10    0.30
   2   1   2    0.30    0.40
   1   2  -2    0.40    0.30
  -3   2   2    0.90    0.50
   2   1   2    0.00    0.50
   2   1   2    1.00    0.60
  -1  -2  -2    0.40    0.50
  -1  -2  -2    0.00    0.30
  -2  -1   2   -0.10    0.30
  -1  -2  -2    0.60    0.50
  -1   3   2    0.20    0.40
   1  -3   2    0.00    0.30
   3  -2   2    0.70    0.40
   2  -3  -2    0.10    0.50
   3  -1  -2   -0.10    0.40
   3  -2   2    0.00    0.30
  -2  -1   2    0.20    0.40
   3  -2   2    0.30    0.50
  -3   2   2    0.60    0.50
  -2   3  -2    0.40    0.40
  -3   1  -2    0.30    0.40
   1  -3   2    0.00    0.40
  -1  -2  -2    0.40    0.40
   3  -1  -2    0.10    0.50
   2  -3  -2   -0.10    0.30
   2   1   2    0.00    0.40
  -3   1  -2    0.00    0.40
   3  -1  -2    0.10    0.40
  -3   3  -2 3945.41  350.46
   0   3   2 3888.91  350.46
   3  -3   2 3896.01  350.46
  -3   3  -2 4149.48  350.36
   0  -3   2 3822.02  350.46
  -3   3   2 3974.80  350.26
   3  -3   2 3686.03  350.46
   3  -3  -2 4624.54  350.36
  -3   0  -2 4452.95  350.36
   0   3  -2 3853.91  350.26
  -3   3  -2 4085.39  350.26
   0  -3  -2 3964.90  350.46
   3   0   2 3598.14  350.26
  -3   0  -2 3761.52  350.26
   3   0  -2 3960.10  350.26
   0   3   2 4438.46  350.36
   0   3   2 4099.69  350.26
  -3   0  -2 3868.91  350.46
   0   3   2 3810.22  350.36
   3   0  -2 3964.10  350.26
  -3   3   2 3761.72  350.46
   3  -3  -2 3753.42  350.46
   0  -3   2 4277.37  350.26
   0   3  -2 3546.25  350.36
   0  -3   2 4436.26  350.56
  -3   0   2 3731.33  350.26
  -3   0   2 3517.75  350.36
   0  -3  -2 4204.58  350.26
   3  -3   2 4039.20  350.26
   3   0   2 4167.98  350.66
  -3   0   2 4006.00  350.26
   0  -3   2 3952.20  350.26
   3  -3  -2 4045.60  350.36
   3   0   2 3926.91  350.26
   3   0   2 3786.02  350.46
  -3   0  -2 4262.07  350.56
   0  -3  -2 3733.43  350.26
  -3   3   2 3804.42  350.26
  -3   3   2 3587.74  350.36
   3   0  -2 4455.95  350.66
   3  -3  -2 4101.79  350.56
  -3   0   2 4303.57  350.66
   2   2  -2  710.83   68.09
   4  -2   2  700.13   68.09
  -2  -2  -2  787.42   68.39
   2   2   2  773.02   68.39
   2   2  -2  773.12   68.49
  -4   2   2  725.73   68.09
  -2  -2  -2  795.82   68.09
  -2   4   2  778.92   68.09
   2  -4  -2  761.12   68.09
   2  -4  -2  751.12   68.19
   2  -4  -2  770.62   68.29
  -2  -2  -2  714.33   68.19
  -2  -2   2  728.13   68.29
  -2   4   2  735.43   68.29
  -4   2   2  734.93   68.39
  -4   2  -2  791.62   68.49
  -4   2   2  701.73   68.29
  -4   2   2  868.61   68.19
   2   2   2  777.22   68.39
  -2  -2  -2  794.62   68.09
   4  -2  -2  773.72   68.09
   2  -4   2  704.13   68.09
  -2   4  -2  792.62   68.09
   4  -2  -2  876.11   68.59
  -2  -2   2  769.92   67.99
  -2   4  -2  845.42   68.39
   2  -4   2  774.92   68.19
   2   2   2  892.71   68.19
  -2   4   2  695.53   67.99
  -2   4   2  858.31   68.49
  -2  -2   2  776.92   68.09
   4  -2   2  813.22   68.39
  -4   2  -2  750.82   68.09
  -4   2  -2  727.43   68.09
  -4   2  -2  806.02   68.39
   2  -4   2  797.92   68.39
   4  -2   2  648.74   68.29
   2   2  -2  837.52   68.39
  -2   4  -2  643.24   68.29
   2   2   2  738.93   68.09
  -2  -2   2  896.11   68.69
  -2   4  -2  705.83   68.19
   4  -2  -2  817.02   68.49
  -4   1   2  155.88   15.10
   1  -4  -2  176.58   15.20
  -3   4   2  182.38   14.80
   1   3   2  157.98   14.80
  -4   1   2  176.98   14.90
   4  -1   2  151.88   14.80
  -4   3  -2  175.98   15.10
  -3   4   2  129.29   15.00
  -1  -3   2  162.58   14.80
   1  -4  -2  163.68   14.80
  -4   1   2  148.19   15.00
   1  -4  -2  165.48   14.90
  -4   1   2  172.78   15.60
   4  -1   2  159.18   15.20
  -3  -1  -2  164.68   15.10
   3  -4   2  165.08   14.90
   4  -1   2  171.58   15.20
  -4   3  -2  163.18   14.90
  -3   4   2  175.88   14.90
   3   1  -2  164.28   14.90
  -3  -1  -2  186.68   15.20
   4  -3  -2  185.78   15.30
   4  -3  -2  174.68   15.10
   3   1  -2  170.18   15.10
  -3  -1  -2  151.08   14.80
   1   3   2  151.78   14.80
   4  -1   2  158.78   14.80
  -1  -3  -2  162.58   14.80
  -1   4   2  160.98   15.10
   4  -1  -2  163.38   14.90
  -3  -1   2  155.58   14.80
   3   1   2  140.09   15.00
  -4   3   2  153.18   15.00
  -4   3   2  144.19   15.10
  -1  -3  -2  159.98   15.00
   3  -4  -2  165.68   15.20
  -4   3   2  143.09   14.70
   4  -3   2  171.98   14.90
  -4   1  -2  161.08   15.10
  -3  -1   2  164.38   15.20
   3   1   2  167.68   14.80
  -1   4   2  173.38   14.90
   4  -3   2  190.58   15.30
  -4   1  -2  151.38   14.80
   1   3  -2  201.88   15.30
  -4   3   2  154.88   14.80
  -1   4   2  159.88   14.80
   3   1   2  169.98   14.90
   3  -4  -2  193.98   15.20
   4  -1  -2  139.69   15.10
  -1  -3  -2  183.58   15.20
   4  -1  -2  128.89   15.20
  -1   4   2  150.68   15.10
   4   0  -2 3984.20  336.17
  -4   4  -2 3614.84  335.97
   4  -4   2 3433.16  336.37
  -4   0   2 3765.32  336.27
   0  -4   2 3585.84  336.27
   0  -4  -2 3623.74  336.07
  -4   4  -2 3869.31  336.07
  -4   0   2 3871.81  336.47
   0   4   2 3742.93  335.97
  -4   4   2 4081.29  336.17
   4   0  -2 3897.71  336.07
   0   4  -2 3889.01  336.07
   0   4  -2 3957.70  336.27
   4  -4   2 4206.58  336.37
   4   0   2 4043.00  336.07
  -4   0  -2 3707.93  336.07
   0   4  -2 4069.19  336.57
  -4   0  -2 3938.31  336.27
   4  -4   2 4229.98  336.17
  -4   4  -2 3551.94  336.37
  -4   4  -2 3484.25  336.27
   0   4  -2 3470.85  335.97
   0  -4   2 3763.12  336.37
  -4   0   2 4048.19  336.07
   4   0   2 4252.87  336.37
   0  -4   2 3411.36  335.97
   4  -4  -2 3218.48  335.97
   4   0  -2 4041.70  336.47
   4   0  -2 3983.10  336.37
   3   2  -2  103.59   10.40
  -2   5  -2  100.79   10.10
  -2  -3   2  103.79   10.00
   5  -3  -2   99.59   10.20
   3  -5   2  100.29   10.40
   5  -3  -2  111.39   10.40
  -2   5  -2  127.99   10.70
   5  -3  -2  114.99   10.00
   3  -5   2  110.39   10.40
   5  -2   2  125.69   10.50
   2  -5  -2  110.79   10.10
   5  -2   2  110.29   10.10
  -3  -2  -2   96.79    9.90
   2  -5  -2  120.29   10.30
  -5   2   2   98.49   10.20
  -2  -3   2   99.29   10.30
   3   2  -2   96.99   10.00
   2  -5  -2  108.39   10.40
  -5   3  -2   94.79   10.30
  -2   5  -2   99.19   10.00
  -3  -2  -2  121.09   10.00
   2   3   2  114.79   10.00
  -5   2   2   97.39   10.20
  -5   3  -2  108.59   10.30
  -2  -3   2  105.59   10.00
   3   2  -2  100.99    9.90
  -3   5   2  110.39   10.30
  -3   5   2  106.09   10.00
   5  -2   2  108.29   10.00
   2  -5  -2  126.29   10.10
  -5   3  -2  112.69   10.10
  -2  -3   2  103.19   10.30
  -3  -2  -2  113.59   10.30
  -5   2   2   99.09    9.90
   2   3   2  107.79   10.30
   3  -5   2  136.49   10.20
  -3  -2  -2  106.49   10.20
  -2   5  -2  106.99   10.10
   5  -2   2   97.79   10.20
   3  -5   2  118.99   10.10
  -5   2   2  121.19   10.30
   5  -3  -2  116.99   10.10
  -3   5   2  113.29   10.50
   5  -3   2   98.59   10.20
  -3  -2   2  125.49   10.10
   5  -2  -2  113.29   10.10
   2  -5   2  107.39   10.40
   3   2   2  117.69   10.40
   3   2   2  109.99   10.30
   5  -2  -2  104.39   10.00
   2   3  -2  112.49   10.00
   5  -3   2  113.49   10.40
  -5   2  -2  100.59    9.90
  -5   3   2  120.39   10.40
   5  -2  -2  101.99   10.30
   5  -3   2  100.09   10.00
   5  -3   2  115.49   10.00
  -5   2  -2   95.89   10.00
  -3   5  -2  107.99   10.20
  -3  -2   2  113.79   10.00
  -5   2  -2  113.59   10.40
   5  -2  -2   97.29   10.20
  -2  -3  -2   99.69   10.20
   2   3  -2   98.69   10.00
  -5   2  -2  107.89   10.30
  -2  -3  -2  104.59    9.90
  -5   3   2   99.99   10.30
  -3   5  -2  103.59   10.10
  -3   5  -2   99.29   10.40
   2  -5   2   99.49    9.90
  -3   5  -2   87.89    9.90
  -2  -3  -2  110.49   10.00
  -3  -2   2  103.59   10.20
   3  -5  -2   83.49    9.90
   2   3  -2   94.89   10.20
   3   2   2  133.89   10.30
   2   3  -2   94.29   10.20
   3  -5  -2   90.59   10.10
  -2   5   2   94.59   10.30
  -2   5   2  109.49   10.10
   2  -5   2  104.69   10.30
   3  -5  -2   98.69   10.10
  -3  -2   2  105.99   10.30
  -5   3   2  113.19   10.00
   3  -5  -2  109.99   10.40
  -1   5  -2 1585.24  135.09
  -1  -4   2 1663.43  135.39
   1   4   2 1643.04  135.09
  -1   5  -2 1467.25  134.89
  -5   4  -2 1616.44  135.09
   4  -5   2 1525.75  135.09
   5  -1   2 1508.15  135.29
   1   4   2 1467.75  134.89
   1  -5  -2 1609.54  135.09
   1  -5  -2 1551.74  134.99
  -4   5   2 1531.05  134.89
   1  -5  -2 1726.43  135.49
  -1  -4   2 1420.36  134.89
  -5   4  -2 1407.06  134.99
  -5   1   2 1687.03  134.99
   5  -1   2 1465.15  134.99
   5  -4  -2 1524.15  135.29
  -1   5  -2 1445.66  135.19
   4   1  -2 1485.65  134.99
   1   4   2 1620.54  135.29
  -5   1   2 1386.26  134.89
  -4  -1  -2 1737.23  135.09
   1  -5  -2 1410.76  135.19
  -4  -1  -2 1730.13  135.39
  -5   1   2 1605.54  135.29
  -1   5  -2 1660.23  135.49
  -4   5   2 1613.44  134.99
   4  -5   2 1534.45  134.99
  -1  -4   2 1593.54  135.39
   4  -5   2 1585.34  135.29
   5  -1   2 1512.35  134.99
  -4   5   2 1501.45  135.19
  -4  -1  -2 1704.03  135.59
   5  -1   2 1548.45  135.39
  -5   1   2 1548.25  135.39
   1   4   2 1499.35  135.39
   4  -5   2 1398.56  135.39
   5  -4  -2 1648.94  135.09
   4   1  -2 1307.67  134.89
  -4  -1  -2 1537.75  134.99
  -5   4  -2 1617.64  135.29
  -4   5   2 1591.74  135.39
  -1  -4   2 1532.95  134.89
   4   1  -2 1481.85  135.29
   5  -4  -2 1665.43  135.09
   1  -5   2 1599.74  135.29
  -4   5  -2 1500.75  135.09
  -1   5   2 1541.65  134.89
   5  -4   2 1589.04  134.99
   5  -1  -2 1403.26  134.99
   4  -5  -2 1689.23  135.09
  -5   1  -2 1676.23  135.39
  -5   4   2 1485.25  134.99
   4  -5  -2 1730.03  135.39
   1   4  -2 1582.34  135.39
  -4  -1   2 1449.06  135.29
   1  -5   2 1455.45  134.99
  -5   4   2 1412.66  135.19
   5  -1  -2 1723.83  135.49
   4  -5  -2 1487.45  135.39
  -4   5  -2 1523.35  135.39
  -1   5   2 1549.45  135.39
  -5   1  -2 1564.74  135.49
   5  -4   2 1440.46  135.29
  -5   1  -2 1482.15  134.99
   4   1   2 1373.86  134.89
  -1  -4  -2 1433.66  135.19
   4   1   2 1418.26  135.29
   1   4  -2 1323.47  134.89
  -4  -1   2 1361.76  134.89
   1  -5   2 1498.05  134.99
   1  -5   2 1419.86  135.29
   5  -4   2 1732.53  135.19
  -1   5   2 1595.34  135.29
  -1   5   2 1531.65  134.99
  -4   5  -2 1512.65  135.29
  -4  -1   2 1656.33  135.09
  -5   4   2 1342.47  134.89
   5  -4   2 1495.35  135.39
  -4   5  -2 1373.56  134.89
   1   4  -2 1423.36  135.29
   4  -5  -2 1555.74  134.99
  -1  -4  -2 1430.86  135.29
  -5   1  -2 1526.65  134.99
  -5   4   2 1398.76  135.29
   4   1   2 1342.17  135.29
   5  -5  -2   57.89    5.70
   0   5   2   53.79    5.60
   0  -5  -2   48.30    5.70
   0   5  -2   48.20    5.90
   0   5  -2   59.09    6.00
  -5   0  -2   54.49    5.60
   5  -5   2   55.39    6.10
  -5   5   2   64.29    5.70
  -5   5  -2   52.39    5.60
   5  -5  -2   60.29    6.10
   5  -5   2   65.49    5.80
   5   0  -2   54.79    5.60
   5   0   2   60.69    5.60
   5  -5   2   65.49    6.00
  -5   5  -2   50.59    5.90
  -5   0   2   58.39    6.00
   0  -5   2   57.29    5.60
  -5   5   2   56.89    6.00
   0   5   2   46.90    5.80
   5   0   2   57.49    6.00
  -5   0   2   58.89    5.70
  -5   0   2   50.29    5.50
   5  -5   2   46.80    5.50
  -5   5   2   45.00    5.50
   0  -5   2   62.59    6.00
  -5   5   2   48.60    5.80
  -5   0  -2   68.49    6.10
  -5   0  -2   50.89    5.80
  -5   5  -2   60.19    5.70
   5   0  -2   53.59    5.60
   0  -5   2   57.19    5.70
   5   0   2   49.40    5.80
  -5   0   2   58.69    5.90
   5   0  -2   61.49    6.10
   0  -5  -2   64.79    5.70
   0  -5   2   50.69    5.70
   0   5   2   59.39    5.60
   5   0  -2   50.09    5.80
  -5   5  -2   56.89    5.90
   0   5  -2   54.89    5.60
   5  -5  -2   49.70    5.80
   0  -5  -2   57.69    5.60
   0   5   2   56.29    6.00
  -5   0  -2   53.59    5.60
   5  -5  -2   66.69    5.80
   3  -6   2  801.42   74.59
   3   3   2  765.12   74.99
  -3  -3  -2  980.70   75.19
   3  -6   2  875.71   75.09
  -3   6  -2 1003.60   75.09
   6  -3   2  919.31   74.89
   3   3  -2  747.53   74.59
  -3  -3   2  810.82   74.59
  -3  -3   2  839.42   74.69
   3   3  -2  882.51   74.69
  -6   3   2  799.92   75.09
   3   3  -2  947.11   75.19
   6  -3   2  895.01   74.79
   3  -6   2  853.51   74.79
  -3  -3  -2  828.52   74.59
   6  -3   2  751.62   75.09
  -6   3   2  836.92   75.09
  -6   3   2  893.51   74.79
   3   3   2  816.52   75.09
   6  -3  -2  835.22   74.69
   3   3   2  808.72   74.69
  -3   6   2  824.52   74.69
  -6   3   2  817.42   74.69
  -3  -3   2  840.02   75.09
   3  -6  -2  894.51   75.19
  -3   6  -2  823.42   75.09
  -3  -3  -2  754.42   74.59
   6  -3  -2  910.31   74.69
  -6   3  -2 1010.10   74.99
  -6   3  -2  749.73   74.59
  -6   3  -2  718.43   74.89
  -3   6  -2  752.72   74.69
   3  -6  -2  812.32   74.69
   3  -6  -2  759.92   74.59
  -3  -3   2  867.41   75.09
   3  -6   2  895.41   75.19
  -3   6   2  847.92   74.59
   2   4   2 1587.24  153.18
   6  -2   2 1518.65  152.88
   4  -6   2 1811.22  152.88
  -4   6   2 1612.14  153.18
   6  -2   2 1741.73  153.38
  -2   6  -2 1752.42  153.48
  -4   6   2 1882.01  153.48
  -6   4  -2 1497.25  152.78
  -4  -2  -2 1749.12  153.18
  -4   6   2 1889.01  152.98
   2  -6  -2 1825.12  153.28
   2   4   2 1630.74  152.78
  -6   2   2 1745.83  152.88
  -6   2   2 1775.12  153.28
  -6   2   2 1705.83  153.38
  -2  -4   2 1927.31  152.88
   4   2  -2 1578.74  152.88
   4   2  -2 1548.84  153.08
   6  -2   2 1736.73  152.78
  -2   6  -2 1899.81  153.28
  -2  -4   2 1596.84  153.18
   6  -2   2 1565.64  153.18
   4  -6   2 1690.93  153.18
  -4   6   2 1583.94  152.78
   2   4   2 1986.60  153.38
  -4  -2  -2 1576.74  153.08
  -2  -4   2 1658.53  153.08
  -4  -2  -2 1854.01  152.88
   6  -4  -2 1808.42  153.38
  -6   4  -2 1761.92  152.98
   6  -4  -2 1882.71  152.98
  -2  -4   2 1731.33  152.88
  -6   2   2 1530.65  152.78
  -2   6  -2 1806.22  152.98
   4  -6   2 1958.90  153.08
   4  -6   2 1876.51  153.48
   6  -4  -2 1557.04  153.08
  -6   4  -2 1493.15  153.08
  -6   4  -2 1932.81  153.38
   2  -6  -2 1564.64  152.78
  -4  -2   2 1945.31  153.28
  -4   6  -2 1818.12  153.08
  -4   6  -2 1739.13  153.28
  -6   4   2 1896.11  153.38
  -2   6   2 1933.81  152.98
   6  -2  -2 1596.84  153.08
  -6   4   2 1728.23  152.88
   2  -6   2 1799.02  152.98
  -2   6   2 1688.43  153.18
  -2   6   2 1781.02  153.38
   6  -4   2 1600.84  153.08
   6  -2  -2 1724.43  152.88
  -6   2  -2 1666.53  152.88
   2   4  -2 1823.72  153.28
   4   2   2 1694.73  153.28
  -4  -2   2 1995.00  152.98
  -6   2  -2 1741.93  152.78
  -2   6   2 1727.13  152.78
  -6   2  -2 1818.92  153.28
   4  -6  -2 1752.72  153.38
   4  -6  -2 1619.34  153.08
   4  -6  -2 1696.83  152.88
  -2  -4  -2 1766.82  153.28
  -6   4   2 1932.71  153.38
  -6   4   2 1796.12  152.88
   6  -4   2 1750.62  153.38
   4   2   2 1605.14  153.08
  -4  -2   2 1610.24  153.08
  -4   6  -2 1546.95  153.08
   2   4  -2 1940.81  153.38
  -2  -4  -2 1728.63  152.88
   6  -2  -2 1714.83  153.28
  -4  -2   2 1545.35  152.78
  -2  -4  -2 1565.94  152.78
  -6   2  -2 1805.12  153.38
   2  -6   2 1888.61  153.38
   2  -6   2 1510.85  153.08
   6  -4   2 1649.04  152.88
   6  -2  -2 1949.70  152.98
   4   2   2 1629.94  152.78
   2   4  -2 1634.84  152.88
   4   2   2 1862.11  152.98
  -1   6  -2   19.40    2.80
   1  -6  -2   15.00    2.30
  -1  -5   2   16.40    2.40
   5  -6   2   19.70    2.40
   5  -6   2   16.80    2.80
  -5  -1  -2   17.10    2.80
   6  -5  -2   19.60    2.90
   6  -5  -2   18.00    2.50
  -1   6  -2   25.40    2.80
   5  -6   2   18.90    2.60
  -5   6   2   17.60    2.40
   6  -1   2   18.00    2.50
  -5  -1  -2   16.00    2.80
   6  -5  -2   25.90    3.00
   5  -6   2   14.40    2.50
   5   1  -2   17.90    2.60
   6  -5  -2   13.80    2.60
  -1  -5   2   22.40    2.70
   1   5   2   15.10    2.20
  -5   6   2   15.40    2.70
  -5   6   2   18.00    2.90
   6  -1   2   15.40    2.70
  -5  -1  -2   17.40    2.50
  -6   1   2   20.40    2.50
  -6   1   2   12.90    2.60
  -6   1   2   17.50    2.70
  -6   5  -2   18.80    2.80
   6  -1   2   14.40    2.50
   1   5   2   20.50    3.00
  -1  -5   2   16.90    2.80
   5   1  -2   20.40    3.00
  -5   6   2   24.70    2.80
   1  -6  -2   19.80    2.50
   1  -6  -2   16.50    2.80
   1   5   2   14.10    2.30
  -6   1   2   11.20    2.10
   1  -6  -2   14.40    2.60
   1   5   2   21.20    2.90
   5   1  -2   15.40    2.40
  -6   5  -2   12.80    2.60
  -1  -5   2   22.40    3.20
   5   1  -2   16.60    2.80
  -1   6  -2   15.60    2.30
  -1   6  -2   22.00    3.20
  -6   5  -2   17.30    2.60
  -1  -5  -2   13.60    2.40
   5  -6  -2   16.10    2.70
  -5   6  -2   14.50    2.70
   6  -5   2   18.50    3.00
   5  -6  -2   14.00    2.50
   1  -6   2   17.50    2.70
  -6   5   2   15.30    2.60
   6  -1  -2   18.30    2.90
   5   1   2   14.00    2.70
   6  -1  -2   19.10    2.50
  -1   6   2   16.00    2.20
   5   1   2   21.10    2.60
   5  -6  -2   31.30    3.10
   6  -1  -2   17.40    2.50
  -1   6   2   15.30    2.60
  -1   6   2   17.30    2.70
   1   5  -2   18.20    3.00
   1   5  -2   20.10    2.90
   1  -6   2   19.20    2.40
  -6   1  -2   12.90    2.30
  -5   6  -2   13.60    2.30
   1  -6   2   17.80    2.50
  -5   6  -2   25.20    3.10
  -6   1  -2   23.10    2.80
  -6   1  -2   25.90    3.40
  -6   5   2   20.70    2.70
   1  -6   2   18.80    3.10
  -1  -5  -2   22.20    2.60
   5   1   2   19.70    2.50
  -6   5   2   22.00    2.70
  -5  -1   2   17.00    2.90
   6  -5   2   27.70    2.90
  -1   6   2   15.70    2.40
  -6   5   2   14.40    2.50
  -5  -1   2   13.70    2.50
   5   1   2   16.10    2.80
  -6   1  -2   12.60    2.40
  -1  -5  -2   23.90    3.20
   6  -1  -2   20.00    3.10
   1   5  -2   17.30    2.50
   6  -5   2   15.90    2.60
  -1  -5  -2   15.60    2.40
   5  -6  -2   15.00    2.40
   6  -5   2   13.40    2.30
  -5  -1   2   17.50    2.40
   6  -6  -2  441.76   41.10
  -6   0   2  432.36   41.00
   0  -6  -2  446.56   41.40
   6  -6  -2  433.86   41.10
   6  -6   2  491.35   41.20
  -6   0  -2  499.55   41.60
   0   6  -2  423.86   41.00
   0   6   2  386.96   41.00
   0   6  -2  427.36   41.40
   0   6   2  517.05   41.10
   6   0   2  527.95   41.30
   0  -6   2  424.86   41.40
  -6   6  -2  485.05   41.20
  -6   0  -2  496.45   41.60
  -6   6   2  473.85   41.10
  -6   0  -2  413.06   41.10
  -6   0   2  407.76   41.00
   6   0   2  477.85   41.60
  -6   6   2  443.06   41.50
   0  -6   2  382.96   41.20
  -6   0  -2  472.25   41.20
   6   0   2  411.96   40.90
  -6   0   2  506.45   41.60
   6   0  -2  433.96   41.10
   0   6   2  447.46   41.60
  -6   6  -2  536.35   42.10
   0  -6  -2  491.85   41.40
   6  -6  -2  528.25   41.90
  -6   6   2  433.36   41.50
  -6   6  -2  455.45   41.40
   0  -6  -2  420.46   41.10
   0  -6  -2  412.56   40.90
   6   0  -2  429.76   41.50
   0  -6   2  552.94   41.30
   0  -6   2  490.35   41.10
  -6   6  -2  431.56   41.10
   6  -6  -2  381.56   41.30
   6  -6   2  411.26   41.10
   6  -6   2  535.45   41.70
   6   0   2  523.35   41.80
   0   6  -2  505.65   41.30
   0   6   2  456.95   41.50
   0   6  -2  468.15   41.70
  -6   0   2  495.45   41.60
   6  -6   2  419.76   41.60
  -3  -4   2   17.70    2.80
  -4  -3  -2   16.80    2.80
  -3   7  -2   16.50    2.70
  -3  -4   2   19.50    3.10
   4  -7   2   15.30    2.50
  -3   7  -2   20.70    3.20
  -7   4  -2   17.70    2.60
  -7   3   2   16.50    2.80
   4  -7   2   14.60    2.80
   7  -4  -2   17.70    2.70
   7  -3   2   14.80    2.70
  -4   7   2   17.30    3.00
  -4  -3  -2   13.70    2.30
   3  -7  -2   15.20    2.60
  -7   3   2   17.20    2.50
   4   3  -2   17.40    2.90
   3  -7  -2   25.10    3.40
  -4   7   2   16.70    2.40
   3   4   2   15.00    2.30
   7  -3   2   15.90    2.70
  -7   3   2   13.90    2.30
   7  -4  -2   12.30    2.60
  -3   7  -2   17.20    2.40
  -7   4  -2   16.00    2.90
  -3   7  -2   17.50    2.80
  -4   7   2   21.90    3.00
  -4  -3  -2   18.90    2.80
  -3  -4   2   15.10    2.40
   4   3  -2   13.10    2.30
   3   4   2   19.60    2.60
  -4   7   2   21.50    2.60
   3  -7  -2   18.10    2.60
   7  -3   2   14.80    2.40
   3  -7  -2   14.70    2.30
   7  -4  -2   17.50    2.90
  -7   4  -2   13.60    2.60
   3   4   2   19.70    2.90
   4  -7   2   20.90    2.70
   4  -7   2   14.90    2.80
  -7   3   2   19.30    2.80
   4   3  -2   16.60    2.50
   4   3  -2   14.50    2.80
  -4  -3  -2   17.60    2.60
   7  -3   2   19.80    2.60
   7  -4  -2   26.20    2.90
  -3  -4   2   12.70    2.20
  -4  -3   2   19.90    3.10
  -4   7  -2   17.40    3.10
  -3   7   2   18.20    3.00
   7  -3  -2   15.90    2.70
   3   4  -2    8.60    2.00
   3  -7   2   18.90    2.50
  -7   4   2   16.20    2.70
   7  -4   2   16.80    2.50
   4  -7  -2   21.20    2.80
   4  -7  -2   19.70    3.00
   4   3   2   13.10    2.30
   7  -3  -2   19.70    2.70
   3  -7   2    9.50    2.10
   3  -7   2   24.20    3.50
  -3  -4  -2   18.80    2.50
  -3   7   2   26.00    3.20
   7  -4   2   13.00    2.60
   7  -4   2   16.20    2.40
  -4  -3   2   17.20    2.50
   7  -4   2   18.60    2.80
   3   4  -2   15.30    2.40
  -3   7   2   14.50    2.30
   7  -3  -2   20.60    2.80
  -7   3  -2   15.50    2.50
  -7   4   2   21.50    2.70
   4   3   2   16.60    2.90
   4   3   2   15.20    2.70
  -7   3  -2   13.40    2.60
  -3  -4  -2   15.20    2.80
  -3  -4  -2   19.60    3.00
  -4   7  -2   19.50    2.70
  -4   7  -2   24.30    2.70
  -7   3  -2   14.50    2.40
   4  -7  -2   15.70    2.40
  -7   3  -2   18.60    2.90
  -4  -3   2   24.90    3.30
   4  -7  -2   13.70    2.60
  -3   7   2   23.20    3.00
  -4  -3   2   17.60    2.40
   3   4  -2   13.60    2.60
  -7   4   2   13.50    2.80
   4   3   2   17.20    2.50
  -7   4   2   18.40    2.50
  -3  -4  -2   19.90    2.60
   3  -7   2   18.60    2.80
   7  -3  -2   20.90    3.10
   5  -7   2  615.84   55.19
  -7   2   2  622.34   55.39
   7  -5  -2  557.84   55.09
   5  -7   2  622.04   55.49
  -2  -5   2  594.54   55.49
  -5  -2  -2  591.64   55.39
   5  -7   2  607.14   55.09
  -7   2   2  620.24   55.69
  -2  -5   2  609.84   55.09
   7  -2   2  521.25   55.29
  -2   7  -2  579.54   54.99
   2  -7  -2  637.44   55.69
  -7   5  -2  560.74   55.49
   2   5   2  601.84   55.69
   2  -7  -2  587.84   55.39
   5   2  -2  718.73   55.29
   2  -7  -2  601.54   55.09
  -2  -5   2  626.44   55.19
  -5  -2  -2  613.64   55.09
   2  -7  -2  576.54   55.09
   2   5   2  543.35   55.29
  -2  -5   2  706.33   55.79
  -5  -2  -2  609.14   55.09
  -7   5  -2  514.25   54.99
   2   5   2  638.24   55.09
  -5   7   2  579.84   55.09
  -5   7   2  569.54   55.39
   5   2  -2  618.84   55.09
   7  -5  -2  660.73   55.09
  -5   7   2  671.83   55.69
  -2   7  -2  588.64   55.59
  -2   7  -2  636.54   55.49
   5   2  -2  709.93   55.79
  -5  -2  -2  643.94   55.49
  -7   5  -2  707.03   55.69
  -5   7   2  568.44   54.99
   7  -2   2  576.74   54.99
   5  -7   2  682.73   55.89
   2   5   2  628.84   55.09
  -2   7  -2  593.54   55.29
   7  -2   2  699.03   55.19
   5  -7  -2  615.64   55.19
   2  -7   2  707.93   55.29
   5   2   2  664.73   55.69
  -2   7   2  548.65   55.29
  -5   7  -2  625.44   55.09
   2   5  -2  662.33   55.49
  -5   7  -2  618.04   55.49
  -7   2  -2  516.05   54.89
   7  -2  -2  616.14   55.59
   2   5  -2  732.63   55.79
  -5   7  -2  691.03   55.29
  -5  -2   2  740.23   55.79
   5  -7  -2  639.94   55.09
  -2   7   2  626.74   55.69
  -2  -5  -2  628.34   55.09
  -2  -5  -2  557.84   54.99
  -2  -5  -2  597.74   55.49
   7  -5   2  615.04   55.19
  -7   5   2  559.54   54.89
   2   5  -2  602.64   55.09
  -7   2  -2  634.64   55.69
   7  -2  -2  545.25   55.39
  -7   2  -2  635.74   55.39
  -5   7  -2  607.74   55.59
  -7   5   2  631.54   55.09
  -7   5   2  694.13   55.79
  -5  -2   2  663.13   55.09
   7  -5   2  564.44   55.39
   7  -2  -2  664.33   55.29
   7  -2  -2  615.24   55.09
   5  -7  -2  731.83   55.59
   2  -7   2  543.25   55.39
   2  -7   2  560.84   55.49
  -7   2  -2  642.64   55.19
   5   2   2  649.74   55.09
   7  -5   2  587.74   54.99
  -5  -2   2  627.44   55.49
   2   5  -2  567.24   55.09
   2  -7   2  642.74   55.09
   5   2   2  592.64   55.49
  -7   5   2  663.73   55.59
   5   2   2  612.84   55.09
  -2  -5  -2  569.74   55.29
   7  -5   2  635.14   55.69
  -2   7   2  528.55   54.99
  -2   7   2  631.04   55.09
  -5  -2   2  576.04   54.99
   5  -7  -2  616.54   55.69
   6   1  -2  184.28   17.30
  -6   7   2  175.38   17.60
  -1  -6   2  182.08   17.80
   7  -1   2  214.58   17.90
  -7   6  -2  229.58   17.40
  -1  -6   2  200.98   17.40
  -1  -6   2  160.48   17.10
   1  -7  -2  208.68   17.80
   6  -7   2  169.58   17.60
   6   1  -2  198.28   17.50
   6   1  -2  176.98   17.70
   7  -1   2  177.88   17.20
  -7   1   2  176.98   17.10
  -6  -1  -2  162.48   17.10
  -7   1   2  176.88   17.20
   6   1  -2  185.48   17.90
  -1   7  -2  195.38   17.80
  -7   6  -2  174.98   17.30
  -6  -1  -2  184.38   17.70
   1  -7  -2  172.38   17.60
  -6  -1  -2  167.18   17.20
  -1   7  -2  165.48   17.20
  -6   7   2  231.38   17.60
  -6   7   2  174.58   17.70
  -7   1   2  149.29   17.40
   7  -6  -2  200.68   18.00
   7  -6  -2  163.18   17.50
  -1  -6   2  205.48   18.00
  -6  -1  -2  202.08   17.80
  -7   6  -2  190.18   17.70
   7  -1   2  174.28   17.20
   7  -6  -2  158.68   17.20
   7  -1   2  177.08   17.70
  -7   1   2  173.28   17.60
   6  -7   2  177.08   17.20
  -1   7  -2  206.58   17.40
   6  -7   2  203.78   18.00
   6  -7   2  228.78   17.60
  -6   7   2  174.48   17.30
   1   6   2  180.88   17.30
  -1   7  -2  212.98   18.00
   1  -7  -2  180.08   17.20
   7  -6  -2  161.98   17.20
   1  -7  -2  193.08   17.40
   1   6   2  183.08   17.20
   1   6   2  184.88   17.60
   1  -7   2  194.48   17.30
  -6   7  -2  185.78   17.80
  -1  -6  -2  196.58   17.30
  -6   7  -2  209.08   17.70
  -7   1  -2  172.18   17.60
   1  -7   2  206.48   17.30
  -1   7   2  221.28   17.50
  -1  -6  -2  177.48   17.70
   7  -1  -2  180.38   17.20
  -1  -6  -2  188.38   17.30
   1   6  -2  184.88   17.70
   1  -7   2  193.48   17.80
  -6   7  -2  178.68   17.30
   7  -6   2  151.58   17.00
   7  -6   2  176.68   17.70
  -1  -6  -2  174.78   17.60
   6   1   2  176.38   17.20
   7  -1  -2  183.78   17.60
  -7   6   2  227.98   18.10
  -6  -1   2  185.28   17.70
  -1   7   2  205.78   17.60
  -7   1  -2  195.38   17.40
   6  -7  -2  175.08   17.30
  -6  -1   2  184.48   17.20
   6   1   2  174.88   17.60
  -6   7  -2  168.08   17.20
   1   6  -2  158.38   17.50
  -6  -1   2  193.48   17.20
  -7   1  -2  206.98   17.80
   7  -1  -2  208.38   18.00
  -7   6   2  208.78   17.30
  -7   6   2  165.68   17.50
  -1   7   2  182.48   17.10
   7  -6   2  224.28   17.90
  -7   6   2  173.28   17.20
   6   1   2  156.78   17.60
   1   6  -2  189.48   17.30
   6  -7  -2  206.88   17.90
  -6  -1   2  196.98   17.80
   6  -7  -2  202.38   17.30
   1  -7   2  175.68   17.60
   1   6  -2  203.98   17.30
  -7   7   2    6.80    1.60
  -7   7   2    6.90    1.50
   7  -7   2    7.80    1.70
   0   7   2    9.30    1.80
   0  -7   2   11.40    2.00
   7   0   2    4.70    1.50
   0   7   2    9.40    1.80
  -7   0   2    8.90    1.70
   0  -7  -2   11.10    2.10
   0  -7  -2    8.20    2.20
   4  -8  -2  370.46   29.10
  -4   8   2  341.47   28.50
   8  -4   2  322.07   28.70
  -4   8   2  317.37   28.70
   4   4   2  310.47   28.60
   4  -8  -2  310.87   28.60
  -4   8   2  272.17   29.00
  -4  -4  -2  328.57   28.60
   4   4   2  301.37   28.60
   4  -8   2  316.47   28.70
   4   4   2  302.67   29.00
  -8   4   2  294.67   28.50
  -4  -4  -2  296.97   29.00
  -8   3   2  112.39   11.90
  -3  -5   2  128.69   11.90
   8  -3   2  133.09   12.10
   3  -8  -2  129.29   12.00
  -5   8   2   99.59   11.70
   3   5   2  130.79   12.00
   5  -8   2  110.69   11.90
   3   5   2  134.59   12.00
  -5   8   2  141.39   11.90
   3  -8  -2  106.39   12.50
   5   3   2  139.59   12.00
  -5  -3   2  122.29   11.90
  -3   8   2  137.39   12.00
  -3   8   2  112.69   11.80
  -8   5   2  132.49   11.90
   8  -5   2  118.39   12.00
   5   3   2  128.39   12.00
  -8   5   2  123.59   12.20
   5  -8  -2  127.79   12.40
  -3   8   2  121.49   13.00
   3  -8   2  134.99   12.10
   6  -8   2 1127.69  112.09
  -2  -6   2 1284.97  112.09
   2   6   2 1388.26  112.29
   6   2  -2 1474.05  112.39
   8  -6  -2 1489.95  112.79
  -2   8  -2 1290.17  112.99
  -2   8  -2 1266.17  112.29
   8  -6  -2 1453.95  113.29
  -6  -2  -2 1472.75  112.79
   6   2  -2 1066.59  112.59
  -8   6  -2 1171.98  112.19
  -8   2   2 1328.67  112.79
  -6   8   2 1434.56  112.39
   8  -2   2 1312.67  112.39
   6  -8   2 1458.35  112.79
  -2  -6   2 1344.47  112.79
  -8   2   2 1390.86  112.89
   8  -2   2 1125.49  112.49
  -8   6  -2 1075.59  112.59
  -6  -2   2 1139.19  112.09
   8  -2  -2 1392.96  112.89
   2   6  -2 1121.89  112.69
   2   6  -2 1242.78  112.29
   8  -2  -2 1132.99  112.09
  -8   6   2 1372.86  112.29
  -2   8   2 1427.66  112.29
  -6   8  -2 1190.28  112.69
  -6   8  -2 1336.57  112.59
   2  -8   2 1052.09  112.49
   6   2   2 1201.38  112.29
  -8   6   2 1154.08  113.39
  -6  -2   2 1073.99  112.49
   8  -6   2 1117.19  111.99
  -8   2  -2 1311.67  112.29
   2  -8   2 1302.57  112.19
  -8   2  -2 1181.48  112.69
   8  -6   2 1232.68  112.69
  -8   7  -2  158.78   17.40
  -7  -1  -2  192.18   18.00
  -1   8  -2  168.48   17.40
  -8   1   2  159.78   17.20
  -7  -1  -2  177.98   17.40
   8  -7  -2  178.78   17.80
  -8   1   2  214.58   18.00
   1   7   2  238.98   18.50
   8  -1   2  176.28   17.30
   8  -1   2  186.48   17.90
   1  -8  -2  189.78   17.90
   7   1  -2  198.38   18.00
   7  -8   2  217.28   18.10
  -1  -7   2  168.98   17.20
   1  -8  -2  210.08   17.50
   7  -8   2  215.18   17.60
   8  -7  -2  155.58   17.30
  -7   8   2  189.68   17.50
  -1   8  -2  173.08   18.00
  -1  -7   2  186.38   17.80
   1   7   2  189.98   17.40
  -7   8   2  170.18   17.80
  -8   7  -2  186.88   18.00
  -7   8  -2  179.58   17.50
  -1  -7  -2  187.38   17.30
  -8   1  -2  179.28   17.40
   1  -8   2  160.58   17.20
   1   7  -2  171.28   17.40
   7  -8  -2  173.68   17.40
   7  -8  -2  178.08   17.80
  -7  -1   2  215.88   17.50
  -1   8   2  148.39   17.70
   1  -8   2  175.48   17.80
  -1  -7  -2  187.88   17.80
   1   7  -2  219.48   18.40
  -8   1  -2  208.98   18.20
   8  -7   2  173.58   17.30
  -8   7   2  209.38   18.20
   8  -7   2  184.78   17.90
  -1   8   2  186.48   17.50
   7   1   2  186.08   17.90
   8  -1  -2  215.98   17.60
   8  -1  -2  194.78   17.90
  -7   8  -2  189.38   18.00
   7   1   2  175.28   17.30
  -8   7   2  213.78   17.50
  -8   8  -2  279.27   29.20
  -8   0   2  332.07   29.20
  -8   8   2  352.16   29.40
   0   8  -2  262.87   29.20
   8  -8  -2  328.17   29.30
   0   8   2  339.17   30.10
   8  -8   2  338.17   29.30
   8   0  -2  283.07   29.20
   0   8  -2  298.97   29.80
  -8   0  -2  338.67   29.40
  -8   0  -2  386.66   30.20
   0   8   2  366.16   29.70
  -8   8  -2  306.57   29.80
  -8   0   2  283.27   29.70
   0  -8   2  355.66   30.00
   8   0  -2  364.46   30.00
  -8   8   2  302.07   29.80
   8   0   2  322.47   29.20
   8   0   2  296.27   29.70
   0  -8   2  318.57   29.20
   8  -8  -2  290.47   29.60
   8  -8   2  305.07   29.70
   0  -8  -2  355.56   30.00
  -5  -4  -2   21.90    3.50
  -5   9   2   32.80    4.00
  -5  -4  -2   26.60    3.40
   9  -5  -2   26.60    3.80
   5  -9   2   20.80    3.50
   4   5   2   21.90    3.20
   9  -4   2   23.00    3.20
  -4  -5   2   27.70    3.90
   4  -9  -2   22.30    3.20
  -4  -5   2   20.30    3.10
   9  -4   2   18.10    3.40
   9  -5  -2   22.40    3.20
  -4   9  -2   21.50    3.80
   4   5   2   24.60    3.80
   4  -9  -2   23.40    3.80
  -9   4   2   20.40    3.60
  -4   9  -2   23.00    3.40
  -9   5  -2   22.80    3.70
   5   4  -2   21.50    3.80
   5   4  -2   16.50    3.00
  -9   4   2   22.20    3.30
  -9   5  -2   19.50    3.10
  -5   9   2   25.70    4.10
  -9   4  -2   24.10    3.80
  -9   5   2   27.60    3.50
  -9   4  -2   18.00    3.00
   5   4   2   25.80    3.90
  -5  -4   2   20.20    3.60
  -5   9  -2   26.50    3.40
   4  -9   2   20.30    3.20
  -4   9   2   32.70    4.40
   4  -9   2   16.90    3.30
  -4   9   2   21.10    3.20
   5  -9  -2   22.10    3.50
   9  -4  -2   21.80    3.20
   9  -5   2   20.80    3.10
   4   5  -2   20.40    3.20
  -5   9  -2   27.20    4.20
  -9   5   2   25.90    4.00
  -4  -5  -2   20.50    3.60
   5  -9  -2   27.70    3.60
   5   4   2   23.80    3.30
  -4  -5  -2   21.20    3.10
   9  -4  -2   20.70    3.60
   4   5  -2   32.10    4.10
  -5  -4   2   21.90    3.10
   3  -9  -2  222.38   21.70
  -3  -6   2  186.08   21.50
  -6  -3  -2  218.88   21.70
   9  -6  -2  269.77   21.50
  -6  -3  -2  240.18   21.40
  -3   9  -2  215.38   21.90
  -6   9   2  235.18   22.00
  -3  -6   2  217.78   21.30
   6  -9   2  210.28   21.60
   6   3  -2  227.18   21.40
   9  -3   2  196.98   21.60
   9  -6  -2  215.08   21.70
  -9   3   2  207.78   21.20
   3   6   2  258.97   22.10
   3   6   2  260.57   21.40
   6   3  -2  208.58   21.80
  -9   6  -2  255.57   22.20
   3  -9  -2  221.38   21.30
  -9   6  -2  242.58   21.60
   6  -9   2  226.68   21.30
  -9   3   2  222.68   22.00
  -3   9  -2  234.98   21.60
   9  -3   2  223.68   21.30
   6  -9  -2  254.07   22.00
  -6   9  -2  223.28   21.40
   3  -9   2  206.38   21.20
  -9   3  -2  216.18   21.90
   3  -9   2  236.68   21.80
   9  -6   2  244.28   22.00
  -9   3  -2  231.78   21.40
   9  -6   2  224.98   21.30
  -6  -3   2  250.07   21.40
   6   3   2  228.38   22.00
   3   6  -2  218.98   21.90
  -3  -6  -2  268.07   21.50
   3   6  -2  232.48   21.50
  -6   9  -2  210.58   21.90
  -6  -3   2  270.67   22.00
  -3   9   2  259.77   21.50
   6   3   2  192.08   21.20
   9  -3  -2  259.77   21.50
  -3  -6  -2  256.97   22.10
  -9   6   2  181.18   21.10
  -9   6   2  251.07   22.10
   6  -9  -2  289.27   21.60
  -3   9   2  240.98   22.20
  -1   1   3  551.74   44.80
  -1   0   3  484.85   44.80
  -1   0  -3  499.15   44.70
   1  -1  -3  439.46   44.70
   0   1   3  441.66   44.80
   1   0  -3  535.45   44.90
   1   0  -3  546.55   44.70
  -1   0   3  548.65   44.90
  -1   1   3  547.75   44.80
  -1   1  -3  539.65   44.90
   1   0   3  509.45   44.80
   0  -1   3  540.65   44.90
   0  -1   3  522.75   44.70
  -1   1  -3  486.95   44.80
   0  -1  -3  488.85   44.80
   1  -1  -3  517.95   44.70
   1   0   3  565.94   44.90
   0   1  -3  518.05   44.80
   0  -1  -3  521.65   44.80
   1   0  -3  549.74   44.90
   1  -1  -3  504.35   44.80
   0  -1  -3  513.55   44.70
   1  -1   3  510.75   44.90
   0  -1   3  462.95   44.70
   1  -1   3  500.55   44.70
   1   0  -3  493.45   44.70
  -1   0  -3  509.05   44.80
  -1   1  -3  437.86   44.70
   1  -1  -3  483.45   44.80
   0  -1   3  513.45   44.90
   0  -1  -3  502.75   44.70
   0   1   3  487.85   44.80
  -1   0  -3  488.25   44.70
  -2   1   3    0.00    0.30
  -1  -1   3    0.10    0.20
   1  -2  -3   -0.10    0.30
  -1  -1   3    0.30    0.30
   2  -1   3    0.20    0.30
   1  -2   3    0.20    0.30
   1   1   3    0.10    0.20
  -1   2  -3    0.50    0.40
  -1  -1   3   -0.10    0.20
  -1  -1  -3    0.10    0.20
  -1   2  -3    0.30    0.30
   2  -1  -3    0.30    0.40
  -2   1  -3    0.20    0.30
   1  -2   3    0.00    0.40
  -2   1   3    0.30    0.20
  -1   2   3    0.60    0.30
  -2   1  -3    0.20    0.40
   1   1  -3    0.10    0.40
   1  -2   3    0.00    0.20
   1  -2   3    0.40    0.30
   1  -2  -3    0.30    0.30
   2  -1   3   -0.10    0.20
   2  -1   3    0.00    0.20
   1   1   3    0.20    0.40
   2  -1  -3    0.30    0.30
   1   1  -3    0.20    0.40
  -2   1   3    0.10    0.30
   2  -1  -3    0.40    0.40
  -1   2  -3    0.20    0.40
   2  -1   3   -0.20    0.30
   2  -1  -3    0.00    0.30
  -1  -1  -3    0.10    0.30
  -1  -1  -3    0.30    0.40
  -1   2   3    0.20    0.40
  -1   2   3    0.10    0.30
   1  -2  -3    0.10    0.30
  -1   2  -3    0.40    0.30
  -2   1   3    0.20    0.30
   1  -2  -3    0.30    0.40
   1   1  -3    0.20    0.30
  -1  -1  -3    0.10    0.30
  -2   1  -3   -0.30    0.30
   1   1  -3    0.00    0.30
  -1   2   3    0.10    0.20
   1   1   3   -0.20    0.30
  -1  -1   3    0.10    0.40
  -2   2   3  259.47   22.50
   2  -2   3  267.27   22.80
   0   2   3  284.07   22.50
   2   0   3  246.48   22.70
   2   0   3  245.48   22.50
  -2   2  -3  235.38   22.60
   0  -2   3  274.07   22.80
  -2   2  -3  301.17   22.90
   2  -2  -3  226.28   22.60
   0  -2   3  245.18   22.50
   2  -2   3  250.67   22.50
   2   0   3  259.17   22.60
   0   2  -3  249.58   22.60
   0   2  -3  275.07   22.80
  -2   0  -3  213.38   22.50
  -2   0   3  246.48   22.50
   2  -2   3  251.57   22.60
   0  -2   3  257.97   22.60
   2   0   3  238.88   22.70
   2   0  -3  248.08   22.60
   2   0  -3  232.08   22.60
  -2   2   3  250.87   22.50
   0  -2  -3  240.68   22.50
   2  -2  -3  272.57   22.80
   0  -2  -3  258.57   22.70
   0   2   3  266.57   22.70
  -2   0   3  235.28   22.70
   0  -2  -3  269.67   22.60
   0  -2  -3  257.67   22.70
  -2   2  -3  263.17   22.60
   0  -2   3  250.77   22.70
  -2   0  -3  236.18   22.70
   2   0  -3  250.97   22.80
   2   0  -3  240.18   22.70
  -2   0  -3  237.08   22.60
  -2   2  -3  267.37   22.80
  -2   0   3  289.97   22.80
   2  -3   3  109.49   10.10
   2  -3   3   98.79    9.70
   1  -3  -3  104.99    9.90
  -1   3  -3  101.19    9.80
  -3   2  -3  113.79    9.90
   1   2   3  112.29    9.80
  -1   3  -3  109.39    9.90
   3  -2  -3  114.49    9.80
  -2  -1  -3   87.89    9.80
  -3   1   3  119.39    9.80
   1   2   3  124.69   10.10
   2  -3   3   99.19    9.80
   3  -1   3  111.19    9.80
  -2  -1  -3   99.29    9.70
  -2  -1  -3  126.19    9.90
   2  -3   3  107.39   10.00
   2   1  -3   99.19    9.80
  -3   1   3  113.59    9.80
  -3   2  -3  115.89    9.80
  -3   2  -3  106.39   10.00
   3  -2  -3  105.09    9.80
  -1   3  -3  106.29    9.80
  -1  -2   3  110.59    9.80
   1  -3  -3   98.09    9.70
  -3   2  -3   98.99   10.00
   2   1  -3  120.69   10.10
  -2  -1  -3  107.79    9.90
   1   2   3   96.49    9.70
   1   2   3  111.69   10.00
   3  -2  -3  107.69   10.00
   2   1  -3  101.79   10.00
  -1  -2   3  108.19    9.70
  -1  -2   3  110.29   10.00
   1  -3  -3   98.09    9.80
   3  -2  -3   83.59    9.80
  -3   1   3   91.79    9.90
  -2   3   3  109.89    9.80
   2   1  -3  105.69    9.80
  -2   3   3  100.79    9.70
   3  -1   3  120.39   10.10
  -2   3   3  119.49   10.00
   3  -1   3  100.09    9.90
  -2   3   3  114.69    9.90
   1  -3  -3   93.89    9.90
   3  -1   3  100.79    9.80
  -3   1  -3  106.59   10.00
   2  -3  -3  113.09    9.80
   2   1   3   95.29    9.90
  -3   2   3  131.39   10.10
   1  -3   3  103.49    9.80
   3  -2   3  103.79    9.70
   1   2  -3  120.29    9.90
   2  -3  -3  109.59    9.80
  -2   3  -3  100.49    9.80
   1  -3   3  106.49   10.00
  -3   2   3  100.59    9.70
   3  -2   3   94.09    9.90
   1   2  -3  129.09    9.90
  -2  -1   3   96.79    9.70
  -2  -1   3  105.69   10.00
  -2  -1   3   95.99    9.70
  -1   3   3  112.59   10.10
   1  -3   3  106.39   10.00
   3  -1  -3  117.09    9.80
  -1  -2  -3  102.59    9.90
   3  -2   3  128.49    9.90
   3  -1  -3  125.29   10.10
  -1   3   3  102.49    9.70
  -2   3  -3  108.09   10.10
   2   1   3  109.19   10.00
   3  -1  -3  115.59    9.80
  -3   1  -3  113.19    9.90
  -3   1  -3  113.59   10.00
   1  -3   3   98.69    9.70
  -1  -2  -3   95.69    9.90
   3  -1  -3  104.39   10.00
   2   1   3   96.29    9.70
  -3   1  -3  111.49    9.80
   1   2  -3   93.89    9.90
   1   2  -3  111.29   10.00
  -3   2   3  102.99    9.70
  -1  -2  -3  124.99    9.80
  -2   3  -3  103.19    9.80
   2  -3  -3  115.59   10.00
  -1  -2  -3  108.49    9.80
  -1   3   3  101.19    9.80
  -1   3   3  108.19    9.70
   3  -2   3  111.79   10.10
  -2   3  -3   97.49    9.90
   3  -3   3  443.16   38.00
   3   0   3  401.56   37.60
   3  -3   3  430.96   37.90
  -3   0  -3  433.36   37.70
   3  -3  -3  472.15   37.90
   0  -3  -3  497.55   37.90
  -3   0   3  423.86   37.90
   0   3  -3  421.76   37.90
   3   0   3  415.66   37.90
   0  -3   3  466.05   37.90
  -3   3   3  469.65   38.00
  -3   0  -3  388.46   37.80
   3   0  -3  434.46   38.00
  -3   3   3  374.26   37.60
   0   3   3  470.05   37.60
  -3   0  -3  402.76   37.70
  -3   3  -3  419.86   37.80
  -3   3  -3  381.56   37.70
  -3   3  -3  391.36   37.90
   3   0   3  410.96   37.60
   0  -3  -3  380.86   37.60
   0   3   3  434.36   37.90
  -3   0   3  400.36   37.60
   0   3  -3  420.16   37.70
   0  -3  -3  422.56   37.70
  -3   0   3  462.75   38.00
  -3   3   3  448.66   37.90
   3  -3  -3  377.76   37.60
  -3   3   3  373.16   37.60
   0  -3  -3  450.35   37.90
  -3   0   3  479.85   37.70
   0  -3   3  415.46   37.90
   3  -3  -3  389.46   37.70
   3  -3   3  401.26   37.60
   3  -3  -3  387.76   37.80
   0  -3   3  402.36   37.60
   3   0  -3  453.95   37.70
   0   3   3  448.46   37.70
  -3   3  -3  378.76   37.80
  -3   0  -3  460.05   37.90
   3  -3   3  459.95   37.80
  -2  -2   3   -0.10    0.50
   2   2  -3    0.20    0.40
  -4   2  -3    1.10    0.60
   4  -2   3   -0.30    0.50
   2  -4   3   -0.10    0.40
   2   2  -3    0.10    0.50
   4  -2   3    0.10    0.40
   4  -2  -3    0.00    0.50
   2   2   3    0.00    0.40
  -2  -2   3    0.50    0.40
   2  -4  -3   -0.30    0.40
   2   2   3    0.20    0.40
   2  -4   3    0.40    0.40
  -2   4   3    0.40    0.50
  -2  -2   3    0.60    0.60
   2   2   3    0.20    0.40
   2  -4  -3    0.20    0.40
  -4   2   3   -0.20    0.30
  -4   2   3    0.40    0.50
  -4   2   3   -0.30    0.30
   4  -2   3    0.10    0.40
   4  -2  -3    0.00    0.30
   4  -2  -3   -0.10    0.40
  -2  -2  -3    0.10    0.40
  -2   4  -3   -0.20    0.50
   4  -2   3   -0.20    0.40
  -2  -2  -3    0.10    0.50
   2   2   3    0.20    0.60
   2   2  -3    0.50    0.40
   4  -2  -3   -0.30    0.40
  -2   4  -3    0.00    0.60
  -4   2   3    0.10    0.50
   2  -4   3    0.70    0.60
   2  -4   3   -0.20    0.50
  -2  -2  -3    0.30    0.50
  -2  -2   3    0.30    0.40
  -2   4   3   -0.40    0.40
  -4   2  -3    0.00    0.50
   2  -4  -3   -0.10    0.40
  -2   4  -3    0.40    0.50
  -2  -2  -3   -0.30    0.30
  -2   4   3    1.00    0.50
  -2   4   3   -0.20    0.40
  -4   2  -3    0.80    0.70
   2  -4  -3    0.50    0.40
  -3   4   3   69.69    7.60
   1   3   3   76.69    7.70
   4  -3  -3   96.59    8.20
  -1  -3   3   74.39    7.70
   1   3   3   91.79    7.80
  -3   4   3   84.09    7.70
  -3  -1  -3   78.39    7.80
   4  -3  -3   75.69    7.70
   3   1  -3   89.59    7.80
   1  -4  -3   85.59    7.70
  -3   4   3   81.49    7.90
   4  -1   3   90.69    7.80
  -4   1   3   81.99    7.70
   1   3   3   89.99    8.00
  -4   1   3   77.89    7.90
  -3   4   3   75.29    8.00
  -3  -1  -3   85.49    8.00
   4  -1   3   83.09    7.80
   4  -1   3   75.69    8.20
   3  -4   3   81.59    7.80
   1   3   3   81.19    8.00
  -4   3   3   82.69    7.70
  -1  -3  -3   84.89    7.70
   4  -1  -3   90.89    7.80
  -3   4  -3   73.19    7.80
  -1  -3  -3   75.19    7.80
   3   1   3   76.89    7.70
  -1   4   3   79.49    7.70
  -4   1  -3   75.69    7.90
  -1   4   3   78.39    7.90
   3   1   3   84.49    7.70
   4  -1  -3   76.69    8.00
   3  -4  -3   79.59    8.00
   3  -4  -3   81.89    7.70
  -4   3   3   83.89    8.00
   3   1   3   84.39    8.00
  -1   4   3   83.79    7.70
  -4   1  -3   58.59    8.10
  -4   3   3   89.09    7.70
  -1   4   3   88.39    8.10
   1  -4   3   77.79    7.70
  -1  -3  -3   65.49    7.80
  -4   3   3   92.79    8.10
   3   1   3  104.69    8.30
   3  -4  -3   92.09    8.00
   4  -3   3   75.19    7.70
  -3  -1   3  102.39    7.90
  -4   4  -3   47.10    4.70
   4   0  -3   44.10    4.90
  -4   4  -3   48.70    5.00
   0   4  -3   52.29    5.00
   4   0  -3   42.10    4.90
   0   4  -3   36.70    4.70
  -4   4  -3   46.20    4.90
   0   4  -3   45.50    4.70
   0  -4   3   48.00    4.80
   4  -4   3   41.20    4.50
   4  -4  -3   45.30    4.70
  -4   0   3   48.20    4.60
  -4   0   3   50.49    4.70
   4  -4   3   49.10    4.80
  -4   0  -3   46.30    4.60
  -4   0  -3   46.00    4.80
   4  -4   3   43.20    4.80
  -4   0   3   42.70    4.90
   0   4  -3   44.20    4.60
   0  -4  -3   49.99    4.70
   4   0   3   45.40    4.60
   4   0   3   43.00    4.80
  -4   4   3   43.70    4.50
   0  -4   3   47.50    5.00
  -4   4  -3   41.40    4.60
   0  -4   3   51.29    4.70
   4   0  -3   47.00    4.70
   0   4   3   53.69    4.60
  -2  -3   3  667.03   52.49
   5  -3  -3  544.75   52.29
   5  -3  -3  653.83   52.19
  -2  -3   3  605.94   52.39
   2   3   3  576.34   51.99
   2   3   3  486.05   52.19
   3  -5   3  558.34   52.19
  -5   3  -3  526.25   52.19
  -3  -2  -3  563.54   51.99
  -3  -2  -3  568.14   51.99
  -3  -2  -3  681.43   52.49
   2   3   3  571.84   51.99
   2   3   3  665.23   52.49
  -5   2   3  609.24   52.49
  -2   5  -3  629.24   52.29
  -5   2   3  584.94   51.99
  -3   5   3  575.74   51.99
  -3   5   3  549.25   51.89
   3  -5   3  584.14   52.49
   3  -5   3  552.04   51.99
  -5   3  -3  629.74   52.09
  -5   2   3  620.94   52.39
   2  -5  -3  616.04   52.09
   2  -5  -3  610.14   52.39
   3   2  -3  637.74   52.09
   5  -2   3  543.25   52.29
   5  -2   3  694.63   52.49
   5  -2   3  678.03   52.19
   5  -3  -3  554.14   51.99
   3   2  -3  569.74   51.99
   3   2  -3  600.14   52.39
  -2  -3   3  600.04   52.09
  -2   5  -3  550.94   52.39
   3   2  -3  521.25   52.29
  -2   5  -3  581.54   51.99
  -2   5  -3  554.74   52.09
  -5   3  -3  539.65   51.99
  -5   3  -3  549.54   52.39
   3  -5   3  550.54   52.09
   5  -3  -3  680.73   52.49
  -3   5   3  567.24   52.39
   5  -2  -3  659.13   52.49
  -5   3   3  620.94   52.09
  -3  -2   3  549.74   52.29
   5  -3   3  614.44   52.39
   3   2   3  669.23   52.49
   3   2   3  525.75   52.29
  -3  -2   3  645.84   52.09
   2  -5   3  517.35   51.89
  -3   5  -3  630.04   52.59
   5  -3   3  559.54   51.99
   2   3  -3  582.94   52.39
   2  -5   3  540.75   52.19
   2  -5   3  575.04   52.09
  -2  -3  -3  662.03   52.39
  -5   2  -3  574.44   51.99
  -2   5   3  573.34   51.99
  -2   5   3  485.35   52.29
  -2  -3  -3  520.35   52.19
   2   3  -3  638.34   52.39
   3  -5  -3  565.94   52.09
   5  -2  -3  630.54   52.09
   2   3  -3  517.95   51.99
   5  -2  -3  605.54   52.39
  -5   3   3  574.54   52.29
  -5   3   3  570.54   52.39
   2   3  -3  576.54   51.99
  -3   5  -3  592.74   52.19
  -3   5  -3  679.93   52.09
   3   2   3  535.45   51.99
   5  -3   3  589.14   52.39
   3  -5  -3  532.95   51.99
  -3  -2   3  541.55   52.19
   2  -5   3  612.54   52.49
   3  -5  -3  675.03   52.39
  -5   2  -3  544.95   51.99
   3   2   3  516.85   51.89
   5  -2  -3  662.83   52.09
  -5   2  -3  602.14   52.39
  -3   5  -3  594.44   52.29
  -2  -3  -3  491.85   51.89
   3  -5  -3  589.54   52.39
  -2   5   3  506.95   51.89
  -5   2  -3  559.94   52.39
  -5   4  -3    8.90    1.40
  -1   5  -3    6.10    1.50
   5  -4  -3    8.40    1.50
  -5   1   3   11.90    1.70
  -5   4  -3    6.40    1.50
   5  -4  -3    9.20    1.80
  -4  -1  -3    9.50    1.80
   1  -5  -3    4.70    1.20
   1   4   3    9.00    1.90
  -1  -4   3   10.10    2.00
  -4   5   3    8.50    1.60
  -5   4  -3    9.00    1.80
  -4  -1  -3   13.00    1.90
   4   1  -3    8.50    1.80
  -4  -1  -3    7.90    1.40
   5  -4  -3    7.00    1.40
   5  -4  -3    9.50    1.80
   4  -5   3    8.80    1.50
  -5   4  -3    6.50    1.40
  -5   1   3    8.20    1.80
   5  -1   3    9.00    1.80
   4  -5   3    7.60    1.60
  -1   5  -3    9.10    1.90
   5  -1   3   10.50    1.70
  -1   5  -3    6.40    1.30
   4   1  -3   14.60    2.00
   5  -1   3   10.80    2.10
  -4   5   3    9.40    1.60
  -1   5  -3    8.50    1.60
  -5   1   3    6.60    1.30
   1  -5  -3    9.90    1.80
  -1  -4   3    7.00    1.30
   4  -5   3    8.80    1.50
   4  -5   3   10.00    2.00
  -1  -4   3    8.80    1.40
  -4   5   3   10.30    2.00
   4   1  -3    7.20    1.50
   1   4   3    8.00    1.50
   1   4   3   10.50    1.80
   4   1  -3    7.10    1.60
  -4  -1  -3    7.70    1.60
   1  -5  -3    8.80    1.50
  -1  -4   3   10.00    1.70
  -5   1   3    8.50    1.80
   5  -1   3    8.70    1.50
   1  -5  -3    7.30    1.60
   5  -4   3   10.50    1.70
  -5   1  -3    7.10    1.50
  -1  -4  -3    9.40    1.50
   1  -5   3    7.20    1.50
  -5   4   3    7.90    1.40
   4  -5  -3    9.70    1.60
   4   1   3    8.10    1.70
  -4   5  -3   10.00    1.70
  -1  -4  -3    8.30    1.60
   1  -5   3   10.50    1.90
   4  -5  -3    8.70    1.50
  -5   1  -3    7.60    1.70
  -4  -1   3    7.20    1.30
  -5   4   3    9.80    1.90
   5  -1  -3    9.50    1.60
   5  -1  -3    7.20    1.50
   5  -4   3   11.90    2.00
  -5   1  -3    8.90    1.90
   1   4  -3   11.80    1.90
   5  -1  -3    9.10    1.60
   4   1   3    6.60    1.50
   1   4  -3    9.90    1.60
  -4  -1   3    6.30    1.40
   1   4  -3    7.00    1.60
  -1  -4  -3    7.70    1.50
  -5   4   3    7.80    1.80
   5  -1  -3    9.10    1.90
  -5   1  -3   10.00    1.70
   4  -5  -3    8.60    1.70
  -4   5  -3    8.20    1.40
  -1  -4  -3    9.80    1.80
   5  -4   3   10.00    1.50
  -4   5  -3   10.30    2.10
  -1   5   3   10.00    1.60
  -1   5   3    5.10    1.40
  -1   5   3    8.10    1.60
  -4   5  -3    9.10    1.60
  -4  -1   3    8.20    1.70
   1  -5   3   10.80    1.50
  -4  -1   3    8.00    1.40
   1   4  -3   12.40    2.20
   5  -4   3   11.90    2.10
   1  -5   3   11.10    1.70
   4  -5  -3    6.80    1.50
   0   5  -3  137.29   13.30
  -5   0   3  141.29   13.20
  -5   5  -3  164.78   13.40
  -5   0   3  138.69   13.60
   0  -5  -3  128.79   13.50
  -5   5  -3  157.88   13.80
   5   0  -3  129.69   13.30
   5   0   3  167.58   13.80
   5  -5   3  141.29   13.80
   5  -5   3  152.88   13.70
   0   5  -3  149.69   13.70
  -5   5   3  113.19   13.40
   0  -5   3  166.18   13.80
   5  -5   3  147.49   13.30
  -5   5   3  131.09   13.20
   5   0  -3  129.49   13.60
   5  -5  -3  144.79   13.40
   0   5   3  128.39   13.50
   5   0  -3  144.89   13.40
  -5   5   3  139.49   13.20
   0  -5  -3  180.08   13.40
   5   0   3  131.09   13.20
  -5   5   3  145.39   13.70
   0   5   3  119.79   13.50
  -5   0  -3  159.08   13.40
   5   0   3  161.18   13.80
   5  -5   3  153.28   13.50
   5  -5  -3  145.09   13.60
   0  -5   3  154.98   13.30
  -5   0  -3  143.99   13.60
  -5   5  -3  150.08   13.30
   0   5   3  156.98   13.30
   0  -5  -3  132.99   13.20
  -5   0   3  149.59   13.30
   5   0   3  143.79   13.20
   5  -5  -3  127.09   13.20
   0   5  -3  135.39   13.70
   0  -5   3  115.89   13.20
  -5   5  -3  136.39   13.60
   0   5   3  153.38   13.30
   0  -5  -3  147.89   13.50
  -5   0  -3  137.59   13.30
   0  -5   3  150.48   13.60
   0   5  -3  130.59   13.30
  -6   3   3   -0.10    0.40
   6  -3   3    0.20    0.60
  -6   3   3    0.10    0.60
  -3   6   3    0.60    0.70
  -3  -3  -3    0.30    0.50
   3  -6  -3   -0.30    0.50
   3   3  -3    0.50    0.60
  -3   6   3    0.00    0.60
   6  -3  -3   -0.20    0.50
   6  -3  -3    0.50    0.80
   3  -6   3    0.10    0.80
   3  -6  -3    0.20    0.70
  -3  -3  -3    0.10    0.40
   3   3   3    0.10    0.50
  -6   3  -3    0.10    0.70
   3   3   3    0.70    0.70
  -6   3   3    0.40    0.60
  -3  -3   3   -0.20    0.50
   6  -3   3   -0.50    0.40
  -3  -3  -3    0.40    0.60
  -3   6   3   -0.10    0.50
   3  -6  -3    0.10    0.60
  -6   3  -3    0.50    0.70
   6  -3  -3    0.10    0.40
  -3  -3   3    0.30    0.60
  -3  -3   3    0.20    0.50
  -3   6  -3    0.30    0.80
  -6   3   3   -0.50    0.50
   6  -3  -3    0.50    0.70
  -3   6   3    0.30    0.50
   3   3  -3    0.50    0.60
   6  -3   3    0.10    0.50
   6  -3   3   -0.20    0.50
   3   3  -3    0.10    0.50
  -3   6  -3    0.20    0.50
  -6   3  -3    0.10    0.50
   3  -6   3    0.60    0.60
   3  -6   3   -0.20    0.40
   3   3   3    0.70    0.60
   3  -6   3   -0.30    0.60
   3   3   3   -0.10    0.50
  -3  -3  -3    0.40    0.70
  -3  -3   3    0.40    0.70
  -3   6  -3   -0.50    0.50
  -6   3  -3    0.30    0.70
   3  -6  -3    0.20    0.80
   3   3  -3    0.10    0.50
  -3   6  -3    0.20    0.60
   2  -6  -3  137.19   14.10
   6  -4  -3  139.39   14.20
   6  -4  -3  138.29   14.10
  -2  -4   3  164.08   13.90
  -6   4  -3  149.09   13.90
  -6   4  -3  190.38   14.70
   4  -6   3  147.69   14.40
  -6   4  -3  152.08   14.00
   6  -2   3  149.79   14.20
  -2   6  -3  142.99   13.80
   6  -2   3  128.79   13.80
   4   2  -3  149.49   14.20
  -4   6   3  147.39   14.20
   2  -6  -3  166.68   14.00
   2  -6  -3  125.09   14.10
   4  -6   3  165.08   14.30
  -2  -4   3  181.88   14.50
   2  -6  -3  140.29   13.90
   2   4   3  144.69   13.80
  -2   6  -3  161.68   14.00
  -4  -2  -3  156.08   14.30
  -6   2   3  169.08   14.30
  -6   2   3  148.39   14.30
  -4   6   3  119.29   14.10
   4   2  -3  125.09   14.00
   4  -6   3  165.58   13.90
  -2   6  -3  145.29   14.40
  -2   6  -3  132.79   14.10
   2   4   3  145.79   14.20
   4   2  -3  144.39   13.90
  -2  -4   3  184.88   14.50
  -4   6   3  138.39   13.80
  -6   2   3  156.28   13.90
  -4  -2  -3  156.88   14.20
   2   4   3  176.58   14.40
   4  -6   3  127.99   13.80
   6  -4  -3  142.59   13.90
   6  -4  -3  184.68   14.00
  -4  -2  -3  153.68   13.90
  -4  -2  -3  140.79   13.80
  -6   2   3  166.58   13.90
   6  -2   3  135.29   14.20
   2   4   3  161.78   13.90
   6  -2   3  184.78   14.00
  -2  -4   3  126.19   13.70
  -6   4  -3  145.49   14.30
   4   2  -3  128.29   13.80
  -4   6   3  153.88   13.80
  -4   6  -3  142.39   14.20
  -4   6  -3  164.18   14.00
  -4  -2   3  138.19   13.70
   4  -6  -3  141.49   14.10
   6  -2  -3  154.88   14.20
  -2   6   3  152.28   14.30
  -2  -4  -3  122.39   14.00
  -4   6  -3  137.39   14.20
  -6   4   3  125.79   14.10
   2  -6   3  161.38   14.30
  -6   2  -3  147.19   13.80
  -4   6  -3  132.09   13.80
   4   2   3  138.59   14.20
  -2  -4  -3  163.48   14.30
  -6   4   3  157.88   13.80
   4   2   3  144.79   13.80
  -2   6   3  159.58   13.80
  -4  -2   3  160.38   14.20
   4   2   3  152.38   14.30
  -4  -2   3  131.09   14.10
  -2   6   3  179.98   14.00
   4  -6  -3  180.68   14.00
   6  -2  -3  144.29   13.90
  -6   4   3  168.88   13.90
   2  -6   3  132.89   13.80
  -2  -4  -3  134.99   13.80
   6  -4   3  144.39   14.10
   2  -6   3  146.29   14.30
   2   4  -3  157.68   14.00
  -2   6   3  152.48   14.40
   6  -4   3  135.19   13.80
  -6   2  -3  166.78   14.00
   4  -6  -3  147.59   14.40
  -6   2  -3  168.58   14.60
   4   2   3  149.88   13.90
   6  -2  -3  132.69   13.90
   6  -4   3  148.99   14.30
   2   4  -3  142.09   14.20
  -4  -2   3  185.98   14.20
   6  -4   3  153.28   13.90
   6  -2  -3  151.58   14.30
   2   4  -3  130.89   14.10
  -6   2  -3  150.48   14.30
   2  -6   3  127.29   13.80
   4  -6  -3  154.08   13.90
  -1  -5   3  108.59   11.00
  -1   6  -3  127.99   11.40
  -1  -5   3  101.79   10.60
  -6   1   3  118.59   10.70
   1   5   3  146.39   11.50
   6  -5  -3  109.69   11.00
   6  -1   3  111.99   11.10
  -1  -5   3  131.69   11.50
   6  -1   3  108.29   10.70
   6  -1   3  101.69   10.60
   1   5   3  131.59   11.00
   5   1  -3  104.39   10.70
   5   1  -3  108.79   11.10
   5   1  -3  118.19   11.30
  -6   1   3  108.89   11.10
   1   5   3  121.69   10.70
  -1   6  -3  116.79   10.80
  -5   6   3  109.19   10.70
   6  -5  -3   96.89   10.70
  -6   5  -3  105.19   11.10
   5   1  -3  109.29   10.70
  -5  -1  -3  117.99   10.80
  -5   6   3  101.39   10.90
  -5  -1  -3  105.19   11.10
  -1   6  -3  105.19   10.80
  -1  -5   3  125.99   10.80
   1   5   3  122.89   11.10
  -6   5  -3  124.69   10.80
  -6   5  -3  122.29   10.90
   1  -6  -3  100.69   11.00
   1  -6  -3  130.29   11.20
  -5   6   3  100.79   11.00
   1  -6  -3  127.89   10.80
   1  -6  -3  106.59   10.70
   6  -1   3  103.79   11.10
  -5  -1  -3  126.89   10.90
  -5  -1  -3   92.39   10.80
   5  -6   3  103.39   11.10
   5  -6   3  106.79   11.00
  -6   1   3  119.99   10.70
  -6   1   3  143.89   11.50
  -5   6   3  116.69   10.70
  -1   6  -3  114.49   11.00
   5  -6   3  100.79   10.60
   6  -5  -3   98.09   11.10
   6  -5  -3  103.69   10.70
   5  -6   3  103.59   10.80
   6  -1  -3  102.89   10.70
   6  -1  -3   93.29   10.90
   5   1   3  106.69   11.10
   5  -6  -3  137.99   11.10
  -5  -1   3  129.89   10.80
  -5   6  -3   98.79   10.90
  -5  -1   3  110.19   11.00
  -6   5   3  135.39   10.80
  -1  -5  -3  133.49   10.90
   6  -1  -3  119.69   11.20
  -1  -5  -3  120.29   11.10
  -6   1  -3  120.19   11.20
  -6   1  -3  102.19   11.00
   5  -6  -3  116.19   10.70
  -1   6   3  113.69   11.20
   6  -5   3  132.79   11.40
  -1   6   3  119.59   11.20
  -6   1  -3  116.19   10.80
   1  -6   3  115.59   11.20
   1  -6   3  102.99   11.00
   6  -1  -3  119.29   10.80
  -6   5   3  104.19   10.90
   6  -5   3  102.09   10.70
  -1  -5  -3   96.29   10.60
   1   5  -3  145.29   11.50
  -5  -1   3  123.39   10.90
   5   1   3  105.09   10.70
  -5   6  -3  107.69   11.10
   1   5  -3  106.99   10.60
   1  -6   3  144.89   11.00
   6  -5   3  131.29   10.80
   1  -6   3  101.39   10.70
   1   5  -3  104.09   11.00
   5  -6  -3  129.99   11.40
  -6   5   3   99.79   10.60
   5   1   3  124.19   10.70
  -6   1  -3  123.49   10.90
   5   1   3  125.59   11.40
  -6   5   3   94.19   10.90
  -1   6   3  110.39   10.60
  -5  -1   3  105.89   11.00
  -1   6   3  106.29   10.70
   5  -6  -3  100.69   10.90
   1   5  -3  109.19   10.80
  -5   6  -3  114.99   10.70
  -5   6  -3  110.69   10.80
  -1  -5  -3  117.69   11.20
   6  -5   3  101.19   11.00
  -6   6   3    1.00    1.00
   0  -6   3    1.80    0.80
   0  -6  -3    1.70    0.80
  -6   6   3    2.60    1.20
   6   0  -3    1.50    1.10
   0  -6  -3    2.40    0.90
   6  -6  -3    2.30    1.00
   0  -6  -3    1.50    0.90
   0   6   3    2.30    1.10
   6   0   3    2.40    1.20
   0  -6   3    2.30    0.90
   6  -6   3    1.30    0.90
  -6   0   3    1.10    0.90
   6  -6   3    1.90    0.90
   0  -6   3    1.50    1.00
   0   6  -3    1.50    0.80
  -6   0   3    0.90    0.70
   0   6  -3    1.60    1.10
   0   6   3    2.60    0.90
   0  -6  -3    2.20    1.10
   6   0   3    1.50    1.10
   6  -6  -3    1.40    1.00
  -6   6   3    2.10    0.90
   6   0   3    1.90    0.90
   6  -6   3    0.10    0.90
  -6   0  -3    1.40    0.80
   6  -6   3    1.40    0.80
  -6   6  -3    3.60    1.20
   6  -6  -3    2.40    0.80
  -6   0  -3    2.60    1.00
  -6   6   3    0.20    0.60
   6   0  -3    1.10    0.80
  -6   0  -3    2.60    1.00
   0  -6   3    1.40    0.90
  -6   0   3    0.80    0.80
  -6   6  -3    2.70    1.20
   0   6  -3    1.10    1.00
  -6   0   3    1.10    0.70
  -6   6  -3    1.60    1.20
   0   6   3    1.70    0.70
   6   0  -3    2.10    1.10
   0   6  -3    2.20    0.90
   0   6   3    2.10    1.20
   6  -6  -3    1.50    0.80
   6   0  -3    2.70    1.10
  -6   6  -3    2.90    1.00
   6   0   3    2.40    0.80
  -6   0  -3    0.90    0.90
  -3   7  -3  206.78   18.70
  -7   3   3  192.28   18.80
  -3   7  -3  190.78   18.40
   7  -4  -3  203.18   18.60
  -7   3   3  200.68   18.40
   3   4   3  173.68   18.80
  -4   7   3  216.08   19.10
   4  -7   3  211.68   18.40
  -4  -3  -3  198.68   18.90
  -7   4  -3  180.68   18.70
   3   4   3  202.58   18.50
  -4   7   3  183.38   18.70
   3   4   3  218.78   18.60
  -3  -4   3  208.78   18.50
  -3   7  -3  195.38   19.10
   7  -4  -3  222.88   18.50
  -7   4  -3  212.28   18.60
  -4  -3  -3  220.08   18.60
   4   3  -3  227.18   18.60
  -3  -4   3  205.48   18.90
  -3  -4   3  177.48   18.80
   7  -3   3  195.28   18.40
  -7   3   3  193.78   18.50
   3  -7  -3  177.98   18.40
   4  -7   3  166.88   18.80
   4  -7   3  210.48   18.90
   4   3  -3  203.48   19.00
  -4   7   3  199.98   18.40
   7  -3   3  177.38   18.40
   4  -7   3  177.88   18.50
   4   3  -3  203.98   18.60
   7  -4  -3  209.58   18.90
  -7   3   3  203.38   19.00
  -3   7  -3  210.98   18.80
  -4   7   3  213.08   18.40
   7  -3   3  189.88   18.80
   7  -4  -3  230.98   19.20
  -4  -3  -3  198.58   18.80
   3  -7  -3  215.28   19.00
  -3  -4   3  181.38   18.40
   3  -7  -3  184.98   18.50
   3   4   3  189.68   18.90
   7  -3   3  232.18   19.10
  -4  -3  -3  187.88   18.40
  -7   4  -3  185.38   18.90
   4   3  -3  208.18   18.90
  -7   4   3  169.38   18.80
   3   4  -3  171.38   18.70
   3   4  -3  190.48   18.40
   7  -3  -3  222.38   19.00
  -3  -4  -3  209.58   18.90
  -7   4   3  201.28   18.50
   3  -7   3  215.28   19.00
  -7   3  -3  210.68   18.50
   4   3   3  187.78   18.40
  -3  -4  -3  194.18   18.40
  -4   7  -3  176.18   18.90
  -7   4   3  243.48   19.20
   4  -7  -3  201.48   18.60
  -4   7  -3  192.38   18.60
  -3   7   3  177.68   18.60
   4  -7  -3  198.08   18.80
   7  -4   3  210.88   19.00
   7  -4   3  217.68   19.00
   7  -3  -3  240.48   18.70
   4   3   3  221.78   18.90
   4  -7  -3  214.78   19.10
  -7   3  -3  181.38   18.80
  -3   7   3  243.18   19.30
  -3   7   3  194.08   18.50
   3  -7   3  191.18   18.50
  -4  -3   3  168.08   18.30
  -4   7  -3  203.58   18.50
   3  -7   3  221.88   19.10
   7  -3  -3  191.88   18.90
   7  -3  -3  188.78   18.50
  -4   7  -3  218.38   18.90
   4   3   3  198.28   18.50
   4   3   3  201.78   19.00
  -7   4   3  180.18   18.40
   3   4  -3  221.58   18.70
  -7   3  -3  239.18   19.20
  -3  -4  -3  225.28   19.10
   4  -7  -3  218.28   18.60
   7  -4   3  176.08   18.40
  -3   7   3  205.98   18.40
   7  -4   3  197.38   18.50
  -4  -3   3  182.68   18.80
  -4  -3   3  196.38   18.90
   3  -7   3  185.68   18.40
  -7   3  -3  224.68   18.60
  -3  -4  -3  202.58   18.40
   7  -5  -3  116.59   13.60
   5   2  -3  153.58   14.10
  -7   5  -3  154.98   14.00
  -2  -5   3  138.29   13.50
  -7   2   3  156.08   13.60
  -5  -2  -3  151.68   14.00
   5  -7   3  133.69   14.00
   2   5   3  137.49   13.50
   5  -7   3  134.29   13.60
   7  -2   3  158.38   14.20
  -2   7  -3  135.49   14.10
  -5   7   3  181.98   13.70
   5  -7   3  164.28   13.70
   7  -2   3  148.49   14.00
   5   2  -3  154.48   14.10
  -5   7   3  131.99   13.50
   7  -2   3  136.99   13.60
  -5  -2  -3  154.78   13.60
  -5   7   3  157.38   14.20
  -7   2   3  151.48   13.60
  -7   5  -3  134.19   13.60
  -7   5  -3  142.59   14.00
   2  -7  -3  163.78   14.10
  -7   2   3  152.18   13.90
  -2  -5   3  157.98   13.50
   2  -7  -3  147.69   14.10
   2   5   3  128.79   13.50
  -5  -2  -3  155.38   13.60
  -7   5  -3  120.29   13.40
   5  -7   3  144.09   13.90
  -5   7   3  152.48   14.00
   2   5   3  160.28   14.10
   2   5   3  139.59   13.90
  -7   2   3  130.09   13.90
  -2   7  -3  132.49   13.80
  -5  -2  -3  131.39   13.80
  -2  -5   3  151.08   14.10
   2  -7  -3  145.29   13.60
   7  -5  -3  164.58   13.90
  -2  -5   3  161.28   14.00
   7  -2   3  147.39   13.50
   7  -5  -3  113.89   13.30
  -2   7  -3  117.09   13.50
  -2   7  -3  124.99   13.40
   2  -7  -3  129.99   13.50
   7  -5  -3  134.99   13.90
   5   2  -3  139.89   13.60
  -7   5   3  160.98   14.20
   2  -7   3  138.19   14.10
  -2   7   3  175.58   13.60
  -5   7  -3  131.69   13.60
  -7   2  -3  135.89   13.40
  -5  -2   3  186.98   14.40
   7  -5   3  151.98   14.10
  -2  -5  -3  163.78   13.60
   7  -2  -3  134.19   13.60
   5   2   3  132.29   13.50
  -5   7  -3  144.09   14.10
   2  -7   3  182.38   13.70
  -5   7  -3  127.69   13.40
  -5   7  -3  161.48   14.30
   2  -7   3  141.09   13.60
   5  -7  -3  165.38   14.30
   5  -7  -3  143.79   13.80
   7  -2  -3  136.99   14.00
   7  -2  -3  114.49   13.70
   5   2   3  132.09   13.90
  -7   5   3  137.79   13.50
   5  -7  -3  136.89   13.50
  -2   7   3  164.38   13.70
  -2  -5  -3  160.28   14.10
   2   5  -3  141.09   14.10
  -2   7   3  125.39   14.00
  -7   5   3  142.99   13.50
  -7   2  -3  161.38   14.10
   2   5  -3  137.39   13.50
   7  -2  -3  151.38   13.70
  -5  -2   3  139.89   13.40
   5   2   3  164.38   14.20
   5   2   3  165.18   13.60
  -5  -2   3  130.49   13.50
   2  -7   3  143.49   14.00
   7  -5   3  122.49   13.30
  -7   5   3  135.29   13.90
  -7   2  -3  135.79   13.60
   7  -5   3  157.08   13.70
  -7   2  -3  136.99   14.00
   2   5  -3  120.49   13.80
   5  -7  -3  132.19   13.60
   2   5  -3  150.38   13.80
  -2  -5  -3  137.59   13.50
  -2  -5  -3  154.78   14.00
  -2   7   3  167.68   14.10
   6  -7   3   60.69    6.70
   1  -7  -3   65.79    6.50
   7  -1   3   62.79    6.10
  -1  -6   3   57.79    6.50
  -6   7   3   60.09    6.00
  -7   6  -3   48.80    6.30
   1   6   3   62.19    6.00
  -1  -6   3   57.09    6.00
   7  -1   3   51.99    6.50
  -6  -1  -3   61.19    6.10
   7  -6  -3   60.49    6.10
  -7   1   3   56.29    6.40
   7  -6  -3   62.19    6.40
  -7   6  -3   53.59    6.10
   6   1  -3   57.69    6.50
  -7   6  -3   64.89    6.60
  -6  -1  -3   67.89    6.60
  -6   7   3   57.99    6.30
   1   6   3   68.09    6.20
   1  -7  -3   47.90    6.20
   1  -7  -3   56.89    6.00
  -6   7   3   57.19    6.00
  -1  -6   3   46.90    6.20
  -6   7   3   58.59    6.50
   6  -7   3   59.89    6.00
  -6  -1  -3   57.89    6.50
  -7   1   3   49.10    5.90
   1   6   3   62.49    6.40
   6   1  -3   60.59    6.70
   6  -7   3   67.29    6.40
  -1   7  -3   60.29    6.70
   7  -6  -3   56.89    6.50
   1   6   3   49.90    6.30
  -7   1   3   56.29    5.90
   7  -1   3   60.89    6.00
   7  -6  -3   63.89    6.30
   6   1  -3   54.49    6.00
  -1  -6   3   63.09    6.00
   6  -7   3   67.59    6.60
  -7   1   3   55.09    6.30
   1  -7  -3   55.69    6.00
  -6  -1  -3   46.50    5.90
   7  -1   3   64.59    6.50
  -1   7  -3   64.89    6.40
  -1   7  -3   63.59    6.20
  -7   1  -3   55.09    6.30
  -1  -6  -3   51.79    6.30
  -7   6   3   57.69    6.40
  -7   1  -3   68.49    6.70
  -1   7   3   52.89    5.90
   7  -6   3   48.40    5.80
  -1   7   3   59.49    6.50
   6  -7  -3   64.59    6.10
  -6  -1   3   66.59    6.70
  -6   7  -3   56.39    6.10
  -6  -1   3   70.59    6.80
  -6  -1   3   58.79    6.00
   6   1   3   62.69    6.10
   6  -7  -3   59.59    6.10
  -6   7  -3   62.59    6.60
  -7   1  -3   53.89    6.30
  -1   7   3   53.69    6.40
  -7   1  -3   48.40    6.00
   7  -1  -3   68.89    6.20
   1  -7   3   73.49    6.70
  -1   7   3   56.29    6.10
  -1  -6  -3   60.39    6.00
  -6   7  -3   46.80    6.20
  -1  -6  -3   57.99    6.00
   1   6  -3   65.19    6.20
   7  -6   3   65.09    6.60
   1  -7   3   47.50    5.80
  -7   6   3   53.69    6.30
   6   1   3   63.19    6.60
   6  -7  -3   53.29    6.30
   7  -6   3   61.19    6.10
   7  -1  -3   56.59    6.40
  -7   6   3   50.69    5.90
  -7   6   3   62.29    6.10
   6   1   3   60.69    6.50
   7  -1  -3   65.09    6.70
   6   1   3   59.49    6.10
   1  -7   3   48.80    5.90
   6  -7  -3   66.79    6.80
   7  -6   3   51.29    6.30
  -6  -1   3   49.00    5.80
   1   6  -3   51.09    6.30
   1   6  -3   54.59    6.50
  -1  -6  -3   67.79    6.60
   1  -7   3   56.19    6.30
   0  -7  -3  345.87   34.40
   0   7   3  433.16   34.90
   0   7   3  332.67   35.00
   0   7   3  444.96   34.90
  -7   7   3  386.76   34.60
  -7   7   3  444.66   34.80
   0  -7   3  373.86   34.60
   7  -7   3  352.16   34.70
   0  -7  -3  387.26   34.80
  -7   0   3  352.46   34.40
   7   0   3  373.86   34.60
   7   0   3  377.26   34.50
   4  -8   3    0.50    0.70
  -8   4   3   -0.30    0.50
  -4  -4  -3   -0.80    0.60
  -4  -4  -3   -0.20    0.90
   4   4   3    0.00    0.80
  -8   4   3   -0.60    0.50
   4   4   3   -0.10    0.60
   4  -8  -3   -0.30    0.40
  -4   8   3   -0.10    0.80
   8  -4   3   -0.30    0.70
  -4   8   3   -0.50    0.50
   4   4   3   -0.30    0.70
  -4  -4   3    0.10    0.70
   4  -8  -3    0.20    0.70
   8  -4   3   -0.20    0.50
  -5   8   3    3.90    1.20
  -5   8   3    6.40    1.90
   3  -8  -3    6.20    1.70
   8  -3   3    5.70    1.50
   3  -8  -3    5.80    1.60
   5  -8   3    4.60    1.40
  -8   3   3    5.00    1.30
  -8   3   3    5.90    1.40
  -3  -5   3    5.00    1.30
   3   5   3    5.30    1.40
  -3   8   3    5.70    1.80
  -3   8   3    5.00    1.30
   5   3   3    7.40    1.60
   5   3   3    5.40    1.30
   8  -5   3    4.60    1.40
  -5  -3   3    4.50    1.30
  -3  -5  -3    4.30    1.20
   3  -8   3    3.80    1.30
   5  -8  -3    3.40    1.40
  -8   5   3    5.00    1.30
   5  -8  -3    5.60    1.50
  -8   5   3    3.80    1.20
  -3   8   3    5.80    1.40
  -3  -5  -3    5.40    1.80
   6   2  -3  180.88   16.10
  -8   2   3  168.48   16.00
  -8   6  -3  141.79   15.40
  -6   8   3  159.68   15.50
   6  -8   3  173.08   15.90
  -2  -6   3  149.69   15.30
   8  -2   3  153.98   15.80
  -8   2   3  180.58   15.50
  -2   8  -3  152.78   16.00
   8  -2   3  161.38   15.50
   2   6   3  161.78   15.40
   6  -8   3  152.88   15.40
   6   2  -3  195.28   15.60
  -8   6  -3  156.58   16.00
  -2   8  -3  165.98   15.60
  -2  -6   3  165.18   15.90
  -8   2  -3  160.78   16.00
  -8   6   3  192.68   15.70
  -6  -2   3  168.48   15.60
   8  -6   3  158.38   15.90
   2   6  -3  153.08   16.00
  -6  -2   3  167.28   16.10
  -2   8   3  157.38   15.30
  -8   6   3  158.38   16.70
  -6  -2   3  157.68   15.30
   2  -8   3  179.48   16.20
  -6   8  -3  145.39   15.40
   8  -6   3  169.78   15.40
   8  -6   3  169.78   15.50
   2   6  -3  150.98   15.40
  -8   2  -3  173.28   15.60
  -6   8  -3  136.09   15.80
   2  -8   3  176.58   15.50
  -2   8   3  176.58   15.90
   6   2   3  187.68   16.40
   8  -2  -3  177.88   15.50
   8  -1   3   31.60    4.60
   7  -8   3   31.90    4.40
  -7   8   3   42.00    5.20
   1  -8  -3   37.50    4.10
   8  -1   3   34.80    4.20
  -1  -7   3   31.10    4.40
  -1   8  -3   26.70    4.00
  -7  -1  -3   34.60    4.90
   1   7   3   38.10    4.00
   7   1  -3   37.60    4.90
  -8   1   3   31.80    4.10
  -1  -7   3   34.70    3.90
   8  -7  -3   30.80    4.10
   8  -7  -3   28.30    4.40
   1   7   3   35.90    4.00
   1  -8  -3   31.80    4.50
  -7   8   3   41.70    4.10
   1   7   3   27.30    4.40
  -7   8   3   30.10    4.10
   7   1  -3   35.80    4.20
  -1   8  -3   35.60    4.80
   7  -8   3   32.90    4.20
  -8   1   3   29.70    4.50
  -8   7  -3   24.60    4.30
  -8   7  -3   27.00    4.00
  -8   7   3   43.90    5.40
   7  -8  -3   34.30    4.40
  -7   8  -3   33.80    4.70
   1  -8   3   40.00    4.50
  -8   1  -3   32.00    4.20
   8  -1  -3   36.80    4.40
  -7   8  -3   30.20    4.20
  -7  -1   3   34.40    4.20
  -7  -1   3   32.50    4.60
  -1   8   3   33.60    4.40
  -1   8   3   36.90    4.10
   7  -8  -3   33.50    4.60
  -8   1  -3   30.40    4.60
   8  -7   3   27.80    4.40
   7   1   3   39.10    4.60
   1   7  -3   29.30    4.10
  -1  -7  -3   26.00    4.10
  -1   8   3   35.00    5.00
  -8   7   3   29.00    3.90
  -1  -7  -3   41.90    4.30
   1  -8   3   39.10    4.20
   8  -1  -3   37.30    4.40
   1   7  -3   30.90    4.50
   8  -7   3   30.70    4.00
   7   1   3   32.70    3.90
  -8   8  -3  135.09   13.50
   0   8  -3  161.68   13.50
   0   8   3  131.59   12.90
  -8   0  -3  124.29   12.90
   0  -8   3  138.49   12.90
   0   8  -3  124.09   13.50
   8  -8  -3  132.19   12.90
  -8   8   3  129.79   13.40
  -8   0   3  134.59   12.80
   8  -8  -3  121.69   13.30
   8   0  -3  130.69   13.40
  -8   0  -3  129.09   13.40
   0   8   3  137.69   13.60
   8   0   3  145.99   13.60
   8  -8   3  119.89   12.70
   8   0   3  145.59   12.90
   8   0  -3  164.68   13.20
  -8   8  -3  134.29   13.00
  -8   0   3  132.89   13.50
   0  -8  -3  131.09   13.10
   0  -8  -3  141.49   12.90
   0  -8   3  112.69   13.10
  -8   8   3  144.29   12.90
  -5  -4  -3   97.89   11.70
  -9   5  -3  105.29   11.90
   5   4  -3  150.68   12.20
  -4   9  -3  143.19   12.80
   4  -9  -3  140.89   12.50
   4  -9  -3  111.29   11.80
  -9   5  -3  114.89   12.50
   9  -4   3  139.89   12.60
  -4   9  -3  119.39   12.00
  -9   4   3  124.29   12.50
   9  -5  -3  112.79   11.80
   4   5   3  128.89   12.00
   5  -9   3  104.99   12.20
  -5   9   3  113.59   12.40
  -9   4   3  108.99   11.80
  -4  -5   3  129.49   12.30
  -5  -4  -3  142.49   12.50
   9  -4   3  139.49   12.10
  -4  -5   3  112.29   11.80
   5   4  -3  122.59   12.50
   5  -9   3  115.99   11.80
  -5   9   3  137.89   12.00
  -4  -5  -3  121.89   11.90
   5  -9  -3  130.59   12.00
   4  -9   3  123.39   11.90
   9  -4  -3  106.69   12.20
   9  -5   3  116.49   11.80
  -4  -5  -3  142.79   12.40
   5   4   3  159.58   12.40
   4  -9   3  122.59   12.40
   5  -9  -3  143.99   12.60
   5   4   3  152.38   12.80
  -4   9   3  108.59   12.40
  -9   4  -3  116.69   11.90
  -9   4  -3  108.09   12.30
  -5   9  -3  119.09   12.00
  -4   9   3  110.19   11.80
   9  -4  -3  112.29   11.90
   4   5  -3  133.49   12.50
  -9   5   3  133.39   12.00
  -9   5   3  138.69   12.70
   4   5  -3  111.79   11.90
  -5   9  -3  126.69   12.60
   9  -5   3  158.68   12.60
  -5  -4   3  105.59   11.70
  -5  -4   3  113.89   12.30
   9  -3   3   11.30    2.00
  -3   9  -3   11.50    2.20
   9  -3   3    8.00    2.20
   3  -9  -3   11.40    2.50
   6  -9   3   10.90    2.10
   9  -6  -3   16.10    2.70
  -9   6  -3   12.90    2.50
  -6   9   3   13.70    2.80
  -3  -6   3   12.80    2.20
  -9   3   3   11.30    2.70
  -6  -3  -3   10.10    2.40
   3  -9  -3   12.60    2.20
  -6   9   3   13.20    2.30
   6  -9   3   12.40    2.50
   9  -6  -3   15.30    2.30
   3   6   3   10.90    2.50
   3   6   3    9.20    1.90
  -3  -6   3   10.90    2.40
  -6  -3  -3    9.50    2.00
   6   3  -3   12.30    2.30
   6   3  -3    9.30    2.30
  -3   9  -3   12.70    2.80
  -9   6  -3   11.60    2.60
  -9   3   3   13.30    2.20
   3  -9   3    9.40    1.90
   6  -9  -3   12.30    2.10
  -6   9  -3   11.50    2.40
   9  -3  -3    9.80    2.00
  -3  -6  -3   12.20    2.20
   3   6  -3   13.80    2.90
  -3   9   3   12.00    2.20
  -9   6   3   11.00    2.50
  -9   3  -3   11.50    2.50
  -6   9  -3    6.40    2.10
  -3  -6  -3   10.10    2.30
   3   6  -3   12.50    2.30
   9  -3  -3    9.20    2.30
   6   3   3   14.70    2.90
  -9   3  -3   12.90    2.40
   3  -9   3   10.90    2.40
   9  -6   3   10.30    2.10
   6  -9  -3    9.50    2.20
  -3   9   3   11.40    2.60
  -9   6   3   12.00    2.10
  -6  -3   3   12.30    2.10
   9  -6   3    8.90    2.40
  -6  -3   3   16.50    2.80
   6   3   3   11.30    2.10
   0   1  -4 1726.63  143.49
   1  -1   4 1801.62  143.59
  -1   1  -4 1667.93  143.49
  -1   1   4 1464.75  143.49
  -1   0  -4 1757.62  143.59
   0   1   4 1610.84  143.49
   0   1  -4 1695.83  143.49
   0   1  -4 1579.64  143.59
   0   1   4 1582.34  143.59
  -1   1   4 1756.82  143.59
   1   0   4 1664.13  143.59
   1  -1  -4 1610.34  143.59
  -1   1  -4 1535.75  143.49
   0   1  -4 1637.74  143.69
   0  -1  -4 1458.75  143.49
  -1   0   4 1391.86  143.59
   0  -1  -4 1714.73  143.59
  -1   0   4 1620.84  143.59
   1  -1   4 1664.13  143.59
  -1   1  -4 1611.34  143.59
  -1   0  -4 1677.93  143.59
   0  -1   4 1863.21  143.69
   1   0  -4 1689.53  143.59
   1   0  -4 1550.54  143.59
   1   0  -4 1670.53  143.49
  -1   0  -4 1557.74  143.39
   0  -1   4 1488.05  143.59
  -1   1  -4 1524.85  143.59
   1   0  -4 1742.03  143.49
  -1   2  -4  898.61   89.39
  -1   2  -4 1083.69   89.39
  -1  -1   4  945.11   89.39
   1  -2   4 1131.99   89.19
   1  -2   4 1045.40   89.49
  -1  -1  -4 1098.39   89.29
  -2   1   4  909.01   89.29
  -1  -1  -4 1016.40   89.19
  -1  -1   4 1032.30   89.39
  -2   1   4 1127.29   89.09
  -1   2  -4  984.20   89.29
  -1  -1   4  956.80   89.19
   2  -1  -4  914.41   89.19
   1  -2  -4 1130.89   89.49
  -2   1  -4  968.60   89.19
   1   1  -4 1030.60   89.29
   2  -1   4  978.80   89.39
  -1   2   4 1100.79   89.29
   2  -1  -4  947.21   89.29
  -2   1   4 1038.20   89.09
   1  -2  -4 1001.80   89.19
   1   1  -4 1083.69   89.39
   1   1  -4  858.51   89.19
  -2   1  -4 1096.99   89.29
   1   1   4  945.51   89.29
   2  -1   4 1082.39   89.39
   1  -2   4  997.90   89.19
  -1   2   4  985.70   89.39
   1   1  -4 1129.79   89.49
   1  -2  -4  942.01   89.29
   2  -1   4 1097.79   89.09
   2  -1   4  996.20   89.19
  -1  -1   4 1001.20   89.19
   1   1   4 1072.69   89.39
  -1   2  -4  953.70   89.19
  -2   1  -4  932.61   89.39
   1  -2   4  977.90   89.39
   1  -2  -4  964.50   89.19
   2  -1  -4  899.61   89.19
  -2   1  -4 1029.10   89.39
  -2   1   4 1071.29   89.39
  -1  -1  -4 1080.69   89.39
   2   0  -4 3050.39  253.17
   2   0  -4 2830.02  253.37
   0   2  -4 2866.31  253.17
  -2   2   4 2892.11  252.97
   0   2   4 2771.82  253.27
  -2   2   4 3013.70  252.97
   0  -2   4 2794.92  253.07
   2  -2  -4 3045.60  253.27
  -2   0   4 2735.93  253.27
   0  -2  -4 3163.58  253.17
  -2   2   4 2993.20  253.27
  -2   0  -4 2994.40  253.27
   0   2  -4 3020.70  253.17
  -2   0   4 2905.51  253.07
   2   0  -4 2948.91  253.27
   2   0  -4 2972.30  253.17
   2   0   4 2962.70  253.07
   2   0   4 2796.72  252.97
   0   2   4 2849.71  252.97
   0  -2   4 3169.68  253.07
   0  -2  -4 2855.01  253.07
   0  -2   4 2518.25  253.17
   0   2   4 2911.41  252.97
   2  -2  -4 2933.91  253.27
   0  -2  -4 2735.93  253.17
  -2   0  -4 2607.24  253.07
  -2   0  -4 2623.24  253.17
  -2   2   4 2840.42  253.27
  -2   0   4 2808.52  253.27
  -2   2  -4 2940.41  253.17
   2  -2   4 3031.10  253.37
  -2   2  -4 2805.12  253.37
   2   0   4 2887.11  253.27
  -2   2  -4 2853.81  253.17
   2   0   4 2436.56  253.17
   0   2  -4 2643.14  253.27
   0   2   4 2581.44  253.17
   2  -2  -4 2743.13  253.07
   2  -2  -4 2609.14  253.07
   2  -2   4 3121.59  253.07
  -2   0  -4 2913.31  253.17
   2  -2   4 3206.68  253.07
   0  -2  -4 2806.52  253.07
  -2   0   4 3001.20  253.07
   2  -2   4 3296.87  253.37
   1   2   4 1741.13  150.78
  -2   3   4 1660.53  150.98
  -3   1   4 1753.52  151.08
   3  -1   4 1843.22  150.88
   1  -3  -4 1815.52  151.08
   2  -3   4 1583.54  150.88
  -1  -2   4 1787.22  151.08
   3  -2  -4 1803.52  151.08
  -3   2  -4 1775.22  150.98
  -3   1   4 1724.53  150.88
   3  -1   4 1612.14  151.08
  -2   3   4 1650.43  150.78
  -3   2  -4 1719.43  151.18
   1   2   4 1957.10  151.18
   3  -1   4 1805.72  151.18
  -1  -2   4 1735.63  150.88
  -1  -2   4 1675.83  151.08
   3  -1   4 1621.14  150.88
   3  -2  -4 1677.63  150.88
   2  -3   4 1712.23  151.08
   3  -2  -4 1660.13  150.88
   1  -3  -4 1718.53  150.88
   2   1  -4 1792.22  151.18
   1  -3  -4 1856.11  151.08
   2   1  -4 1787.22  151.18
   3  -2  -4 1640.64  151.08
  -3   2  -4 1899.81  150.98
  -1   3  -4 1591.84  150.88
   2   1  -4 1792.92  150.98
  -2  -1  -4 1533.85  150.98
  -1   3  -4 1508.35  150.98
  -2  -1  -4 1536.55  150.88
  -2  -1  -4 1650.33  151.08
  -2   3   4 1922.01  151.18
   2  -3   4 1572.74  151.18
   1  -3  -4 1740.53  150.88
   1   2   4 1740.53  150.78
  -1  -2   4 1965.90  150.88
  -2   3   4 1521.55  150.78
  -1   3  -4 1723.53  151.28
   2   1  -4 1570.04  150.88
   2  -3   4 1919.31  150.88
   1   2   4 1696.83  151.08
  -3   1   4 1785.62  150.78
  -3   1   4 1677.43  151.18
  -1   3   4 1864.01  150.78
  -1   3   4 1620.44  151.08
  -2   3  -4 1732.93  151.18
  -1   3   4 1615.84  150.78
   3  -1  -4 1759.12  150.88
   3  -1  -4 1778.22  151.18
   2  -3  -4 1705.53  150.88
   2   1   4 1534.75  151.08
  -3   2   4 1670.53  150.78
  -2   3  -4 1571.14  150.88
  -2  -1   4 1731.83  151.18
   1  -3   4 1990.60  151.28
  -3   1  -4 1595.64  151.08
  -3   1  -4 1856.51  150.98
   1   2  -4 1732.03  150.88
   2   1   4 1833.22  150.88
  -1   3   4 1625.44  150.98
   1  -3   4 1855.41  150.88
   1   2  -4 1709.83  150.88
   2   1   4 1647.44  150.78
  -3   2   4 1642.34  150.78
   3  -2   4 1761.32  150.88
   3  -2   4 1949.51  151.28
   3  -2   4 1635.14  151.08
  -1  -2  -4 1739.53  151.08
   2  -3  -4 1714.43  150.88
   2  -3  -4 1564.14  151.08
   2   1   4 1442.46  150.98
  -1  -2  -4 1873.91  150.88
  -1  -2  -4 1605.54  150.88
  -3   1  -4 1543.15  151.08
   3  -1  -4 1686.83  151.08
   3  -1  -4 1675.43  150.88
   1  -3   4 1712.03  150.88
   1  -3   4 1557.94  151.08
  -2   3  -4 1785.22  151.08
  -2   3  -4 1619.54  151.18
  -2  -1   4 1861.01  150.88
  -2  -1   4 1751.02  151.08
  -1  -2  -4 1739.83  151.08
   1   2  -4 1564.94  151.08
  -3   1  -4 1666.43  150.88
   2  -3  -4 1738.53  151.08
   3  -2   4 1770.52  150.88
   3  -3  -4  639.84   56.29
   0   3   4  654.53   56.49
   0  -3   4  616.54   56.59
   0   3   4  665.43   56.19
   3   0  -4  680.43   56.59
   3   0  -4  633.34   56.59
   0  -3  -4  652.13   56.39
   3   0   4  633.34   56.29
   0   3   4  620.84   56.19
  -3   0  -4  671.83   56.49
  -3   3   4  661.73   56.19
   3  -3  -4  689.43   56.59
  -3   3   4  551.24   56.39
   0  -3   4  659.13   56.29
  -3   3  -4  709.43   56.39
   3   0   4  597.24   56.19
  -3   0   4  654.33   56.59
   0   3  -4  702.73   56.59
   3  -3  -4  579.54   56.29
   3  -3   4  629.74   56.19
   3  -3  -4  600.74   56.49
   0  -3  -4  649.14   56.39
   0   3  -4  594.44   56.29
  -3   0  -4  624.84   56.29
   3   0   4  692.23   56.59
   0   3   4  576.44   56.49
  -3   3   4  574.74   56.19
   3   0  -4  603.94   56.29
  -3   0  -4  656.43   56.49
  -3   3  -4  706.53   56.69
   0   3  -4  620.24   56.39
   0  -3  -4  665.93   56.39
   0  -3  -4  662.53   56.49
  -3   3  -4  607.44   56.29
   3  -3   4  693.43   56.39
  -3   3   4  539.45   56.39
   3   0  -4  606.14   56.29
   3  -3   4  556.94   56.49
  -3   0   4  654.93   56.19
  -3   0   4  619.94   56.19
   0  -3   4  649.64   56.29
  -3   0   4  599.34   56.49
   0  -3   4  726.93   56.59
  -3   3  -4  629.54   56.59
   0   3  -4  732.53   56.69
  -3   0  -4  617.64   56.29
   3  -3   4  570.24   56.59
   3   0   4  611.24   56.49
  -2  -2   4 5656.33  454.75
   4  -2   4 5514.95  455.05
   2   2  -4 5049.79  455.55
   2   2  -4 4822.92  455.05
   4  -2   4 5077.69  454.65
   2  -4  -4 4711.43  454.75
  -2   4   4 4616.44  454.65
   2   2   4 5350.86  454.75
   4  -2   4 4765.32  455.05
   2  -4  -4 5257.77  454.95
   4  -2  -4 5090.69  454.75
   2  -4   4 5501.15  454.75
   2   2   4 5188.68  455.05
   4  -2  -4 4713.53  454.95
  -2   4  -4 5363.86  454.85
  -2  -2  -4 4916.41  454.95
  -2  -2  -4 4795.92  454.95
  -2   4   4 5219.88  454.95
   2  -4   4 4835.92  455.15
   2   2   4 5863.01  454.85
   2   2  -4 5049.39  454.75
  -2   4  -4 5116.59  455.05
  -4   2   4 5491.65  455.05
  -2  -2   4 4811.12  455.05
  -4   2  -4 5383.96  454.85
  -2  -2  -4 5087.19  454.75
   4  -2  -4 5472.15  455.05
  -2  -2   4 4719.53  454.65
   2  -4  -4 4771.52  454.75
   2  -4   4 4970.00  454.75
   2  -4  -4 4823.42  454.95
  -2   4   4 5387.76  455.05
  -4   2   4 5805.22  454.75
  -4   2  -4 4971.60  455.05
  -2   4   4 5255.37  454.75
  -4   2   4 5042.80  455.05
  -4   2  -4 5168.68  455.05
  -2  -2  -4 5547.54  454.75
  -2  -2   4 5006.60  455.25
  -4   2   4 5971.60  454.85
   2   2   4 5805.62  455.25
  -3   4   4  474.95   41.80
   1   3   4  398.16   41.50
  -3  -1  -4  409.16   41.60
  -4   1   4  416.76   41.50
   1  -4  -4  435.06   41.50
   3   1  -4  466.55   41.60
  -3   4   4  434.76   41.50
  -4   3  -4  448.56   41.60
  -3   4   4  446.26   41.80
   4  -3  -4  521.05   42.00
  -4   1   4  440.26   41.50
   1   3   4  550.24   41.90
   4  -1   4  440.66   41.60
  -3   4   4  432.16   41.40
   4  -1   4  503.35   41.60
   1   3   4  389.46   41.70
   4  -1   4  437.36   41.90
   1   3   4  508.65   41.60
  -3  -1  -4  461.35   41.80
   1  -4  -4  476.55   41.90
  -1  -3   4  436.06   41.50
   3  -4   4  481.05   41.70
   1  -4  -4  473.35   41.80
   3  -4  -4  509.85   41.60
   3   1   4  451.55   41.90
  -4   1  -4  459.95   41.60
  -4   1  -4  478.85   41.80
   3   1   4  502.95   41.90
   3  -4  -4  531.65   41.80
   3   1   4  404.86   41.50
  -1   4   4  400.16   41.40
  -1   4   4  505.65   42.00
  -3   4  -4  445.36   41.60
  -1  -3  -4  531.25   41.90
  -4   3   4  476.15   41.90
  -1  -3  -4  457.45   41.60
   1  -4   4  462.05   41.60
  -3   4  -4  499.55   41.80
   4  -3   4  451.65   41.60
  -1   4   4  465.75   41.80
   3  -4  -4  504.05   42.00
  -4   3   4  454.05   41.80
  -4   3   4  474.75   41.50
  -4   3   4  425.96   41.50
  -1   4   4  501.05   41.60
   4  -1  -4  557.24   42.10
  -3  -1   4  457.55   41.60
   3   1   4  471.45   41.50
  -3  -1   4  520.45   41.60
   4  -3   4  482.25   41.60
   4  -1  -4  451.65   41.60
   1   3  -4  542.55   41.90
   4   0  -4 1236.58  106.59
  -4   4  -4 1389.96  106.69
  -4   4  -4 1032.80  106.29
  -4   4   4 1108.49  106.09
   0  -4   4 1092.29  106.09
   0   4  -4 1303.47  106.29
  -4   0   4 1151.78  106.49
   4  -4   4 1212.28  106.49
  -4   4  -4 1172.88  106.29
   0   4  -4 1137.99  106.49
   4   0   4 1156.28  106.09
   4  -4   4 1302.97  106.79
   4  -4  -4 1229.98  106.19
  -4   0  -4 1349.27  106.69
   0  -4   4 1320.17  106.49
   0  -4   4 1027.60  106.09
   0  -4  -4 1277.67  106.19
  -4   0   4 1240.78  106.09
   0   4  -4 1369.76  106.39
   0   4  -4 1157.68  106.39
   4  -4   4 1179.38  106.09
   0   4   4 1144.99  106.09
   0  -4   4 1158.98  106.49
  -4   4  -4 1210.48  106.19
   0   4   4 1015.90  105.99
   4   0  -4 1167.38  106.19
   4   0   4 1352.06  106.59
   0  -4  -4 1178.68  106.19
   4  -4   4 1283.67  106.29
  -4   0   4 1094.79  106.39
  -4   0  -4 1247.88  106.19
  -5   3  -4  357.26   33.50
   5  -2   4  348.57   33.70
  -2   5  -4  424.26   33.70
  -3   5   4  411.16   33.30
   5  -3  -4  372.26   33.80
   3  -5   4  423.16   33.90
   3   2  -4  402.96   33.80
   5  -2   4  340.47   33.30
  -3   5   4  333.27   33.30
  -5   2   4  360.86   33.40
   2  -5  -4  344.87   33.40
   3   2  -4  358.86   33.40
   3   2  -4  408.56   33.50
  -3   5   4  366.26   33.60
   2   3   4  358.06   33.40
  -5   2   4  411.46   33.40
  -2   5  -4  423.46   34.00
  -5   2   4  403.96   34.00
   3   2  -4  419.26   33.90
   5  -2   4  344.87   33.70
  -3   5   4  415.56   33.90
   3  -5   4  398.36   34.00
  -2  -3   4  350.16   33.70
   2   3   4  382.26   33.40
  -2   5  -4  328.77   33.40
   2   3   4  375.96   33.70
  -5   3  -4  416.26   33.50
  -2   5  -4  366.46   33.50
   3  -5   4  370.26   33.40
  -5   3  -4  392.86   33.80
   5  -3  -4  352.26   33.40
   2  -5  -4  334.47   33.60
  -2  -3   4  392.46   33.40
  -3  -2  -4  347.27   33.40
   5  -3  -4  411.96   33.80
  -2  -3   4  330.67   33.60
  -3  -2  -4  356.36   33.60
   2  -5  -4  350.76   33.60
  -5   2   4  388.06   33.80
   5  -2   4  371.86   33.40
  -5   3  -4  371.56   33.80
   2   3   4  370.06   33.70
   2  -5  -4  392.76   33.40
   5  -3   4  303.47   33.60
  -5   3   4  358.56   33.70
  -3  -2   4  439.66   33.50
  -2  -3  -4  350.66   33.40
  -5   2  -4  349.67   33.50
  -2   5   4  370.26   33.30
   5  -2  -4  368.26   33.70
  -3   5  -4  414.26   33.80
  -3  -2   4  365.76   33.70
  -3   5  -4  411.86   34.10
   3   2   4  350.06   33.40
  -3  -2   4  331.67   33.70
   3  -5  -4  333.37   33.70
   5  -2  -4  446.76   33.50
  -5   2  -4  302.87   33.30
  -5   3   4  409.56   33.40
   5  -2  -4  361.96   33.70
   3  -5  -4  442.16   33.60
  -5   2  -4  387.56   33.80
  -2  -3  -4  311.17   33.60
  -5   2  -4  313.67   33.60
   5  -2  -4  390.06   33.50
  -3   5  -4  366.76   33.60
   2   3  -4  344.87   33.40
   5  -3   4  391.76   33.40
   3   2   4  324.07   33.30
   3   2   4  375.66   33.80
  -5   3   4  364.46   33.30
   2  -5   4  338.57   33.40
   2  -5   4  388.96   33.70
   2  -5   4  383.36   33.80
   3  -5  -4  335.67   33.60
   5  -3   4  375.86   33.80
   2   3  -4  445.56   34.00
   2   3  -4  354.06   33.50
  -2   5   4  374.66   33.90
  -5   3   4  387.36   33.80
   3   2   4  418.86   34.00
   2   3  -4  398.26   33.80
  -2  -3  -4  429.66   33.80
   3  -5  -4  361.16   33.50
  -2  -3  -4  350.16   33.40
   4   1  -4   52.29    6.30
  -4   5   4   66.79    6.00
   1   4   4   65.29    6.40
  -4   5   4   70.79    6.60
  -1  -4   4   63.19    6.40
  -1  -4   4   69.09    6.00
   1  -5  -4   49.99    6.10
  -4  -1  -4   70.99    6.50
  -5   4  -4   57.89    6.20
  -1   5  -4   62.79    6.00
  -4  -1  -4   63.99    6.10
   5  -1   4   59.09    6.20
   4  -5   4   51.19    6.10
  -1  -4   4   57.79    5.90
   1  -5  -4   73.89    6.10
   5  -4  -4   52.69    6.00
  -1  -4   4   61.89    6.30
   1   4   4   54.69    5.90
  -5   4  -4   70.29    6.50
   1   4   4   57.49    5.90
  -1   5  -4   61.09    6.30
   1  -5  -4   60.59    6.00
   5  -1   4   59.59    5.90
  -5   1   4   51.69    6.20
   4  -5   4   59.49    6.00
   1   4   4   51.79    6.10
   5  -4  -4   56.69    6.00
  -5   4  -4   63.69    6.00
  -4   5   4   69.09    6.00
   4   1  -4   61.99    6.10
  -5   1   4   66.39    6.00
   5  -4  -4   54.19    6.20
  -4  -1  -4   62.09    6.10
   4  -5   4   56.39    5.90
  -1   5  -4   60.79    6.10
  -5   1   4   63.79    6.40
  -4   5   4   49.60    6.10
   4   1  -4   69.99    6.10
   5  -4  -4   62.29    6.40
  -1   5  -4   64.79    6.50
  -5   4  -4   59.39    6.10
  -4  -1  -4   56.09    6.20
   1  -5  -4   75.69    6.40
   4   1  -4   66.69    6.40
   5  -1   4   56.39    6.30
   4  -5   4   57.09    6.30
   4   1   4   63.89    6.50
   5  -1  -4   62.19    6.10
   4   1   4   59.89    5.90
  -5   4   4   57.19    5.90
   1  -5   4   52.99    6.30
  -1  -4  -4   59.89    6.00
   5  -4   4   71.49    6.40
   4  -5  -4   60.99    6.00
  -1   5   4   72.49    6.00
  -5   4   4   53.99    6.10
  -1  -4  -4   63.29    5.90
  -5   1  -4   63.59    6.40
  -1   5   4   66.59    6.50
  -4  -1   4   66.29    6.40
   1   4  -4   49.10    5.90
   1   4  -4   69.09    6.20
   1   4  -4   62.59    6.30
  -4  -1   4   54.39    5.80
   1  -5   4   62.09    6.00
   1  -5   4   59.19    6.30
   1   4  -4   55.39    6.40
   4  -5  -4   65.39    6.30
  -4   5  -4   68.19    6.10
  -1  -4  -4   60.59    6.30
   5  -1  -4   49.99    6.10
   5  -1  -4   56.89    6.30
   4  -5  -4   52.79    5.90
  -4   5  -4   57.39    6.00
  -4   5  -4   65.19    6.40
   1  -5   4   56.09    5.90
  -5   4   4   70.49    6.40
  -5   4   4   50.49    5.80
   4   1   4   68.29    6.40
  -1   5   4   55.39    5.90
  -5   1  -4   59.79    6.00
  -4  -1   4   54.89    6.20
  -5   1  -4   62.09    6.00
   5  -4   4   51.89    5.80
  -5   1  -4   58.99    6.20
  -1  -4  -4   61.09    6.20
   5  -1  -4   60.29    6.00
  -4   5  -4   60.19    6.30
   4   1   4   56.29    5.90
  -1   5   4   71.49    6.30
   5  -4   4   82.89    6.70
   0   5  -4  542.65   45.80
  -5   0   4  498.15   45.10
   5   0  -4  520.15   45.60
  -5   5  -4  573.34   45.70
   0  -5   4  455.55   45.10
   5   0  -4  517.65   45.20
   5  -5  -4  503.85   45.50
   0   5  -4  574.54   45.40
  -5   0   4  449.76   45.40
   5  -5  -4  481.35   45.20
   5  -5   4  526.45   45.30
   0   5  -4  483.85   45.20
   5  -5  -4  499.15   45.60
  -5   0  -4  519.75   45.50
   0  -5   4  528.35   45.70
   5  -5   4  519.45   45.20
   0   5   4  516.85   45.60
  -5   5  -4  562.94   45.40
   0   5  -4  475.45   45.50
   5  -5   4  478.45   45.60
   0  -5   4  439.36   45.30
   0   5   4  489.45   45.10
   0  -5  -4  501.95   45.20
   5   0   4  570.44   45.20
   5  -5   4  482.05   45.50
   5   0  -4  509.35   45.20
  -5   0  -4  461.35   45.10
  -5   5   4  513.75   45.50
  -5   0  -4  534.65   45.50
  -5   5   4  505.95   45.10
   0  -5  -4  458.25   45.10
   0  -5  -4  514.45   45.70
   5   0   4  484.15   45.50
   0  -5   4  500.55   45.10
  -5   0   4  566.94   45.20
   5   0   4  492.25   45.10
  -5   0  -4  472.25   45.20
  -5   5  -4  529.85   45.60
  -5   0   4  517.75   45.60
   0   5   4  506.75   45.60
   5   0   4  540.25   45.70
   0  -5  -4  496.95   45.30
   5   0  -4  466.95   45.50
   3   3  -4    1.20    0.70
   3  -6  -4    0.80    0.60
  -6   3  -4    1.70    0.90
  -3  -3   4    0.40    0.60
   3  -6   4    0.70    0.60
   6  -3  -4    2.70    1.10
  -3  -3  -4    0.50    0.70
  -6   3   4    1.40    0.70
  -6   3   4    2.20    0.80
   6  -3  -4    0.50    0.60
   3  -6   4    1.20    1.00
  -3  -3  -4    1.10    0.70
   6  -3  -4    1.00    0.70
  -3  -3  -4    0.30    0.70
  -3   6  -4    1.10    0.70
   3   3  -4    1.10    0.80
  -6   3  -4    0.00    0.60
   3   3   4    2.90    0.90
   3   3   4    2.20    1.00
   3   3   4    1.20    0.80
   3   3  -4    0.50    0.80
   3   3  -4    0.60    0.60
   3  -6   4    0.60    0.50
   6  -3   4    2.00    0.70
  -6   3  -4    1.30    0.80
  -3   6  -4    1.80    0.90
   3  -6  -4    0.80    0.80
  -3   6   4    1.00    0.90
  -3   6  -4    1.60    0.80
   6  -3  -4    1.10    0.90
  -3   6   4    0.60    0.50
  -6   3   4    0.90    0.60
   3  -6   4    1.10    0.60
   3   3   4    2.10    0.80
   6  -3   4    0.70    0.60
  -6   3   4    0.80    0.80
  -3  -3  -4    0.10    0.50
  -3  -3   4    1.30    0.60
  -3   6   4    1.90    1.00
  -3  -3   4    3.40    1.10
  -3   6  -4    0.70    0.70
   6  -3   4    0.70    0.80
   3  -6  -4    1.60    0.80
  -3  -3   4    0.40    0.80
  -6   3  -4    0.90    0.60
   6  -3   4    2.40    1.10
  -4   6   4 1225.08  109.29
  -4   6   4 1269.17  109.19
  -2  -4   4 1362.36  109.39
  -2   6  -4 1292.37  109.89
  -2   6  -4 1277.07  109.39
   6  -4  -4 1190.58  109.59
  -6   4  -4 1390.96  109.39
   4  -6   4 1126.99  109.19
   4  -6   4 1273.97  109.79
   6  -2   4 1360.66  109.29
  -6   2   4 1146.79  109.19
  -2  -4   4 1293.77  109.69
  -4   6   4 1045.70  109.49
   6  -2   4 1275.47  109.29
   2   4   4 1154.38  109.19
  -4  -2  -4 1392.36  109.39
   4   2  -4 1336.37  109.39
   6  -4  -4 1257.27  109.39
   2  -6  -4 1111.99  109.59
  -6   4  -4 1305.77  109.39
  -6   2   4 1312.77  109.89
   6  -4  -4 1379.76  109.39
   6  -4  -4 1297.77  109.79
   4   2  -4 1294.37  109.69
  -4  -2  -4 1169.18  109.19
  -2   6  -4 1328.57  109.29
   2   4   4 1061.29  109.19
  -2   6  -4 1327.97  109.69
   6  -2   4 1190.88  109.59
   4   2  -4 1132.39  109.19
   4  -6   4 1259.37  109.39
   2   4   4 1140.69  109.59
   2  -6  -4 1215.68  109.49
   6  -2   4 1181.68  109.69
  -6   2   4 1246.38  109.59
  -6   4  -4 1144.89  109.69
  -4   6   4 1231.48  109.59
  -2  -4   4 1372.56  109.79
  -6   4  -4 1182.98  109.59
   2  -6  -4 1228.38  109.29
  -2  -4   4 1202.48  109.19
   4  -6   4 1204.28  109.59
   4   2  -4 1391.86  110.09
   2  -6  -4 1244.38  109.29
  -6   2   4 1390.46  109.29
  -4  -2  -4 1207.88  109.49
  -6   2  -4 1383.56  109.29
  -2  -4  -4 1102.59  109.19
   6  -4   4 1212.48  109.69
  -2   6   4 1197.58  109.69
  -4   6  -4 1093.59  109.49
   4  -6  -4 1329.77  109.49
   6  -2  -4 1337.67  109.69
   2  -6   4 1033.30  109.49
   4   2   4 1259.87  109.69
  -2   6   4 1145.49  109.19
   6  -2  -4 1278.27  109.69
   4  -6  -4 1186.08  109.49
  -4   6  -4 1214.28  109.29
  -6   2  -4 1155.58  109.49
  -6   4   4 1145.69  109.19
  -4  -2   4 1069.39  109.49
   2   4  -4 1217.68  109.69
  -2   6   4 1338.27  109.29
   6  -4   4 1151.48  109.19
   4   2   4 1260.97  109.69
   6  -2  -4 1269.47  109.29
   4  -6  -4 1301.37  109.29
   6  -4   4 1198.98  109.19
  -6   4   4 1301.37  109.79
  -4  -2   4 1209.68  109.29
  -6   4   4 1373.96  109.89
   2  -6   4 1166.98  109.19
   2   4  -4 1287.77  109.29
  -6   2  -4 1283.27  109.69
  -4   6  -4 1213.18  109.29
  -4  -2   4 1134.59  109.49
  -4   6  -4 1116.79  109.59
  -2  -4  -4 1235.78  109.19
  -4  -2   4 1313.67  109.19
  -2   6   4 1229.88  109.59
  -6   2  -4 1152.38  109.29
  -6   4   4 1185.78  109.19
   4   2   4 1168.08  109.19
   2  -6   4 1135.09  109.59
   4   2   4 1397.46  109.39
   4  -6  -4 1255.77  109.79
   2   4  -4 1222.88  109.59
  -2  -4  -4 1289.27  109.59
   1  -6  -4  398.46   34.10
  -1  -5   4  405.46   34.50
   5  -6   4  362.56   34.00
   5  -6   4  364.16   34.30
   6  -1   4  351.16   34.40
  -6   1   4  365.06   33.80
   6  -1   4  337.77   33.80
   5  -6   4  411.86   34.00
   1  -6  -4  377.76   34.30
  -1  -5   4  410.56   34.00
   1   5   4  343.77   34.30
   6  -1   4  352.56   33.90
  -6   1   4  367.36   34.30
   6  -1   4  308.87   34.10
  -1   6  -4  398.26   34.40
  -5  -1  -4  358.36   33.90
   5   1  -4  326.27   34.30
   1  -6  -4  380.06   34.20
   5   1  -4  363.96   34.00
   6  -5  -4  434.96   34.50
  -1  -5   4  345.87   34.20
   1   5   4  379.56   34.30
  -1   6  -4  341.87   34.40
  -6   1   4  422.96   34.40
   6  -5  -4  343.07   34.00
  -6   5  -4  389.46   34.30
  -1   6  -4  373.46   34.10
  -5  -1  -4  383.16   34.30
   6  -5  -4  366.06   34.40
   5   1  -4  334.97   33.90
   5   1  -4  391.06   34.30
   1  -6  -4  358.26   34.00
  -6   5  -4  324.57   33.90
  -6   5  -4  423.86   34.50
   6  -5  -4  395.36   34.00
  -6   5  -4  368.26   34.00
   1   5   4  385.56   33.90
  -5   6   4  388.06   33.90
  -5  -1  -4  369.26   34.30
  -6   1   4  401.56   34.00
  -1   6  -4  337.57   33.80
  -5   6   4  338.37   34.30
   5  -6   4  375.76   34.60
  -1  -5   4  341.57   33.80
   6  -1  -4  382.36   34.50
   6  -1  -4  423.56   34.50
  -6   5   4  427.26   34.00
   1  -6   4  368.16   34.40
   5   1   4  424.96   34.00
  -6   5   4  402.76   34.60
   1   5  -4  367.16   34.40
  -6   5   4  449.86   34.00
   6  -1  -4  341.57   34.00
  -6   1  -4  399.56   34.10
   5   1   4  409.56   34.50
   5  -6  -4  365.76   33.90
  -1   6   4  307.07   34.00
  -5   6  -4  416.66   34.20
   1  -6   4  345.07   33.80
   6  -1  -4  390.26   34.00
  -5  -1   4  402.16   34.40
  -6   1  -4  401.66   34.40
  -1  -5  -4  434.66   34.40
   5  -6  -4  330.47   34.10
   1   5  -4  387.56   34.00
  -6   5   4  444.16   34.60
  -1  -5  -4  377.36   34.00
  -6   1  -4  383.56   34.00
   5   1   4  397.36   34.00
   6  -5   4  384.76   33.80
  -1   6   4  395.16   34.50
  -6   1  -4  350.66   34.30
   5   1   4  409.36   34.60
  -1   6   4  332.87   33.80
   6  -5   4  338.67   33.90
   1   5  -4  380.46   34.30
   1  -6   4  343.57   33.90
  -5  -1   4  418.86   34.00
  -5   6  -4  381.36   34.00
  -5  -1   4  322.47   34.20
  -5   6  -4  439.06   34.40
   6  -5   4  382.16   34.40
  -5   6  -4  437.06   34.70
   5  -6  -4  349.87   33.90
   5  -6  -4  358.16   34.40
  -1  -5  -4  382.06   33.90
   6  -5   4  365.96   34.30
  -5  -1   4  382.66   33.90
   1  -6   4  408.56   34.40
   1   5  -4  387.86   34.00
   0  -6   4 1778.72  174.18
  -6   6   4 1985.00  173.88
  -6   0  -4 2187.88  174.48
   6  -6  -4 1738.43  174.38
   6   0   4 2067.29  174.38
  -6   6   4 1879.91  174.38
   6  -6  -4 2044.50  174.48
  -6   6   4 1724.53  173.78
   6  -6   4 1956.70  174.38
   0   6   4 1846.92  173.98
   0  -6   4 2190.08  173.98
   0  -6   4 2202.28  174.88
   0   6  -4 1983.60  173.98
   6  -6  -4 2048.70  174.08
  -6   0   4 1986.10  174.38
  -6   6  -4 1881.01  174.48
  -6   6  -4 2163.68  174.38
   6   0   4 2111.29  174.68
   0  -6  -4 1843.42  174.08
  -6   0   4 1937.51  174.48
   0   6   4 2078.19  174.48
   0  -6  -4 2237.38  174.08
   6  -6   4 2093.79  174.18
  -6   0  -4 2098.69  174.48
   0   6  -4 1878.71  174.48
   6   0  -4 2082.39  174.68
   0  -6  -4 1778.22  173.88
   6   0  -4 1964.60  174.08
   0  -6  -4 1715.23  174.18
  -6   0   4 2168.18  173.98
  -6   6  -4 1903.31  174.08
  -6   0  -4 1953.40  173.98
  -6   0  -4 1913.91  174.08
   6  -6  -4 1916.01  173.98
   0   6  -4 1958.60  174.48
   6   0   4 1783.32  173.78
   0  -6   4 1964.70  173.98
  -6   0   4 2088.39  173.98
   0   6   4 1950.60  173.88
   6  -6   4 1903.51  174.48
   6   0  -4 1842.92  173.98
   0   6   4 1963.20  174.48
  -4  -3  -4  285.57   30.50
   7  -3   4  325.27   31.00
   7  -4  -4  329.57   30.60
  -3  -4   4  303.97   30.90
  -7   3   4  393.06   31.30
  -3  -4   4  352.36   31.20
   4   3  -4  315.97   31.10
  -4  -3  -4  301.17   30.50
   7  -3   4  389.56   30.90
   3  -7  -4  326.57   30.60
   3  -7  -4  287.37   30.60
  -4  -3  -4  311.57   31.00
   7  -4  -4  360.96   31.10
   4   3  -4  296.07   30.60
  -7   3   4  327.37   30.60
   7  -4  -4  386.66   31.60
  -3   7  -4  411.86   31.20
   3   4   4  347.77   30.70
   4  -7   4  313.47   30.70
  -4   7   4  353.06   30.70
  -3   7  -4  372.86   30.70
  -3   7  -4  363.56   31.30
   4   3  -4  325.87   31.00
  -4   7   4  348.27   30.60
   4  -7   4  381.46   31.20
   3   4   4  295.97   30.90
  -7   3   4  303.67   31.00
   3  -7  -4  346.87   31.00
  -7   4  -4  322.27   31.10
   4   3  -4  311.07   30.60
   4  -7   4  327.07   30.60
   4  -7   4  356.36   31.30
   7  -4  -4  415.46   31.10
  -3  -4   4  312.47   30.60
  -3   7  -4  335.77   30.80
  -4   7   4  296.47   31.00
  -4  -3  -4  399.26   31.20
   3   4   4  351.86   31.20
  -7   4  -4  340.27   31.10
   7  -3   4  372.16   30.60
  -7   4  -4  348.07   30.80
  -3  -4   4  328.37   30.70
  -7   4  -4  339.97   30.70
   3  -7   4  336.77   31.00
   4   3   4  352.46   31.30
  -4   7  -4  355.76   31.10
  -4  -3   4  337.57   30.60
  -4   7  -4  323.47   31.20
   7  -3  -4  346.17   31.10
   4  -7  -4  322.77   31.00
  -7   3  -4  300.27   30.70
  -3   7   4  335.27   31.20
   3   4  -4  312.77   30.60
  -7   3  -4  343.87   31.10
  -4   7  -4  350.36   30.70
  -7   4   4  320.97   31.10
  -3   7   4  387.96   31.00
   3  -7   4  332.67   30.60
   7  -4   4  321.37   31.10
   7  -4   4  352.46   31.30
  -3   7   4  285.07   30.40
   3   4  -4  400.76   30.90
   4  -7  -4  340.37   30.70
  -3   7   4  364.86   30.70
  -3  -4  -4  298.97   30.90
   3   4  -4  328.87   31.10
   3  -7   4  344.57   30.80
  -7   3  -4  305.87   30.60
  -3  -4  -4  359.26   30.70
  -4  -3   4  368.06   31.30
   4  -7  -4  353.26   31.20
   7  -3  -4  324.77   31.00
   4  -7  -4  368.16   30.80
  -7   4   4  360.16   31.20
   7  -3  -4  324.47   30.60
   7  -4   4  367.36   30.70
   4   3   4  335.87   30.60
  -3  -4  -4  349.37   31.20
   3  -7   4  367.86   31.30
  -7   3  -4  325.77   31.10
  -7   4   4  311.47   30.50
  -4   7  -4  314.87   30.70
   4   3   4  329.17   30.60
  -4  -3   4  329.87   31.10
   7  -3  -4  415.26   31.10
   7  -4   4  332.87   30.70
  -7   2   4   25.40    3.40
  -2  -5   4   20.80    2.70
   7  -2   4   23.00    3.40
   5   2  -4   17.60    2.70
   2   5   4   16.30    2.50
  -2   7  -4   20.60    3.50
   5  -7   4   25.00    3.50
  -7   5  -4   19.10    2.90
  -7   5  -4   18.50    2.50
   5   2  -4   21.70    3.20
   7  -2   4   18.40    2.70
   5  -7   4   18.30    3.00
  -2   7  -4   20.00    3.00
   7  -5  -4   18.00    2.70
   5  -7   4   22.60    2.70
  -5  -2  -4   16.60    2.70
  -5   7   4   20.10    2.80
   7  -2   4   18.00    3.10
   2   5   4   18.30    2.90
   2   5   4   17.30    2.90
   5   2  -4   18.20    2.70
   2  -7  -4   19.80    2.80
   2   5   4   26.00    3.20
   7  -5  -4   16.20    2.90
   7  -5  -4   20.50    3.20
  -5   7   4   18.80    3.00
  -5  -2  -4   23.50    3.00
   5   2  -4   17.70    3.20
  -2   7  -4   21.50    3.20
  -2  -5   4   18.00    3.10
  -2  -5   4   18.60    3.00
  -2  -5   4   24.20    2.80
  -5  -2  -4   13.90    2.70
   5  -7   4   20.10    2.90
  -7   2   4   20.40    2.80
  -5   7   4   19.60    3.10
   7  -2   4   16.00    2.50
   7  -5  -4   16.90    2.70
  -7   5  -4   18.40    3.10
   2  -7  -4   19.80    2.90
  -7   2   4   21.30    2.80
  -7   5  -4   20.50    3.10
   2  -7  -4   18.80    2.70
  -5  -2  -4   20.00    3.20
  -2   7  -4   19.20    2.70
  -7   2   4   15.20    2.80
   2  -7  -4   12.50    2.70
  -5   7   4   26.40    3.00
  -2   7   4   22.60    2.80
   7  -5   4   18.30    3.00
   5   2   4   20.70    3.30
  -2   7   4   27.10    3.40
  -7   5   4   18.30    2.60
   2  -7   4   26.40    3.60
   2  -7   4   29.80    3.80
   5   2   4   18.30    3.20
   7  -5   4   18.20    3.10
  -5   7  -4   20.50    2.80
  -5  -2   4   22.50    2.90
  -5  -2   4   17.80    2.50
  -5   7  -4   21.60    2.70
  -5  -2   4   18.40    2.90
   7  -5   4   15.80    2.50
  -7   5   4   23.00    2.80
  -2  -5  -4   22.70    3.30
   2  -7   4   22.20    2.70
   7  -2  -4   22.60    2.90
   7  -2  -4   19.40    3.10
   5  -7  -4   18.90    3.00
  -2   7   4   16.50    2.50
   7  -2  -4   18.60    2.70
  -7   5   4   16.70    2.90
   2  -7   4   17.90    2.60
  -7   2  -4   21.60    2.80
  -7   2  -4   15.60    2.60
  -2   7   4   21.90    3.30
   2   5  -4   12.50    2.50
  -2  -5  -4   16.00    2.80
  -7   2  -4   15.40    2.90
   5   2   4   16.90    2.50
   5  -7  -4   18.30    3.20
   2   5  -4   13.90    2.70
   7  -5   4   23.60    2.90
  -5   7  -4   19.20    3.10
   2   5  -4   22.70    3.60
  -2  -5  -4   18.70    2.70
   2   5  -4   15.30    2.50
  -5   7  -4   17.20    3.10
   5  -7  -4   21.70    3.00
  -7   2  -4   21.10    3.50
   5  -7  -4   25.80    3.10
   5   2   4   17.90    2.60
   7  -2  -4   25.30    3.50
  -5  -2   4   16.30    2.90
  -2  -5  -4   19.60    2.80
   1   6   4   39.10    4.60
  -7   1   4   48.40    5.20
  -1   7  -4   41.90    4.80
  -6   7   4   35.40    4.50
  -6   7   4   39.30    4.50
  -6  -1  -4   41.50    5.10
   7  -1   4   37.70    4.90
  -7   1   4   41.50    4.50
  -6  -1  -4   40.20    5.00
   1  -7  -4   46.70    4.70
  -7   1   4   48.00    5.10
  -6  -1  -4   40.80    4.70
   1   6   4   34.90    4.50
   6   1  -4   38.40    4.60
   7  -6  -4   41.60    5.10
  -7   6  -4   47.70    5.20
   7  -1   4   43.30    5.10
  -1  -6   4   36.30    4.90
   7  -6  -4   44.40    5.10
  -6   7   4   50.09    5.10
  -6   7   4   40.00    5.00
   7  -1   4   39.40    4.50
  -1   7  -4   45.10    5.00
   7  -6  -4   48.30    4.80
  -7   6  -4   49.20    5.30
  -1  -6   4   43.50    4.60
   1  -7  -4   39.00    4.90
  -7   6  -4   43.00    4.90
   6  -7   4   38.60    4.90
   1   6   4   35.60    4.90
   1   6   4   47.20    5.00
   6  -7   4   43.60    4.80
   6  -7   4   43.10    4.60
   6  -7   4   40.20    5.10
  -1  -6   4   40.10    4.90
   6   1  -4   40.10    5.20
  -1  -6   4   32.40    4.40
  -1   7  -4   35.00    5.40
   1  -7  -4   34.60    4.90
   7  -1   4   43.20    4.70
   6   1  -4   53.89    5.30
   1   6  -4   40.70    5.10
  -7   6   4   41.00    5.10
  -7   6   4   35.30    4.90
  -1  -6  -4   45.10    5.00
  -1   7   4   41.50    4.60
   6   1   4   35.70    4.50
   6  -7  -4   38.10    5.10
  -6  -1   4   44.60    5.10
   1   6  -4   56.19    5.00
   6   1   4   43.00    4.70
  -6   7  -4   37.50    5.00
   1  -7   4   46.40    4.80
   7  -6   4   46.70    4.60
   7  -6   4   54.19    5.70
  -1   7   4   44.70    5.30
  -6  -1   4   47.90    4.60
  -6  -1   4   44.30    5.00
   6   1   4   51.89    5.30
   1  -7   4   40.10    4.50
  -6   7  -4   38.20    4.80
   6   1   4   43.40    5.20
  -7   1  -4   40.90    4.70
  -7   6   4   44.40    4.70
   7  -6   4   48.30    5.00
  -7   1  -4   43.30    5.10
   1  -7   4   44.60    5.00
  -1   7   4   52.39    5.20
  -1  -6  -4   44.00    4.70
  -6   7  -4   50.89    5.10
  -1   7   4   45.60    4.70
   6  -7  -4   38.40    4.60
  -7   1  -4   37.10    4.90
  -6  -1   4   43.90    4.70
   7  -1  -4   47.20    5.20
   7  -1  -4   38.90    4.90
   7  -1  -4   58.79    4.90
   1   6  -4   39.80    5.00
   1  -7   4   41.60    5.10
   6  -7  -4   47.10    5.00
  -1  -6  -4   41.30    5.10
   7  -6   4   35.70    4.90
   0   7  -4  143.19   16.10
   0   7   4  196.98   16.50
   0  -7   4  159.98   15.90
  -7   7   4  157.88   15.50
   7  -7   4  185.78   15.90
   0   7   4  161.98   15.50
   7   0   4  168.58   15.70
   0  -7  -4  175.18   16.00
   0   7  -4  174.58   15.80
  -7   7   4  167.38   15.60
   7   0   4  155.08   15.50
   0   7   4  167.58   15.70
   0  -7  -4  161.28   15.50
   7  -7  -4  193.38   15.90
   0  -7   4  147.79   15.60
  -7   0   4  165.08   15.50
   4   4   4 1456.05  114.89
   4  -8  -4 1339.97  115.89
   8  -4   4 1361.26  114.69
   4  -8  -4 1421.66  115.39
  -4   8   4 1232.38  114.59
   4  -8   4 1241.28  114.79
  -8   4   4 1281.47  114.69
   8  -4   4 1441.06  114.89
   4   4   4 1313.77  114.69
  -4  -4  -4 1105.09  114.99
   4  -8  -4 1316.27  114.79
  -4  -4  -4 1322.87  114.79
  -4  -4   4 1110.69  114.59
  -8   4   4 1223.28  114.69
  -4   8   4 1275.87  115.39
  -3  -5   4   43.10    4.60
  -8   3   4   37.70    4.40
   5  -8   4   42.10    4.90
   8  -3   4   38.20    4.50
  -8   3   4   39.30    4.40
  -5  -3  -4   32.50    4.70
   5  -8   4   41.20    4.60
  -3   8  -4   29.00    4.50
   8  -3   4   42.60    4.50
   3   5   4   42.80    4.50
  -5   8   4   55.39    4.90
  -3   8  -4   26.30    4.80
   3  -8  -4   36.30    4.60
   3   5   4   44.10    5.00
   3   5   4   38.50    4.40
   3  -8  -4   45.90    4.60
  -5   8   4   38.60    4.90
  -5   8   4   44.80    4.40
  -3  -5   4   56.69    5.80
  -5   8  -4   41.30    4.90
   5  -8  -4   48.60    4.70
  -3  -5  -4   34.60    4.30
  -3  -5  -4   44.30    5.00
   3   5  -4   62.79    6.60
  -5  -3   4   36.60    4.40
   5  -8  -4   36.40    4.70
  -5   8  -4   48.30    4.70
  -3   8   4   37.40    4.30
  -8   5   4   32.30    4.30
  -8   5   4   28.00    4.30
  -3   8   4   45.70    5.10
   3  -8   4   48.30    5.10
   5   3   4   28.20    4.40
   5   3   4   36.70    4.30
   3  -8   4   39.30    4.80
  -3   8   4   40.50    4.40
  -8   2   4  235.18   22.30
   2   6   4  247.28   22.40
  -8   6  -4  235.98   22.40
  -2  -6   4  238.68   22.80
  -6   8   4  233.98   22.30
   6  -8   4  234.88   22.70
   6  -8   4  234.58   22.40
  -6   8   4  230.58   22.20
  -2  -6   4  239.88   22.30
   6   2  -4  252.47   22.40
   2   6   4  240.48   22.30
  -2   8  -4  249.48   22.50
  -2   8  -4  245.38   23.10
  -8   2   4  252.77   22.90
   8  -2   4  229.28   22.30
   8  -2   4  276.67   23.20
  -8   6  -4  202.68   22.60
   6  -8   4  245.68   22.30
   6   2  -4  275.47   23.10
  -2  -6   4  243.38   22.20
  -6  -2   4  270.37   23.50
  -8   6   4  228.88   23.50
  -6   8  -4  215.38   22.30
   8  -6   4  228.88   22.70
  -2   8   4  248.78   22.20
  -6  -2   4  249.97   22.20
   8  -2  -4  301.57   23.10
   2   6  -4  248.88   23.00
  -8   2  -4  250.97   22.40
   6   2   4  235.58   22.40
  -8   2  -4  227.08   22.80
  -6   8  -4  287.07   23.50
   8  -6   4  190.38   22.30
  -6  -2   4  224.48   22.60
  -2   8   4  284.87   22.40
   2   6  -4  240.08   22.50
   2  -8   4  249.48   22.90
   8  -6   4  267.17   22.40
   8  -2  -4  244.58   22.40
   2  -8   4  207.18   22.20
   2  -8   4  236.08   22.20
  -8   6   4  240.38   22.20
  -7  -1  -4   16.70    2.80
  -8   1   4   16.50    2.90
   8  -1   4   16.00    2.80
   8  -1   4   15.60    2.40
   8  -1   4   20.40    3.30
  -8   1   4   23.90    2.80
  -7   8   4   27.60    4.10
   7   1  -4   14.90    2.70
  -7   8   4   24.60    3.00
  -8   7  -4   23.60    3.60
  -1  -7   4   15.40    2.60
   1   7   4   23.50    3.70
   7   1  -4   24.30    3.70
   8  -7  -4   15.50    2.90
   7  -8   4   15.90    3.10
   1  -8  -4   15.30    2.90
   1   7   4   17.70    2.80
  -8   7  -4   19.40    3.00
   1  -8  -4   22.50    2.90
  -8   1   4   20.20    2.80
  -7   8   4   11.50    2.70
   8  -7  -4   16.40    2.70
  -7  -1  -4   17.40    3.10
  -1   8  -4   16.70    3.20
  -1  -7   4   18.20    3.10
  -1   8  -4   17.80    2.90
   7  -8   4   16.00    2.60
  -7   8  -4   18.10    2.90
   1  -8   4   16.80    2.60
  -8   7   4   16.40    2.60
   7   1   4   17.00    2.70
  -7   8  -4   18.20    3.40
   7   1   4   19.80    3.40
  -1  -7  -4   13.30    2.60
   8  -7   4   22.90    3.00
  -1   8   4   13.30    2.40
   8  -7   4   17.70    3.00
  -1  -7  -4   14.00    2.50
   7  -8  -4   24.20    3.60
  -8   1  -4   19.00    2.90
  -7  -1   4   16.10    2.60
   1   7  -4   15.60    3.10
   8  -1  -4   20.50    3.10
   7  -8  -4   17.90    2.80
   8  -1  -4   20.00    3.50
  -1   8   4   18.10    3.30
  -8   1  -4   13.50    2.80
  -8   7   4   22.90    3.50
   7   1   4   17.60    2.70
   1   7  -4   24.40    3.30
   1  -8   4   17.50    3.00
  -7  -1   4   18.50    3.20
   9  -5  -4  106.19   10.80
   4   5   4  119.99   10.50
   4   5   4  107.29   10.30
  -9   5  -4  106.69   10.40
   9  -5  -4   94.79   10.20
  -9   5  -4  107.59   11.00
   9  -4   4  114.59   10.30
  -5   9   4   97.99   10.20
  -5  -4  -4  108.09   10.30
  -5   9   4  132.99   11.20
   9  -4   4   82.09   10.50
  -5  -4  -4   95.39   10.60
   5  -9   4  103.49   10.80
  -4   9  -4   94.09   10.40
   5   4  -4   96.99   10.30
  -4  -5   4  119.39   10.80
  -9   4   4   95.79   10.20
   4   5   4  109.09   10.90
   5   4  -4  137.79   11.30
  -4   9  -4  100.69   10.90
   4  -9  -4   99.69   10.60
   4  -9  -4  113.59   10.40
   5  -9   4  101.79   10.20
  -5   9  -4  100.49   11.00
  -4  -5  -4   86.59   10.10
   4   5  -4  100.49   10.30
  -5   9  -4  108.19   10.40
   9  -5   4   80.99   10.30
  -4   9   4  114.89   11.20
  -9   5   4  102.49   10.80
   5  -9  -4  136.29   11.20
  -4   9   4  103.69   10.20
   9  -4  -4   99.39   10.50
  -5  -4   4  123.69   11.20
   4  -9   4  120.69   11.00
  -5  -4   4  111.19   10.30
  -9   4  -4  132.49   11.30
   4  -9   4   93.79   10.20
   5  -9  -4   95.19   10.20
  -9   4  -4   95.29   10.30
   9  -4  -4  115.49   10.90
   5   4   4  107.79   10.90
  -4  -5  -4  107.29   10.60
  -9   5   4  106.59   10.30
   4   5  -4  102.89   10.80
   9  -5   4   89.39   10.10
   5   4   4  110.99   10.40
  -1   1  -5    2.70    0.60
  -1   1   5    3.10    0.50
   0   1  -5    3.10    0.40
  -1   0   5    5.20    0.70
   0   1  -5    4.40    0.70
  -1   1  -5    2.80    0.40
   0  -1  -5    4.60    0.50
   1  -1   5    3.00    0.60
   1   0  -5    3.30    0.40
  -1   0  -5    4.70    0.60
   1  -1  -5    3.80    0.60
   1   0   5    4.10    0.60
   0   1  -5    3.00    0.60
   1   0  -5    2.80    0.60
   0   1  -5    2.50    0.40
   1  -1   5    3.60    0.60
   1  -1  -5    3.80    0.50
   0  -1  -5    3.60    0.50
  -1   1  -5    4.50    0.70
  -1   1   5    3.10    0.50
   1   0   5    2.90    0.50
   0  -1   5    4.40    0.70
  -1   1  -5    3.20    0.40
   0  -1   5    4.90    0.70
  -1   0  -5    3.50    0.60
  -1   0   5    5.30    0.70
  -1   2  -5    0.00    0.20
  -1  -1  -5    0.10    0.20
  -2   1  -5    0.00    0.30
  -2   1  -5    0.00    0.30
  -2   1  -5    0.10    0.30
   1   1   5    0.00    0.20
   2  -1  -5    0.10    0.30
  -1  -1  -5    0.30    0.30
   1   1  -5    0.30    0.40
   2  -1   5   -0.10    0.20
  -1  -1  -5    0.10    0.30
   1  -2   5    0.20    0.10
  -2   1  -5    0.20    0.20
   1  -2   5    0.20    0.40
  -2   1   5   -0.20    0.20
   2  -1  -5    0.20    0.20
   1  -2   5    0.10    0.30
  -2   1   5    0.10    0.30
   1   1   5    0.20    0.30
   1  -2  -5    0.10    0.30
  -1   2  -5    0.30    0.30
   2  -1  -5    0.60    0.30
   1  -2  -5    1.10    0.30
   1   1  -5    0.30    0.30
   2  -1  -5    0.10    0.40
  -1   2   5    0.30    0.30
  -1  -1  -5    0.20    0.30
  -1   2  -5   -0.10    0.20
  -1  -1   5    0.20    0.30
   1   1  -5    0.20    0.30
   1  -2  -5    0.10    0.30
   2  -1   5    0.20    0.30
  -1   2   5    0.20    0.30
  -1   2  -5    0.10    0.30
   1   1  -5    0.20    0.20
   1  -2  -5   -0.10    0.20
  -1  -1   5    0.00    0.30
   2   0  -5   84.59    8.20
   0  -2  -5   85.29    8.10
   2   0  -5   83.99    8.00
  -2   0  -5   79.99    8.00
  -2   0   5   89.39    7.90
  -2   2   5   77.69    8.10
   2   0   5   89.89    8.20
   2  -2  -5   91.29    8.20
  -2   0   5   89.19    8.30
  -2   2   5   87.59    8.20
  -2   0  -5   95.19    8.00
   2  -2  -5  104.29    8.20
  -2   2  -5   81.09    8.10
  -2   2  -5   87.09    8.30
   0   2  -5   74.49    8.20
   0  -2   5   89.19    7.90
   0   2   5   84.19    8.10
   0   2   5   87.19    8.20
   2   0   5   92.49    8.20
   0   2  -5   90.79    8.30
  -2   0  -5  101.99    8.30
  -2   0   5   87.39    8.20
   2   0  -5   99.89    8.10
   2  -2  -5   99.79    8.00
   0  -2  -5   88.19    8.00
   2  -2  -5   74.99    8.00
   2  -2   5   89.99    7.90
   2  -2   5   96.39    7.90
   0  -2   5   94.09    8.20
   0   2  -5   84.39    8.10
  -2   0   5   89.29    7.90
  -2   2  -5   85.89    8.20
   2   0  -5   86.89    8.30
   2  -2   5   84.39    8.30
   0  -2  -5   92.29    8.20
   2  -2   5   90.39    8.30
   0  -2   5   77.99    8.20
   0  -2  -5   94.79    8.10
   0   2  -5   75.49    8.10
   0  -2   5   94.19    7.90
  -2   0  -5   90.09    8.20
   2   1  -5   67.59    5.90
   1  -3  -5   55.59    5.70
   3  -1   5   54.99    5.50
   2  -3   5   54.19    5.50
   3  -2  -5   53.39    5.60
  -2  -1  -5   59.39    5.70
   1  -3  -5   63.09    5.60
   2  -3   5   65.99    5.90
  -1   3  -5   63.29    6.00
  -3   1   5   57.99    5.80
  -1  -2   5   63.59    5.50
  -1  -2   5   46.00    5.70
   1   2   5   55.49    5.80
   1  -3  -5   66.29    5.60
   1   2   5   58.99    5.70
  -1   3  -5   51.19    5.60
  -2  -1  -5   57.89    5.60
   3  -2  -5   62.89    5.80
   3  -2  -5   66.69    5.80
  -1   3  -5   60.09    5.70
   1  -3  -5   57.79    5.70
   2  -3   5   64.09    6.00
   2   1  -5   56.09    5.60
  -3   1   5   58.19    5.40
  -2  -1  -5   67.19    5.80
  -1  -2   5   60.09    5.50
  -2   3   5   53.59    5.70
  -3   2  -5   57.59    5.60
   3  -1   5   55.69    5.40
   1   2   5   56.09    5.40
   1   2   5   61.29    5.40
  -3   2  -5   63.39    5.60
   2   1  -5   61.39    5.60
   2  -3   5   65.19    5.50
   3  -1   5   58.59    5.80
  -1   3  -5   57.39    5.80
  -3   1   5   57.59    5.40
   2   1  -5   49.10    5.70
  -3   1   5   59.99    5.80
  -2   3   5   65.49    5.40
  -1  -2   5   61.49    5.80
  -2   3   5   56.69    5.40
   3  -2  -5   58.39    5.60
   3  -1   5   74.29    6.00
  -2   3   5   53.99    5.70
  -3   2  -5   58.89    5.80
  -3   2   5   56.39    5.70
  -1   3   5   54.09    5.70
  -2   3  -5   51.79    5.60
   2   1   5   63.89    5.50
  -2  -1   5   67.99    5.90
  -3   2   5   54.79    5.40
  -2   3  -5   58.99    5.90
  -2  -1   5   63.99    5.50
  -2   3  -5   57.89    5.80
  -1  -2  -5   56.39    5.60
  -3   1  -5   57.29    5.80
  -2  -1   5   64.09    5.50
   1  -3   5   59.29    5.80
   2  -3  -5   61.19    5.80
  -1  -2  -5   56.59    5.70
   1   2  -5   51.89    5.60
  -2  -1   5   66.59    5.80
  -1  -2  -5   51.19    5.70
   2   1   5   58.69    5.40
   2  -3  -5   59.09    5.70
   2  -3  -5   57.49    5.50
   3  -2   5   65.09    5.90
  -1   3   5   56.29    5.70
   3  -1  -5   54.79    5.60
   3  -2   5   66.99    5.50
  -3   1  -5   71.39    5.90
   1   2  -5   60.59    5.60
   1  -3   5   60.19    5.50
  -1  -2  -5   53.29    5.50
   3  -1  -5   56.99    5.70
   1  -3   5   55.99    5.80
  -3   1  -5   55.49    5.60
   3  -1  -5   45.90    5.50
   2   1   5   66.09    5.90
   2  -3  -5   59.59    5.60
   1   2  -5   59.79    5.90
   1   2  -5   54.89    5.70
  -2   3  -5   57.59    5.60
  -3   2   5   55.69    5.80
   3  -2   5   68.29    6.00
  -1   3   5   66.59    5.40
   2   1   5   66.29    5.90
  -3   2   5   63.19    5.40
  -3   1  -5   55.89    5.60
  -1   3   5   59.39    5.30
   3  -2   5   56.29    5.50
   0  -3   5    8.80    1.50
  -3   3  -5   12.00    1.90
   3  -3  -5    9.30    1.60
  -3   0  -5   11.30    1.60
   0   3   5   11.40    1.80
  -3   3   5   11.80    1.80
  -3   0   5    8.90    1.60
   3  -3   5    8.90    1.30
   0  -3  -5   14.90    1.60
   0  -3   5   10.90    1.70
   0   3  -5   10.50    1.70
  -3   3  -5   14.70    1.70
   0   3   5   11.60    1.30
  -3   0  -5   13.70    1.70
   3  -3  -5   10.60    1.40
   3   0   5   11.50    1.70
   0  -3   5   12.50    1.50
   3  -3   5   13.00    1.90
  -3   0   5   11.10    1.80
   3  -3   5   15.90    2.00
  -3   0  -5   11.00    1.60
   3  -3  -5    8.20    1.40
   0  -3  -5   12.90    1.50
  -3   0   5    9.60    1.40
  -3   0  -5    9.60    1.60
   3   0  -5   10.50    1.50
   3   0   5   12.40    1.80
   3   0   5   12.80    1.30
   0   3  -5    8.80    1.40
   3  -3   5    9.90    1.30
  -3   3   5   10.40    1.20
  -3   3   5   11.50    1.70
   3  -3  -5   10.60    1.60
   3   0  -5   10.60    1.50
   3   0  -5   11.20    1.70
  -3   3  -5   17.40    1.80
   0   3   5   12.10    1.80
   0   3   5   10.40    1.20
   0   3  -5   10.20    1.40
   0  -3   5   12.10    1.50
  -3   0   5    9.60    1.30
   3   0  -5   10.10    1.70
  -3   3   5   11.50    1.30
   0  -3  -5    9.40    1.50
   3   0   5    9.60    1.30
  -3   3  -5    7.40    1.40
   2  -4  -5    0.00    0.40
  -2   4   5    0.20    0.50
  -2  -2  -5    0.10    0.40
  -2  -2  -5   -0.40    0.40
   4  -2   5   -0.30    0.40
   4  -2  -5    0.20    0.40
   2  -4  -5    0.30    0.40
  -2   4  -5    0.10    0.40
  -4   2   5    0.10    0.50
  -4   2  -5   -0.30    0.40
  -2  -2  -5    0.20    0.50
   2  -4   5    0.10    0.40
  -2  -2   5   -0.20    0.50
   2   2   5   -0.50    0.30
   2   2   5   -0.20    0.40
   2  -4   5   -0.30    0.40
  -2  -2   5    0.20    0.40
  -4   2   5    0.20    0.40
  -4   2  -5    0.60    0.60
  -4   2  -5   -0.20    0.40
  -2  -2   5    0.50    0.40
   4  -2   5   -0.40    0.40
   4  -2   5    0.20    0.50
   4  -2   5    0.50    0.40
   2  -4  -5    0.10    0.50
   2  -4  -5    0.50    0.40
   4  -2  -5    0.00    0.50
  -2   4  -5   -0.30    0.30
  -2   4   5    0.40    0.50
  -4   2   5    0.20    0.50
  -2  -2  -5    0.00    0.40
  -2   4   5    0.10    0.30
   2   2  -5    0.30    0.40
  -2   4   5   -0.10    0.20
   4  -2  -5   -0.40    0.40
   2   2  -5    0.10    0.40
  -4   2   5   -0.50    0.20
   2   2   5    0.40    0.30
   4  -3  -5  108.99    8.70
  -3   4   5   71.19    8.50
   3   1  -5   87.09    8.40
   3   1  -5   89.79    8.40
  -3   4   5   81.19    8.20
   4  -1   5   81.09    8.20
  -3  -1  -5   89.49    8.40
   1  -4  -5   81.29    8.50
   3  -4   5   88.49    8.30
  -3   4   5   86.59    8.50
   1   3   5   83.09    8.20
   1   3   5   90.59    8.20
   3  -4   5  100.39    8.40
   1   3   5   85.39    8.50
   4  -3  -5  103.19    8.40
  -3  -1  -5   88.39    8.50
  -4   1   5   93.59    8.30
  -4   3  -5   89.39    8.40
  -4   3  -5   97.69    8.50
  -3   4   5   87.59    8.20
   1   3   5   98.39    8.70
  -3  -1  -5   90.19    8.60
   4  -1   5   83.99    8.60
   1  -4  -5   88.99    8.30
  -1  -3   5   94.69    8.30
  -1   4  -5   84.79    8.40
  -4   1   5  109.39    8.30
  -4   1   5   94.19    8.70
  -1  -3   5   84.79    8.30
   1  -4  -5   80.69    8.50
   4  -3  -5   83.39    8.60
  -4   3   5   78.59    8.50
   3  -4  -5  105.09    8.70
  -4   3   5  108.19    8.30
  -3   4  -5   86.39    8.40
   1   3  -5   87.89    8.40
   3  -4  -5   86.29    8.30
  -1  -3  -5   80.39    8.50
  -1  -3  -5   83.69    8.50
   4  -1  -5   79.69    8.60
   4  -1  -5   94.49    8.40
  -1   4   5   95.29    8.70
  -1   4   5   91.09    8.50
   1  -4   5   78.29    8.30
   1   3  -5   92.69    8.50
   3   1   5   87.39    8.70
   3   1   5   90.79    8.20
  -4   1  -5   90.99    8.40
   1  -4   5   97.59    8.40
  -4   3   5   88.39    8.60
  -4   1  -5   84.39    8.50
   3   1   5  106.09    8.70
  -1   4   5   85.69    8.20
  -3   4  -5   86.79    8.50
   4  -3   5   95.59    8.40
  -1   4   5   84.99    8.20
  -4   3   5   86.09    8.20
   3  -4  -5   98.89    8.70
   4  -3   5   85.69    8.20
  -3  -1   5   80.29    8.20
   3   1   5   76.39    8.20
  -1  -3  -5   86.49    8.30
   0  -4  -5  172.38   17.90
   4  -4  -5  210.88   18.10
  -4   4  -5  193.18   18.00
   0  -4  -5  182.28   17.90
   0   4  -5  216.68   18.10
  -4   4   5  175.08   17.80
   0   4   5  214.38   17.90
   4  -4  -5  187.08   18.00
  -4   4  -5  201.78   18.20
   0  -4   5  181.28   17.90
  -4   0  -5  181.68   18.10
   4  -4   5  208.78   18.10
  -4   4  -5  197.98   18.10
  -4   0   5  205.88   17.90
   4   0   5  182.48   18.20
  -4   0   5  240.68   18.60
   0  -4   5  180.18   18.30
   4   0  -5  227.78   18.60
   4   0  -5  207.88   18.40
   4  -4   5  199.58   18.40
   0   4  -5  229.08   18.60
  -4   4  -5  198.48   18.40
  -4   0  -5  191.38   18.00
   4   0   5  186.18   17.90
  -4   0   5  198.48   18.30
   0   4  -5  223.38   18.50
   0   4  -5  177.18   18.00
   4  -4   5  216.68   18.40
   0  -4   5  172.38   17.90
   4   0  -5  223.98   18.20
  -5   3  -5  150.48   12.00
   3  -5   5   99.89   11.30
   2  -5  -5  138.09   11.90
   2  -5  -5  110.29   11.50
  -3  -2  -5  124.59   11.40
   5  -2   5  114.29   11.30
   3  -5   5  143.79   11.90
  -5   2   5  124.49   11.30
  -5   3  -5  123.19   11.40
   5  -2   5  124.69   11.40
  -5   3  -5  120.59   11.50
  -3   5   5  125.89   11.30
   3   2  -5  131.39   11.80
  -3  -2  -5  119.89   11.50
   3   2  -5  111.39   11.40
  -2   5  -5  138.59   11.70
  -3  -2  -5  149.19   11.90
  -2   5  -5  111.59   11.40
   2   3   5  140.49   11.80
   5  -2   5  122.89   11.80
   5  -3  -5  118.69   11.40
  -5   2   5  113.09   11.60
  -2  -3   5  109.49   11.30
  -2  -3   5  130.79   11.80
  -2  -3   5  126.89   11.70
  -3   5   5  143.59   11.80
  -2  -3   5  115.69   11.40
   3   2  -5  121.99   11.40
   5  -3  -5  109.39   11.60
   3   2  -5  107.79   11.70
   5  -3  -5  147.19   11.70
   2  -5  -5  143.49   11.60
  -3  -2  -5  134.69   11.70
   3  -5   5  122.19   11.80
  -5   2   5  130.79   11.90
   2   3   5  112.39   11.70
  -2   5  -5  105.49   11.40
   5  -2   5  128.19   11.70
  -2   5  -5  113.89   11.80
   2   3   5  127.19   11.30
   5  -3  -5  136.99   11.90
  -5   3   5  126.09   11.80
  -2  -3  -5  120.39   11.40
   5  -3   5  123.69   11.80
  -3  -2   5  107.59   11.30
  -3  -2   5  124.29   11.70
  -3   5  -5  107.09   11.50
  -3  -2   5  118.49   11.70
  -3  -2   5  114.49   11.40
   3   2   5  132.29   11.80
   3   2   5  108.59   11.60
   2  -5   5  109.19   11.30
   5  -2  -5  136.79   11.80
   2   3  -5  127.89   11.40
   3  -5  -5  150.48   12.10
  -5   2  -5  112.29   11.70
  -2   5   5  126.19   11.80
  -2   5   5  127.29   11.60
   5  -2  -5  120.39   11.40
  -5   3   5  108.69   11.70
  -3   5  -5  106.29   11.40
   5  -2  -5  143.89   11.50
   5  -3   5  121.49   11.30
   2  -5   5  111.29   11.60
   5  -3   5  120.79   11.70
   2  -5   5  132.89   11.80
   2   3  -5  124.99   11.50
  -3   5  -5  111.09   11.60
   5  -2  -5  113.19   11.70
  -5   2  -5  113.49   11.70
   3  -5  -5  123.69   11.70
   2  -5   5  101.69   11.60
  -3   5  -5  118.19   11.90
  -5   2  -5  145.89   11.60
   2   3  -5  110.59   11.70
  -2   5   5  125.39   11.20
   3  -5  -5  125.19   11.50
   2   3  -5  112.39   11.70
   5  -3   5  119.79   11.40
  -2  -3  -5  128.59   11.70
  -2  -3  -5  135.29   11.80
   3   2   5  130.69   11.30
  -4  -1  -5   49.99    4.60
   4  -5   5   38.70    4.70
  -1   5  -5   50.79    4.50
  -4   5   5   44.60    4.30
   5  -4  -5   39.90    4.40
  -5   1   5   45.50    4.90
  -1   5  -5   43.20    4.90
  -4  -1  -5   41.10    4.40
   4  -5   5   46.70    4.40
   1  -5  -5   38.80    4.60
  -4   5   5   54.39    4.80
  -1  -4   5   41.00    4.30
   1  -5  -5   45.10    4.40
  -5   4  -5   42.70    4.90
  -4   5   5   33.90    4.20
  -1  -4   5   43.70    4.80
  -5   1   5   41.00    4.70
   4   1  -5   45.40    4.60
   4   1  -5   45.00    4.50
  -4  -1  -5   51.09    4.90
  -5   1   5   40.90    4.30
  -1   5  -5   44.50    4.70
   4   1  -5   48.20    5.00
   1   4   5   36.70    4.30
   1   4   5   43.90    4.80
   1   4   5   36.10    4.50
   1  -5  -5   43.50    4.60
   5  -1   5   44.50    4.90
   5  -1   5   46.90    4.90
  -4   5   5   44.00    4.70
   5  -4  -5   41.70    4.60
  -5   4  -5   35.20    4.40
   4   1  -5   43.00    4.70
   5  -1   5   46.90    4.30
  -4  -1  -5   49.80    4.90
   5  -4  -5   41.70    4.80
  -1  -4   5   48.60    4.80
  -1   5  -5   41.60    4.60
   1  -5  -5   40.60    4.50
   4  -5   5   43.60    4.70
   5  -4  -5   42.10    4.50
  -5   4  -5   42.40    4.50
  -5   4  -5   42.60    4.80
  -5   1  -5   42.80    4.50
  -5   4   5   41.10    4.30
  -1  -4  -5   37.60    4.40
   1  -5   5   51.49    4.90
   1   4  -5   40.20    4.70
   5  -1  -5   42.20    4.80
  -1  -4  -5   43.10    4.40
  -5   1  -5   39.10    4.40
  -4   5  -5   37.70    4.70
   5  -1  -5   53.29    4.60
  -1   5   5   43.80    4.80
   5  -1  -5   38.70    4.70
  -1   5   5   45.20    4.70
   4   1   5   42.80    4.40
  -5   4   5   42.50    4.60
   5  -1  -5   40.20    4.50
  -4   5  -5   51.19    4.60
  -1  -4  -5   39.40    4.60
   1   4  -5   42.60    4.50
  -4   5  -5   42.20    4.50
   1   4  -5   39.60    4.80
  -5   1  -5   44.70    4.90
   4  -5  -5   52.99    5.00
   5  -4   5   35.50    4.30
   5  -4   5   39.80    4.80
   1   4  -5   46.10    4.60
   4   1   5   34.20    4.70
  -1  -4  -5   44.40    4.70
  -5   4   5   50.69    4.90
  -5   1  -5   43.10    4.70
   4  -5  -5   39.60    4.40
  -4  -1   5   42.10    4.70
   1  -5   5   36.80    4.30
  -4   5  -5   43.40    4.70
  -1   5   5   35.70    4.20
  -4  -1   5   45.50    4.30
  -4  -1   5   53.39    5.10
   1  -5   5   46.00    4.90
   4  -5  -5   44.50    4.50
  -5   4   5   45.60    4.40
   4   1   5   40.10    4.30
   5  -4   5   42.70    4.70
   4   1   5   42.70    4.70
  -5   5   5   62.09    6.20
  -5   5  -5   62.49    6.30
  -5   0  -5   53.49    6.40
   5  -5   5   57.29    6.20
  -5   0   5   60.59    6.70
   5   0   5   60.49    6.60
   5  -5   5   61.39    6.40
   5  -5  -5   59.89    6.30
   0   5  -5   54.49    6.60
   5   0   5   57.19    6.70
   0  -5   5   73.39    6.40
   5  -5  -5   56.89    6.30
   5   0  -5   69.19    6.80
  -5   5  -5   74.29    6.90
  -5   5  -5   57.39    6.50
   0   5  -5   68.59    6.90
   5  -5  -5   63.69    6.60
   0  -5  -5   64.49    6.40
  -5   0   5   64.59    6.70
   0  -5  -5   56.99    6.50
   0   5   5   58.49    6.20
  -5   0   5   66.49    6.20
   0  -5   5   61.39    6.20
   0  -5   5   58.99    6.60
   5  -5   5   64.79    6.70
   0  -5  -5   74.89    6.60
   0  -5   5   74.19    6.70
   5   0  -5   66.49    6.40
  -5   5  -5   61.69    6.40
   5  -5  -5   59.09    6.70
   0  -5  -5   76.99    6.50
   5   0  -5   58.99    6.30
   0   5  -5   75.59    6.50
   5   0  -5   78.69    6.90
   0   5   5   57.09    6.50
  -5   5   5   73.69    6.80
  -5   5   5   58.29    6.20
  -5   5   5   66.89    6.70
  -5   0  -5   87.19    6.70
  -5   0  -5   67.09    6.40
   0   5   5   65.19    6.30
  -5   0  -5   54.49    6.50
   0   5  -5   72.39    6.50
   5   0   5   60.49    6.20
   0   5   5   54.39    6.60
   3  -6   5    0.50    0.50
  -3   6  -5   -0.90    0.40
  -6   3  -5    0.30    0.50
   6  -3  -5    0.20    0.50
  -6   3  -5    0.40    0.70
   6  -3   5   -0.60    0.40
  -3  -3   5   -0.20    0.60
  -6   3  -5    0.50    0.80
   3  -6  -5    0.20    0.70
  -3   6   5    0.30    0.60
  -3   6   5   -0.10    0.40
  -3  -3   5   -0.10    0.40
  -6   3   5    0.20    0.40
   6  -3   5   -0.10    0.30
  -3   6  -5    0.20    0.70
  -3  -3  -5    0.40    0.50
   3   3   5    0.00    0.40
   3   3   5    0.10    0.60
   3   3  -5    0.00    0.50
  -3  -3  -5   -0.20    0.50
  -6   3   5   -0.10    0.60
   6  -3  -5    0.00    0.60
  -3   6  -5    0.60    0.70
  -3  -3  -5    0.20    0.60
  -3  -3  -5    0.30    0.60
  -3   6  -5   -0.20    0.60
   3  -6  -5   -0.30    0.50
  -3  -3   5    0.10    0.70
   3  -6   5    0.30    0.60
   6  -3  -5   -0.10    0.50
   3  -6   5   -0.30    0.50
   3  -6   5   -0.10    0.50
   3   3  -5    0.50    0.70
   6  -3  -5   -0.50    0.60
   6  -3   5   -0.20    0.60
  -3  -3   5    0.10    0.60
  -3   6   5   -0.10    0.50
  -6   3   5    0.10    0.50
   3   3   5    0.20    0.50
   3   3  -5   -0.30    0.40
   6  -3   5   -0.50    0.60
  -3   6   5    0.50    0.70
   3  -6  -5    0.10    0.50
  -6   3   5   -0.10    0.60
   3   3  -5   -0.20    0.70
  -6   3  -5   -1.10    0.40
   3  -6  -5    0.10    0.60
   6  -2   5  100.09    9.70
   6  -4  -5  108.59   10.10
  -6   2   5  108.59    9.70
  -4  -2  -5  112.69   10.10
   2  -6  -5  116.99   10.20
   2  -6  -5   91.09   10.00
   4  -6   5   91.49    9.70
   2   4   5  102.49    9.70
  -6   4  -5  101.09    9.80
  -6   2   5   94.89   10.00
  -4   6   5  112.89   10.10
  -6   2   5  109.19   10.30
  -6   2   5   94.69    9.60
  -6   4  -5  112.69    9.90
  -2   6  -5  110.59    9.80
   4   2  -5  106.39    9.80
  -2  -4   5   85.89    9.90
   2   4   5  112.29   10.10
  -2  -4   5  100.79    9.60
   6  -4  -5   93.89   10.10
  -2  -4   5   97.29   10.10
  -2  -4   5   96.29    9.70
  -6   4  -5   85.09   10.00
   4  -6   5   91.49   10.00
   6  -4  -5  108.49    9.80
  -4   6   5   91.19   10.00
  -2   6  -5  128.09   10.70
   4   2  -5   84.19    9.70
  -2   6  -5   93.49    9.80
   2  -6  -5   95.09    9.70
   6  -2   5  112.59   10.20
  -2   6  -5  113.89   10.40
   6  -4  -5  103.39    9.80
  -4   6   5  102.09    9.60
   4  -6   5   98.49    9.70
   6  -2   5  107.99   10.20
  -4  -2  -5   96.29    9.70
   6  -2   5   99.69    9.70
  -4  -2  -5  105.69   10.00
   2   4   5  109.69   10.10
   4   2  -5   88.49   10.00
  -4  -2  -5  103.79    9.80
  -6   4  -5   98.79   10.00
   2  -6  -5  108.69    9.80
   4   2  -5  110.89   10.20
  -4   6  -5   99.39    9.70
  -6   2  -5  107.89   10.10
   2  -6   5  124.29    9.80
  -6   2  -5  107.99    9.90
  -6   2  -5   87.49    9.60
   6  -2  -5  106.39   10.20
  -6   2  -5  121.09   10.40
  -6   4   5   85.29    9.90
   6  -4   5   92.99    9.70
  -4  -2   5  115.09    9.70
   4  -6  -5   97.59    9.70
  -4  -2   5  117.79   10.30
  -4  -2   5  109.69   10.10
  -4   6  -5   93.89    9.80
  -2  -4  -5   84.69    9.60
   2   4  -5   90.29   10.00
  -6   4   5   99.09    9.60
   4   2   5  120.59    9.80
  -6   4   5  106.49   10.20
  -4   6  -5   79.49    9.90
  -2  -4  -5   95.59    9.90
   2   4  -5   95.89    9.80
   6  -4   5   91.19   10.10
  -2   6   5   94.89    9.60
  -2   6   5  101.89   10.20
   4  -6  -5  106.89   10.20
   4   2   5  105.59   10.10
   2  -6   5  109.99    9.80
  -6   4   5   97.59    9.60
   6  -4   5  102.19    9.60
   4  -6  -5  106.69   10.00
  -2  -4  -5  100.49   10.00
   4  -6  -5  114.19   10.00
  -2  -4  -5  122.79    9.90
  -2   6   5  100.49   10.00
  -4   6  -5  118.09   10.20
   6  -4   5   95.99   10.00
   4   2   5  110.09   10.20
   2   4  -5   98.59   10.00
   2  -6   5  111.09   10.30
   2  -6   5   88.89    9.90
   6  -2  -5  114.39    9.90
   6  -2  -5   91.49   10.00
   2   4  -5  100.99    9.70
   6  -2  -5  113.49    9.90
  -6   5  -5  228.58   19.90
  -1   6  -5  250.47   19.90
   1  -6  -5  182.18   19.70
  -6   5  -5  215.68   19.90
   1   5   5  195.08   20.00
  -1   6  -5  230.58   20.20
  -6   1   5  188.88   19.60
  -6   1   5  211.28   19.70
  -1   6  -5  244.48   20.70
  -1  -5   5  219.08   20.40
   5  -6   5  217.28   20.20
  -1   6  -5  220.18   20.00
  -1  -5   5  234.38   19.80
  -5   6   5  210.98   19.70
   6  -1   5  187.28   20.00
   1  -6  -5  263.97   20.30
  -5  -1  -5  196.68   20.10
  -5   6   5  244.88   19.80
  -5   6   5  231.48   20.30
  -6   1   5  227.08   20.40
   5   1  -5  251.47   20.00
   5   1  -5  205.38   19.80
   5   1  -5  237.98   20.30
   1   5   5  210.48   19.70
   1   5   5  240.28   20.30
  -6   5  -5  233.18   20.40
  -6   5  -5  221.88   20.20
   5   1  -5  210.18   20.30
   6  -5  -5  214.28   19.90
   5  -6   5  226.58   20.50
   6  -5  -5  178.58   19.90
  -1  -5   5  216.28   20.30
   5  -6   5  211.18   19.70
   1  -6  -5  230.48   20.00
  -5  -1  -5  251.37   19.90
  -5  -1  -5  192.38   20.10
   6  -1   5  194.88   19.60
   6  -1   5  195.68   19.70
  -5  -1  -5  206.98   19.90
   6  -5  -5  197.88   20.20
  -5   6   5  195.68   20.00
   1   5   5  187.48   19.70
  -6   1   5  223.78   20.20
   5   1   5  216.38   20.30
   6  -1  -5  167.88   19.90
  -6   1  -5  214.08   19.90
   5   1   5  240.38   20.30
  -1  -5  -5  227.78   19.90
   1  -6   5  184.98   19.60
  -6   1  -5  223.98   19.90
   6  -5   5  207.28   19.90
  -5  -1   5  216.58   19.70
  -1  -5  -5  225.68   19.80
   6  -1  -5  222.28   19.90
  -1   6   5  219.68   20.30
   1  -6   5  237.78   20.50
   1   5  -5  189.58   20.10
  -6   5   5  227.18   19.70
   5   1   5  193.68   19.70
  -5  -1   5  193.98   20.10
   5  -6  -5  228.18   20.20
  -6   1  -5  204.08   20.10
  -5   6  -5  203.88   19.90
  -5   6  -5  204.08   20.20
  -1  -5  -5  266.07   20.40
   5  -6  -5  217.88   20.30
  -6   1  -5  230.08   20.30
   1   5  -5  221.98   20.20
   5  -6  -5  240.58   20.00
  -6   5   5  220.28   19.70
  -5  -1   5  212.18   20.20
   1   5  -5  246.28   20.10
   5   1   5  186.98   19.60
  -6   5   5  236.78   20.20
   6  -1  -5  222.48   19.90
  -5  -1   5  243.48   19.80
  -5   6  -5  200.08   19.80
   1  -6   5  194.98   20.00
   1  -6   5  182.68   20.10
  -1   6   5  218.58   20.00
   5  -6  -5  201.98   19.80
   6  -5   5  227.68   20.40
  -6   5   5  253.07   20.60
   6  -5   5  253.67   20.40
   0   6  -5   47.40    5.40
   0  -6  -5   44.80    4.90
  -6   6  -5   62.59    5.20
  -6   0   5   56.19    5.00
  -6   0  -5   50.29    5.20
   0   6   5   42.00    5.30
  -6   6  -5   44.50    5.40
   6   0   5   53.59    5.60
  -6   0  -5   42.30    5.20
   6  -6   5   44.50    4.80
   6   0   5   41.70    4.80
   6  -6   5   39.50    5.20
   6   0   5   51.29    5.30
   0  -6   5   56.79    5.10
   6   0   5   50.69    5.00
  -6   0   5   42.50    5.20
   6   0  -5   51.19    5.10
  -6   6   5   44.40    4.80
   6  -6  -5   49.40    5.10
   6  -6  -5   46.30    5.40
  -6   6  -5   49.80    5.10
   0  -6  -5   45.70    4.90
  -6   6  -5   54.29    5.40
  -6   6   5   45.60    4.80
  -6   6   5   62.39    5.70
   6   0  -5   42.70    5.30
   6   0  -5   47.50    5.00
   6  -6  -5   45.90    5.20
   0   6  -5   44.20    4.90
   6   0  -5   48.40    5.40
  -6   0   5   38.10    4.70
   0  -6   5   39.20    5.10
   0  -6   5   41.20    5.10
   0   6  -5   33.30    4.80
  -6   0  -5   51.89    5.40
   0  -6  -5   53.89    5.30
  -6   0  -5   39.20    4.80
   6  -6   5   52.49    5.60
   6  -6  -5   44.00    4.90
   0  -6   5   42.20    4.80
   0   6   5   43.50    5.20
   6  -6   5   42.10    4.90
   0  -6  -5   44.30    5.30
  -6   0   5   39.90    5.20
  -6   6   5   54.89    5.30
   0   6  -5   41.60    5.40
   0   6   5   42.00    4.70
   4   3  -5  103.59   11.00
  -4   7   5  113.89   11.20
  -7   4  -5  105.29   10.60
  -4   7   5  127.59   10.50
  -7   3   5  123.39   10.60
  -3   7  -5  123.89   11.50
   4  -7   5  120.19   10.80
  -4  -3  -5  112.79   10.90
   7  -3   5  100.09   10.40
   7  -4  -5   93.69   10.80
  -4  -3  -5   97.99   10.50
  -3  -4   5  108.59   10.90
   3  -7  -5  107.59   10.60
  -7   3   5  105.29   10.40
  -7   3   5  119.59   11.10
  -7   3   5  117.09   11.20
   7  -3   5  103.49   10.50
   4   3  -5  109.69   11.00
   7  -3   5  124.59   11.20
   7  -3   5  112.69   11.00
   3  -7  -5  112.99   10.90
   4  -7   5  108.49   11.10
  -3  -4   5  117.09   10.50
  -3  -4   5  109.59   11.00
  -4   7   5   89.99   10.70
   3   4   5  111.69   11.10
   4  -7   5  108.69   11.00
   3   4   5  116.29   10.70
  -3   7  -5  109.39   10.80
  -4  -3  -5  103.39   10.90
  -4  -3  -5  146.89   11.00
   3  -7  -5  115.89   11.20
   7  -4  -5  105.89   10.60
   4   3  -5  105.39   10.50
   3  -7  -5  119.79   10.70
   7  -4  -5   95.79   10.80
  -3  -4   5  109.69   10.60
   3   4   5  130.79   11.30
  -3   7  -5   96.69   10.70
   4   3  -5  136.09   11.00
  -7   4  -5  116.69   11.20
  -7   4  -5  108.19   10.60
   7  -4  -5  108.19   10.50
  -7   4  -5  121.09   11.20
   7  -4   5  109.29   10.50
   7  -4   5  113.59   11.10
   7  -4   5   97.89   10.80
  -4  -3   5   98.39   10.40
  -3  -4  -5   97.89   10.80
  -7   3  -5  106.09   10.60
   4  -7  -5  100.99   10.90
   7  -4   5  117.79   10.70
   7  -3  -5  130.49   11.20
   4   3   5   94.89   10.80
   7  -3  -5   98.59   10.50
   3   4  -5  107.49   11.10
   4   3   5  142.49   11.00
   3  -7   5  119.99   11.20
  -3  -4  -5  107.29   10.50
  -7   4   5  103.89   10.50
  -7   4   5  103.99   10.90
  -7   4   5  109.89   11.10
  -4  -3   5  111.49   10.60
  -4   7  -5  111.09   11.20
  -3   7   5  100.89   10.40
   3  -7   5   99.79   10.50
  -4  -3   5  101.89   10.90
  -7   4   5  101.39   10.40
  -7   3  -5  139.29   11.20
  -3   7   5  121.59   11.10
   7  -3  -5  102.49   10.60
  -3  -4  -5  106.89   10.90
   4   3   5  141.99   11.30
  -3  -4  -5  114.99   10.60
   3  -7   5  126.89   11.40
   7  -3  -5  110.79   11.00
   3   4  -5  111.89   10.60
  -7   3  -5  103.89   10.60
  -4   7  -5  121.99   10.70
  -4   7  -5  103.89   10.70
   4   3   5  113.49   10.60
   3   4  -5  113.99   10.70
  -4  -3   5  104.59   10.90
   4  -7  -5   97.69   10.50
   4  -7  -5  116.89   10.80
   3  -7   5  102.29   10.60
  -3   7   5   99.69   10.70
  -4   7  -5  113.39   10.90
   4  -7  -5  125.99   11.10
   3   4  -5  111.49   11.10
  -3   7   5   95.99   10.30
  -2   7  -5    1.30    1.10
  -7   5  -5    0.80    0.80
   2  -7  -5    0.10    0.70
  -7   2   5    0.90    0.60
  -5  -2  -5   -0.30    0.70
  -5  -2  -5    1.00    1.00
  -5   7   5    1.10    0.70
  -7   2   5    0.20    0.60
   7  -5  -5    0.50    0.90
  -2  -5   5    0.70    0.80
  -5  -2  -5    0.50    0.70
  -7   2   5    0.80    0.90
  -2   7  -5    0.40    0.70
   5   2  -5    1.30    1.10
   5   2  -5    1.10    0.90
   5   2  -5    0.70    0.80
   2  -7  -5    1.20    1.00
   7  -2   5    0.40    0.60
   7  -5  -5    1.00    0.80
  -2  -5   5    0.50    0.70
  -2  -5   5    0.30    0.50
   2   5   5    0.80    0.80
  -2   7  -5    0.90    0.90
  -7   2   5    0.40    0.70
   7  -5  -5    0.60    0.70
   2  -7  -5    0.60    0.80
   7  -5  -5    0.50    0.90
   2   5   5    0.30    0.60
  -7   5  -5   -0.30    0.80
   7  -2   5    3.20    1.30
   5  -7   5    0.40    1.00
   5  -7   5    0.60    0.80
   2   5   5    0.90    0.90
   2  -7  -5    0.00    0.60
  -5  -2  -5    1.60    0.90
   7  -2   5    0.50    0.70
  -5   7   5    0.10    0.70
  -2  -5   5    0.10    0.90
   5  -7   5    0.10    0.60
  -7   5  -5    0.00    0.80
   7  -2   5    0.60    0.70
   2   5   5    1.20    0.90
  -7   5  -5    1.40    1.00
   5  -7   5    1.30    0.70
  -5   7   5    0.70    0.60
  -5   7   5    1.00    0.70
  -7   5   5    0.90    0.90
   2  -7   5    1.00    0.80
  -2   7   5    0.50    0.80
   7  -2  -5    1.60    1.00
  -2  -5  -5    0.10    0.70
   5  -7  -5    0.70    0.80
   2  -7   5    0.70    1.00
   7  -2  -5    0.70    0.80
  -7   2  -5    0.30    0.70
  -2   7   5    0.50    0.60
  -5  -2   5    1.00    0.60
  -7   2  -5    0.00    0.40
   2  -7   5    0.00    0.60
   7  -2  -5   -0.10    0.70
  -2   7   5    0.30    0.90
   2   5  -5    0.00    0.60
  -5   7  -5    0.60    0.90
   5   2   5    0.60    0.80
  -7   2  -5    1.60    1.00
  -2  -5  -5    0.40    0.70
  -5  -2   5    0.70    0.70
  -7   5   5    0.90    0.70
   5  -7  -5    0.80    0.90
  -2  -5  -5    0.70    0.80
   5  -7  -5    0.40    0.80
   2   5  -5    0.10    0.80
   7  -2  -5    0.60    0.90
   2  -7   5    0.00    0.70
   5   2   5    0.40    0.60
  -5   7  -5    0.70    1.00
  -7   5   5    0.80    0.70
   7  -5   5    1.00    0.80
   5   2   5    0.90    0.80
   5  -7  -5    0.10    0.60
  -5  -2   5    1.40    1.00
  -5   7  -5    0.70    0.70
   2   5  -5    0.80    0.80
   7  -5   5    0.60    0.60
  -5  -2   5    0.50    0.70
  -2  -5  -5    0.80    0.80
   7  -5   5    0.70    0.80
  -7   2  -5   -0.20    0.80
   7  -5   5    1.00    1.00
  -7   5   5    0.40    0.50
  -2   7   5    0.50    0.60
  -7   1   5   73.99    8.30
  -6  -1  -5   81.49    8.30
  -6   7   5   70.49    8.20
  -7   6  -5   66.39    8.20
  -6   7   5   73.89    7.70
   1   6   5   76.99    7.90
  -6   7   5   98.19    7.90
  -7   1   5   77.69    7.70
  -6  -1  -5   68.49    8.10
   6   1  -5  100.79    8.80
   7  -6  -5   75.99    8.20
  -1   7  -5   79.79    8.50
   6   1  -5   82.99    8.30
   1  -7  -5   79.99    8.20
  -6   7   5   95.79    8.40
  -1  -6   5   88.69    7.90
  -1  -6   5   67.89    7.70
   6  -7   5   91.19    7.90
   7  -6  -5   99.39    8.90
   6  -7   5   75.39    7.90
   1  -7  -5   81.39    7.90
  -1   7  -5   97.69    8.50
  -7   1   5   71.09    8.10
   7  -6  -5   82.19    7.90
   7  -1   5   69.39    8.10
   7  -1   5   91.89    7.80
   1   6   5   86.09    8.40
  -7   6  -5   71.79    7.90
   1  -7  -5   87.69    8.30
   1   6   5   64.99    8.00
   7  -1   5   81.09    7.90
   6   1  -5   79.29    7.90
  -1  -6   5   76.19    8.20
  -6  -1  -5   82.69    8.00
  -7   1   5   76.49    7.80
   1   6   5   79.69    7.80
  -7   6  -5   73.49    8.20
  -7   6   5   79.99    8.30
   7  -6   5   84.79    8.60
   6  -7  -5   69.39    8.30
  -7   1  -5   81.39    8.00
  -1   7   5   74.79    7.70
   7  -6   5   69.49    7.90
   6  -7  -5   76.79    8.20
   6   1   5   59.39    8.00
  -1  -6  -5   94.79    8.50
   1   6  -5   74.19    7.90
  -6  -1   5   81.09    7.80
  -7   6   5   67.99    7.70
  -1   7   5   84.49    8.50
  -1   7   5   68.39    8.10
  -1  -6  -5   83.89    8.20
   7  -6   5   90.09    7.80
  -7   1  -5   97.69    8.50
   1   6  -5   96.99    8.80
   6  -7  -5   76.79    7.80
   7  -6   5   73.29    8.20
   6   1   5   78.09    7.80
   7  -1  -5   81.59    8.50
   1  -7   5   68.29    7.70
   7  -1  -5   79.29    7.90
   1  -7   5   72.89    7.80
  -6  -1   5   71.79    8.20
  -6   7  -5   69.29    7.90
  -6   7  -5   84.09    8.50
   1  -7   5   76.19    8.20
  -6  -1   5   78.59    7.70
   6   1   5   75.09    7.80
  -7   1  -5   82.09    8.30
   7  -1  -5   90.39    8.40
  -1   7   5   78.49    7.80
  -6  -1   5   73.59    8.20
   6   1   5   89.19    8.40
  -7   6   5   78.99    8.40
  -1  -6  -5   71.39    7.80
   0   7  -5  162.58   16.30
   0  -7   5  152.88   16.10
  -7   0   5  172.98   15.60
  -7   7   5  185.58   15.70
  -7   7  -5  155.38   16.20
   0  -7  -5  180.98   16.10
   7  -7   5  174.78   15.80
   7  -7   5  154.38   16.10
   0   7  -5  177.68   15.90
   0  -7   5  167.88   15.60
  -7   7  -5  172.28   15.90
   0  -7  -5  147.79   15.80
   0   7   5  165.88   15.60
   7   0   5  144.59   15.60
  -7   7   5  175.78   15.70
   0   7   5  167.98   15.70
   0   7   5  172.28   16.30
   7  -7  -5  187.98   15.80
  -4   8   5    0.30    0.60
  -8   4   5    0.20    0.60
   8  -4   5    0.30    0.60
  -4  -4  -5    0.00    0.70
  -4   8   5    0.00    0.50
   4   4   5    0.50    0.60
   4  -8  -5    0.60    1.00
   4  -8   5   -0.60    0.50
  -4   8  -5   -0.60    0.90
  -8   4   5   -0.20    0.40
   4   4   5    0.20    0.80
   4   4   5   -0.70    0.60
  -4   8  -5   -0.30    0.70
  -4  -4  -5    0.20    0.90
   4  -8  -5    0.00    0.80
   4  -8   5    0.20    0.70
  -4   8   5    0.10    0.80
   4  -8  -5    0.30    0.80
  -4  -4   5   -0.20    0.60
  -4   8   5   -0.20    0.80
   8  -4   5   -0.50    0.70
   3   5   5   89.09    9.20
   5   3  -5   90.79    9.20
   8  -3   5   90.79    9.20
   5  -8   5  102.19    9.50
   3   5   5   90.79    9.20
  -5   8   5  103.19    9.30
  -5   8   5   97.09    9.20
   8  -3   5   96.89    9.20
   5   3  -5   86.89    9.70
  -5  -3  -5   87.89    9.50
  -3   8  -5   97.49    9.50
   3  -8  -5   95.69    9.80
   3   5   5  101.79   10.10
  -8   3   5   95.69    9.20
  -8   3   5  119.39    9.40
  -3   8  -5   99.29   10.00
  -5   8   5   91.49    9.80
  -3  -5   5  110.89    9.80
   5  -8   5  100.39    9.80
  -3  -5   5   92.29    9.30
   5   3   5   89.29    9.20
  -3   8   5   94.59    9.10
  -5   8  -5  115.39    9.60
  -5  -3   5   97.49    9.30
   5  -8  -5   91.39    9.20
   8  -5   5   78.79    9.10
   3  -8   5   75.79    9.40
   3   5  -5   73.89    9.50
  -3   8   5   90.59    9.80
  -5  -3   5   90.19    9.70
  -8   5   5   94.89    9.20
  -3  -5  -5  102.29    9.30
   5  -8  -5   95.19    9.60
  -5   8  -5   84.49    9.80
   3   5  -5   88.89    9.30
  -3  -5  -5  102.79    9.70
   3  -8   5   95.49    9.40
  -3   8   5   90.29    9.20
  -2   8  -5  125.19   13.20
   2   6   5  139.19   13.20
  -2  -6   5  133.69   13.10
  -8   6  -5  141.49   13.40
  -8   2   5  157.28   13.80
  -2  -6   5  167.28   13.40
   2   6   5  150.78   13.20
   6   2  -5  116.49   13.10
   6  -8   5  141.59   13.40
   8  -2   5  146.29   13.70
  -6  -2  -5  131.49   13.90
   8  -2   5  142.99   13.20
   6   2  -5  121.19   13.50
  -8   6  -5  126.79   13.60
   6  -8   5  128.59   13.00
  -6   8   5  137.59   13.10
  -6   8   5  156.98   13.20
  -8   2   5  138.99   13.10
  -2   8  -5  150.18   14.00
  -6  -2   5  127.49   13.10
   8  -6   5  139.29   13.20
  -6   8  -5  123.79   13.60
   2   6  -5  163.48   13.50
   6   2   5  149.69   14.50
   8  -2  -5  170.78   13.40
  -8   2  -5  151.98   14.00
  -8   6   5  140.29   13.20
   2  -8   5  123.29   13.00
  -8   2  -5  153.98   13.40
   2  -8   5  158.78   13.90
  -6   8  -5  130.59   13.30
   8  -2  -5  126.79   13.50
   2   6  -5  159.68   14.00
  -6  -2   5  146.89   13.60
  -8   6   5  141.69   13.80
  -2   8   5  129.09   13.10
  -8   6   5  119.59   13.00
   8  -6   5  146.89   13.60
   6   2   5  122.99   13.10
   2  -8   5  128.89   13.20
  -2   8   5  131.79   13.00
   6   2   5  111.19   12.90
   7  -8   5   40.60    5.20
  -8   1   5   38.20    4.10
  -8   7  -5   32.40    5.00
   8  -1   5   33.80    4.30
  -7  -1  -5   31.80    4.50
   7   1  -5   33.10    4.80
   8  -1   5   43.60    4.20
  -1  -7   5   30.70    4.50
   7   1  -5   28.10    4.20
   8  -7  -5   45.80    4.70
   8  -1   5   31.20    4.60
  -8   7  -5   36.30    4.60
  -7  -1  -5   31.20    4.80
   8  -7  -5   40.70    4.90
   1   7   5   45.10    4.30
  -7   8   5   28.50    4.10
  -8   1   5   32.80    3.90
  -7   8   5   37.40    5.20
  -1  -7   5   38.60    4.10
   7  -8   5   32.70    3.90
  -1   8  -5   41.10    5.50
  -1   8  -5   33.70    4.50
   1   7   5   34.00    4.80
  -8   1   5   30.10    4.60
  -7  -1   5   42.70    4.70
   1  -8   5   35.10    4.00
  -1   8   5   28.90    4.60
   7  -8  -5   39.80    4.70
  -7   8  -5   26.90    4.10
   8  -7   5   39.90    4.70
   1   7  -5   39.10    5.20
  -7   8  -5   32.40    4.90
  -1   8   5   30.80    5.20
   7   1   5   33.80    4.90
  -8   1  -5   32.10    4.60
   7  -8  -5   29.60    4.50
  -8   7   5   30.30    4.60
   8  -1  -5   40.80    4.60
   7   1   5   25.60    4.00
   8  -1  -5   33.70    4.30
  -7  -1   5   45.30    4.20
  -1   8   5   35.00    4.00
   8  -7   5   34.70    4.00
  -8   7   5   35.30    4.10
  -7  -1   5   36.80    4.00
   1   7  -5   35.10    4.60
   8  -7   5   31.00    4.60
  -8   1  -5   36.80    4.70
   1  -1  -6    0.40    0.20
   1   0   6    0.50    0.20
   0  -1   6    0.40    0.20
  -1   0  -6    0.50    0.20
  -1   0   6    0.60    0.30
   0   1   6    0.50    0.20
  -1   1  -6    0.30    0.30
   1  -1  -6    0.40    0.20
  -1   1   6    0.70    0.20
  -1   1   6    1.40    0.30
  -1   0   6    0.60    0.30
  -1   0  -6    0.60    0.30
   0   1  -6    0.60    0.20
   0  -1  -6    0.40    0.20
   0   1  -6    0.60    0.30
   1  -1   6    0.40    0.20
   1   0   6    0.30    0.20
   0   1  -6    0.60    0.20
   0  -1   6    0.90    0.30
   1   0  -6    0.50    0.30
   0   1   6    0.30    0.20
   0  -1  -6    0.40    0.20
   0   1  -6    0.40    0.20
  -1   1  -6    1.10    0.30
  -1   1  -6    0.50    0.10
   1   0  -6    0.70    0.30
   1  -1   6    0.50    0.30
   1  -2  -6 2762.22  242.18
  -1   2   6 2607.64  242.38
   2  -1   6 2670.93  242.38
   1  -2   6 2704.43  242.48
   1   1  -6 2675.63  242.48
   2  -1  -6 2649.03  242.28
  -2   1   6 2699.83  242.48
   1   1  -6 2990.60  242.38
  -1   2   6 2646.64  242.28
  -1   2  -6 2336.87  242.38
   1   1   6 2709.83  242.38
  -1  -1   6 2854.81  242.48
  -1   2  -6 2804.92  242.28
  -2   1  -6 2517.85  242.28
   1  -2  -6 2834.82  242.18
   1   1   6 2889.11  242.38
   2  -1  -6 2794.82  242.38
   1   1  -6 2789.72  242.48
  -2   1  -6 2592.84  242.48
  -1  -1   6 2733.33  242.48
  -2   1  -6 2705.13  242.38
   1  -2   6 2412.16  242.48
   2  -1  -6 3040.10  242.28
  -1  -1  -6 2988.70  242.38
   1  -2  -6 2796.32  242.38
   1  -2  -6 2601.94  242.28
  -1  -1  -6 2432.16  242.28
   2  -1   6 2923.31  242.48
  -1   2  -6 2834.92  242.58
  -1  -1  -6 3062.69  242.28
   1   1  -6 2780.92  242.28
   2  -1  -6 2606.54  242.38
  -1   2  -6 3026.40  242.38
  -2   1   6 2821.72  242.38
  -1  -1  -6 3145.69  242.28
  -2   1  -6 2721.33  242.28
   0   2   6 4751.72  408.86
   2  -2  -6 4527.85  408.86
  -2   0  -6 4375.96  408.86
   2  -2   6 4322.37  408.96
   0  -2  -6 4168.48  408.76
   2  -2  -6 4733.23  408.86
   2   0   6 4249.47  408.86
  -2   2  -6 4867.01  408.96
   2  -2   6 4927.01  408.96
   0   2  -6 4515.85  408.76
   0  -2  -6 5180.88  408.86
  -2   0  -6 4384.66  408.86
   0   2   6 4899.31  408.96
  -2   0  -6 4459.55  408.76
   2   0  -6 4511.75  408.96
   0  -2  -6 4839.92  408.66
  -2   2  -6 4177.28  408.86
   2   0  -6 5012.40  408.96
  -2   2  -6 4996.00  408.76
   0   2  -6 4937.81  409.16
   2  -2  -6 4652.63  408.66
  -2   0   6 4598.74  408.96
   2   0  -6 4725.73  408.76
   0  -2  -6 4664.53  408.66
   2  -2  -6 4489.95  408.66
  -2   2  -6 5191.28  408.86
  -2   0   6 4278.27  408.86
   0   2  -6 4156.08  408.76
   2   0  -6 4574.04  408.76
  -2   2   6 5093.69  408.96
   0  -2   6 4926.11  408.96
  -2   0  -6 4586.04  408.76
   0   2  -6 4714.43  408.96
   0  -2   6 4463.55  408.96
  -2   2   6 4759.62  408.86
  -3   1   6  123.99   11.60
   2  -3   6  131.89   11.80
  -2  -1  -6  141.49   11.50
  -2   3   6  141.09   11.70
  -1   3  -6  122.29   11.70
  -3   2  -6  118.59   11.70
  -1   3  -6  112.99   11.50
   3  -1   6  152.48   11.80
   3  -1   6  112.29   11.20
   2  -3   6  133.29   11.70
  -2  -1  -6  120.69   11.60
   1  -3  -6  128.39   11.40
   3  -1   6  129.59   11.70
   3  -2  -6  121.59   11.60
  -2  -1  -6  129.59   11.60
   3  -2  -6  127.59   11.50
   2  -3   6  114.99   11.20
  -1   3  -6  124.09   11.50
   2   1  -6  133.89   11.70
  -1  -2   6  127.69   11.30
   2   1  -6  137.89   11.80
   1   2   6  136.09   11.60
   2   1  -6  124.69   11.50
   1  -3  -6  128.99   11.60
   2   1  -6  123.99   11.40
  -2  -1  -6  125.49   11.50
  -1  -2   6  121.79   11.60
  -1   3  -6  134.29   11.80
   1  -3  -6  138.79   11.70
  -3   1   6  136.99   11.70
  -3   2  -6  150.98   11.60
   1   2   6  118.49   11.60
   3  -2  -6  121.69   11.40
  -3   2  -6  109.09   11.40
  -1  -2   6  148.19   11.80
   3  -2  -6  118.19   11.60
   3  -1  -6  129.59   11.70
  -2  -1   6  111.49   11.60
  -1  -2  -6  128.59   11.60
   1   2  -6  112.09   11.40
  -1   3   6  128.19   11.60
  -2   3  -6  113.69   11.70
   3  -2   6  117.69   11.20
   3  -2   6  119.69   11.70
  -3   1  -6  118.29   11.60
  -2   3  -6  110.09   11.40
  -2  -1   6  141.09   11.70
   3  -1  -6  130.69   11.40
  -1  -2  -6  124.39   11.40
   1   2  -6  138.49   11.50
   3  -1  -6  127.59   11.60
   1   2  -6  146.29   11.90
  -1   3   6  126.49   11.60
  -3   2   6  136.19   11.70
   2  -3  -6  119.99   11.60
   2  -3  -6  111.19   11.50
   1  -3   6  155.28   11.90
  -2  -1   6  118.89   11.20
   2   1   6  109.09   11.60
  -2   3  -6  134.49   11.60
   2   1   6  106.59   11.50
  -3   2   6  117.79   11.60
  -3   1  -6  132.89   11.80
   1  -3   6  118.49   11.30
  -1  -2  -6  135.49   11.60
  -2   3  -6  126.99   11.60
   3  -2   6  124.49   11.60
   2  -3  -6  125.49   11.40
   3  -1  -6  120.89   11.40
   1   2  -6  135.19   11.70
  -3   1  -6  123.79   11.40
  -3   1  -6  115.09   11.50
   1  -3   6  117.19   11.60
   3  -3  -6 1421.06  125.19
  -3   3  -6 1381.46  125.29
   3   0   6 1371.76  125.29
   3  -3   6 1404.06  124.99
  -3   0   6 1382.56  125.29
   3  -3   6 1281.77  125.19
   0  -3   6 1336.47  125.19
   0   3  -6 1290.67  124.99
  -3   3  -6 1322.97  125.09
   0  -3   6 1581.64  124.99
   3  -3  -6 1400.06  125.29
  -3   0   6 1393.86  124.79
   0   3   6 1380.86  125.29
   0   3  -6 1398.86  125.39
   3   0  -6 1406.16  125.09
   3   0  -6 1513.65  125.39
  -3   0  -6 1535.95  125.39
  -3   0  -6 1548.35  125.29
  -3   0  -6 1274.07  124.99
   3  -3   6 1446.36  125.39
   0   3   6 1480.95  125.19
   0  -3  -6 1463.35  125.19
   0  -3   6 1509.65  125.39
   3   0   6 1331.67  125.19
   0  -3  -6 1488.55  125.09
   3  -3   6 1321.17  124.89
  -3   0  -6 1562.74  125.09
   3  -3  -6 1330.97  124.99
  -3   0   6 1428.86  125.29
   0   3  -6 1384.16  125.39
   0  -3  -6 1420.86  125.19
  -3   0   6 1449.95  124.89
  -3   3  -6 1399.16  125.09
   3   0  -6 1239.58  125.19
  -3   3  -6 1510.65  125.39
  -3   3   6 1649.83  125.29
   0   3  -6 1332.87  125.09
   3   0   6 1392.26  124.79
  -3   3   6 1393.06  124.69
  -3   3   6 1569.44  125.29
  -4   2   6   55.69    5.50
   2  -4   6   54.19    5.10
  -2   4   6   51.09    5.50
   4  -2   6   53.09    5.50
  -2  -2   6   62.19    5.30
   2   2   6   52.69    5.00
   2  -4   6   55.99    5.20
  -2  -2   6   50.79    5.10
   2  -4  -6   54.59    5.40
   2   2   6   57.79    5.40
   4  -2   6   52.29    5.40
   2  -4  -6   47.80    5.20
   2   2   6   49.20    5.00
  -2   4  -6   49.60    5.20
   2   2  -6   52.79    5.30
  -2   4   6   54.69    4.90
  -4   2  -6   53.29    5.50
  -4   2   6   52.09    5.50
   4  -2  -6   57.99    5.60
   2   2   6   61.79    5.60
   4  -2   6   49.20    5.10
   4  -2  -6   53.49    5.40
  -4   2   6   54.19    5.00
   4  -2   6   53.29    5.20
  -4   2  -6   55.79    5.40
   2  -4  -6   52.19    5.50
  -2  -2  -6   47.40    5.30
  -2   4   6   54.99    5.30
  -2   4  -6   62.09    5.40
   2  -4  -6   51.69    5.20
  -2  -2  -6   61.89    5.50
   2   2  -6   49.90    5.20
  -2   4   6   55.19    4.90
  -4   2  -6   49.30    5.50
   4  -2  -6   59.19    5.60
  -3   4   6   12.90    2.00
   1  -4  -6   11.70    1.70
  -1  -3   6   11.80    1.50
  -3   4   6    9.30    1.10
   1   3   6   14.10    2.00
   4  -1   6   10.50    1.80
  -4   3  -6    8.70    1.40
   3  -4   6    8.40    1.30
   3   1  -6   11.60    1.70
   1   3   6    8.10    1.10
  -3   4   6   15.20    2.00
   3  -4   6    8.60    1.40
  -4   3  -6   10.30    1.60
   1   3   6   10.50    1.30
  -4   1   6    9.50    1.30
   1   3   6   10.90    1.80
   3   1  -6    6.40    1.30
   4  -3  -6    9.90    1.70
   1  -4  -6   12.50    1.90
   4  -1   6    9.10    1.30
  -3  -1  -6   10.70    1.80
  -3  -1  -6    8.60    1.60
  -1   4  -6   12.40    1.80
  -4   1   6    8.60    1.60
  -4   1   6   11.90    1.40
  -1  -3   6    8.20    1.30
   4  -3  -6   10.30    1.70
   1  -4  -6    9.90    1.70
  -3   4   6    9.40    1.20
   3   1   6    9.90    1.60
  -1   4   6   10.40    1.20
  -3  -1   6    8.40    1.30
   3  -4  -6    8.60    1.40
  -3   4  -6    9.40    1.50
   4  -1  -6   10.00    1.50
   3   1   6   10.50    1.30
   4  -1  -6   11.30    1.50
   3  -4  -6   12.90    1.90
   1  -4   6   14.00    1.60
  -4   3   6   11.60    1.30
   3   1   6   10.10    1.30
  -4   3   6   10.20    1.30
  -3  -1   6   11.10    1.30
  -1  -3  -6   10.20    1.50
  -1  -3  -6   10.50    1.60
  -1   4   6    9.90    1.20
   4  -3   6    8.40    1.30
   3   1   6    6.40    1.40
   1   3  -6   10.00    1.60
  -4   1  -6   11.20    1.60
  -4   1  -6    8.10    1.50
  -1  -3  -6   12.10    1.80
   4  -3   6    8.60    1.30
   4  -1  -6   11.10    1.90
  -1   4   6   10.60    1.70
  -3   4  -6    8.00    1.50
   1  -4   6   10.00    1.40
   1   3  -6    8.90    1.60
  -4   3   6   11.90    1.80
   3  -4  -6    9.30    1.70
  -4   1  -6   10.80    1.60
  -4   3   6   10.10    1.80
  -1   4   6   10.30    1.60
  -4   4  -6 2345.27  202.08
   0   4   6 2220.18  201.58
   4  -4   6 2090.59  201.68
   4   0  -6 2688.33  202.28
   0   4  -6 2358.16  202.28
   4   0   6 2287.07  201.58
   4   0   6 2535.45  201.68
   0  -4  -6 2190.98  201.78
  -4   0   6 2105.29  201.58
   0  -4  -6 2535.35  201.78
  -4   0  -6 2308.17  201.78
   4   0  -6 2220.68  201.78
  -4   0   6 2219.78  202.08
   4  -4  -6 2199.18  201.78
  -4   0   6 2240.68  201.58
   0   4   6 2251.57  201.58
  -4   0  -6 2113.89  201.98
   4  -4  -6 2355.46  201.88
   0  -4   6 2396.76  202.28
   4  -4   6 2057.39  201.98
   4   0   6 1957.30  201.88
   0  -4   6 2643.34  202.08
   4  -4   6 2142.89  202.08
  -4   4  -6 2429.96  201.98
   0   4  -6 2207.38  201.88
  -4   4   6 2449.75  201.58
   0  -4   6 2516.35  201.68
  -4   4   6 2419.76  201.58
   4   0  -6 2062.89  201.98
  -4   0   6 2160.98  202.08
   0   4  -6 2276.27  202.18
   5  -3  -6    2.40    1.00
   3   2  -6    1.90    0.70
   3   2  -6    2.10    0.80
  -5   3  -6    1.40    0.90
   3   2  -6    1.10    0.80
   3  -5   6    1.60    0.70
  -3  -2  -6    1.20    0.70
  -5   3  -6    1.70    0.80
   5  -3  -6    1.00    0.70
   3  -5   6    2.10    1.00
  -5   2   6    1.50    0.80
   2   3   6    1.70    0.60
  -2  -3   6    2.20    0.80
  -3   5   6    1.20    0.50
   5  -2   6    2.50    1.00
   3  -5   6    1.70    0.80
   2  -5  -6    2.90    0.90
  -2  -3   6    1.20    0.80
  -2   5  -6    1.10    0.60
  -2  -3   6    1.10    0.50
   2   3   6    1.90    0.90
  -3  -2  -6    1.40    0.80
   5  -2   6    1.80    0.70
   2   3   6    1.70    0.90
  -3   5   6    2.20    0.50
  -3   5   6    2.80    1.10
  -2   5  -6    1.10    0.80
   5  -3  -6    2.70    0.90
   5  -2   6    1.30    0.70
  -3   5   6    3.00    1.00
  -2   5  -6    2.00    1.00
  -2   5  -6    1.50    0.80
  -5   2   6    1.70    0.80
   3  -5   6    2.10    0.70
  -2  -3   6    1.20    0.60
  -3  -2  -6    0.90    0.50
   2   3   6    1.30    0.50
  -5   3  -6    2.50    0.90
  -5   2   6    1.50    0.50
  -5   3  -6    2.20    0.80
   3   2  -6    1.20    0.80
   3   2   6    0.90    0.70
   2   3  -6    1.00    0.80
  -3  -2   6    1.00    0.70
   5  -3   6    1.60    0.60
  -2   5   6    1.80    0.60
   2  -5   6    1.80    0.60
  -5   2  -6    2.50    1.00
  -5   3   6    3.20    0.80
   3   2   6    2.20    0.60
  -3   5  -6    0.60    0.70
   5  -3   6    1.10    0.80
  -3  -2   6    0.90    0.70
  -5   3   6    1.80    0.80
   2  -5   6    2.50    0.70
   2   3  -6    1.00    0.60
   5  -3   6    3.00    0.90
  -2   5   6    1.70    0.80
  -3   5  -6    1.00    0.70
  -5   2  -6    1.90    0.70
  -5   2  -6    1.30    0.80
   3   2   6    1.70    0.80
   2   3  -6    2.40    0.80
   3   2   6    1.70    0.50
   5  -3   6    2.20    0.90
   5  -2  -6    1.70    0.70
   3  -5  -6    1.90    0.70
   5  -2  -6    1.40    0.80
   2   3  -6    1.50    0.80
  -5   2  -6    0.90    0.60
   2  -5   6    1.50    0.80
  -3  -2   6    1.70    0.70
   5  -2  -6    2.50    1.10
  -2   5   6    2.10    0.50
   2  -5   6    1.50    0.80
  -5   3   6    1.80    0.80
  -2   5   6    1.10    0.70
  -3  -2   6    1.40    0.50
  -2  -3  -6    2.20    0.80
  -3   5  -6    1.40    0.70
  -3   5  -6    0.80    0.80
  -5   4  -6  846.72   75.89
  -1  -4   6  809.72   76.09
  -5   4  -6  820.62   75.89
  -4   5   6  843.92   75.99
   5  -4  -6  926.81   76.19
  -1  -4   6  931.41   75.79
  -5   1   6  911.31   76.19
   4   1  -6  934.71   75.89
   4   1  -6  830.72   76.19
   4  -5   6  840.32   76.29
  -1   5  -6  837.32   76.09
  -5   1   6  798.32   75.99
   4  -5   6  822.22   75.79
   1   4   6  862.41   75.69
   5  -1   6  886.61   75.69
   4  -5   6  941.11   75.69
  -4  -1  -6  958.20   76.29
  -4   5   6  831.42   76.09
  -5   1   6  824.52   75.69
  -4  -1  -6  958.80   75.89
  -4   5   6  940.11   75.69
   4   1  -6  864.71   76.29
   4  -5   6  756.82   75.99
  -4   5   6  778.32   75.59
   5  -1   6  883.41   75.69
  -1   5  -6  887.71   76.39
   1   4   6  863.71   75.59
  -1  -4   6  712.43   75.99
  -4  -1  -6  801.72   76.09
   1  -5  -6  832.72   75.79
  -4  -1  -6  773.02   75.79
   5  -1   6  842.92   76.19
   5  -1   6  974.00   76.39
   4   1  -6  742.33   75.79
   5  -4  -6  901.21   75.89
  -5   4  -6  767.62   76.09
   1  -5  -6  818.32   75.79
   1   4   6  850.11   76.09
   5  -4  -6  762.72   75.79
  -1  -4   6  864.21   75.79
   5  -4  -6  774.82   76.09
  -1   5  -6  806.32   75.89
  -4   5  -6  790.32   76.19
   1   4  -6  809.32   75.89
   1   4  -6  996.00   75.99
   4   1   6  976.80   76.29
  -5   1  -6  801.12   75.79
  -1  -4  -6  840.22   75.79
  -5   1  -6  876.31   76.09
  -4  -1   6  895.41   76.19
  -4  -1   6  793.22   75.59
   5  -4   6  860.11   76.19
  -4   5  -6  816.12   75.89
   4  -5  -6  801.52   75.79
  -1   5   6  990.60   76.29
  -4   5  -6  833.62   75.89
  -5   4   6  797.02   75.99
   5  -4   6  835.32   75.79
   1  -5   6  935.31   76.29
   5  -1  -6  809.52   76.19
  -5   1  -6  726.53   76.09
  -4  -1   6  961.60   76.29
   1  -5   6  777.42   75.99
   4   1   6  822.82   75.69
  -1  -4  -6  724.13   75.69
   5  -1  -6  855.71   75.89
  -4   5  -6  911.31   76.19
   5  -4   6  847.52   75.69
   5  -4   6  940.91   76.29
   1  -5   6  945.61   75.79
  -1   5   6  862.51   75.59
  -4  -1   6  848.42   75.69
   1   4  -6  846.02   76.29
  -1   5   6  745.93   75.49
   4   1   6  999.40   76.29
   5  -1  -6  894.91   75.89
  -5   4   6  821.82   75.59
  -1   5   6  886.31   76.29
   5  -1  -6  913.81   76.19
   1  -5   6  860.31   75.79
   1   4  -6  981.90   76.29
  -5   4   6  936.81   76.29
   0  -5  -6  327.47   33.30
   0   5  -6  353.16   33.30
  -5   0  -6  400.06   33.30
   0  -5   6  323.47   33.10
   0  -5  -6  366.76   33.20
  -5   0   6  341.87   33.60
  -5   5   6  336.07   33.50
  -5   5   6  397.96   33.60
   0  -5  -6  414.16   33.70
  -5   0  -6  356.56   33.50
  -5   0  -6  337.17   33.40
  -5   5   6  360.76   33.00
   5  -5   6  370.66   33.10
   5  -5  -6  427.56   33.30
   5  -5  -6  381.36   33.30
   5   0   6  401.26   33.70
   5   0   6  418.66   33.20
   5   0   6  389.46   33.10
   5   0   6  404.66   33.60
  -5   5   6  388.56   33.10
   0  -5   6  375.46   33.70
  -5   5  -6  324.17   33.10
   5   0  -6  361.36   33.60
   5  -5   6  410.56   33.70
   0  -5   6  379.16   33.50
   0  -5   6  306.27   33.00
   0   5  -6  372.86   33.80
   0   5  -6  434.06   33.80
  -5   0   6  350.36   33.50
   5  -5   6  330.67   33.60
   0  -5  -6  434.76   33.30
  -5   5  -6  359.76   33.30
   0   5   6  375.76   33.50
   0   5   6  361.56   33.60
   0   5   6  381.86   33.10
   5   0  -6  347.07   33.20
  -5   5  -6  364.46   33.70
   0   5  -6  344.57   33.20
  -5   5  -6  332.87   33.40
   3   3   6  920.01   86.59
   6  -3  -6 1016.20   86.79
   3   3   6  923.91   86.09
   6  -3   6 1054.19   86.69
  -3   6  -6  940.01   86.49
  -6   3   6  980.70   86.19
  -3   6   6  941.61   86.69
  -3  -3   6 1008.60   86.69
   3  -6   6  815.82   86.59
   3   3  -6  891.41   86.19
   3  -6  -6  954.70   86.29
   3  -6  -6 1006.10   86.59
  -3   6   6  903.71   86.39
  -6   3  -6 1103.29   86.49
  -3   6  -6 1063.59   86.99
  -3   6   6 1091.39   86.09
  -6   3  -6  979.50   86.79
  -3   6  -6  982.20   86.49
  -3   6   6 1062.49   86.19
   3   3   6  966.20   86.59
  -6   3   6  950.70   86.59
  -6   3   6  874.21   86.59
  -6   3  -6  946.91   86.59
  -3  -3  -6 1021.70   86.29
   3   3   6  973.80   86.19
  -3   6  -6  978.10   86.29
   6  -3  -6  973.50   86.59
   6  -3  -6  936.11   86.39
  -3  -3   6  988.10   86.89
   3   3  -6  941.11   86.69
  -6   3   6  917.71   86.09
   3   3  -6 1083.79   86.89
   6  -3   6 1016.40   86.79
  -3  -3  -6  983.80   86.19
  -6   3  -6  869.91   86.19
   3   3  -6  983.80   86.49
   3  -6   6  945.51   86.29
   3  -6   6 1049.49   86.29
  -3  -3   6  950.00   86.09
  -3  -3   6  957.30   86.19
   2  -6  -6 1162.78  103.29
  -6   2   6 1332.47  103.89
  -2   6  -6 1208.78  103.69
  -6   4  -6 1194.28  103.49
   2  -6  -6 1194.98  103.59
  -2   6  -6 1359.66  103.49
   2   4   6 1075.49  103.09
   4   2  -6 1092.79  103.19
   6  -2   6 1112.49  103.59
  -6   4  -6 1354.66  103.79
  -4   6   6 1026.10  102.99
  -2  -4   6 1335.57  103.89
   4   2  -6 1078.99  103.19
  -4  -2  -6 1010.50  103.19
   2   4   6 1056.29  103.49
   6  -2   6 1205.78  103.09
   2  -6  -6 1085.39  103.19
  -4   6   6 1191.48  103.09
  -4  -2  -6 1287.67  103.29
   4   2  -6 1055.19  103.59
  -2  -4   6 1170.18  103.59
   6  -2   6 1291.47  103.79
   6  -4  -6 1060.69  103.19
  -6   2   6 1058.09  103.49
   6  -4  -6  980.90  103.79
  -2  -4   6 1123.39  103.09
  -6   4  -6 1239.08  103.79
   2   4   6 1132.39  103.59
  -2   6  -6 1278.27  103.89
   4  -6   6 1207.48  103.19
   4  -6   6 1128.39  103.19
   4  -6   6 1104.79  103.49
   4  -6   6 1137.59  103.79
  -4   6   6 1138.59  103.49
  -2  -4   6 1025.50  103.09
  -6   4  -6 1039.00  103.19
   2   4   6 1187.78  103.09
  -4   6   6 1041.10  103.49
  -6   2   6 1244.08  103.09
   2  -6  -6 1082.59  103.59
   6  -4  -6 1201.48  103.29
   4  -6  -6 1098.89  103.19
  -6   2  -6 1117.59  103.69
   6  -4   6 1109.69  103.19
   2   4  -6 1244.38  103.29
  -6   2  -6 1258.47  103.69
   2   4  -6 1201.28  103.39
   2  -6   6 1190.48  103.79
   4  -6  -6  999.80  103.29
  -2  -4  -6 1182.88  103.49
   6  -2  -6 1140.69  103.29
  -6   4   6 1217.48  103.79
   2  -6   6 1155.58  103.59
  -6   4   6 1229.48  103.09
  -2  -4  -6 1237.18  103.69
   4   2   6 1141.29  103.69
  -4  -2   6 1130.69  103.59
   6  -2  -6 1016.10  103.49
   4   2   6 1140.59  103.09
  -6   4   6 1320.17  103.19
   6  -2  -6 1270.87  103.69
   2   4  -6 1160.38  103.59
  -6   2  -6 1248.98  103.29
   6  -4   6 1218.48  103.79
   4   2   6 1224.88  103.19
  -2  -4  -6 1125.49  103.29
   4   2   6 1264.97  103.69
  -4   6  -6 1321.77  103.89
   2  -6   6 1078.99  103.09
  -6   4   6 1020.50  103.49
   6  -4   6 1257.17  103.69
  -4   6  -6 1008.70  103.19
  -4  -2   6 1218.08  103.09
  -2   6   6 1329.37  103.19
  -2  -4  -6 1271.27  103.29
  -4   6  -6 1058.09  103.49
  -2   6   6 1259.87  103.09
   4  -6  -6 1305.57  103.39
   4  -6  -6 1116.59  103.69
  -4  -2   6 1198.28  103.19
  -4  -2   6 1063.99  103.49
   2   4  -6 1312.87  103.89
   2  -6   6 1115.29  103.19
  -5   6   6    1.00    0.60
   1   5   6    2.10    0.70
   1  -6  -6    1.00    0.80
  -1  -5   6    0.90    1.00
  -6   5  -6    1.30    0.80
  -6   1   6    0.70    0.70
   6  -1   6    1.50    0.90
   6  -1   6    1.90    1.00
   6  -1   6    1.40    0.70
  -5   6   6    1.00    0.60
   5  -6   6    1.70    1.10
  -5   6   6    0.70    0.70
   5  -6   6    1.80    1.00
  -6   1   6    1.00    0.60
   1  -6  -6    0.70    0.90
  -1  -5   6    0.90    0.80
  -6   1   6    0.30    0.50
   6  -5  -6    0.40    0.60
   6  -1   6    0.30    0.50
  -5   6   6    0.70    0.80
  -1   6  -6    1.00    0.90
   1  -6  -6    1.20    0.70
   5  -6   6    0.80    0.70
   5   1  -6    0.20    0.80
   1   5   6    1.50    0.70
  -1  -5   6    0.70    0.70
  -1  -5   6    0.90    0.60
  -6   1   6    1.40    1.00
  -6   5  -6    1.10    0.70
  -6   5  -6    0.90    0.90
  -6   5  -6    1.20    1.00
   5  -6   6    0.80    0.60
  -5  -1  -6    2.00    0.80
  -1   6  -6    0.90    1.00
   5   1  -6    1.20    1.00
   5   1  -6    1.00    0.70
  -5  -1  -6    1.00    0.80
  -1   6  -6    0.50    0.60
   1  -6  -6    0.80    0.60
   6  -5  -6    1.20    0.80
  -1   6  -6    2.30    1.00
   5   1  -6    1.20    0.80
  -1   6   6    1.30    0.60
  -5  -1   6    1.20    0.90
  -1  -5  -6    1.20    0.70
   6  -1  -6    3.30    1.20
   6  -1  -6    0.30    0.70
   6  -1  -6    0.80    0.90
   6  -5   6    6.60    1.30
  -5   6  -6    1.10    0.80
  -5  -1   6    0.90    0.80
  -5   6  -6    1.70    1.10
  -1  -5  -6    1.10    0.70
   5  -6  -6    1.70    1.00
   6  -5   6    0.60    0.70
   1   5  -6    1.70    0.90
   5  -6  -6    1.20    0.80
   1   5  -6    2.50    1.10
  -6   5   6    0.70    0.70
  -6   1  -6    0.80    0.80
  -1  -5  -6    1.90    0.90
   5   1   6    1.40    0.90
  -1   6   6    0.90    0.50
   1   5  -6    1.50    0.70
  -6   5   6    0.50    0.50
   5  -6  -6    3.80    1.10
  -5   6  -6    1.40    0.80
   1  -6   6    0.80    0.90
   1  -6   6    1.50    0.70
  -1  -5  -6    1.80    0.90
  -5  -1   6    0.60    0.60
   1  -6   6    2.20    1.00
   6  -1  -6    1.00    0.80
  -5   6  -6    0.60    0.80
  -6   5   6    0.80    0.80
   5  -6  -6    0.90    0.80
   1   5  -6    0.40    0.70
   5   1   6    1.10    1.00
   5   1   6    0.90    0.60
  -6   1  -6    1.40    0.70
   6  -5   6    1.00    0.90
  -6   1  -6    1.40    1.00
   1  -6   6    0.50    0.50
   0  -6  -6  241.88   27.60
  -6   0   6  297.57   27.40
  -6   0   6  277.27   27.40
   0   6  -6  302.47   28.20
   0  -6   6  337.87   28.20
   0   6   6  290.97   27.90
   0   6  -6  307.97   28.10
   6  -6  -6  322.57   27.70
   6  -6  -6  288.17   27.60
   6   0   6  300.97   28.00
  -6   6   6  292.47   27.40
  -6   0  -6  326.57   27.60
   6   0  -6  244.68   27.80
   6   0   6  297.97   28.10
   0  -6   6  310.87   27.50
   0  -6   6  318.07   28.10
   6  -6   6  289.77   28.00
   0   6   6  296.07   27.40
   6   0  -6  332.37   27.80
   6   0   6  315.07   27.50
   6   0  -6  350.76   28.30
  -6   0   6  322.57   28.10
  -6   0   6  265.57   27.90
  -6   6  -6  324.47   27.80
   0   6  -6  366.66   28.10
  -6   6  -6  295.87   27.60
  -6   6  -6  271.87   28.00
   6  -6   6  315.07   28.20
   0   6   6  294.57   28.10
   0  -6  -6  296.27   27.60
  -6   6   6  283.97   27.40
   6  -6  -6  273.67   27.90
   0  -6   6  341.37   27.60
   6   0   6  353.76   27.70
   6  -6  -6  289.67   28.10
  -6   6  -6  321.17   28.10
   0  -6  -6  290.37   28.00
   6  -6   6  309.77   27.70
   0   6  -6  344.17   28.10
   6   0  -6  308.17   27.70
   0  -6  -6  305.27   27.60
  -6   0  -6  299.47   27.70
  -4  -3  -6   87.09    7.80
   7  -3   6   78.09    7.20
  -3  -4   6   77.29    7.20
   3  -7  -6   84.29    7.80
  -3  -4   6   72.79    7.30
   3  -7  -6   68.49    7.30
  -7   3   6   79.19    7.20
  -7   4  -6   77.79    7.30
  -3   7  -6   68.89    7.40
  -7   4  -6   68.59    7.60
  -4  -3  -6   68.99    7.20
   7  -3   6   66.89    7.20
  -3   7  -6   69.69    7.80
  -7   4  -6   81.99    7.40
  -4   7   6   60.79    7.50
   3  -7  -6   73.89    7.30
  -4  -3  -6   61.29    7.10
  -4   7   6   70.19    7.10
   3  -7  -6   66.19    7.40
   7  -4  -6   60.79    7.10
  -4   7   6   76.69    8.00
  -3  -4   6   68.99    7.60
  -7   3   6   77.19    7.80
  -7   3   6   80.19    7.20
   4   3  -6   78.69    7.70
   4  -7   6   65.69    7.20
  -3   7  -6   68.69    7.50
  -7   3   6   59.99    7.50
   3   4   6   63.19    7.00
   3   4   6   78.79    7.20
  -3  -4   6   78.79    7.60
   7  -4  -6   64.69    7.10
   4  -7   6   70.49    7.80
   4  -7   6   72.59    7.70
  -7   4  -6   97.09    8.20
   4  -7   6   78.59    7.20
   4   3  -6   71.89    7.20
  -4   7   6   66.29    7.00
   4   3  -6   84.19    7.70
   7  -3   6   66.49    7.60
   7  -3   6   71.49    7.60
  -4  -3  -6   98.79    8.20
   4  -7  -6   76.19    7.40
  -7   4   6   65.49    7.50
  -4   7  -6   61.79    7.60
  -3   7   6   62.29    7.40
   7  -4   6   66.39    7.50
   7  -3  -6   79.99    7.70
   3  -7   6   71.99    7.70
  -3   7   6   68.79    7.10
  -3  -4  -6   71.99    7.30
  -3  -4  -6   67.89    7.20
   3  -7   6   75.59    7.70
   3   4  -6   56.29    7.40
   3   4  -6   64.39    7.60
   7  -3  -6   81.89    7.50
   7  -4   6   78.99    7.80
   3   4  -6   83.89    7.40
  -4  -3   6   78.69    7.30
  -7   4   6   88.49    7.90
   4  -7  -6   63.69    7.10
  -7   4   6   72.69    7.10
  -4  -3   6   73.19    7.60
   7  -4   6   94.29    7.40
   4   3   6   76.89    7.20
  -4   7  -6   82.09    7.60
   3  -7   6   65.89    7.00
  -4  -3   6   65.99    7.50
  -3  -4  -6   64.39    7.50
   7  -4   6   67.99    7.10
  -7   3  -6   68.79    7.20
  -3  -4  -6   67.09    7.40
   4  -7  -6   72.09    7.70
   4  -7  -6   61.39    7.40
  -7   3  -6   70.59    7.70
   3  -7   6   84.29    7.40
  -7   4   6   65.59    7.00
  -3   7   6   74.69    7.70
   4   3   6   65.89    7.00
  -4   7  -6   90.09    8.00
  -7   3  -6   65.09    7.60
   2   5   6  242.48   20.40
   2  -7  -6  198.48   20.10
  -5   7   6  210.08   20.20
   7  -5  -6  202.88   19.90
   7  -2   6  234.78   19.90
  -7   2   6  235.48   20.40
   2  -7  -6  248.48   20.30
  -2   7  -6  267.47   21.00
   5  -7   6  190.68   19.70
   7  -5  -6  200.58   20.10
  -2  -5   6  232.18   20.40
   5  -7   6  216.88   19.90
   7  -2   6  216.48   20.20
   7  -2   6  239.08   19.90
  -2   7  -6  200.28   19.90
  -5   7   6  212.68   19.70
  -5   7   6  202.08   20.20
  -7   5  -6  227.68   20.00
   2  -7  -6  204.58   19.90
  -7   5  -6  238.88   20.50
  -2  -5   6  225.18   19.80
   5   2  -6  203.08   20.30
  -2  -5   6  219.38   20.30
   5  -7   6  171.68   19.90
  -2  -5   6  259.17   20.10
  -5  -2  -6  210.88   20.10
   2   5   6  206.28   19.70
   5   2  -6  200.28   20.30
   5   2  -6  226.18   19.90
   5  -7   6  232.58   20.60
  -2   7  -6  180.48   20.00
   7  -5  -6  206.68   19.80
  -7   2   6  191.08   19.60
   2   5   6  211.28   20.30
  -5  -2  -6  185.38   19.80
   2   5   6  214.98   19.70
  -7   5  -6  209.38   20.30
  -5  -2  -6  189.78   19.80
   7  -2   6  241.38   20.50
   2  -7  -6  199.88   19.80
  -7   2   6  231.48   19.70
  -7   2   6  238.68   20.50
  -5  -2  -6  215.38   20.20
  -5   7   6  247.08   19.90
  -7   5   6  214.08   20.30
   2   5  -6  201.98   20.30
   2   5  -6  220.28   20.30
  -5   7  -6  248.08   20.60
  -2  -5  -6  192.78   20.00
  -5   7  -6  244.08   20.30
   7  -5   6  193.88   19.60
   5  -7  -6  194.08   20.10
   7  -5   6  220.28   20.20
   7  -2  -6  224.08   20.40
   2  -7   6  215.18   20.20
   5  -7  -6  209.28   19.80
  -7   2  -6  217.78   20.40
   5   2   6  209.08   19.70
   2   5  -6  230.48   20.00
  -7   5   6  171.08   19.80
   2  -7   6  207.38   19.70
  -2   7   6  217.38   19.80
  -2   7   6  220.08   19.70
  -2   7   6  205.98   20.30
  -2   7   6  223.18   20.30
  -7   5   6  182.98   19.60
   2  -7   6  201.68   19.80
  -5  -2   6  197.58   20.10
   5  -7  -6  270.57   20.10
  -5  -2   6  180.88   19.60
   5   2   6  249.28   20.80
   5   2   6  228.98   21.10
  -2  -5  -6  219.68   19.80
  -2  -5  -6  224.78   19.90
   2  -7   6  211.28   20.30
   5  -7  -6  202.58   20.30
  -7   2  -6  233.88   20.30
   7  -5   6  226.28   20.00
  -5  -2   6  210.38   20.20
  -5   7  -6  261.47   20.30
  -2  -5  -6  195.48   20.00
   5   2   6  217.08   19.70
  -7   5   6  230.78   19.70
   7  -2  -6  211.38   20.20
  -5  -2   6  224.58   19.80
  -7   1   6   72.19    7.80
  -1  -6   6   82.09    8.20
  -7   1   6   83.79    8.40
   1   6   6   76.79    8.20
   7  -6  -6   78.69    7.90
  -6   7   6   72.49    8.20
   6   1  -6   71.89    8.10
   6   1  -6   79.29    8.30
   1   6   6   89.29    8.30
  -7   1   6   85.99    8.30
   1  -7  -6   84.09    8.30
   6   1  -6   64.69    7.80
   6  -7   6   77.79    7.90
   7  -6  -6   78.09    8.20
  -6   7   6   74.79    7.70
  -6  -1  -6  106.39    8.70
  -6  -1  -6   75.69    8.30
   1  -7  -6   88.69    8.10
  -1   7  -6   71.49    8.00
   7  -1   6   84.29    7.90
  -7   1   6   78.39    7.70
  -1  -6   6   85.19    8.10
   1   6   6   70.99    7.70
  -6  -1  -6   68.49    7.80
   1   6   6   73.29    7.70
   7  -6  -6   83.89    8.40
   6  -7   6   80.29    8.30
  -7   6  -6   75.19    8.00
  -7   6  -6   73.49    8.30
   7  -1   6   79.19    7.70
   7  -1   6   91.19    8.60
  -6   7   6   93.59    8.40
   1  -7  -6   87.79    8.50
   7  -1   6   71.29    8.10
  -1  -6   6   96.39    8.90
  -1   7  -6   80.99    9.10
  -7   6   6   77.19    7.80
  -7   1  -6   87.69    8.10
   7  -1  -6   77.39    8.20
   7  -6   6   78.49    8.00
  -1   7   6   96.89    8.70
   1   6  -6   73.79    8.00
   6   1   6   71.99    8.40
   7  -6   6   77.49    7.70
   1  -7   6   81.19    7.80
   7  -6   6   77.19    8.20
  -6   7  -6   74.19    7.90
  -6  -1   6   60.39    7.50
   7  -1  -6   75.19    8.40
  -1  -6  -6   64.09    7.70
  -6  -1   6   71.19    8.20
  -6  -1   6   70.19    8.20
  -1   7   6   72.19    7.60
  -7   6   6   81.99    7.80
  -6  -1   6   84.29    7.80
   1  -7   6   87.39    8.00
   6   1   6   94.09    8.80
   6  -7  -6   79.89    8.50
   6  -7  -6   76.39    8.20
  -1  -6  -6   79.29    8.30
  -1  -6  -6   66.29    7.90
   6  -7  -6   85.39    7.90
  -1   7   6   98.39    8.60
  -6   7  -6   73.69    8.40
   1  -7   6   84.79    8.80
  -1   7   6   80.29    7.70
   6   1   6   77.99    7.80
   6   1   6   69.39    7.60
   1   6  -6   87.89    8.60
  -7   7   6    6.00    1.40
   7  -7   6    6.20    1.30
   0   7  -6    4.80    1.50
   0  -7  -6    6.70    1.60
  -7   7  -6    9.10    1.90
   7   0  -6    7.90    1.90
   0  -7   6    4.70    1.30
   7  -7  -6    5.90    1.50
   0   7   6    4.20    1.50
   0  -7   6    8.70    2.00
   0   7   6    6.80    1.50
  -7   0   6    6.20    1.50
  -7   7  -6    3.40    1.50
   7   0  -6    6.70    1.90
   7  -7   6    5.70    1.50
   0  -7  -6    5.60    1.60
  -7   0   6    5.30    1.20
   0   7  -6    5.50    1.70
   7   0   6    6.90    1.50
   7  -7   6    7.00    1.80
   7   0   6    6.50    1.60
  -7   7   6    5.60    1.40
  -7   0   6    5.60    1.80
   0   7   6    5.30    1.30
   4  -8   6  286.97   24.50
   4   4   6  266.67   23.70
  -4  -4  -6  228.08   24.10
  -4   8   6  273.77   24.40
  -4   8   6  253.07   24.00
  -4  -4   6  215.28   23.50
  -4   8  -6  262.67   24.60
   4  -8  -6  230.98   23.70
   8  -4   6  261.97   23.70
  -8   4   6  294.67   23.90
   4  -8  -6  275.27   24.40
   8  -4   6  275.67   23.90
   4   4   6  289.07   23.90
   4   4  -6  245.78   24.40
  -4   8  -6  249.48   24.00
   4   4  -6  294.37   24.10
  -8   4   6  286.17   23.80
   4  -8  -6  260.97   24.30
  -4  -4   6  211.08   23.60
  -4  -4   6  262.57   24.30
   4  -8   6  275.17   23.90
   4   4   6  258.07   24.30
  -4   8   6  254.07   23.70
  -4   8   6  266.07   23.70
  -4  -4  -6  240.18   23.80
   3  -8  -6   13.50    2.40
   5  -8   6   21.10    3.10
   3   5   6   15.30    2.80
   3   5   6   18.90    2.50
  -8   3   6   14.10    2.20
   5  -8   6   15.80    2.50
  -5   8   6   21.70    2.90
  -3  -5   6   15.50    2.80
  -3   8  -6   18.60    3.30
  -8   3   6   11.20    2.20
   3   5   6   17.40    2.50
   5   3  -6   16.60    2.50
   3  -8  -6   14.80    2.80
   5   3  -6   13.60    2.80
  -5   8   6   23.30    3.50
  -3   8  -6   14.20    2.60
   8  -3   6   16.60    2.60
  -5  -3  -6   24.30    3.20
  -8   5  -6   14.80    2.60
  -3  -5   6    9.90    2.10
  -5   8   6   12.80    2.20
  -8   5  -6   17.20    3.20
   8  -3   6   15.80    2.40
  -3  -5  -6   14.20    2.30
  -5  -3   6   13.70    2.20
  -8   5   6   14.90    2.20
   3  -8   6   13.70    2.40
  -5   8  -6   22.10    3.00
  -5   8  -6   19.10    3.40
  -8   5   6   12.40    2.20
  -3   8   6   20.40    2.60
   8  -5   6   15.90    3.00
   8  -5   6   15.00    2.30
   5   3   6   16.60    2.40
  -5  -3   6   15.50    2.40
  -3   8   6   22.00    3.50
   3   5  -6   15.80    2.70
  -5  -3   6   17.90    2.90
   3   5  -6   19.20    3.20
   3  -8   6   15.30    2.70
   5  -8  -6   12.60    2.50
  -3  -5  -6   18.80    2.90
  -3   8   6   17.20    2.40
   8  -5   6   18.50    2.60
   5  -8  -6   16.90    2.50
  -8   2   6  497.95   44.90
  -8   2   6  586.54   45.60
   8  -2   6  432.16   45.10
   8  -2   6  490.25   44.90
   6  -8   6  531.85   45.10
  -2   8  -6  489.75   45.60
   6   2  -6  516.15   45.50
   2   6   6  504.15   44.80
  -2  -6   6  535.15   45.00
  -2  -6   6  526.75   45.00
  -8   6  -6  414.96   44.90
  -2  -6   6  513.35   45.40
  -8   6  -6  511.55   45.50
  -6  -2  -6  494.65   45.30
  -2   8  -6  462.85   44.90
  -6   8   6  466.15   44.60
  -8   2   6  542.35   44.90
   6  -8   6  496.45   45.40
  -6   8   6  488.65   44.70
   2   6   6  517.85   44.90
   8  -6  -6  411.46   45.10
   8  -6  -6  435.66   45.00
  -8   6   6  511.95   44.80
  -2   8   6  492.05   44.80
   8  -6   6  600.14   45.60
   6   2   6  475.55   44.80
   6   2   6  494.95   44.80
   2  -8   6  574.24   45.60
   8  -6   6  470.95   44.90
  -6   8  -6  483.85   45.00
   6   2   6  549.74   45.60
   2   6  -6  467.45   45.40
  -8   6   6  484.85   45.50
   2  -8   6  522.75   44.90
   2   6  -6  468.75   45.00
  -6  -2   6  502.55   45.30
  -6  -2   6  519.75   45.00
   1   0  -7   12.10    1.20
  -1   0   7   10.80    1.20
  -1   0  -7   12.90    1.20
   0  -1   7   11.80    1.30
   1  -1  -7   10.70    1.10
   1   0   7   12.70    1.20
   0   1  -7   10.20    1.10
   1   0   7   11.80    1.20
  -1   0   7   11.70    1.20
   1  -1   7   10.30    1.30
  -1   0  -7   10.80    1.10
   1   0  -7    9.80    1.20
   1  -1  -7   11.30    1.10
   0  -1   7   11.20    1.20
   1  -1   7   11.60    1.20
   2  -1  -7    0.10    0.20
  -1   2  -7    0.20    0.30
   1  -2  -7    0.10    0.10
   1  -2  -7    0.30    0.20
  -2   1  -7   -0.10    0.30
   2  -1  -7    0.40    0.40
   2  -1  -7    0.10    0.20
  -1  -1   7    0.30    0.30
   2  -1   7    0.30    0.40
  -1  -1  -7    0.20    0.20
   1  -2   7    0.20    0.40
   1   1  -7    0.20    0.30
  -2   1  -7   -0.10    0.30
  -1  -1   7    0.20    0.30
  -1  -1  -7   -0.10    0.20
   1  -2   7    0.00    0.30
   2  -1   7    0.60    0.30
  -1  -1  -7    0.20    0.30
  -2   1  -7    0.20    0.30
   2  -1  -7    0.30    0.30
   1  -2  -7    0.30    0.10
  -1   2  -7    0.00    0.30
   1  -2  -7    0.30    0.30
  -1  -1  -7    0.20    0.20
   0  -2  -7  174.78   16.50
   0  -2  -7  184.38   16.70
  -2   0  -7  199.08   16.80
  -2   0  -7  191.48   16.60
   2  -2  -7  175.48   16.70
   2  -2   7  188.98   16.90
   2  -2  -7  200.28   16.60
   0  -2   7  182.68   16.80
   0   2  -7  195.28   16.70
  -2   0  -7  190.38   16.80
   0  -2  -7  193.48   16.70
   0  -2   7  187.98   16.90
  -2   2  -7  185.08   16.70
   0   2   7  199.08   16.80
  -2   0  -7  167.68   16.60
   2  -2  -7  177.48   16.70
   2  -2  -7  199.18   16.60
   0   2  -7  188.18   16.70
   0   2   7  165.18   16.80
  -2   2  -7  182.38   16.60
  -2   0   7  180.88   16.80
  -2   0   7  186.38   16.80
   2   0  -7  180.28   16.80
   2  -2   7  181.18   16.80
   2   0  -7  206.88   16.60
   2   0  -7  180.28   16.80
   0  -2  -7  179.08   16.50
  -2  -1  -7   66.59    6.40
   2  -3   7   79.79    6.80
  -2  -1  -7   65.89    6.40
  -1  -2   7   70.59    6.70
  -1   3  -7   62.39    6.50
   1   2   7   65.69    6.60
   2   1  -7   58.79    6.40
  -3   2  -7   66.89    6.70
   3  -2  -7   62.49    6.40
   1  -3  -7   66.79    6.40
  -1  -2   7   64.49    6.60
   3  -2  -7   64.99    6.60
   3  -2  -7   64.79    6.60
   2  -3   7   73.19    6.80
  -3   2  -7   69.19    6.40
   1   2   7   63.49    6.50
   2   1  -7   76.99    6.50
   1  -3  -7   56.89    6.50
  -3   2  -7   75.39    6.60
  -1   3  -7   79.19    6.50
   1  -3  -7   64.99    6.50
  -2   3   7   67.19    6.60
  -2  -1  -7   72.59    6.70
  -2  -1  -7   59.89    6.50
  -3   2  -7   63.09    6.60
  -2   3   7   66.49    6.50
   1  -3  -7   62.29    6.30
   1  -3   7   78.39    6.80
   2  -3  -7   62.19    6.40
   3  -1  -7   76.89    6.70
  -3   1  -7   61.69    6.60
  -1  -2  -7   81.49    6.50
   2   1   7   59.69    6.70
   3  -2   7   73.09    6.70
  -3   1  -7   73.29    6.50
  -1  -2  -7   77.59    6.60
   3  -2   7   68.99    6.70
  -2  -1   7   59.69    6.60
  -2   3  -7   71.49    6.60
  -2   3  -7   80.59    6.50
   2  -3  -7   73.39    6.40
   1  -3   7   72.79    6.80
   3  -1  -7   79.09    6.50
  -1  -2  -7   71.49    6.40
   2   1   7   81.29    6.80
  -1   3   7   75.29    6.60
   1   2  -7   61.69    6.40
  -2  -1   7   76.29    6.80
  -1   3   7   70.79    6.60
   2  -3  -7   72.59    6.60
  -3   1  -7   65.09    6.70
   1   2  -7   68.59    6.50
  -1  -2  -7   68.49    6.60
   3  -1  -7   64.59    6.60
   2  -3  -7   70.89    6.70
   0  -3   7   20.50    2.00
   3   0  -7   27.80    2.80
   3   0  -7   21.70    2.30
   0  -3  -7   18.70    2.20
   0  -3   7   22.90    2.60
  -3   0   7   19.60    2.50
  -3   0  -7   23.70    2.50
   0   3   7   22.90    2.40
  -3   3   7   19.90    2.40
   0  -3   7   17.70    2.30
   3  -3   7   19.10    1.90
   0  -3  -7   19.60    2.20
  -3   3  -7   21.80    2.40
  -3   0  -7   22.30    2.50
   0   3  -7   24.20    2.40
  -3   0  -7   20.40    2.30
  -3   3   7   21.70    2.40
   3   0  -7   23.50    2.30
   0  -3  -7   23.00    2.40
  -3   0   7   21.70    2.50
   3   0  -7   20.60    2.50
   3  -3  -7   18.60    2.30
   0  -3   7   19.50    2.00
   0  -3  -7   19.00    2.30
   3  -3   7   17.00    2.50
   3  -3  -7   17.70    2.20
   0   3   7   20.80    2.40
   3  -3   7   18.90    2.00
   3  -3  -7   20.90    2.30
   3  -3  -7   15.00    2.30
   3  -3   7   14.10    2.30
  -4   2   7    0.00    0.20
   4  -2  -7    0.00    0.50
   4  -2   7    0.00    0.20
   2  -4   7    0.00    0.30
  -2  -2   7    0.60    0.30
  -4   2  -7    0.00    0.30
  -2   4   7    0.20    0.50
   2   2  -7    0.10    0.40
   2   2  -7   -0.20    0.40
   2  -4  -7   -0.50    0.40
  -2  -2  -7    0.20    0.40
   2  -4   7   -0.10    0.30
  -4   2  -7    0.30    0.50
  -2   4  -7    0.30    0.40
   2  -4  -7   -0.10    0.40
  -2   4   7    0.20    0.50
  -2  -2  -7    0.10    0.40
  -4   2   7    0.30    0.50
  -4   2  -7    0.30    0.50
  -2  -2  -7    0.50    0.50
   4  -2  -7    0.30    0.50
   4  -2   7    0.00    0.30
   2  -4  -7    0.30    0.50
  -4   2  -7   -0.80    0.50
   2   2   7    0.20    0.50
  -4   2   7    0.20    0.50
   4  -2  -7    0.80    0.60
  -2  -2   7   -0.20    0.20
   2  -4  -7    0.30    0.50
   2   2   7    0.20    0.50
  -2   4  -7    0.10    0.50
  -3   4   7   60.59    6.20
  -3   4   7   56.49    6.20
  -4   1   7   63.69    5.70
  -1   4  -7   57.59    6.00
   4  -3  -7   63.09    6.20
   1  -4  -7   65.89    6.00
   1   3   7   54.49    6.10
  -4   3  -7   59.59    6.00
   3  -4   7   56.09    5.80
   4  -1   7   65.29    5.70
  -4   1   7   62.39    5.70
   4  -3  -7   69.69    6.10
   3   1  -7   54.09    6.00
  -3  -1  -7   67.69    6.30
   4  -1   7   62.59    5.80
   3  -4   7   58.19    5.80
  -3  -1  -7   63.29    6.20
   1   3   7   68.49    6.30
  -3  -1  -7   60.79    6.00
   3   1  -7   69.69    6.20
  -1  -3   7   61.09    5.80
   1  -4  -7   57.09    6.10
   1  -4  -7   54.19    6.10
  -4   3  -7   58.49    6.10
   4  -3  -7   65.89    6.30
  -1  -3   7   51.39    5.80
  -4   1  -7   76.09    6.20
  -3  -1   7   64.69    5.80
  -3   4  -7   59.39    6.20
   3  -4  -7   60.69    6.30
  -1  -3  -7   62.69    6.00
   1   3  -7   60.29    6.00
   3  -4  -7   65.39    6.00
  -4   1  -7   55.79    6.00
   1   3  -7   62.89    6.40
   3  -4  -7   66.89    6.20
  -1  -3  -7   67.39    6.30
  -3  -1   7   63.39    5.80
  -1   4   7   65.69    6.30
  -4   1  -7   55.29    6.20
  -4   3   7   65.79    5.60
   4  -1  -7   64.19    6.10
  -1   4   7   68.79    6.20
  -3   4  -7   54.69    6.00
   4  -3   7   58.69    5.80
  -4   3   7   67.39    6.20
   3   1   7   58.29    5.60
  -1  -3  -7   63.69    6.30
   4  -1  -7   64.29    6.10
   4  -3   7   61.59    5.80
   3   1   7   57.39    6.20
   1  -4   7   62.69    6.30
   1  -4   7   70.49    5.90
  -4   3   7   75.99    6.40
   1  -4   7   59.89    5.80
   3   1   7   72.19    6.40
   0   4  -7  221.28   19.30
   0  -4  -7  218.98   19.20
   0   4   7  220.68   18.70
  -4   4  -7  233.18   19.30
   4   0  -7  210.68   19.20
   4  -4   7  200.48   19.00
  -4   4  -7  221.38   20.10
   4  -4  -7  217.18   19.20
  -4   0   7  251.97   19.00
  -4   4   7  211.78   18.80
   0  -4   7  205.98   19.00
   0  -4   7  198.08   19.00
  -4   0  -7  205.08   19.40
  -4   4   7  199.58   18.80
   4   0  -7  210.38   19.50
   0  -4  -7  180.68   19.00
  -4   4  -7  237.88   19.90
   4   0  -7  199.68   19.50
   0  -4   7  194.08   19.40
  -4   0  -7  193.08   19.10
   4  -4   7  207.08   19.00
   4  -4   7  214.28   19.60
  -4   0   7  232.98   19.00
   4   0   7  216.18   18.90
   0   4  -7  219.98   19.30
   0  -4  -7  191.98   19.70
   4   0   7  212.18   18.90
   4   0   7  168.68   19.70
   4  -4   7  225.78   19.60
   3  -5   7    7.40    1.30
   3   2  -7    5.40    1.20
  -5   2   7    5.20    1.00
  -2   5  -7    7.20    1.30
  -5   3  -7    9.10    1.90
  -5   2   7    5.20    1.40
   3   2  -7    5.30    1.40
   3   2  -7   11.40    2.00
  -3   5   7    9.60    1.60
  -5   2   7    6.00    1.40
   2  -5  -7    7.10    1.40
  -5   2   7    7.60    1.10
   5  -3  -7   10.30    1.60
   3  -5   7    9.60    2.10
  -3  -2  -7    6.00    1.40
  -2   5  -7   10.10    1.70
   3  -5   7    7.40    1.20
  -5   3  -7    9.30    1.60
  -3   5   7    7.10    0.90
   3   2  -7    9.10    1.50
   5  -2   7    7.30    1.10
  -2  -3   7    7.50    1.20
   2   3   7    7.20    1.10
   2  -5  -7    9.40    1.60
  -3  -2  -7    6.20    1.40
  -5   3  -7    5.20    1.30
   2   3   7    5.60    1.30
   3  -5   7    7.80    1.60
   5  -3  -7    9.40    1.80
   2   3   7    4.00    1.20
   2  -5  -7    4.80    1.30
  -3   5   7    5.40    1.30
  -2  -3   7    6.30    1.50
  -2  -3   7   10.30    1.80
   5  -3  -7    9.70    1.70
  -3   5   7    7.20    1.00
   5  -2   7    6.10    1.10
   5  -3  -7    8.10    1.40
  -5   3  -7    6.90    1.40
   2   3   7    7.50    1.00
  -2   5   7    7.40    1.50
   3  -5  -7    7.40    1.60
   5  -2  -7    9.40    1.80
   2   3  -7   10.10    1.50
   3   2   7    6.50    1.00
   3   2   7    7.60    1.10
   3  -5  -7    7.90    1.60
  -3  -2   7    7.60    1.70
  -5   3   7    8.50    1.70
  -5   3   7    6.70    1.10
   2  -5   7    8.00    1.20
   3   2   7    7.60    1.60
   3   2   7   10.00    1.80
  -3  -2   7    7.40    1.60
   5  -3   7    8.00    1.20
  -5   2  -7    6.80    1.40
  -3  -2   7    5.60    1.10
   2  -5   7    7.10    1.70
   2  -5   7    9.10    1.70
  -3   5  -7    9.20    1.70
  -2  -3  -7    6.40    1.30
  -3   5  -7    8.10    1.50
  -5   3   7    7.70    1.10
  -2   5   7    5.90    0.90
  -2   5   7    7.80    1.00
  -2   5   7    7.70    1.60
   2   3  -7    6.30    1.30
   5  -2  -7    8.70    1.40
   5  -2  -7    5.20    1.20
  -5   2  -7    6.70    1.30
  -5   3   7    6.80    1.50
  -5   2  -7    9.70    1.80
   5  -2  -7    4.90    1.30
   5  -3   7    8.80    1.30
   2  -5   7    6.60    1.20
  -2  -3  -7    6.00    1.40
  -5   2  -7    6.60    1.50
   4   1  -7   33.00    3.50
  -1  -4   7   25.60    3.00
   5  -4  -7   30.40    3.40
   1   4   7   29.10    2.80
   5  -4  -7   21.00    3.10
   5  -1   7   28.30    2.80
  -1  -4   7   28.80    3.40
  -5   4  -7   23.10    3.10
   1   4   7   27.90    3.30
  -1   5  -7   27.90    3.40
  -5   1   7   31.60    2.90
   4  -5   7   32.10    2.90
  -4   5   7   31.30    3.40
  -4  -1  -7   28.30    3.30
  -5   1   7   24.00    3.40
   5  -1   7   30.60    3.50
  -5   1   7   28.40    3.30
   1   4   7   24.10    2.70
   1  -5  -7   29.80    3.30
   1  -5  -7   23.90    3.20
   4   1  -7   28.50    3.20
  -1  -4   7   29.20    3.50
  -4  -1  -7   23.80    3.20
  -4   5   7   27.40    3.30
  -5   4  -7   34.90    4.30
  -1  -4   7   26.40    2.90
   5  -1   7   27.50    2.90
  -1   5  -7   30.90    3.10
  -4  -1  -7   29.50    3.40
   1  -5  -7   27.10    3.00
   4   1  -7   29.90    3.90
  -4  -1  -7   28.00    3.10
   4  -5   7   25.40    3.00
  -5   4  -7   28.60    3.20
  -4   5   7   24.60    2.70
   5  -4  -7   26.90    3.10
  -5   4  -7   19.70    3.30
   4  -5   7   26.80    3.30
  -4   5   7   27.60    2.70
   5  -4  -7   19.80    3.30
   1   4   7   27.00    3.30
   5  -1   7   27.60    3.70
   4  -5   7   22.00    3.40
  -4   5  -7   19.80    3.00
  -1   5   7   25.70    2.70
   5  -1  -7   27.80    3.40
  -5   1  -7   26.80    3.40
   4   1   7   23.50    3.40
  -1  -4  -7   28.80    3.10
   1  -5   7   23.20    2.90
  -4  -1   7   23.50    2.80
   5  -4   7   23.10    2.80
  -1   5   7   28.10    3.20
   4   1   7   26.80    2.80
  -5   4   7   23.40    2.70
   5  -4   7   29.70    3.00
  -1  -4  -7   29.00    3.70
  -1   5   7   27.30    2.70
   4  -5  -7   28.30    3.40
  -4   5  -7   23.90    3.20
   1  -5   7   29.00    2.90
  -1   5   7   26.70    3.40
   1   4  -7   28.20    3.40
   4  -5  -7   27.10    3.00
   4   1   7   23.80    2.80
   1   4  -7   22.60    3.20
   1  -5   7   28.60    3.40
   5  -1  -7   30.60    3.20
   4  -5  -7   24.50    3.20
   5  -1  -7   28.30    3.50
  -5   4   7   25.20    2.80
  -5   4   7   32.60    3.40
   1  -5   7   29.00    3.50
  -1  -4  -7   24.90    3.20
  -4  -1   7   26.90    2.90
   5  -1  -7   30.60    3.30
  -5   1  -7   27.10    3.10
  -5   1  -7   28.40    3.20
  -5   1  -7   22.40    3.30
   5   0   7   87.29    8.90
   0   5   7   93.59    9.00
   0   5   7   92.49    8.30
   5  -5   7   84.89    8.60
  -5   0  -7   84.29    8.50
   0  -5   7   86.49    8.90
  -5   5  -7   95.89    9.00
   5  -5   7  108.89    9.40
   5   0  -7  106.29    9.20
   5  -5  -7   92.99    8.90
   0  -5   7   86.79    8.40
   5  -5  -7   88.99    9.00
  -5   5  -7   79.79    9.00
  -5   0  -7   87.19    8.90
  -5   5   7   81.19    8.30
  -5   5   7  106.39    9.20
   5   0  -7   90.49    9.00
   5  -5  -7   88.09    8.70
   0  -5  -7   81.29    8.80
   0   5   7   91.29    8.40
  -5   0  -7   93.59    8.90
   0   5  -7   96.89    8.80
  -5   0   7   81.19    8.40
   0   5  -7   82.29    8.60
   5  -5   7   81.69    8.40
   0  -5  -7   85.29    8.60
  -5   5   7   94.59    8.90
   0   5   7   85.29    8.90
   5   0  -7  114.29    8.80
   5   0   7   87.89    9.00
   5  -5   7   91.59    9.10
   0  -5   7   82.49    8.90
  -5   0   7   86.59    8.40
   0  -5  -7   91.39    8.80
   5   0   7   69.49    8.60
   5   0   7   87.49    8.40
  -5   0  -7  101.29    8.80
   5   0  -7   89.09    8.70
   5  -5  -7   94.39    8.60
  -5   5  -7   89.79    8.80
  -5   5  -7   90.89    8.60
   3   3  -7   -0.10    0.80
  -3  -3  -7    0.90    0.80
   3  -6   7    0.00    0.50
  -6   3   7   -0.10    0.40
   3   3  -7    0.00    0.50
  -6   3  -7    0.20    0.70
  -3   6   7    0.00    0.40
   3  -6  -7   -0.10    0.50
   3  -6   7   -0.10    0.50
  -3   6   7    0.80    0.80
  -6   3   7   -0.30    0.50
  -3   6  -7    0.30    0.60
  -6   3   7   -0.40    0.30
   6  -3   7   -0.20    0.50
   6  -3   7    0.30    0.70
   3  -6   7    0.80    0.90
   3   3   7    0.00    0.60
  -6   3  -7    0.00    0.50
   6  -3  -7    0.20    0.70
  -6   3  -7    0.60    0.80
   6  -3  -7    0.00    0.70
  -3  -3   7    0.10    0.70
   6  -3  -7    0.00    0.70
  -3  -3  -7    0.10    0.50
   6  -3  -7    0.30    0.70
  -3  -3   7    0.20    0.40
  -3   6  -7    0.20    0.70
   6  -3   7    0.60    0.50
   6  -3   7    0.00    0.70
  -6   3   7    0.30    0.60
   3  -6  -7    0.70    0.70
  -3  -3  -7   -0.10    0.60
   3  -6  -7    0.10    0.60
   3   3   7    0.30    0.50
   3   3  -7    0.40    0.80
  -6   3  -7   -0.30    0.50
  -3   6   7   -0.10    0.60
   3   3  -7    0.00    0.50
   3   3   7   -0.20    0.50
  -3  -3  -7    0.90    0.70
  -3  -3   7    0.00    0.40
   6  -2   7   63.39    6.50
   4  -6   7   75.99    7.50
  -2   6  -7   73.29    6.90
  -4   6   7   62.19    6.30
   6  -2   7   66.89    7.10
  -6   4  -7   68.59    6.80
   2   4   7   64.69    7.00
   6  -4  -7   85.19    7.30
  -6   2   7   59.89    6.40
  -4  -2  -7   65.49    6.90
   6  -4  -7   63.69    7.00
   2   4   7   69.39    6.40
   6  -2   7   70.89    6.50
   4   2  -7   65.99    7.10
   4  -6   7   55.69    6.80
  -2  -4   7   62.29    6.50
  -6   2   7   72.39    7.10
  -6   4  -7   57.59    6.80
  -6   4  -7   66.39    6.70
  -4  -2  -7   72.69    6.80
   6  -2   7   67.69    7.00
  -6   2   7   78.39    6.60
   4   2  -7   78.69    7.20
   2  -6  -7   72.29    6.70
   2  -6  -7   66.09    7.00
   2  -6  -7   54.19    6.70
  -4  -2  -7   68.59    6.80
  -2  -4   7   68.89    7.10
  -2  -4   7   58.89    6.90
  -6   2   7   65.79    7.00
  -4   6   7   71.79    7.10
   6  -4  -7   62.89    6.70
  -4   6   7   71.09    7.00
   6  -4  -7   63.89    6.70
  -4  -2  -7   74.89    7.00
   4   2  -7   79.09    6.80
   2   4   7   60.59    7.00
   4  -6   7   70.79    6.60
  -2   6  -7   63.09    6.80
   4   2  -7   63.69    6.70
  -2   6   7   67.09    6.90
   4   2   7   67.99    7.10
  -4   6  -7   59.09    6.70
  -4  -2   7   83.99    6.60
   4   2   7   65.69    6.40
  -6   2  -7   58.79    6.70
   2  -6   7   64.19    7.00
  -2   6   7   67.59    7.10
  -6   4   7   62.09    6.90
  -6   4   7   74.79    7.20
   2   4  -7   72.39    6.90
   4  -6  -7   62.69    6.60
  -2   6   7   61.59    6.30
   4   2   7   71.69    6.50
   6  -2  -7   70.39    6.80
   6  -4   7   72.89    6.50
   2   4  -7   67.39    7.60
   2   4  -7   58.09    6.60
  -6   4   7   67.99    6.50
  -2  -4  -7   69.29    6.70
   2  -6   7   59.89    7.10
  -4   6  -7   72.89    6.80
   6  -4   7   66.59    6.60
  -2  -4  -7   72.59    7.10
  -2  -4  -7   67.89    6.90
  -6   2  -7   78.49    6.80
   2   4  -7   57.09    7.00
   6  -2  -7   64.59    6.70
   4  -6  -7   62.09    7.00
  -6   2  -7   57.09    7.00
  -6   4   7   65.59    6.40
   2  -6   7   66.19    6.50
   4  -6  -7   63.19    6.90
   4   2   7   60.39    6.90
   6  -2  -7   63.19    6.90
  -6   2  -7   69.09    7.10
   6  -2  -7   67.19    7.10
   5  -6   7  277.17   24.50
   5   1  -7  262.87   23.90
   1  -6  -7  305.97   23.90
  -5  -1  -7  283.77   24.00
  -1   6  -7  274.87   24.10
   1  -6  -7  229.98   24.00
   5  -6   7  253.97   23.80
  -6   5  -7  275.97   24.00
   6  -5  -7  298.27   24.20
  -1  -5   7  243.88   23.70
   1  -6  -7  255.77   24.10
   1   5   7  272.07   23.60
  -5   6   7  273.77   24.30
  -5   6   7  258.47   24.10
   6  -5  -7  239.98   24.00
   5   1  -7  227.88   24.10
   5  -6   7  214.28   24.00
   1   5   7  240.98   23.50
  -6   1   7  248.88   24.20
  -5  -1  -7  228.18   23.70
   6  -5  -7  247.38   23.80
   6  -1   7  260.97   23.70
  -1  -5   7  228.38   23.60
   1   5   7  256.17   24.10
  -1  -5   7  302.27   24.30
  -5   6   7  267.37   23.70
  -6   5  -7  235.28   24.20
   5  -6   7  287.77   23.70
  -6   1   7  251.17   23.60
   6  -1   7  244.28   24.20
   5   1  -7  281.67   24.00
  -6   5  -7  243.18   23.80
  -5   6   7  253.37   23.50
  -1  -5   7  271.97   24.40
  -6   1   7  236.28   24.10
  -6   5  -7  259.57   24.20
   5   1  -7  253.67   24.40
  -1   6  -7  268.97   23.90
  -5  -1  -7  261.57   24.20
   6  -1   7  264.97   23.70
  -5  -1  -7  273.37   24.20
   6  -1   7  262.67   24.20
   1   5   7  297.57   24.50
  -6   1  -7  223.18   24.00
   5  -6  -7  273.77   23.90
  -5   6  -7  300.17   24.00
   1  -6   7  246.18   24.10
  -1  -5  -7  267.17   24.20
   5   1   7  276.07   24.30
   6  -1  -7  286.87   24.40
  -1   6   7  243.88   24.20
   1  -6   7  215.58   23.60
   1  -6   7  261.77   23.70
  -5  -1   7  247.78   23.60
  -6   5   7  241.48   23.60
   1   5  -7  290.77   24.10
  -5   6  -7  255.67   23.90
  -5   6  -7  260.47   24.20
  -6   5   7  241.98   23.60
  -6   5   7  299.47   24.30
   6  -1  -7  244.68   23.80
   6  -1  -7  278.57   24.00
   6  -5   7  272.67   23.80
  -6   1  -7  251.27   23.80
  -1  -5  -7  279.47   23.90
   5  -6  -7  255.17   24.10
  -1   6   7  305.57   24.50
  -6   1  -7  246.68   24.10
   5   1   7  281.87   23.70
   5  -6  -7  260.37   23.90
  -1  -5  -7  252.37   24.00
   1  -6   7  278.67   24.50
   5   1   7  271.17   24.20
   5  -6  -7  270.57   24.40
  -5   6  -7  252.67   24.30
   6  -5   7  277.57   23.70
   5   1   7  262.77   23.70
  -6   5   7  271.37   24.30
   6  -1  -7  265.87   24.20
   1   5  -7  225.88   23.70
  -6   1  -7  298.27   24.10
  -1   6   7  284.57   23.60
  -1   6   7  293.77   23.60
  -6   0   7   83.89    7.60
   0  -6  -7   76.79    7.70
   6   0  -7   65.59    7.10
  -6   6  -7   71.89    7.30
   6  -6  -7   61.99    7.40
   6  -6  -7   68.79    7.10
   0   6   7   67.79    6.80
  -6   0  -7   78.89    7.30
   0  -6   7   66.69    7.50
  -6   0  -7   73.09    7.60
  -6   0   7   64.99    6.90
   6  -6   7   69.99    6.90
  -6   6   7   75.79    7.40
   6  -6  -7   65.59    7.00
  -6   0   7   64.09    7.40
   0  -6   7   83.09    7.10
   6  -6  -7   70.59    7.40
   6  -6   7   63.29    7.00
   0  -6  -7   73.89    7.10
  -6   0  -7   75.39    7.50
   0  -6  -7   63.29    7.20
   6   0  -7   73.19    7.70
   0   6  -7   64.29    7.10
   0   6   7   82.59    7.00
  -6   6  -7   59.29    7.20
   0   6   7   67.39    7.40
   0  -6   7   73.29    7.10
  -6   6   7   65.49    6.80
  -6   6   7   80.09    7.60
   0  -6   7   69.29    7.40
   6   0  -7   78.99    7.60
  -6   0   7   70.99    6.80
   0   6   7   65.19    7.30
  -6   6  -7   71.49    7.60
   6   0   7   65.09    7.50
  -6   0  -7   76.89    7.10
   6   0   7   69.59    6.90
   6   0   7   57.79    7.30
  -6   6   7   72.89    6.80
   3  -7  -7   98.09   11.90
  -4   7   7  154.78   12.60
   4   3  -7  128.99   12.50
  -3  -4   7  130.79   11.80
  -4   7   7  117.39   11.60
  -4   7   7  130.19   12.10
   3   4   7  125.89   11.70
  -7   3   7  124.69   12.30
   7  -4  -7  144.19   12.40
  -4  -3  -7  113.19   12.10
   7  -4  -7  105.99   11.80
   7  -3   7  119.29   12.30
   3   4   7  113.39   12.10
   4   3  -7  135.29   12.00
   7  -3   7  130.59   12.60
  -4  -3  -7  131.59   11.90
   4  -7   7  128.99   11.90
   4  -7   7  122.89   11.80
  -4  -3  -7  118.59   11.80
   4  -7   7   98.19   12.00
  -7   3   7  139.99   11.70
  -3  -4   7  143.69   11.90
  -4  -3  -7  124.79   12.20
   4   3  -7  141.69   12.70
   3   4   7  118.39   11.60
   4  -7   7  121.59   12.50
  -4   7   7  121.79   11.60
   3  -7  -7  126.19   12.30
  -7   3   7  122.49   11.70
   3   4   7  138.79   12.40
   7  -3   7  127.49   11.80
   7  -3   7  124.39   11.70
  -7   3   7  115.39   12.30
  -7   4  -7  127.19   12.30
  -7   4  -7  106.99   11.90
  -3   7  -7  129.49   12.10
  -7   4  -7  138.69   12.60
   7  -4  -7  154.98   12.10
   3  -7  -7  139.39   12.00
   7  -4  -7  115.59   12.30
  -4   7  -7  128.19   12.10
   4   3   7  118.49   11.70
  -3  -4  -7  128.89   12.20
   7  -4   7  164.58   13.00
   7  -4   7  130.09   11.90
   4  -7  -7  128.29   12.20
   3   4  -7  134.39   12.10
  -4   7  -7  144.29   12.30
   3   4  -7  120.99   12.30
   4  -7  -7   94.99   11.90
   7  -3  -7  116.19   11.90
  -3   7   7  131.49   12.30
  -3  -4  -7  128.69   11.90
   4   3   7  135.49   11.90
   3  -7   7  110.59   12.10
   7  -3  -7  107.19   12.10
  -3   7   7  148.09   11.70
   3   4  -7  132.49   12.40
  -3  -4  -7  116.19   11.80
   4  -7  -7  117.89   12.30
   4   3   7  116.39   12.20
   7  -4   7  142.59   12.30
  -7   4   7  119.99   11.70
  -3  -4  -7  121.59   12.10
  -3   7   7  116.99   12.30
  -7   4   7  112.89   12.20
  -7   3  -7  131.89   12.10
   7  -4   7  130.39   11.80
   3  -7   7  107.39   12.20
  -7   3  -7  135.49   12.50
   4  -7  -7  107.59   11.80
  -4  -3   7  125.49   11.70
   3  -7   7  125.19   11.80
  -7   4   7  115.09   12.20
   4   3   7  142.99   12.50
  -7   3  -7  132.29   12.40
  -4   7  -7  123.29   12.40
   7  -3  -7  110.09   12.20
  -3   7   7  116.79   11.60
   3  -7   7  121.59   11.80
   2   5   7    1.10    0.90
   5  -7   7    2.00    0.90
  -7   5  -7    0.90    0.90
   2  -7  -7    1.10    0.80
  -2   7  -7    1.80    1.00
  -2  -5   7    0.10    0.60
   5  -7   7    1.30    0.70
   5   2  -7    0.90    0.90
  -5  -2  -7    1.80    1.00
   7  -2   7    1.20    0.80
  -7   5  -7    1.90    1.00
  -2  -5   7    0.60    0.60
  -2  -5   7    1.70    1.20
  -2  -5   7    1.00    0.90
  -7   2   7    0.90    0.80
   2   5   7    1.50    0.60
  -7   2   7    1.20    0.60
   5   2  -7    0.50    1.00
  -5   7   7    1.10    0.90
  -2   7  -7    1.40    1.40
   7  -5  -7    1.20    1.00
  -7   5  -7    2.10    1.20
  -7   2   7    1.30    0.90
   2  -7  -7    1.90    1.10
   7  -5  -7    0.30    0.90
  -5  -2  -7    0.40    0.80
  -5  -2  -7    1.40    0.90
  -5   7   7    0.40    0.60
  -5   7   7    0.60    0.60
   5  -7   7    2.50    1.60
   7  -2   7    0.50    0.80
   2  -7  -7    1.20    0.90
   7  -5  -7    0.10    0.70
   5  -7   7    0.60    0.80
  -7   2   7    0.70    0.80
   7  -2   7    1.00    0.70
   2   5   7    1.50    0.80
   5   2  -7    1.60    1.20
   7  -2   7    0.90    1.00
   7  -5   7    1.90    0.70
  -2  -5  -7    1.10    0.90
  -5  -2   7    1.20    0.80
   5   2   7    0.80    0.80
  -2  -5  -7    1.60    0.80
   5  -7  -7    0.80    0.80
  -7   2  -7    1.30    1.00
  -2  -5  -7    0.60    0.70
   5  -7  -7    0.70    0.90
  -7   5   7    0.50    0.60
   7  -5   7    1.20    0.90
   7  -2  -7    1.20    0.90
   2  -7   7    1.90    0.80
  -5   7  -7    1.30    1.10
   2   5  -7    1.30    1.00
  -7   5   7    1.50    1.00
  -7   2  -7    0.90    1.10
   5  -7  -7    0.60    1.00
  -2   7   7    1.00    0.90
  -5  -2   7    1.20    1.10
   7  -5   7    0.40    0.70
  -5   7  -7    2.10    1.00
   2  -7   7    1.20    0.60
  -5  -2   7    0.50    0.60
  -5   7  -7    1.50    1.00
   7  -5   7    1.10    0.80
  -7   2  -7    2.60    1.10
   2   5  -7    1.90    1.30
  -2   7   7    1.50    0.70
  -7   5   7    0.30    0.80
   7  -2  -7    0.20    0.90
  -5  -2   7    1.60    0.80
  -2   7   7    1.00    0.60
   2  -7   7    1.70    1.00
   5   2   7    1.10    0.70
  -2  -5  -7    1.40    1.00
   7  -2  -7    1.20    1.00
   5  -7  -7    1.00    0.80
  -2   7   7    2.10    1.20
   2   5  -7    1.50    0.90
   2  -7   7    1.30    0.80
   5   2   7    0.80    1.00
   7  -1   7   39.80    4.80
  -7   6  -7   38.10    4.70
  -6  -1  -7   46.40    4.70
   6  -7   7   36.90    4.30
  -6   7   7   35.20    4.90
  -1  -6   7   40.20    4.30
  -7   6  -7   44.60    5.80
  -7   1   7   29.80    4.70
   1  -7  -7   41.50    4.70
   1  -7  -7   34.30    4.50
  -6   7   7   41.10    4.60
  -6   7   7   35.30    4.00
   1   6   7   40.00    4.10
  -7   1   7   36.40    5.00
   7  -6  -7   29.00    4.60
   7  -6  -7   32.20    4.50
   7  -1   7   45.20    4.40
  -7   1   7   39.30    4.20
  -6  -1  -7   46.00    4.80
   7  -6  -7   45.20    4.90
   1  -7  -7   36.30    4.20
   6   1  -7   44.90    4.50
   7  -1   7   36.80    4.10
  -7   1   7   39.20    4.20
  -6  -1  -7   41.00    4.70
  -1  -6   7   35.80    4.10
   1   6   7   31.10    4.60
   6   1  -7   40.00    4.80
   1   6   7   41.20    4.80
   6  -7   7   48.10    4.30
  -6   7   7   34.30    3.90
   7  -1   7   34.30    4.50
  -7   6   7   35.10    4.50
  -1  -6  -7   42.10    4.40
  -1  -6  -7   31.20    4.30
   1  -7   7   41.20    4.30
   1  -7   7   37.60    4.10
   6   1   7   40.60    4.70
  -1  -6  -7   36.80    4.60
   6  -7  -7   36.80    4.60
   7  -6   7   40.60    4.70
  -1   7   7   23.60    4.30
   6   1   7   37.20    5.10
   6  -7  -7   37.40    4.30
   6   1   7   35.00    4.10
   7  -1  -7   35.70    4.60
   6   1   7   36.20    4.20
  -7   6   7   36.20    4.00
   7  -6   7   33.70    4.40
   7  -1  -7   40.10    4.80
  -6  -1   7   37.30    4.60
  -1   7   7   37.90    4.10
  -7   6   7   40.20    4.80
  -6  -1   7   43.90    4.30
  -7   6   7   37.30    4.10
  -1   7   7   30.80    4.70
  -7   1  -7   41.00    5.20
   6  -7  -7   42.30    4.90
  -7   1  -7   36.40    4.50
   7  -1  -7   38.40    4.30
  -6   7  -7   30.30    4.40
  -7   1  -7   36.10    4.60
  -6  -1   7   38.40    4.10
   7  -6   7   34.30    4.10
   0  -7  -7   38.90    4.80
  -7   7   7   36.10    4.30
   7   0   7   38.60    4.30
   7   0   7   34.90    4.30
   0  -7  -7   45.70    4.80
   7   0  -7   37.50    5.20
  -7   7  -7   32.50    4.60
   0   7  -7   38.80    4.90
   0   7   7   39.80    4.40
   0  -7   7   45.40    4.70
  -7   7  -7   35.70    5.20
   7  -7   7   43.40    4.70
  -7   0   7   40.50    4.90
   0   7   7   40.90    4.30
   0  -7   7   41.00    4.50
   7  -7   7   40.90    4.90
   7  -7   7   39.70    4.30
   0   7  -7   40.10    5.60
   7  -7  -7   41.10    4.60
   7   0  -7   42.50    4.70
  -7   0   7   39.40    4.40
  -7   7   7   39.40    4.30
   0   7   7   43.70    5.10
  -7   0   7   42.00    4.30
   4  -8  -7   -0.30    0.70
   4  -8   7    0.50    0.60
  -4  -4  -7    0.60    0.90
  -4  -4   7   -0.30    0.60
  -4  -4   7   -0.50    0.40
  -4   8   7    0.10    0.60
  -4  -4  -7    0.00    0.70
  -4   8   7    0.00    0.50
   4  -8  -7    0.10    0.70
  -8   4   7    0.40    0.70
   8  -4   7    0.20    0.60
   8  -4   7    0.20    0.70
   4  -8  -7   -0.30    0.70
   4   4   7    0.10    0.80
   4   4   7   -0.30    0.50
  -4   8  -7   -0.20    0.70
   4   4  -7    0.00    0.80
  -4   8   7   -0.40    0.40
  -4   8  -7   -0.30    0.80
   4   4  -7   -0.10    0.60
   4   4   7   -0.20    0.60
  -4   8   7   -0.20    0.80
   4  -8   7   -0.70    0.50
  -8   4   7   -0.60    0.50
  -8   3   7  110.99   11.80
   3  -8  -7  132.89   12.50
  -8   5  -7  120.19   12.20
   8  -3   7  116.59   11.90
  -5   8   7  107.59   12.40
   3   5   7  117.49   12.50
   5  -8   7  119.29   12.10
  -8   5  -7  133.29   12.80
   5   3  -7  121.29   12.60
  -3   8  -7  116.49   12.70
   8  -3   7  124.99   13.30
   8  -3   7  119.09   12.10
   5   3  -7  110.79   12.00
  -3  -5   7  119.19   12.00
  -5   8   7  119.19   11.90
   3   5   7  124.79   12.00
  -5   8   7  125.09   11.90
  -3  -5   7  125.19   12.00
   3  -8  -7  158.48   12.40
  -3   8  -7  137.79   12.50
   3   5   7  129.19   12.00
   5  -8   7  142.09   12.10
  -3  -5  -7  112.79   12.00
  -3  -5  -7  130.29   12.60
  -5   8  -7  139.79   12.90
  -3   8   7  134.89   12.00
   8  -5   7  143.29   12.10
  -5  -3   7  121.39   12.60
   3  -8   7  139.39   12.30
  -3   8   7  127.69   11.90
  -5  -3   7  111.69   11.90
   8  -5   7  121.09   12.50
  -8   3  -7  110.99   13.20
   5   3   7  145.29   12.00
  -5   8  -7  125.89   12.30
   3   5  -7  110.39   12.60
   3  -8   7  115.99   12.80
  -8   5   7  121.29   11.90
  -8   5   7  156.28   12.20
  -3   8   7  127.09   12.70
  -5  -3   7  128.09   12.10
   5   3   7  116.29   11.90
   8  -5   7  130.49   12.20
   3  -8   7  130.19   12.20
   5  -8  -7  150.28   12.30
   5  -8  -7  149.49   12.60
   3   5  -7  122.59   12.30
   0  -1   8  727.43   62.49
   1  -1   8  717.73   62.39
  -1   0   8  698.03   62.39
  -1   1  -8  661.23   62.39
   0   1  -8  711.33   62.49
  -1   0   8  697.43   62.39
   0  -1   8  808.92   62.49
   1   0  -8  710.93   62.39
   0   1  -8  759.42   62.49
   1   0  -8  691.03   62.39
   1  -1   8  653.73   62.39
   0   1  -8  661.43   62.29
  -2   1  -8  384.16   34.10
  -1  -1   8  365.06   34.20
   1  -2  -8  377.86   34.00
   2  -1  -8  434.06   34.00
   2  -1  -8  351.46   34.10
   1   1  -8  370.06   34.20
  -1  -1   8  396.56   34.20
   1   1   8  412.36   34.10
   2  -1   8  361.76   34.20
   1  -2   8  386.76   34.20
   1  -2  -8  374.06   34.00
   1   1   8  389.66   34.10
   1  -2  -8  376.66   33.90
  -1  -1  -8  378.26   34.00
  -2   1   8  361.06   34.10
  -1  -1  -8  385.56   33.90
   1  -2   8  399.26   34.30
  -2   1  -8  449.36   34.10
  -1  -1  -8  407.76   34.10
  -2   1  -8  408.76   34.20
   2  -1  -8  359.06   34.00
  -1   2   8  358.86   34.00
  -1   2  -8  350.26   34.20
   1   1  -8  394.76   34.10
   2  -1  -8  412.36   34.20
   2  -1   8  414.96   34.20
   1   1  -8  413.16   34.10
  -1   2  -8  377.86   34.10
  -2   1   8  379.36   34.10
  -1   2  -8  371.26   34.20
  -1   2   8  350.06   34.00
  -1   2  -8  368.16   34.10
  -2   1  -8  374.86   34.10
   2   0  -8  592.24   53.19
   0   2  -8  616.34   53.29
  -2   2  -8  589.84   53.19
  -2   0  -8  553.04   52.89
   0   2   8  630.14   52.99
   0  -2   8  603.64   53.19
  -2   2  -8  593.34   52.99
   0   2   8  604.14   52.99
   0   2  -8  610.44   52.99
  -2   0  -8  646.14   53.09
  -2   2  -8  699.33   53.29
   0  -2  -8  602.94   52.89
   0  -2   8  622.24   53.19
   2  -2  -8  589.34   52.99
  -2   0   8  559.34   53.09
   2   0   8  558.34   53.09
   2   0   8  581.94   53.09
   2  -2  -8  648.94   52.89
   2  -2  -8  652.13   53.09
   2  -2   8  586.74   53.19
   2   0  -8  530.35   52.89
   0   2  -8  552.14   52.99
  -2   2   8  649.04   53.09
  -2   2  -8  575.74   52.99
   2   0  -8  632.44   52.99
  -2   0  -8  612.14   52.99
   2  -2   8  537.65   53.09
   2   0  -8  575.94   53.09
  -2   0  -8  606.84   53.09
  -2   2   8  613.54   52.99
   2  -2  -8  586.14   52.89
   0  -2  -8  560.94   52.89
  -2   0   8  573.24   53.09
   0  -2  -8  635.44   52.89
   0  -2  -8  603.34   52.99
  -1  -2   8  573.44   46.40
  -2  -1  -8  501.05   46.00
   2   1  -8  475.95   46.10
   2   1  -8  537.35   46.10
   1  -3  -8  473.65   46.10
  -1  -2   8  482.75   46.30
  -3   1   8  472.55   46.20
   1   2   8  530.25   46.20
  -1   3  -8  516.95   46.50
  -2   3   8  470.75   46.10
   1   2   8  441.36   46.10
  -3   2  -8  519.85   46.10
  -2  -1  -8  537.45   46.10
   3  -1   8  597.94   46.30
   1  -3  -8  551.24   46.00
   1  -3  -8  501.95   46.00
   3  -1   8  580.54   46.40
  -3   2  -8  524.25   46.40
   3  -2  -8  481.85   46.20
  -2  -1  -8  524.85   46.20
  -2  -1  -8  480.25   46.20
  -1   3  -8  503.95   46.20
  -3   2  -8  566.14   46.10
  -3   1   8  497.25   46.20
  -3   2  -8  550.04   46.30
   2   1  -8  568.14   46.40
   2   1  -8  541.65   46.40
   3  -2  -8  608.14   46.40
   3  -2  -8  494.55   46.00
   1  -3  -8  468.25   46.10
  -1   3  -8  582.54   46.20
  -2   3   8  599.34   46.30
   2  -3   8  578.24   46.50
  -1   3  -8  488.05   46.30
   2  -3   8  577.04   46.30
   3  -2  -8  511.35   46.10
   1  -3   8  459.25   46.30
  -3   1  -8  556.34   46.40
   2  -3  -8  529.45   46.20
   3  -1  -8  508.65   46.10
  -3   2   8  495.75   46.30
   3  -2   8  524.05   46.30
   3  -1  -8  482.45   46.30
  -3   1  -8  470.85   46.00
   3  -1  -8  488.15   46.20
  -1  -2  -8  498.75   46.00
  -1  -2  -8  584.74   46.10
   1   2  -8  492.65   46.30
   2  -3  -8  526.15   46.10
  -2  -1   8  483.85   46.30
  -2  -1   8  571.14   46.40
   1  -3   8  498.65   46.30
   3  -2   8  494.35   46.40
  -1  -2  -8  591.54   46.30
   3  -1  -8  546.45   46.10
  -3   1  -8  508.25   46.20
  -2   3  -8  511.05   46.40
  -1   3   8  481.45   46.10
   1   2  -8  487.85   46.10
  -1  -2  -8  556.24   46.20
  -3   1  -8  526.45   46.10
   2   1   8  505.55   46.20
   1   2  -8  525.65   46.10
   2   1   8  527.15   46.30
  -2   3  -8  512.55   46.20
  -1   3   8  508.75   46.20
  -2   3  -8  528.35   46.30
  -2   3  -8  486.55   46.10
   1   2  -8  514.95   46.40
   2  -3  -8  578.44   46.00
   2  -3  -8  468.45   46.10
   0   3  -8  166.68   17.20
   3   0   8  204.08   17.40
   3  -3  -8  165.28   17.20
  -3   3  -8  201.58   17.50
  -3   3  -8  203.18   17.40
  -3   0  -8  190.68   17.10
   0   3  -8  179.88   17.40
   0   3   8  198.48   17.30
   0  -3  -8  199.68   17.10
  -3   3  -8  190.18   17.20
   0  -3  -8  179.18   17.20
   0  -3  -8  183.18   17.20
   3   0  -8  188.78   17.40
   0   3  -8  212.38   17.50
  -3   0  -8  184.68   17.10
   3   0  -8  179.68   17.10
   0   3   8  180.98   17.20
   0  -3  -8  194.68   17.10
   3  -3   8  186.68   17.40
  -3   0  -8  189.08   17.40
   3   0   8  191.68   17.30
   3  -3  -8  208.88   17.10
  -3   0   8  185.28   17.30
  -3   0   8  186.28   17.30
   0  -3   8  181.88   17.40
   3  -3   8  177.58   17.40
   3   0  -8  173.38   17.30
   0  -3   8  175.88   17.30
   3  -3  -8  196.68   17.10
   3  -3  -8  224.28   17.60
  -3   0  -8  160.68   17.20
  -3   3   8  214.78   17.40
  -3   3   8  210.58   17.30
   2   2   8 2691.23  226.38
  -2   4  -8 2615.04  226.28
  -4   2  -8 2632.34  226.28
   4  -2  -8 2293.87  226.28
   4  -2  -8 2640.34  226.18
  -2   4  -8 2423.76  226.18
   2   2  -8 2614.34  226.18
  -2   4   8 2394.26  226.28
   2  -4   8 2542.05  225.78
   4  -2  -8 2653.53  226.48
   2   2  -8 2561.04  226.08
   2  -4  -8 2860.81  226.08
  -4   2   8 2542.65  226.48
  -2   4   8 2460.25  226.28
  -2  -2  -8 2581.54  226.28
  -4   2  -8 2620.94  226.38
   2   2   8 2575.94  226.38
   2  -4  -8 2510.25  226.28
   2  -4  -8 2691.43  226.28
   4  -2   8 2551.74  226.38
   2  -4   8 2674.63  225.78
  -2  -2   8 2738.73  225.68
  -4   2  -8 2489.55  226.38
   4  -2   8 2383.06  226.38
  -4   2  -8 2363.26  226.08
  -2  -2  -8 2422.56  226.08
  -4   2   8 2620.44  226.38
  -2  -2  -8 2728.33  226.28
   4  -3  -8  236.38   24.40
  -4   3  -8  266.47   24.50
  -1  -3   8  270.07   24.70
   3  -4   8  268.47   24.00
   1  -4  -8  299.57   24.40
   4  -1   8  247.98   24.70
   4  -3  -8  284.87   24.70
   1   3   8  288.17   24.70
   1   3   8  251.67   24.60
  -3  -1  -8  264.77   24.40
  -3   4   8  256.57   24.50
   4  -3  -8  265.27   24.40
  -3  -1  -8  243.38   24.30
   1  -4  -8  258.87   24.50
  -3   4   8  277.57   24.60
  -1  -3   8  270.07   24.10
  -1   4  -8  281.67   24.50
  -1   4  -8  267.57   24.80
  -4   1   8  236.28   24.50
   4  -3  -8  265.07   24.40
   3  -4   8  264.87   24.00
   1  -4  -8  285.77   24.60
  -1  -3   8  242.28   24.00
   3   1  -8  266.47   24.50
  -1   4  -8  276.17   24.70
  -4   3  -8  240.88   24.40
  -3  -1  -8  279.77   24.60
   4  -1   8  306.47   24.80
   3   1  -8  260.47   24.40
  -3  -1  -8  249.58   24.50
   1   3  -8  290.17   24.80
  -4   3   8  288.97   24.60
  -1  -3  -8  254.77   24.50
   1   3  -8  248.98   24.40
   1  -4   8  308.17   24.80
  -1  -3  -8  299.37   24.70
  -1  -3  -8  317.27   24.50
  -4   3   8  252.07   24.60
   1  -4   8  283.07   24.10
  -4   1  -8  273.37   24.50
  -3   4  -8  285.87   24.50
  -1   4   8  258.77   24.50
   1  -4   8  253.97   24.10
   3  -4  -8  261.67   24.40
  -4   1  -8  287.67   24.70
  -4   1  -8  265.47   24.40
   3   1   8  275.77   24.70
  -4   1  -8  230.28   24.90
  -3  -1   8  281.37   23.90
   4  -1  -8  264.87   24.40
  -1   4   8  285.87   24.70
   1  -4   8  308.77   24.90
   4  -1  -8  305.57   24.80
   3  -4  -8  282.87   24.60
   3  -4  -8  279.87   24.70
   4  -3   8  284.77   23.90
   3   1   8  309.77   24.80
   4  -1  -8  279.27   24.40
  -3   4  -8  244.98   24.70
   0  -4   8  365.56   36.50
   0  -4   8  411.36   36.00
   4  -4  -8  370.86   36.20
   0  -4  -8  461.85   36.20
   4  -4   8  409.06   35.90
   0   4   8  373.06   36.40
   0   4   8  366.96   36.30
   0   4  -8  424.96   36.40
  -4   0  -8  465.15   36.30
   4  -4   8  388.96   36.60
   4   0  -8  365.76   36.40
  -4   4  -8  437.76   36.60
   0  -4  -8  429.86   36.30
   4  -4   8  414.96   36.60
   4   0  -8  369.26   36.50
   0  -4   8  405.06   36.50
   0   4  -8  391.26   36.60
  -4   4  -8  387.56   36.60
   0   4  -8  394.86   36.50
  -4   0  -8  384.66   36.20
   4  -4   8  405.66   35.90
  -4   0   8  382.76   35.80
   4  -4  -8  463.55   36.30
  -4   0   8  401.26   36.50
   0  -4  -8  362.26   36.30
   0  -4   8  422.36   36.00
   4   0  -8  419.16   36.40
  -4   4  -8  472.75   36.40
   0  -4  -8  414.36   36.40
  -4   0   8  393.66   35.80
  -4   0   8  417.76   36.50
   5  -3  -8  244.98   20.80
  -5   3  -8  224.38   20.80
  -2  -3   8  228.88   21.10
  -3   5   8  194.98   20.70
  -3  -2  -8  207.48   20.80
  -5   3  -8  182.98   20.70
   3  -5   8  253.67   20.50
  -3   5   8  205.48   20.80
   5  -3  -8  277.67   21.10
   3  -5   8  247.38   21.20
   5  -3  -8  215.88   21.00
  -5   2   8  229.38   20.20
   2  -5  -8  229.08   20.70
  -2  -3   8  205.98   20.90
  -5   2   8  205.48   20.90
  -2  -3   8  227.58   20.40
  -3  -2  -8  223.08   20.60
   3   2  -8  201.28   20.90
  -5   2   8  218.08   20.20
   2  -5  -8  229.98   20.90
  -5   3  -8  214.98   21.00
  -2   5  -8  234.98   21.10
   3   2  -8  244.78   20.80
   3  -5   8  221.48   21.00
   5  -2   8  221.98   20.30
   2   3   8  259.57   21.00
   2   3   8  220.48   20.90
  -5   2   8  246.68   21.00
   3   2  -8  229.88   21.00
   5  -2   8  239.88   21.10
  -5   3  -8  228.58   20.60
  -2   5  -8  207.08   20.90
   5  -3  -8  224.18   20.70
   3  -5   8  225.78   20.40
  -2  -3   8  193.38   20.30
   5  -2   8  240.48   20.30
  -2   5  -8  238.78   21.00
  -5   2  -8  214.48   21.00
  -5   2  -8  249.48   20.70
  -2  -3  -8  246.38   20.70
  -3   5  -8  220.38   20.80
   3  -5  -8  192.28   21.30
  -5   2  -8  207.48   20.70
  -2  -3  -8  200.78   20.80
   2  -5   8  226.18   20.40
  -5   2  -8  260.57   21.10
   5  -2  -8  260.47   21.10
   5  -3   8  216.78   20.40
   5  -3   8  252.07   20.30
  -5   3   8  216.28   20.10
   5  -3   8  213.68   20.90
  -3   5  -8  236.98   21.20
   5  -2  -8  256.47   20.70
  -3  -2   8  224.28   20.40
  -2  -3  -8  261.27   21.00
  -3  -2   8  230.08   21.00
  -3   5  -8  265.97   21.00
   2   3  -8  245.18   21.20
  -3  -2   8  209.58   20.30
   3   2   8  224.28   21.00
   2  -5   8  242.98   21.20
   5  -2  -8  224.78   20.90
   2   3  -8  224.68   20.70
   2  -5   8  261.97   21.10
   2   3  -8  230.18   21.20
   3  -5  -8  231.48   20.80
  -2   5   8  226.98   21.00
  -5   3   8  206.98   20.80
  -5   3   8  233.58   21.00
   3   2   8  204.28   20.90
   2  -5   8  224.98   20.40
   3  -5  -8  221.18   20.60
   5  -2  -8  257.97   20.80
  -3  -2   8  228.78   21.00
  -5   3   8  221.08   20.10
   5  -3   8  214.38   21.00
  -4  -1  -8   36.90    4.10
   4   1  -8   38.20    4.40
  -5   1   8   36.90    3.70
  -1   5  -8   42.10    4.40
  -1  -4   8   39.50    4.40
  -5   1   8   40.80    4.40
   1  -5  -8   42.40    4.20
   4   1  -8   33.60    4.00
  -4  -1  -8   36.00    4.20
  -5   4  -8   40.30    4.50
   1   4   8   33.90    4.20
   5  -4  -8   38.30    4.30
  -5   4  -8   34.90    4.10
  -1   5  -8   37.80    4.10
   5  -4  -8   40.40    4.10
   5  -1   8   32.60    4.20
   5  -1   8   38.50    3.70
   5  -1   8   39.90    3.70
   5  -1   8   37.30    4.40
  -1   5  -8   34.60    4.00
  -5   4  -8   38.80    4.40
  -1   5  -8   36.80    4.50
   1   4   8   42.10    4.30
  -5   1   8   44.50    4.40
   5  -4  -8   39.50    4.10
  -4  -1  -8   44.40    4.20
   4  -5   8   36.90    3.80
  -4   5   8   37.60    4.30
  -1  -4   8   33.10    3.80
  -4   5   8   39.50    4.40
  -5   1   8   37.60    3.70
  -1  -4   8   37.50    4.20
   4   1  -8   31.50    4.30
   1  -5  -8   36.10    4.20
  -4  -1  -8   39.50    4.30
   4  -5   8   49.00    4.60
   1  -5  -8   40.10    4.10
   5  -4  -8   30.00    4.10
   4  -5   8   34.00    4.40
  -5   1  -8   38.60    4.30
  -1  -4  -8   40.00    4.00
  -5   1  -8   41.00    4.10
  -4   5  -8   37.40    4.50
   4  -5  -8   34.20    4.00
  -4   5  -8   35.50    4.10
  -5   4   8   35.20    4.30
   5  -1  -8   35.00    4.30
  -4  -1   8   34.20    4.20
   1   4  -8   41.00    4.10
   4  -5  -8   38.00    4.00
   4  -5  -8   35.30    4.20
  -5   4   8   38.40    3.50
  -4   5  -8   33.20    4.20
  -1  -4  -8   35.30    4.20
   5  -4   8   38.50    3.80
   4   1   8   39.50    4.30
  -5   4   8   45.60    4.40
   1   4  -8   31.00    4.10
  -4  -1   8   36.90    3.80
   4   1   8   39.40    3.60
   5  -1  -8   42.90    4.20
   4   1   8   38.60    3.60
   5  -4   8   40.30    4.50
  -1   5   8   40.50    4.40
  -1   5   8   31.90    4.10
   1  -5   8   39.80    4.50
   4   1   8   30.90    4.20
   5  -1  -8   41.80    4.20
   5  -4   8   41.20    3.80
  -1  -4  -8   38.50    4.20
   1  -5   8   37.80    3.90
   4  -5  -8   37.90    4.40
  -5   1  -8   39.70    4.40
   1   4  -8   45.80    4.40
  -5   1  -8   36.60    4.10
  -5   4   8   33.50    3.50
   1   4  -8   32.80    4.30
  -4  -1   8   41.00    3.80
  -5   5  -8   92.59   10.10
   0  -5   8  100.29   10.30
   0  -5   8  123.09   10.40
  -5   0  -8   95.29   10.10
  -5   0   8   98.79   10.20
   0   5  -8  111.19   10.10
  -5   0   8   94.39   10.10
   5  -5  -8  107.29   10.00
  -5   5   8  116.79   10.30
   0  -5  -8   96.99   10.10
   5  -5  -8   93.19   10.10
   0   5  -8  107.29   10.50
   5  -5   8  106.99   10.40
   5   0   8  102.79    9.50
  -5   5   8  116.19   10.30
   0  -5   8   98.69    9.70
  -5   5   8  105.09    9.40
  -5   0  -8  101.89   10.00
   0   5   8  113.39   10.20
  -5   5   8  102.99    9.40
   5   0   8   92.99   10.10
   0  -5  -8  111.49   10.20
  -5   5  -8  104.79   10.00
   5   0   8  104.09    9.60
  -5   0  -8   99.79   10.20
   5   0  -8   97.39    9.80
   0  -5  -8  113.19    9.90
   5  -5  -8  103.19   10.10
   0  -5  -8   98.79    9.80
   0   5  -8  117.89   10.40
  -5   0   8  102.29    9.60
   0   5   8  118.69   10.50
  -5   5  -8   96.99    9.90
  -5   5  -8  105.39   10.30
   5  -5   8  110.49    9.70
   0   5   8  100.59    9.30
   0  -5   8  106.49    9.70
   5  -5  -8   95.69    9.80
   5   0  -8  111.49   10.30
   0   5  -8  112.89   10.00
   5   0  -8   87.79    9.90
   5  -5   8   99.79   10.20
   0   5   8   96.69    9.30
   5  -5   8  122.39    9.80
   5   0  -8   97.59   10.30
   5   0   8   89.79   10.10
  -3  -3   8   18.40    2.80
   3  -6   8   13.90    2.00
   6  -3  -8   13.10    2.40
  -3  -3  -8   15.10    2.40
   3  -6   8   13.30    2.70
   6  -3   8   21.30    2.90
  -6   3  -8   12.50    2.30
  -3  -3   8   14.80    1.90
   6  -3   8   11.20    2.20
  -6   3   8   16.40    2.00
  -3   6  -8   18.30    2.50
  -6   3  -8   15.80    2.60
   6  -3   8   11.50    1.80
   6  -3  -8   14.20    2.60
  -3  -3  -8   14.70    2.30
  -6   3   8   14.20    1.80
   6  -3   8   18.00    2.10
   3  -6   8   16.60    2.50
   3   3   8   13.10    2.40
   6  -3  -8   13.80    2.10
   3   3  -8   10.90    2.30
  -3   6   8   13.50    2.40
   3  -6   8   14.30    2.00
   3   3  -8   13.80    2.50
  -3   6   8   13.40    2.30
  -3   6  -8   14.40    2.70
  -3   6  -8   15.30    2.50
   6  -3  -8   18.60    2.40
   3  -6  -8   16.90    2.20
   3  -6  -8   12.30    2.20
   3  -6  -8   12.30    2.30
   3   3  -8   13.30    2.10
  -3  -3  -8   13.20    2.20
   3   3   8   13.60    1.70
  -6   3   8    9.60    2.20
  -3  -3   8   13.80    2.30
  -6   3   8   10.90    2.20
   3   3  -8   13.50    2.10
  -3   6   8   14.40    1.50
   3   3   8   12.50    2.20
   3   3   8   13.10    1.70
   3  -6  -8   13.60    2.20
  -3  -3  -8   17.00    2.40
  -3   6  -8   10.90    2.10
  -3   6   8   12.60    1.50
   2   4   8  424.76   41.40
  -2   6  -8  499.95   42.20
   2  -6  -8  390.06   41.70
  -4   6   8  490.95   42.40
   6  -2   8  502.65   41.80
   2  -6  -8  534.15   42.10
  -6   4  -8  491.35   42.10
  -2   6  -8  533.75   42.50
  -6   4  -8  500.05   42.50
  -6   2   8  489.05   41.70
  -6   2   8  519.15   42.40
  -4  -2  -8  421.26   42.10
  -6   2   8  397.76   42.10
   4  -6   8  521.15   41.90
  -6   4  -8  423.06   42.20
   2  -6  -8  542.35   42.60
   2  -6  -8  428.86   42.10
  -2  -4   8  500.45   41.80
  -2  -4   8  438.96   42.30
   6  -2   8  525.15   42.40
   4   2  -8  486.85   42.00
  -2  -4   8  461.65   41.70
  -2  -4   8  506.05   42.40
  -4  -2  -8  387.26   41.80
   6  -2   8  440.96   41.60
   6  -2   8  488.35   42.40
  -2   6  -8  510.55   42.70
   4   2  -8  442.96   41.90
   2   4   8  477.75   41.50
   4  -6   8  522.65   41.80
   6  -4  -8  478.35   42.20
   2   4   8  412.86   42.10
  -4   6   8  449.46   41.40
   6  -4  -8  498.75   42.00
   4  -6   8  474.95   42.50
   4  -6   8  435.16   42.20
  -4   6   8  424.06   42.10
  -2   6  -8  537.55   42.10
   4   2  -8  475.05   42.40
  -4   6   8  426.66   41.40
   6  -4  -8  437.56   42.00
   4   2  -8  524.35   42.50
   2   4   8  500.95   42.40
  -2   6   8  476.95   42.30
  -4   6  -8  549.25   42.70
   6  -2  -8  457.35   42.00
  -6   4   8  403.16   42.10
  -4   6  -8  471.05   42.30
  -2  -4  -8  423.76   41.90
  -2  -4  -8  488.85   42.00
   4   2   8  493.95   41.60
  -4  -2   8  456.35   42.30
   2  -6   8  447.16   41.70
  -4  -2   8  509.55   41.70
  -6   4   8  498.95   41.60
   6  -4   8  466.15   41.70
  -6   4   8  461.75   42.30
   6  -4   8  401.66   42.20
   4   2   8  551.74   42.50
   6  -2  -8  434.06   42.30
   2   4  -8  483.15   42.50
   2   4  -8  465.45   42.10
   4   2   8  438.86   41.50
   2   4  -8  423.56   41.80
  -6   2  -8  479.05   41.90
  -6   2  -8  490.45   42.40
  -6   2  -8  529.65   42.60
   6  -2  -8  492.25   42.30
  -4   6  -8  415.36   41.90
   4   2   8  450.85   42.40
   4  -6  -8  476.75   42.30
   2  -6   8  426.86   42.30
   6  -4   8  467.95   42.40
   2  -6   8  491.85   42.40
  -6   4   8  465.85   41.60
  -4   6  -8  436.46   42.10
   4  -6  -8  458.55   42.30
  -4  -2   8  388.66   42.10
  -2   6   8  478.95   41.40
   4  -6  -8  461.35   41.90
  -4  -2   8  473.45   41.70
   6  -2  -8  512.85   42.10
  -2   6   8  439.56   42.10
  -2   6   8  478.75   41.40
  -2  -4  -8  414.16   42.00
   2   4  -8  504.85   42.60
   4  -6  -8  394.16   41.80
  -6   2  -8  432.86   42.00
  -2  -4  -8  519.75   42.50
   2  -6   8  472.05   41.80
   6  -4   8  464.45   41.80
   5  -6   8  212.68   19.30
  -6   5  -8  241.78   20.20
   5   1  -8  215.68   19.70
   6  -1   8  221.68   19.90
  -6   1   8  196.68   19.80
   5  -6   8  185.28   19.80
   6  -5  -8  180.28   19.70
   5   1  -8  213.68   20.00
  -5  -1  -8  230.88   19.60
   1   5   8  213.28   19.10
   5   1  -8  179.58   19.50
   5  -6   8  188.98   20.00
   1   5   8  222.48   19.90
   6  -5  -8  217.58   20.00
  -5   6   8  210.68   19.90
   1  -6  -8  237.88   20.00
  -5   6   8  224.08   19.10
  -5  -1  -8  239.18   19.80
  -6   1   8  222.18   19.30
  -1   6  -8  205.48   19.50
  -1   6  -8  204.78   20.10
  -5   6   8  206.78   19.80
   1  -6  -8  203.58   19.90
  -5  -1  -8  201.78   19.80
  -1   6  -8  234.58   19.90
   1   5   8  216.68   19.10
   6  -1   8  210.78   19.30
   6  -1   8  233.78   20.10
  -6   5  -8  259.07   19.80
   6  -5  -8  217.38   19.60
   1  -6  -8  218.58   19.60
  -6   5  -8  206.98   20.00
  -1  -5   8  224.48   20.00
   6  -5  -8  199.28   19.50
  -5   6   8  211.78   19.10
  -1  -5   8  221.18   19.90
  -1   6  -8  213.18   19.90
   1  -6  -8  210.68   19.50
  -1  -5   8  199.28   19.30
  -6   5  -8  246.08   19.70
  -5  -1  -8  193.98   19.70
   6  -1   8  195.68   19.30
   1   5   8  188.48   19.80
  -6   1   8  208.38   19.90
   5   1  -8  222.78   20.00
  -6   1   8  195.58   19.20
  -1   6   8  205.08   19.10
   1   5  -8  194.78   19.50
   1  -6   8  207.88   19.90
  -6   5   8  207.48   19.20
  -5  -1   8  189.08   19.20
  -1   6   8  216.98   19.10
  -1   6   8  204.88   19.80
  -5   6  -8  201.58   19.50
  -6   5   8  198.18   19.80
   1   5  -8  215.28   19.70
  -5   6  -8  224.68   20.10
   5   1   8  218.38   20.10
   5  -6  -8  220.98   19.60
  -6   1  -8  220.68   19.90
   5   1   8  209.08   19.20
   1  -6   8  214.58   19.30
   1  -6   8  252.67   20.20
   6  -5   8  205.38   19.40
   5  -6  -8  207.08   19.80
  -1  -5  -8  217.68   19.70
   6  -5   8  210.98   19.30
   6  -1  -8  243.28   20.10
   5   1   8  233.58   20.00
  -6   1  -8  230.08   19.60
  -6   1  -8  198.18   19.80
  -1  -5  -8  177.08   19.30
   1   5  -8  256.77   20.20
   6  -5   8  207.38   20.10
   6  -1  -8  222.88   19.60
   6  -5   8  192.38   19.80
  -5  -1   8  182.98   19.80
  -5  -1   8  259.47   20.20
  -1  -5  -8  203.58   19.50
   6  -1  -8  185.08   19.80
  -1  -5  -8  212.68   19.80
  -1   6   8  230.98   20.10
  -5   6  -8  242.48   20.10
  -6   5   8  194.48   19.90
   1   5  -8  186.38   19.90
  -6   1  -8  209.48   19.60
  -5  -1   8  229.78   19.40
   5  -6  -8  225.08   20.10
   5  -6  -8  207.68   19.60
   0   6   8  994.10   77.69
   6   0   8  830.12   76.89
  -6   0   8  757.82   77.49
   0  -6  -8  985.90   77.39
   6   0  -8  795.42   77.69
  -6   0  -8  767.22   77.19
  -6   6  -8  715.13   77.39
   6   0  -8  873.71   77.39
   0  -6  -8  766.52   77.09
  -6   6  -8  891.21   77.39
  -6   6   8  883.11   77.69
   0  -6   8  881.71   77.09
   0  -6   8  767.22   77.59
  -6   0  -8  870.31   77.69
   6   0   8  936.11   76.99
   6   0   8  884.91   77.79
  -6   6   8  877.01   76.89
   6  -6  -8  876.91   77.79
   0  -6  -8  841.62   77.59
   6   0  -8  794.42   77.49
   6  -6   8  925.61   77.99
  -6   0   8  882.61   76.99
   6  -6  -8  889.31   77.69
  -6   6   8  729.83   77.39
  -6   6  -8  875.41   77.89
  -6   6   8  845.22   76.79
  -6   0  -8  882.71   77.69
   0   6  -8  955.60   77.49
   0   6  -8  827.82   77.79
   0   6   8  921.31   76.89
   6  -6   8 1019.90   77.19
   0  -6   8  888.61   77.19
   6   0   8  774.52   77.49
   0  -6   8  940.31   77.69
   0   6  -8  808.22   77.59
   6  -6   8  834.02   77.59
   6  -6   8  838.22   77.09
   0   6   8  914.71   77.89
   6  -6  -8  961.20   77.39
   6  -6  -8  920.81   77.29
   0  -6  -8 1010.40   77.69
   4  -7   8  120.99   12.60
   3  -7  -8  131.09   12.30
   4  -7   8  130.29   12.90
  -4  -3  -8  147.49   12.40
  -4   7   8  157.88   12.70
  -3  -4   8  117.39   12.10
  -7   3   8  139.39   12.00
   7  -4  -8  144.19   13.00
   3   4   8  123.79   12.50
  -3  -4   8  131.89   12.70
   3   4   8  136.69   12.00
  -3   7  -8  134.49   12.50
   3   4   8  123.39   12.60
  -7   3   8  116.49   12.60
  -4   7   8  124.59   11.90
  -4  -3  -8  128.09   12.60
  -4  -3  -8  113.69   12.50
  -4   7   8  160.08   13.00
   7  -3   8  126.99   12.70
   3  -7  -8  106.19   12.50
   3   4   8  123.59   11.90
   4   3  -8  125.19   12.70
   4   3  -8  143.99   12.40
   7  -3   8  126.29   12.00
  -4   7   8  110.49   11.80
  -3  -4   8  132.79   12.70
   7  -4  -8  116.69   12.60
   7  -3   8  135.09   12.90
  -3   7  -8  148.39   13.10
  -4  -3  -8  163.48   12.80
   4  -7   8  133.49   12.20
  -3  -4   8  126.09   12.00
  -7   4  -8  130.19   12.60
  -3   7  -8  137.39   13.00
  -7   3   8  127.49   12.00
   7  -4  -8  141.09   12.40
   4  -7   8  117.99   12.10
   3  -7  -8  138.59   12.60
   4   3  -8  147.89   12.90
  -7   4  -8  147.59   12.60
  -7   4  -8  116.99   12.70
   3  -7  -8  137.49   12.40
  -7   3   8  121.89   12.60
   7  -4   8  116.19   12.60
   3  -7   8  109.79   12.40
  -4  -3   8  123.49   12.10
  -4  -3   8  110.69   11.90
   3  -7   8  127.79   12.10
  -4   7  -8  120.49   12.70
   4   3   8  128.69   12.60
   4  -7  -8  115.99   12.60
   4  -7  -8  127.19   12.50
  -3  -4  -8  136.79   12.60
  -3  -4  -8  134.89   12.30
  -4   7  -8  138.09   12.60
   4  -7  -8  110.39   12.20
   4  -7  -8  149.19   12.40
  -7   4   8  114.09   11.90
   4   3   8  138.19   12.00
  -7   3  -8  123.29   12.70
  -7   4   8  137.19   12.80
  -3   7   8  129.59   12.60
   3   4  -8  134.79   12.50
  -7   4   8  142.69   12.00
  -3  -4  -8  150.18   12.70
  -3   7   8  119.79   11.80
   7  -4   8  108.59   12.40
   4   3   8  135.79   12.80
   7  -4   8  112.69   11.90
   7  -3  -8  117.49   12.60
   7  -3  -8  127.89   12.70
   3  -7   8  122.89   12.70
   3  -7   8  114.89   12.10
  -7   3  -8  125.79   12.40
  -7   3  -8  153.78   12.90
   4   3   8  118.09   11.90
  -4   7  -8  131.89   12.60
  -3   7   8  113.39   12.60
  -4  -3   8  123.19   12.60
   3   4  -8  150.58   13.20
   3   4  -8  143.99   13.00
  -4  -3   8  147.49   12.90
   7  -3  -8  143.79   12.50
  -3  -4  -8  130.49   12.30
  -7   4   8  118.89   12.50
   2   5   8    2.60    0.80
   5  -7   8    4.00    1.00
  -7   2   8    3.10    0.80
   7  -5  -8    3.30    1.40
  -5  -2  -8    2.80    1.10
   7  -2   8    2.60    1.30
   5  -7   8    4.30    1.40
  -2  -5   8    2.90    0.90
   7  -5  -8    3.70    1.30
   2  -7  -8    5.90    1.50
  -5  -2  -8    3.00    1.30
  -5  -2  -8    2.40    1.10
  -2  -5   8    3.30    1.30
  -2  -5   8    4.80    1.40
   5   2  -8    2.50    1.10
   2  -7  -8    4.40    1.30
  -2   7  -8    3.30    1.50
  -7   5  -8    3.90    1.40
   7  -5  -8    4.00    1.30
   2   5   8    6.10    1.10
  -2  -5   8    3.20    1.00
  -5   7   8    3.20    0.80
   7  -2   8    5.00    1.50
   2   5   8    2.80    1.20
   2  -7  -8    2.70    1.20
   7  -2   8    4.80    1.00
   5   2  -8    3.20    1.30
  -2   7  -8    3.60    1.30
  -7   5  -8    3.30    1.20
  -2   7  -8    4.10    1.40
   5  -7   8    3.80    1.00
   5  -7   8    2.50    1.40
   5   2  -8    2.80    1.30
   2   5   8    3.70    1.40
  -5   7   8    2.80    1.20
  -5   7   8    2.80    1.20
  -7   2   8    3.20    1.20
  -5   7   8    3.30    0.90
  -7   2   8    3.60    1.30
  -5  -2   8    4.40    1.40
  -7   2  -8    2.60    1.40
  -5  -2   8    2.40    0.80
  -2  -5  -8    4.00    1.30
   5   2   8    1.40    1.00
   2   5  -8    3.10    1.20
   5  -7  -8    3.70    1.30
   5  -7  -8    3.50    1.20
   5   2   8    4.00    1.10
   2  -7   8    2.60    1.20
   7  -5   8    3.00    1.10
   2  -7   8    2.60    1.00
  -7   5   8    4.00    1.40
  -2   7   8    2.90    0.90
  -2   7   8    3.10    1.30
   2   5  -8    3.20    1.30
   7  -2  -8    4.40    1.50
  -7   2  -8    3.70    1.30
  -2   7   8    3.70    0.90
  -5  -2   8    2.40    0.80
   7  -5   8    2.20    0.80
   2  -7   8    4.60    1.10
  -5  -2   8    2.90    1.30
   7  -2  -8    2.80    1.10
   5  -7  -8    3.20    1.40
   7  -5   8    3.40    1.40
  -7   5   8    2.70    0.90
  -7   2  -8    2.80    1.20
  -2  -5  -8    5.50    1.70
  -7   5   8    3.70    1.30
  -2   7   8    3.80    1.30
  -5   7  -8    3.20    1.50
  -7   5   8    3.70    1.00
  -2  -5  -8    2.10    1.10
   2  -7   8    2.80    1.20
  -5   7  -8    3.30    1.30
  -5   7  -8    2.30    1.10
   5   2   8    3.40    1.40
   7  -2  -8    2.40    1.20
   2   5  -8    2.90    1.40
   5   2   8    2.80    0.80
   7  -5   8    3.00    1.20
   1   6   8   24.60    2.90
   1  -7  -8   21.10    3.30
   1  -7  -8   24.00    3.30
   7  -6  -8   21.20    3.40
   6  -7   8   21.40    2.70
   7  -6  -8   20.50    3.60
  -6   7   8   19.80    2.60
  -1  -6   8   20.40    2.80
  -6  -1  -8   25.80    3.60
  -6   7   8   28.60    4.10
  -6  -1  -8   23.30    3.30
  -7   1   8   24.20    2.60
   7  -1   8   28.20    3.80
   1   6   8   14.00    2.80
  -6   7   8   19.20    3.20
  -6   7   8   22.20    2.70
   7  -1   8   27.80    3.00
   6   1  -8   25.80    3.80
  -1  -6   8   20.10    2.90
   6  -7   8   17.30    2.70
  -7   1   8   23.80    3.00
   1  -7  -8   20.40    3.30
   6   1  -8   25.00    3.40
   7  -6  -8   28.10    3.60
  -7   1   8   22.00    3.40
   1   6   8   23.10    2.60
   7  -1   8   20.50    3.40
  -6  -1  -8   21.80    3.40
   1   6   8   22.70    3.50
   1  -7   8   18.80    2.80
   7  -1  -8   15.90    3.40
   6   1   8   21.60    3.60
   6   1   8   26.30    3.50
  -1  -6  -8   22.20    3.40
  -7   1  -8   23.80    3.70
  -6  -1   8   25.70    3.00
   6  -7  -8   20.50    3.10
  -1  -6  -8   15.80    2.90
  -1   7   8   23.20    3.60
  -7   1  -8   19.50    3.00
  -1   7   8   20.80    2.70
  -7   6   8   19.20    2.60
  -1   7   8   24.70    2.60
   7  -6   8   25.20    3.10
  -7   6   8   20.30    3.10
  -6  -1   8   20.90    2.80
  -1  -6  -8   19.60    3.00
  -7   6   8   24.30    2.70
   6  -7  -8   24.20    3.50
   6   1   8   23.60    3.60
   7  -6   8   19.20    2.80
  -6  -1   8   21.80    3.30
   7  -1  -8   18.80    2.90
  -7   1  -8   25.40    3.50
   7  -1  -8   21.60    3.50
   6  -7  -8   19.90    3.40
  -1   7   8   17.60    3.20
   1  -7   8   24.70    3.10
   6   1   8   26.00    3.00
  -1   1  -9   63.89    5.80
   0   1  -9   60.79    5.90
   0   1  -9   64.49    5.70
   1  -1   9   67.19    5.80
   1  -1   9   65.89    5.80
   0  -1   9   62.99    5.80
   0  -1   9   64.59    5.80
   0   1  -9   62.69    5.80
   1   0  -9   64.59    5.70
   1   0  -9   65.19    5.70
  -1   1  -9   62.29    5.80
   1   1  -9    0.10    0.20
   1  -2   9    0.00    0.30
  -2   1  -9    0.20    0.20
  -1  -1  -9    0.30    0.20
  -1   2  -9   -0.20    0.30
  -1   2  -9   -0.10    0.30
   2  -1  -9    0.00    0.20
  -1   2   9   -0.10    0.10
   1   1  -9    0.10    0.30
   1   1   9    0.00    0.20
   1  -2  -9    0.00    0.10
   1  -2  -9    0.10    0.10
  -2   1  -9    0.30    0.30
  -2   1  -9    0.00    0.20
  -1  -1   9   -0.10    0.30
  -1  -1   9    0.20    0.20
  -1  -1  -9    0.10    0.20
  -1   2  -9    0.00    0.30
   2  -1   9    0.10    0.30
  -2   1   9    0.30    0.20
   2  -1  -9    0.00    0.10
   2  -1  -9    0.00    0.20
   1   1  -9   -0.10    0.20
   1  -2   9    0.10    0.30
   2  -1  -9   -0.10    0.20
  -1   2  -9    0.40    0.50
  -1  -1  -9    0.10    0.10
   2  -1   9    0.20    0.30
  -2   1  -9    0.00    0.30
   1   1  -9    0.20    0.30
  -2   1   9    0.20    0.30
   1   1   9    0.20    0.20
  -1   2   9    0.10    0.20
   0  -2  -9    7.20    0.80
   2  -2   9    5.50    1.10
   2  -2  -9    6.10    0.90
   0   2  -9    8.10    1.20
   2   0  -9    7.20    0.90
   0  -2   9    5.50    1.10
  -2   2  -9    6.90    1.00
  -2   2  -9    5.50    1.00
   0   2  -9    7.10    1.10
  -2   0  -9    5.40    0.80
   2   0  -9    5.90    1.00
   2   0  -9    6.20    0.90
  -2   2   9    5.10    0.80
   0   2  -9    6.20    1.00
   0   2  -9    4.40    1.00
   0  -2  -9    6.60    0.70
  -2   0   9    5.80    1.00
  -2   2   9    4.80    0.80
  -2   2  -9    6.00    0.90
   0   2   9    5.60    0.80
  -2   0  -9    5.00    0.90
   2   0  -9    5.70    1.00
   0  -2  -9    6.00    0.80
   2   0   9    6.00    0.90
  -2   2  -9    6.80    1.10
   2  -2   9    6.70    1.10
   2  -2  -9    5.60    0.80
   2  -2  -9    7.00    0.80
   2  -2  -9    6.80    0.80
  -2   0   9    4.50    0.90
   0  -2  -9    4.60    0.80
   2   0   9    6.10    1.00
   0   2   9    5.20    0.80
  -2   0  -9    6.50    0.80
   0  -2   9    5.70    1.00
  -2   0  -9    4.70    0.80
  -2   3   9   22.50    2.40
  -2  -1  -9   22.70    2.50
  -3   2  -9   20.90    2.50
   1  -3  -9   23.60    2.40
  -1   3  -9   21.80    2.50
  -3   2  -9   26.60    2.60
   2   1  -9   22.30    2.60
   3  -2  -9   19.40    2.30
   2   1  -9   20.60    2.30
   1  -3  -9   23.50    2.20
  -1  -2   9   21.00    2.50
  -3   2  -9   21.60    2.30
   2  -3   9   21.10    2.60
  -3   1   9   20.30    2.50
  -1   3  -9   26.20    2.80
  -2   3   9   19.40    2.30
   3  -1   9   20.80    2.50
   1  -3  -9   21.00    2.20
   2   1  -9   21.40    2.60
  -1   3  -9   19.50    2.40
  -3   1   9   23.30    2.50
   2  -3   9   19.90    2.50
   1  -3  -9   19.80    2.30
   2   1  -9   19.70    2.40
  -3   2  -9   21.10    2.60
   3  -2  -9   21.50    2.30
   3  -2  -9   24.70    2.60
  -2  -1  -9   21.10    2.30
   1   2   9   19.90    2.40
  -2  -1  -9   19.60    2.40
  -2  -1  -9   21.30    2.30
  -1  -2   9   20.40    2.50
   1   2   9   21.90    2.40
   3  -2  -9   21.90    2.50
   3  -1   9   18.20    2.40
   2   1   9   24.50    2.50
  -3   1  -9   20.00    2.40
  -1  -2  -9   23.40    2.30
   3  -2   9   21.70    2.60
  -1   3   9   23.40    2.40
  -2   3  -9   23.50    2.50
   3  -1  -9   27.70    2.50
  -2   3  -9   20.80    2.60
   3  -2   9   19.90    2.40
   2  -3  -9   18.90    2.20
  -2   3  -9   18.80    2.30
   1  -3   9   24.10    2.70
   1  -3   9   20.80    2.50
   3  -1  -9   27.10    2.40
   1   2  -9   22.50    2.60
   1   2  -9   18.80    2.70
   2   1   9   22.10    2.50
  -1  -2  -9   18.70    2.30
  -1  -2  -9   23.80    2.30
  -1  -2  -9   19.10    2.20
   1   2  -9   21.00    2.40
  -3   2   9   20.80    2.40
  -3   1  -9   22.10    2.40
   2  -3  -9   24.20    2.50
   3  -1  -9   21.00    2.50
   3  -1  -9   21.50    2.50
  -2  -1   9   22.50    2.50
   2  -3  -9   21.10    2.30
  -3   1  -9   24.00    2.60
  -3   1  -9   18.50    2.30
  -1   3   9   22.00    2.40
  -2  -1   9   23.20    2.60
  -2   3  -9   23.50    2.60
   2  -3  -9   21.40    2.20
   1   2  -9   22.40    2.40
  -3   2   9   20.50    2.50
  -3   3   9   40.10    4.30
   3   0   9   44.40    4.40
  -3   0   9   48.30    4.50
   3  -3  -9   42.50    4.40
  -3   3  -9   40.30    4.50
  -3   3  -9   40.10    4.40
   0   3   9   50.09    4.40
   3  -3  -9   39.20    4.20
  -3   3  -9   42.40    4.40
  -3   0  -9   40.10    4.40
   0   3  -9   42.40    4.60
  -3   0  -9   45.30    4.40
   0  -3   9   48.30    4.60
  -3   3   9   41.20    4.30
   0   3  -9   42.90    4.30
   3  -3  -9   44.30    4.20
   3   0  -9   39.20    4.40
   3  -3   9   40.20    4.40
   0  -3  -9   42.80    4.30
   3   0  -9   39.40    4.50
   3  -3   9   46.60    4.70
  -3   0  -9   49.20    4.30
  -3   0   9   42.40    4.40
   0  -3  -9   41.40    4.20
  -3   0  -9   42.60    4.30
   0   3   9   39.80    4.30
   0   3  -9   36.10    4.20
   0  -3  -9   41.20    4.20
   3   0   9   44.80    4.40
   0  -3  -9   46.10    4.30
   0  -3   9   42.40    4.50
   3   0  -9   43.90    4.30
   3  -3  -9   43.90    4.40
   0   3  -9   42.40    4.50
  -4   2  -9    0.20    0.50
  -2   4   9    0.10    0.40
   2   2   9    0.20    0.50
   4  -2  -9   -0.30    0.50
   2  -4  -9    0.80    0.60
  -2   4  -9   -0.10    0.60
  -4   2   9    0.10    0.40
  -2  -2  -9    0.00    0.40
  -2  -2  -9    0.20    0.40
  -2  -2  -9    0.50    0.60
  -2   4  -9    0.00    0.50
   2  -4  -9   -0.20    0.40
  -4   2  -9   -0.20    0.50
   4  -2  -9    0.00    0.40
  -4   2  -9   -0.10    0.50
   2   2  -9    0.20    0.40
   2  -4  -9    0.40    0.40
  -4   2   9   -0.50    0.40
   4  -2  -9    0.10    0.50
   2   2  -9   -0.20    0.40
   2   2   9    0.10    0.40
  -4   2  -9    0.30    0.60
   4  -2   9    0.20    0.40
   4  -2   9   -0.10    0.50
   4  -2  -9    0.10    0.40
  -2   4   9   -0.20    0.30
  -4   3  -9   48.20    4.60
  -3  -1  -9   43.30    4.60
   4  -1   9   46.60    4.80
  -4   3  -9   47.80    4.70
  -3  -1  -9   40.80    4.50
   4  -3  -9   49.00    4.60
  -4   1   9   44.40    4.80
  -3   4   9   46.40    4.70
  -1   4  -9   37.00    4.60
   1  -4  -9   44.10    4.50
   4  -1   9   37.10    4.70
   1   3   9   48.90    4.80
  -4   1   9   40.90    4.90
   3   1  -9   49.80    4.70
   3   1  -9   53.19    4.70
  -1  -3   9   41.10    5.00
   1  -4  -9   46.40    4.70
   4  -3  -9   47.90    4.70
   4  -3  -9   42.90    4.50
  -3  -1  -9   45.10    4.70
  -1   4  -9   46.40    4.60
  -1   4  -9   48.30    5.10
  -3   4   9   49.80    4.70
   1   3   9   51.69    4.80
   4  -3  -9   43.20    4.70
  -1  -3   9   37.70    4.60
   1  -4  -9   46.80    4.60
   3  -4   9   41.50    4.80
  -3  -1  -9   55.29    5.00
   3  -4  -9   43.20    4.70
  -1   4   9   42.40    4.70
  -1  -3  -9   38.90    4.40
  -1  -3  -9   41.90    4.60
   4  -1  -9   48.10    4.70
   1   3  -9   42.20    4.60
  -4   1  -9   44.60    4.60
   1   3  -9   47.90    5.00
  -4   1  -9   36.80    4.40
   3  -4  -9   40.90    4.50
   4  -1  -9   48.30    4.90
   3  -4  -9   48.30    4.80
  -3   4  -9   43.20    4.90
  -4   1  -9   44.60    4.80
  -1   4   9   47.50    4.70
   1  -4   9   49.90    5.00
   4  -1  -9   41.60    4.60
  -4   3   9   56.19    4.90
  -4   1  -9   44.10    4.80
   3   1   9   38.60    4.60
   1   3  -9   53.39    5.30
  -1  -3  -9   50.49    4.70
  -3   4  -9   44.70    4.60
  -4   3   9   45.40    4.70
   3   1   9   49.30    4.90
   1  -4   9   46.00    4.90
   4  -4  -9   34.20    3.60
   4   0  -9   34.80    3.60
   0  -4  -9   37.90    3.70
   4  -4   9   33.60    3.90
   4   0  -9   39.60    4.00
  -4   0   9   42.70    4.00
  -4   0  -9   31.10    3.50
   0   4  -9   31.80    3.80
  -4   4   9   31.80    3.70
  -4   4  -9   30.20    3.80
  -4   4  -9   34.80    3.90
   0   4  -9   32.20    3.60
   0   4  -9   37.00    4.20
   0   4  -9   31.80    3.70
   0   4   9   29.00    3.60
   4   0  -9   32.40    3.80
  -4   0   9   31.90    3.70
   0  -4  -9   36.40    3.70
   0  -4  -9   31.10    3.70
   0  -4  -9   35.80    3.50
   0   4   9   33.30    3.80
   4  -4  -9   30.30    3.50
  -4   4  -9   27.30    3.50
  -4   4  -9   30.50    3.60
  -4   0  -9   30.70    3.60
   4  -4  -9   35.90    3.90
   0  -4   9   35.50    4.00
   0  -4   9   31.40    3.80
   0  -4   9   32.10    3.00
   4  -4   9   32.70    4.00
  -3  -2  -9  227.58   21.20
  -3  -2  -9  245.38   21.50
  -5   3  -9  214.78   21.50
  -5   3  -9  272.97   21.80
  -2   5  -9  267.27   21.90
  -5   2   9  274.07   21.70
   2   3   9  243.68   21.60
  -3  -2  -9  231.58   21.50
   5  -3  -9  254.07   21.40
   3  -5   9  205.78   20.80
  -2  -3   9  266.37   20.90
   3   2  -9  226.08   21.60
  -2   5  -9  249.68   21.60
   3  -5   9  196.78   21.40
   5  -3  -9  261.67   21.70
   2  -5  -9  220.38   21.20
   3   2  -9  231.38   21.60
   3  -5   9  252.17   21.80
  -5   3  -9  263.27   21.60
   5  -3  -9  217.48   21.20
  -2  -3   9  217.88   21.60
  -2   5  -9  224.28   21.40
  -2  -3   9  220.58   21.60
  -2  -3   9  215.28   20.80
   3   2  -9  260.57   21.40
  -2   5  -9  260.07   21.40
  -5   3  -9  243.38   21.30
   3   2  -9  236.98   21.30
   3  -5   9  234.08   20.80
   5  -2   9  219.58   21.60
   2  -5  -9  241.68   21.20
   5  -2   9  262.17   21.60
  -5   2   9  264.87   21.60
   2  -5   9  220.18   20.80
   3  -5  -9  221.48   21.30
  -5   2  -9  216.68   21.60
   2   3  -9  244.38   21.40
  -5   3   9  222.48   21.60
   2   3  -9  221.78   21.60
  -3  -2   9  248.38   20.70
   5  -2  -9  233.38   21.60
  -3   5  -9  218.98   21.30
  -3   5  -9  224.08   21.70
   5  -3   9  235.68   21.70
   2  -5   9  225.68   20.90
  -3  -2   9  251.87   21.60
   5  -2  -9  224.48   21.30
   2  -5   9  191.18   21.40
   5  -2  -9  225.38   21.20
  -3   5  -9  203.18   21.40
   2   3  -9  205.28   21.10
  -3  -2   9  247.78   21.70
  -5   2  -9  234.08   21.60
  -3   5  -9  246.98   21.50
   3   2   9  237.88   21.60
   5  -3   9  229.78   21.50
   2  -5   9  250.07   21.80
   2   3  -9  244.58   21.80
  -2  -3  -9  243.58   21.50
  -5   2  -9  226.38   21.20
  -3  -2   9  219.18   20.70
  -5   3   9  208.58   21.40
  -2  -3  -9  224.48   21.20
   5  -2  -9  265.57   21.70
   5  -4  -9    1.00    0.70
  -4   5   9    0.20    0.50
   4  -5   9    0.20    0.60
  -1   5  -9    0.00    0.50
   1  -5  -9    0.30    0.60
   5  -4  -9    0.60    0.60
   5  -1   9    0.80    0.70
   1  -5  -9    0.30    0.70
   5  -4  -9    0.20    0.60
   4   1  -9   -0.20    0.70
  -5   4  -9   -0.10    0.60
  -1  -4   9    0.60    0.60
  -5   4  -9    0.20    0.80
  -5   1   9    0.20    0.60
   4  -5   9    0.10    0.30
  -5   1   9    0.30    0.60
   5  -4  -9    0.30    0.60
  -1   5  -9    0.70    0.90
  -4  -1  -9    0.10    0.60
  -4  -1  -9    0.10    0.50
   5  -1   9   -0.30    0.60
   1   4   9    0.30    0.50
  -1   5  -9   -0.10    0.60
   1  -5  -9    0.30    0.60
  -5   4  -9    0.60    0.70
  -5   4  -9    0.20    0.90
  -1  -4   9    0.70    0.80
  -4  -1  -9    0.60    0.80
   4   1  -9    0.30    0.80
  -1  -4   9    0.30    0.30
  -4  -1  -9    0.40    0.50
  -1   5  -9    0.30    0.60
  -4   5   9    0.50    0.60
   4   1  -9   -0.10    0.70
  -1  -4   9    0.00    0.40
   4   1  -9    0.70    0.60
   4  -5   9    1.00    0.40
   4  -5   9    0.70    0.90
   1   4   9   -0.10    0.60
   5  -4   9    0.00    0.50
   4  -5  -9    0.40    0.50
  -4   5  -9    0.40    0.70
  -4   5  -9    0.50    0.80
   5  -1  -9    0.30    0.60
   4  -5  -9    0.60    0.70
  -1   5   9    0.60    0.60
   1  -5   9   -0.20    0.30
   1   4  -9    0.10    0.70
   4   1   9    0.10    0.80
  -1   5   9    1.20    0.90
  -4  -1   9    0.80    0.70
   5  -4   9    0.40    0.30
   1  -5   9    0.10    0.60
   4   1   9    0.20    0.60
  -5   1  -9    0.20    0.60
  -5   1  -9    0.50    0.70
   1   4  -9    0.60    0.60
   1  -5   9    0.20    0.40
  -1  -4  -9    0.50    0.60
  -4  -1   9    0.30    0.30
  -4   5  -9    0.30    0.60
   5  -1  -9    0.60    0.70
   4  -5  -9    0.70    0.80
   5  -1  -9    0.50    0.70
   5  -1  -9   -0.10    0.80
  -5   4   9    0.10    0.60
  -4   5  -9    0.80    0.70
   1  -5   9    0.90    0.80
   5  -4   9    0.00    0.30
   4  -5  -9    0.50    0.50
  -1  -4  -9    0.50    0.60
  -4  -1   9    0.50    0.60
  -5   4   9    0.00    0.50
   5  -4   9    0.40    0.70
  -5   1  -9    0.20    0.50
  -1  -4  -9    0.30    0.60
   1   4  -9   -0.10    0.70
  -4  -1   9    0.50    0.30
   1   4  -9    0.40    0.90
  -5   1  -9    0.10    0.50
   0   5   9   23.30    3.30
  -5   0   9   30.20    3.30
   0  -5  -9   20.60    3.20
   5  -5   9   24.20    3.40
  -5   5   9   23.30    3.30
   5   0  -9   29.60    3.70
  -5   5  -9   25.90    3.30
   5  -5  -9   24.20    3.20
  -5   0   9   20.90    2.30
   5  -5  -9   22.00    2.90
  -5   5  -9   22.70    3.20
  -5   5   9   20.90    3.20
   0  -5  -9   15.00    2.60
  -5   0   9   20.00    3.20
   0   5  -9   20.00    2.90
   0   5  -9   28.50    3.40
   5   0  -9   29.50    3.30
   5   0  -9   26.40    3.30
   0  -5   9   26.30    2.60
   5  -5   9   24.70    2.40
   0  -5  -9   22.40    3.00
   0  -5   9   22.40    3.20
   5  -5   9   21.40    2.50
   0   5  -9   22.60    3.50
   5   0  -9   24.90    3.40
   5  -5  -9   20.10    3.20
   0  -5  -9   25.20    3.20
  -5   0  -9   21.50    3.00
  -5   0  -9   29.60    3.50
  -5   5  -9   24.40    3.50
  -5   0   9   24.70    2.40
  -5   0  -9   26.10    2.80
  -5   0  -9   21.70    3.30
   5   0   9   26.70    3.40
   5   0   9   20.10    3.10
  -5   5  -9   19.40    2.80
   0   5  -9   19.50    3.20
   5  -5  -9   21.60    2.90
   5  -5   9   17.10    3.10
   0  -5   9   17.60    3.20
   6  -3   9   -0.20    0.30
  -6   3  -9    0.00    0.70
   6  -3   9   -0.20    0.50
  -3   6  -9   -1.10    0.60
  -3  -3  -9   -0.40    0.40
  -6   3  -9   -0.20    0.60
   3   3  -9    0.00    0.40
   6  -3   9    0.00    0.40
   3   3   9    0.40    0.80
   3  -6   9   -0.30    0.70
  -3   6  -9    0.30    0.70
  -3   6   9    0.00    0.60
  -3   6   9   -0.30    0.60
  -3  -3  -9   -0.40    0.50
   6  -3   9    0.00    0.70
  -3   6  -9   -0.50    0.60
  -6   3  -9    0.20    0.70
   3  -6   9    0.00    0.40
  -6   3   9    0.20    0.60
  -6   3   9   -0.10    0.20
   6  -3  -9    0.20    0.60
   3  -6  -9   -0.20    0.50
  -3   6  -9    0.10    0.60
   3  -6  -9    0.10    0.50
   3  -6   9    0.10    0.40
  -3  -3  -9    0.00    0.60
   3  -6   9    0.60    0.70
   6  -3  -9    0.10    0.70
   3   3  -9    0.00    0.70
  -3  -3   9   -0.60    0.50
  -6   3   9   -0.30    0.20
  -3  -3   9   -0.60    0.50
   3  -6  -9    0.10    0.60
   3   3  -9   -0.90    0.70
  -3  -3   9   -0.10    0.40
  -3  -3  -9   -0.10    0.50
  -6   3   9   -0.50    0.50
   3   3   9    0.40    0.80
   6  -3  -9    0.40    0.70
   3  -6  -9   -0.20    0.50
  -6   3  -9    0.20    0.60
   6  -2   9   52.19    6.20
  -4  -2  -9   46.60    5.80
   4   2  -9   62.79    6.00
  -4   6   9   71.29    6.40
   6  -4  -9   64.19    6.00
   4   2  -9   60.79    6.40
  -2  -4   9   56.69    6.30
  -6   4  -9   50.09    5.90
  -4   6   9   48.20    5.90
   2  -6  -9   58.89    6.00
  -4  -2  -9   50.49    6.10
  -6   4  -9   62.19    6.00
   2  -6  -9   57.99    5.90
  -2  -4   9   56.39    5.60
   6  -4  -9   58.59    6.30
   6  -2   9   63.09    5.50
  -2  -4   9   56.49    5.60
   6  -4  -9   52.89    5.90
  -4  -2  -9   60.89    5.90
  -6   2   9   52.79    6.10
   2  -6  -9   57.49    6.20
  -4  -2  -9   57.59    6.20
   4  -6   9   55.09    6.40
  -2   6  -9   61.49    6.50
   2   4   9   59.69    6.30
   4  -6   9   55.49    5.50
   2   4   9   52.39    6.10
  -2   6  -9   64.89    6.20
  -2  -4   9   59.79    6.30
   4  -6   9   62.49    6.30
  -2   6  -9   51.59    6.10
  -6   4  -9   55.69    6.30
   4   2  -9   61.29    6.40
  -6   4  -9   52.59    6.20
  -6   2   9   55.49    5.40
  -2   6  -9   53.89    5.90
   6  -4  -9   55.79    6.10
  -6   2   9   55.59    5.40
   6  -2   9   56.19    5.50
   4  -6   9   63.99    5.70
  -6   2   9   60.19    6.30
   2  -6  -9   63.49    6.10
   6  -2   9   61.79    6.40
   6  -4   9   50.59    6.10
   4   2   9   48.30    6.10
   2   4  -9   63.99    6.50
   6  -2  -9   55.89    6.00
   2  -6   9   48.30    5.60
   2   4  -9   57.59    6.10
   2   4  -9   55.99    6.30
  -2   6   9   52.99    6.20
   4  -6  -9   51.39    5.80
   2   4  -9   63.79    5.90
  -6   4   9   55.89    5.20
  -6   2  -9   57.19    6.30
  -6   2  -9   60.39    6.30
  -4   6  -9   64.69    6.30
   6  -2  -9   57.59    6.20
  -4   6  -9   64.39    6.40
   2  -6   9   67.49    5.80
  -2   6   9   61.09    6.20
  -6   4   9   61.99    6.30
  -6   2  -9   52.49    5.90
   4  -6  -9   75.49    6.20
  -4  -2   9   63.09    6.40
   4  -6  -9   62.19    6.20
  -6   2  -9   66.39    6.00
   6  -4   9   53.99    5.60
  -6   4   9   62.59    6.20
  -2  -4  -9   66.29    6.30
  -4   6  -9   60.99    6.00
   6  -4   9   63.39    6.40
   6  -2  -9   51.69    6.20
   4  -6  -9   54.69    6.30
  -4  -2   9   63.59    5.60
  -4  -2   9   54.59    6.30
  -2  -4  -9   49.99    6.00
   2  -6   9   55.99    6.40
  -4   6  -9   54.29    6.30
  -2  -4  -9   60.49    6.00
   4   2   9   54.59    6.20
   6  -2  -9   52.19    5.90
  -2  -4  -9   59.09    5.90
   2  -6   9   47.50    6.10
   6  -1   9   43.70    4.10
   6  -5  -9   39.20    4.60
  -5  -1  -9   42.90    4.70
   5  -6   9   45.30    4.40
  -6   5  -9   45.80    5.10
   5  -6   9   37.20    4.20
   1  -6  -9   42.30    4.60
   1  -6  -9   37.10    4.40
   1  -6  -9   44.10    4.90
  -6   1   9   42.40    4.90
  -6   1   9   41.60    4.20
  -1   6  -9   50.29    4.90
   6  -5  -9   47.30    4.90
  -5   6   9   40.90    4.80
  -1  -5   9   40.40    4.30
   1   5   9   41.70    4.90
   5   1  -9   42.80    4.70
  -5  -1  -9   36.90    4.40
   1   5   9   45.30    5.00
  -1  -5   9   33.30    4.50
  -6   5  -9   42.30    4.80
   1  -6  -9   35.20    4.60
   5   1  -9   43.30    5.00
  -6   1   9   40.10    4.80
  -6   5  -9   37.60    4.60
  -5  -1  -9   38.90    4.70
   6  -5  -9   38.80    4.50
  -1   6  -9   33.90    4.70
  -1  -5   9   42.70    4.90
  -1  -5   9   43.90    4.30
   5  -6   9   42.10    4.90
  -5  -1  -9   41.70    4.80
   5   1  -9   37.40    4.50
   6  -1   9   38.00    4.10
   5   1  -9   39.70    4.90
   6  -1   9   48.20    5.00
  -1   6  -9   43.60    5.10
   5  -6   9   43.40    5.10
  -5   6   9   40.30    4.80
   6  -1   9   50.09    5.10
   6  -5  -9   42.50    5.00
  -6   1  -9   27.60    4.40
   6  -1  -9   43.20    5.00
   1  -6   9   43.70    5.00
   5   1   9   40.60    3.90
   1   5  -9   41.80    4.90
  -5   6  -9   45.30    5.10
   6  -5   9   38.00    4.80
   6  -1  -9   37.30    4.50
  -6   5   9   45.20    3.90
  -1  -5  -9   38.60    4.50
  -1   6   9   41.10    4.70
   1   5  -9   48.30    4.80
   6  -5   9   39.50    4.20
   6  -1  -9   47.80    5.00
  -5   6  -9   41.50    5.00
   1  -6   9   43.90    4.30
  -6   1  -9   39.10    4.80
  -6   1  -9   45.30    4.80
  -5   6  -9   38.50    4.60
   1  -6   9   46.40    5.00
   5  -6  -9   41.40    5.00
  -1  -5  -9   37.00    4.70
   1   5  -9   40.30    5.00
  -5  -1   9   42.90    4.80
   5   1   9   36.20    4.70
   5   1   9   43.80    5.00
  -6   1  -9   39.80    4.50
   5  -6  -9   46.90    4.90
   1  -6   9   46.40    4.40
  -5  -1   9   50.59    5.10
  -1  -5  -9   31.70    4.40
   5  -6  -9   42.30    4.60
   5  -6  -9   40.90    4.60
  -6   5   9   39.00    4.80
   6  -1  -9   39.20    4.50
  -1  -5  -9   49.99    4.80
  -5  -1   9   43.40    4.20
   5   1   9   38.50    3.90
   6  -5   9   40.40    5.00
  -5  -1   9   44.40    4.30
  -1   6   9   48.40    5.00
   6  -5   9   38.90    4.20
  -6   5   9   38.80    4.70
   6  -6   9    1.40    1.10
   6   0  -9    0.40    0.80
   0  -6  -9    0.60    0.70
  -6   0  -9    2.00    1.10
  -6   6  -9    0.80    0.90
  -6   6  -9    0.10    0.80
   0   6  -9    1.40    1.10
   0  -6   9    1.90    1.20
   0   6   9    0.90    0.80
   6  -6   9    1.70    0.70
  -6   6  -9    0.80    1.00
   6  -6   9    1.70    1.10
   0  -6   9    1.00    0.60
   6  -6  -9    1.20    1.00
   6  -6  -9    0.60    0.80
  -6   6   9    1.20    0.90
   6  -6   9    0.70    0.70
  -6   6   9    0.70    0.40
   6  -6  -9    0.50    1.00
  -6   0   9    1.20    0.90
   6   0  -9    1.60    1.00
   0  -6   9    1.50    0.80
  -6   0   9    0.80    0.50
   0  -6  -9    1.60    1.10
   0   6   9    1.40    1.00
  -6   0   9    1.50    0.70
   0  -6  -9    0.20    0.70
  -6   0  -9    1.30    1.10
   6   0  -9    1.60    1.10
  -6   0  -9    1.40    0.90
  -6   6   9    1.70    1.00
   6   0   9    1.50    1.00
   0   6  -9    2.20    1.20
  -6   0   9    1.40    1.00
   0  -6  -9    0.30    0.70
   0   6  -9    1.00    1.00
   6   0   9    2.10    1.20
   0   1 -10    2.60    0.40
   0   1 -10    2.70    0.40
   0   1 -10    2.60    0.40
  -1  -1  10 1185.18  105.69
   2  -1 -10 1247.58  105.59
   1   1 -10 1201.88  105.59
   1   1 -10 1280.77  105.59
  -2   1 -10 1276.77  105.59
   1   1 -10 1155.78  105.69
   1  -2  10 1250.47  105.69
  -2   1 -10 1156.78  105.49
  -2   1  10 1140.59  105.49
  -1   2 -10 1201.48  105.59
  -1   2 -10 1160.18  105.69
   2  -1 -10 1251.57  105.49
  -1   2 -10 1113.09  105.69
  -2   1 -10 1297.67  105.59
   2  -1  10 1215.98  105.59
  -1  -1 -10 1200.28  105.39
   2  -1 -10 1102.89  105.49
   2  -1 -10 1157.18  105.49
   1  -2  10 1093.69  105.69
  -2   1  10 1177.58  105.49
  -2   1 -10 1231.78  105.59
  -1  -1  10 1237.28  105.69
  -1   2 -10 1136.09  105.59
   2  -1  10 1199.98  105.69
   1   1 -10 1287.87  105.79
   2   0 -10 1029.20   84.19
   2  -2 -10  916.81   84.09
   2  -2 -10  935.71   84.09
  -2   0  10  959.10   84.29
   0   2 -10  918.41   84.29
   2  -2  10 1003.90   84.29
   2   0 -10  967.70   84.19
   2   0 -10  958.30   84.29
   0   2 -10  987.10   84.39
   0   2 -10  930.31   84.19
  -2   2 -10  945.51   84.29
   0  -2  10  968.50   84.39
  -2   0 -10  962.10   84.19
  -2   0 -10 1038.60   84.09
   2  -2 -10  943.21   84.09
   2   0  10  977.20   84.19
   0   2 -10 1014.80   84.29
   0  -2  10  884.31   84.29
   2  -2  10  979.50   84.39
  -2   2 -10  981.50   84.39
  -2   2 -10  846.32   84.19
   0  -2 -10  945.51   83.99
  -2   0  10  888.31   84.19
  -2   2  10  994.60   84.09
  -2   0 -10  926.81   84.09
  -2   2 -10  931.91   84.19
  -2   2  10  979.40   84.09
   2  -2 -10  965.50   84.09
   2   0 -10  927.01   84.29
  -2   0 -10  924.91   84.19
  -1  -2  10   30.40    2.90
   1  -3 -10   23.20    2.60
  -1   3 -10   25.50    3.00
  -1  -2  10   29.70    3.00
  -3   1  10   26.80    2.80
   1   2  10   26.70    2.80
   1   2  10   26.30    2.80
   3  -1  10   27.30    2.90
   2   1 -10   26.20    3.00
   3  -1  10   27.90    2.90
   3  -2 -10   25.20    2.70
   3  -2 -10   24.40    2.80
   3  -2 -10   26.20    2.80
  -3   1  10   28.00    2.90
  -3   2 -10   25.50    2.90
  -2  -1 -10   25.10    2.70
  -1   3 -10   27.20    2.90
   1  -3 -10   26.60    2.70
  -3   2 -10   25.50    2.90
  -2   3  10   26.50    2.70
  -2   3  10   24.80    2.70
   3  -2 -10   28.20    2.70
   1  -3 -10   29.10    2.70
  -3   2 -10   24.90    2.80
  -2  -1 -10   26.10    2.80
   2   1 -10   23.60    3.00
   1  -3 -10   24.00    2.60
  -2  -1 -10   24.00    2.70
   2  -3  10   27.50    2.90
  -1   3 -10   25.30    3.10
   2   1 -10   24.50    2.80
  -3   2 -10   21.10    2.70
   2  -3  10   26.10    3.00
  -1   3  10   26.50    2.70
   3  -1 -10   26.60    2.90
   3  -1 -10   26.30    2.90
  -1  -2 -10   24.90    2.70
  -3   2  10   28.10    2.80
   2   1  10   19.80    2.60
   1  -3  10   25.20    2.90
   3  -1 -10   27.10    2.80
   1   2 -10   24.10    2.90
   2  -3 -10   28.30    2.70
  -2   3 -10   25.50    3.00
  -3   1 -10   26.80    2.80
  -1   3  10   25.60    2.70
  -3   1 -10   23.10    2.70
   3  -2  10   24.40    3.00
   2  -3 -10   29.80    2.70
  -1  -2 -10   26.40    2.70
  -3   1 -10   26.30    2.80
  -3   1 -10   27.40    2.90
   1   2 -10   28.30    3.10
   3  -2  10   29.60    2.90
   2   1  10   28.20    2.80
   2  -3 -10   26.20    2.70
  -2  -1  10   22.80    2.90
  -3   2  10   25.40    2.80
  -1  -2 -10   24.40    2.60
  -1  -2 -10   25.20    2.60
   2  -3 -10   27.30    2.70
  -2   3 -10   24.40    2.90
   1  -3  10   26.90    3.00
   3  -1 -10   25.60    2.70
  -2  -1  10   27.10    2.90
   1   2 -10   27.20    2.80
  -2   3 -10   25.10    3.00
   3  -3 -10  864.61   81.89
   0   3  10  911.61   82.09
   0  -3 -10  900.01   81.89
   3  -3  10  893.21   82.29
   3  -3  10  959.80   82.29
   3   0 -10  998.10   82.09
   3   0  10  916.01   82.09
   0  -3 -10 1022.10   81.99
   0   3  10  989.00   81.99
   3  -3 -10 1004.10   82.09
  -3   0 -10  923.81   82.09
  -3   3 -10 1069.89   82.59
  -3   0 -10  942.61   82.09
  -3   0  10  828.42   82.09
   0  -3  10  884.91   82.19
  -3   3 -10  941.51   82.19
   0   3 -10  939.81   82.39
  -3   3 -10  814.52   81.99
   0  -3  10  966.40   82.29
   0   3 -10  832.62   82.09
   3   0 -10  900.81   82.19
   0  -3 -10  861.81   81.99
  -3   3  10  870.31   81.99
   0  -3 -10  940.01   81.89
  -3   0  10  985.90   82.19
  -3   3 -10  946.31   82.19
   0   3 -10  917.71   82.29
  -3   0 -10  994.90   82.09
   3  -3 -10 1003.00   82.19
  -3   0 -10  897.61   81.99
   3   0 -10  835.82   82.19
   2  -4 -10   73.79    7.90
  -4   2  10   85.79    8.10
  -4   2 -10   82.69    8.00
   4  -2  10   81.99    8.10
  -4   2  10   86.69    8.00
   4  -2 -10   82.39    8.10
   2   2 -10   88.39    8.00
  -4   2 -10   78.29    7.80
   2   2  10   80.69    8.00
  -4   2 -10   76.39    8.10
  -2   4  10   78.09    7.90
   2  -4 -10   90.39    7.80
  -4   2 -10   86.69    8.10
  -2  -2 -10   75.99    7.90
  -2  -2 -10   80.39    8.00
   4  -2 -10   88.69    7.90
   2   2 -10   71.69    7.80
  -2  -2 -10  100.79    8.00
   4  -2 -10   93.79    8.10
   2   2  10   89.29    8.10
  -2   4 -10   89.69    8.40
   4  -2 -10   91.69    7.90
  -2   4  10   78.99    7.90
   4  -2  10   87.29    8.20
   2  -4 -10   78.49    7.90
  -2   4 -10   75.69    7.90
   1  -4 -10   11.50    1.90
   1  -4 -10   13.20    2.00
  -4   1  10   16.80    2.30
   4  -1  10   16.90    2.30
  -4   3 -10   13.70    2.00
   4  -3 -10   16.70    2.30
   4  -3 -10   18.30    2.50
   1   3  10   15.60    2.20
  -1   4 -10   11.80    1.90
   3  -4  10   17.90    2.40
   3   1 -10   11.00    1.90
  -4   3 -10   15.30    2.20
   3   1 -10   17.50    2.20
  -3   4  10   14.50    2.10
  -1   4 -10   15.00    2.40
   1  -4 -10   15.50    2.00
  -4   1  10   15.10    2.20
  -3  -1 -10   11.60    1.90
  -3  -1 -10   16.20    2.20
  -3  -1 -10   14.50    2.00
  -1  -3  10   15.30    2.50
  -1   4 -10   17.40    2.60
  -1  -3  10   16.40    2.20
  -3  -1 -10   15.30    2.10
  -3   4  10   15.80    2.10
   1   3  10   11.50    1.90
   4  -3 -10   17.10    2.10
   4  -1  10   15.50    2.30
   4  -3 -10   14.40    2.00
   3  -4 -10   12.90    2.10
  -1   4  10   15.80    2.20
   4  -1 -10   13.20    2.00
  -4   1 -10   19.20    2.60
   1   3 -10   13.30    2.40
   1  -4  10   12.80    2.10
  -4   1 -10   16.00    2.10
  -4   1 -10   12.60    2.10
   1   3 -10   14.10    2.00
   4  -1 -10   14.10    2.10
  -1  -3 -10   16.20    2.10
   3  -4 -10   12.80    1.90
  -3   4 -10   16.60    2.20
   4  -1 -10   14.00    2.20
   1  -4  10   16.30    2.40
   4  -1 -10   14.40    2.10
   3  -4 -10   16.50    2.20
  -1   4  10   16.20    2.10
   1   3 -10   13.30    2.30
  -1  -3 -10   17.60    2.10
  -4   1 -10   15.10    2.10
  -3   4 -10   14.40    2.30
   3  -4 -10   16.70    2.20
  -1  -3 -10   21.40    2.30
   3   1  10   17.90    2.40
  -1  -3 -10   14.10    2.00
  -4   3  10   12.60    2.20
   0   4  10  781.02   73.49
   4  -4  10  759.42   73.59
   4  -4 -10  865.01   73.39
  -4   4 -10  764.72   73.59
   4  -4 -10  889.71   73.59
   4  -4 -10  799.72   73.39
  -4   0 -10  864.51   73.39
  -4   4  10  803.22   73.39
   0   4 -10  819.42   73.49
   4  -4 -10  776.32   73.59
   0   4 -10  800.62   73.79
  -4   4 -10  774.12   73.69
   0   4  10  792.22   73.39
   0  -4 -10  817.22   73.29
   4  -4  10  968.40   73.99
  -4   0  10  809.22   73.59
  -4   0 -10  838.32   73.39
  -4   0  10  782.42   73.59
   4   0 -10  939.41   73.79
   0  -4  10  762.42   73.69
   0  -4  10  931.11   73.79
   4   0 -10  957.10   73.89
   4   0 -10  878.41   73.49
   0  -4 -10  780.12   73.39
   0  -4 -10  816.82   73.39
  -4   4 -10  842.42   73.49
   0  -4 -10  734.33   73.19
  -4   4  10  801.22   73.59
   0   4 -10  856.01   73.49
   0   4 -10  871.41   73.69
  -4   4 -10  800.02   73.39
  -2   5 -10   14.10    2.10
   3   2 -10   16.00    2.30
  -5   3 -10   17.40    2.30
  -5   2  10   12.40    2.30
   3   2 -10   14.20    2.20
  -5   3 -10   16.30    2.40
   3   2 -10   15.60    2.60
  -5   2  10   12.20    2.20
  -2   5 -10   15.10    2.70
  -2  -3  10   15.10    2.50
  -3  -2 -10   16.00    2.10
   5  -2  10   14.00    2.30
   2  -5 -10   15.50    2.10
   5  -3 -10   14.40    2.30
   3   2 -10   20.40    2.80
   2  -5 -10   17.60    2.40
   3  -5  10   13.50    2.30
  -2   5 -10   16.30    2.40
  -3  -2 -10   18.40    2.60
  -2  -3  10   14.40    2.40
  -5   3 -10   17.90    2.70
   3  -5  10   12.20    2.40
   5  -3 -10   12.30    2.10
   5  -3 -10   15.50    2.50
  -2   5 -10   15.30    2.50
  -5   3 -10   14.20    2.40
   5  -2  10   16.60    2.50
  -5   2 -10   15.40    2.50
   5  -3  10   14.60    2.50
   2   3 -10   12.30    2.40
   5  -2 -10   15.10    2.20
   5  -3  10   14.00    2.30
   2  -5  10   15.30    2.70
   2   3 -10   15.40    2.10
   3  -5 -10   14.30    2.10
  -3  -2  10   18.50    2.50
  -2  -3 -10    8.30    1.80
  -5   2 -10   15.10    2.30
   5  -2 -10   11.70    2.20
   2   3 -10   17.60    2.50
   5  -2 -10   16.00    2.30
   3   2  10   15.40    2.40
  -3   5 -10   17.40    2.40
  -3   5 -10   16.70    2.30
  -3   5 -10   12.90    2.40
  -3   5 -10   18.70    2.60
  -5   2 -10   16.20    2.50
   2   3 -10   19.70    2.70
  -3  -2  10   17.50    2.70
  -5   3  10   16.90    2.60
   5  -2 -10   15.80    2.50
   3  -5 -10   16.20    2.30
  -5   2 -10   19.90    2.40
  -5   3  10   18.00    2.50
   5  -4 -10  330.17   31.50
  -4   5  10  350.76   31.80
   5  -4 -10  341.77   31.70
   1   4  10  363.46   31.80
   1   4  10  314.47   31.60
  -4  -1 -10  376.56   31.80
  -4  -1 -10  337.47   31.50
  -1  -4  10  371.86   31.80
   4   1 -10  388.36   31.60
   4   1 -10  408.06   32.10
   4  -5  10  381.76   32.10
   5  -1  10  389.66   31.90
  -5   1  10  346.37   31.80
   4  -5  10  316.17   31.80
  -4   5  10  312.07   31.60
  -1   5 -10  335.47   31.60
   5  -4 -10  345.37   31.50
  -1   5 -10  351.86   32.00
  -4  -1 -10  334.67   31.70
   5  -4 -10  378.86   32.10
  -5   4 -10  359.56   32.00
  -1   5 -10  361.26   31.60
   4   1 -10  337.57   31.90
  -5   4 -10  326.57   31.50
  -5   4 -10  341.87   31.90
  -1   5 -10  326.07   31.90
  -5   1  10  331.17   31.70
  -5   4 -10  351.06   31.70
   1  -5 -10  413.86   31.80
   4   1 -10  327.17   31.60
   1  -5 -10  346.27   31.50
  -4  -1 -10  327.77   31.60
   5  -1  10  335.47   31.90
  -4   5 -10  351.36   31.70
  -1  -4 -10  351.16   31.50
  -1  -4 -10  415.26   31.90
  -5   1 -10  337.97   31.60
   4  -5 -10  350.16   31.70
   1   4 -10  340.07   32.00
   5  -1 -10  378.26   31.90
  -1   5  10  343.57   31.70
  -5   1 -10  327.07   31.80
  -1  -4 -10  304.37   31.60
   1   4 -10  370.56   31.60
  -5   4  10  370.16   31.70
  -4   5 -10  342.87   31.80
   5  -4  10  376.16   32.10
   5  -4  10  381.86   31.90
   1  -5  10  334.97   31.80
   4  -5 -10  328.77   31.80
  -4  -1  10  322.07   31.80
  -4   5 -10  341.57   31.60
   5  -1 -10  362.86   31.60
  -5   1 -10  326.67   31.50
   4   1  10  337.97   31.80
   1  -5  10  348.57   32.10
  -5   1 -10  371.36   31.80
   4   1  10  389.96   32.00
  -5   4  10  326.27   31.70
   4  -5 -10  311.17   31.40
  -4  -1  10  324.27   31.80
   1   4 -10  317.47   31.80
  -4   5 -10  383.66   32.10
   5  -1 -10  404.76   32.00
   5  -1 -10  360.26   31.70
  -5   0 -10    1.20    0.80
   5   0  10    2.40    1.10
   0   5  10    2.20    1.10
   0   5 -10    2.50    1.30
  -5   5 -10    1.30    0.80
   5   0 -10    1.50    1.00
  -5   0 -10    0.80    0.70
  -5   5  10    1.90    1.00
   0  -5 -10    1.00    0.80
   0   5 -10    1.40    0.90
  -5   0 -10    1.90    0.90
   0  -5 -10    1.60    1.00
   0  -5 -10    1.60    0.70
   0  -5 -10    2.40    0.90
   0   5 -10    1.10    0.70
  -5   5 -10    1.40    1.10
   5   0  10    1.30    0.90
   5  -5 -10    1.70    1.00
   0  -5  10    1.20    0.50
   0  -5  10    1.70    0.50
  -5   0 -10    1.30    0.80
   5   0 -10    2.00    0.80
   5  -5 -10    1.70    1.00
   0   5 -10    1.40    0.90
   0  -5  10    1.30    1.00
   5  -5 -10    1.10    0.70
   5  -5  10    0.70    0.90
  -5   0  10    1.70    1.00
  -5   0  10    1.60    1.00
  -5   5 -10    2.00    1.00
   5   0 -10    1.10    0.90
   5  -5  10    1.10    0.80
   0  -5  10    1.60    0.90
   5   0 -10    1.80    0.90
   5  -5 -10    1.80    0.90
  -5   5 -10    1.50    1.00
   0   5  10    1.50    0.90
   3   3 -10  135.09   13.60
  -3   6  10  157.28   13.90
  -3   6 -10  129.39   13.90
  -3   6  10  175.48   14.30
  -6   3 -10  149.29   13.90
   3  -6  10  154.18   14.00
  -3   6 -10  151.88   13.90
  -6   3 -10  133.59   13.50
  -6   3 -10  160.68   14.30
   3   3  10  173.48   14.30
   3   3  10  146.29   14.00
   3  -6  10  142.29   13.10
  -3   6 -10  145.39   13.60
  -3  -3  10  136.69   13.00
  -6   3 -10  163.68   13.90
   3   3 -10  129.29   13.90
  -3  -3  10  128.99   13.80
  -3  -3  10  145.09   13.90
  -3  -3 -10  131.49   13.70
  -3  -3 -10  141.39   13.80
  -6   3  10  128.19   13.80
   3  -6  10  140.59   14.10
  -3  -3 -10  135.89   13.60
  -6   3  10  147.59   13.90
   6  -3 -10  153.28   14.10
  -3   6 -10  137.99   14.00
   6  -3 -10  135.29   13.80
  -3  -3 -10  180.68   13.70
   3   3 -10  142.09   13.90
   3  -6 -10  144.89   13.70
   3  -6 -10  159.98   13.70
   3  -6 -10  141.99   13.90
   3   3 -10  137.49   13.60
   6  -3  10  130.99   13.80
   3  -6 -10  129.59   13.70
   6  -3  10  179.78   14.40
   4   2 -10  325.87   32.20
   4   2 -10  389.36   32.30
  -2   6 -10  367.56   32.30
  -4  -2 -10  390.56   32.10
  -6   2  10  384.96   32.20
   2  -6 -10  357.96   31.80
   6  -4 -10  344.47   31.70
   6  -2  10  328.17   32.10
  -6   4 -10  379.06   32.20
   2  -6 -10  370.56   31.70
  -2  -4  10  320.37   31.20
   4   2 -10  369.76   32.00
   4   2 -10  339.57   31.70
  -6   2  10  301.57   31.90
   2   4  10  327.97   32.00
  -2   6 -10  359.56   32.10
  -2  -4  10  408.56   32.30
  -6   4 -10  355.76   31.80
  -6   4 -10  355.76   32.10
  -4   6  10  312.67   31.70
  -4  -2 -10  408.26   31.80
   2  -6 -10  321.37   31.90
  -2   6 -10  359.56   32.00
  -2  -4  10  373.56   32.30
  -6   4 -10  402.66   32.40
   2   4  10  358.56   32.00
   6  -2  10  352.86   32.10
   6  -4 -10  345.67   32.00
  -4   6  10  355.76   32.10
   4  -6  10  366.66   32.20
   6  -4 -10  298.17   31.60
  -4  -2 -10  348.97   31.80
   4  -6  10  338.67   32.30
  -4  -2 -10  402.96   32.20
   2  -6 -10  330.07   31.90
   4  -6  10  345.57   31.20
  -4   6 -10  324.27   31.90
  -6   4  10  361.16   32.10
   6  -2 -10  364.56   32.20
   2   4 -10  348.77   32.20
   2  -6  10  304.17   31.20
   4  -6 -10  319.87   31.90
   2   4 -10  331.87   32.20
   2  -6  10  346.17   32.20
  -6   4  10  311.77   31.80
   6  -4  10  345.87   32.30
  -6   2 -10  396.56   31.80
  -2  -4 -10  326.67   31.70
   4  -6 -10  349.87   32.10
  -4   6 -10  347.97   32.00
   6  -2 -10  345.77   31.80
   4  -6 -10  343.37   31.70
   4  -6 -10  370.96   31.80
  -6   2 -10  336.77   32.00
  -6   2 -10  364.16   31.90
  -2   6  10  358.96   32.10
  -4   6 -10  396.06   32.40
  -2   6  10  361.16   32.00
  -2  -4 -10  344.67   31.70
   6  -2 -10  356.46   31.80
  -6   2 -10  369.46   32.30
   6  -4  10  335.27   32.00
   2  -6  10  319.57   32.00
  -2  -4 -10  347.17   31.90
  -4  -2  10  409.76   32.50
  -2  -4 -10  317.37   31.90
   6  -2 -10  352.76   32.10
  -4  -2  10  368.56   32.20
   4   2  10  326.37   32.00
   2   4 -10  341.07   31.90
   4   2  10  386.06   32.20
   0   1 -11    5.50    0.70
  -1   1 -11    4.90    0.60
   1   1 -11   -0.10    0.30
   1   1 -11    0.20    0.30
  -1   2 -11    0.30    0.30
   2  -1 -11    0.00    0.20
   2  -1 -11    0.10    0.20
  -1  -1  11    0.10    0.30
   2  -1  11    0.10    0.20
   1   1 -11    0.00    0.20
  -1   2 -11    0.40    0.40
  -2   1 -11    0.00    0.30
   1  -2  11    0.00    0.30
  -1   2 -11    0.00    0.20
  -1  -1  11    0.10    0.30
  -1  -1 -11    0.20    0.20
  -1   2 -11    0.20    0.30
   1   1 -11    0.10    0.30
  -1  -1 -11    0.20    0.10
  -2   1 -11   -0.10    0.20
   1  -2  11    0.10    0.40
  -2   1 -11    0.00    0.20
  -2   1 -11    0.10    0.20
   2  -1  11    0.10    0.20
   2  -2 -11    7.30    0.90
   2  -2  11    8.30    1.20
  -2   0 -11    7.50    1.00
  -2   2 -11    7.70    1.10
   0  -2  11    5.90    1.10
  -2   0 -11    7.70    0.80
   2   0  11    8.00    0.90
   2   0 -11    7.60    1.10
   2   0 -11    6.80    1.00
  -2   0 -11    7.40    0.80
   0   2 -11    7.80    1.20
   2  -2 -11    5.40    0.80
   2   0  11    7.90    0.90
  -2   0 -11    8.80    1.00
  -2   2 -11    6.80    1.10
   0   2 -11    5.90    1.10
   2   0 -11    8.40    1.10
  -2   2 -11    7.00    1.10
   0  -2 -11    7.50    0.80
   2   0 -11    6.80    1.00
  -2   0  11    7.80    1.10
   0  -2  11    5.80    1.10
  -2   2 -11    8.30    1.20
   0   2 -11    6.90    1.20
   0   2 -11    6.50    1.10
   2  -2  11    7.60    1.10
  -2   0  11    7.70    1.10
  -2  -1 -11   24.80    2.70
   1  -3 -11   28.50    2.60
  -3   2 -11   25.60    2.90
   1  -3 -11   23.80    2.70
   2   1 -11   26.00    2.90
   2  -3  11   24.80    3.00
  -1  -2  11   24.60    3.00
   3  -2 -11   23.90    2.80
  -3   1  11   26.20    2.90
  -2   3  11   27.70    2.70
  -2  -1 -11   24.50    2.80
   3  -1  11   26.90    3.00
  -2   3  11   27.60    2.70
   3  -2 -11   29.60    2.90
  -1  -2  11   34.50    3.10
  -1   3 -11   28.40    3.10
   3  -1  11   27.30    2.90
   2   1 -11   31.40    3.20
  -1   3 -11   33.90    3.00
   1  -3 -11   25.60    2.70
  -1   3 -11   28.80    3.20
  -2  -1 -11   26.30    2.80
  -1   3 -11   28.30    3.00
   1   2  11   27.90    2.70
   2  -3  11   27.70    3.10
  -3   1  11   25.10    2.90
   3  -2 -11   28.40    2.90
  -3   2 -11   28.10    3.10
   2   1 -11   27.20    3.10
   3  -2 -11   25.40    2.80
  -3   2 -11   25.90    3.00
   1  -3 -11   26.90    2.60
   1   2  11   29.60    2.70
  -3   2  11   26.70    2.80
   3  -1 -11   24.10    2.90
   1   2 -11   26.60    2.90
  -2  -1  11   28.70    3.00
   2  -3 -11   31.30    2.80
   2  -3 -11   28.50    2.70
   3  -1 -11   25.40    2.80
  -1  -2 -11   26.70    2.80
  -2   3 -11   27.80    3.00
   1  -3  11   26.10    3.00
  -2   3 -11   27.00    3.10
   2   1  11   24.90    2.80
  -3   1 -11   29.80    3.00
   1   2 -11   25.00    3.00
   2   1  11   26.20    2.80
   1   2 -11   31.00    3.20
  -1  -2 -11   27.40    2.70
   2  -3 -11   26.10    2.80
  -1   3  11   26.80    2.60
   3  -2  11   28.40    3.10
  -3   1 -11   24.50    2.80
  -2   3 -11   27.00    2.90
  -2  -1  11   28.90    3.00
   1  -3  11   29.90    3.10
  -1   3  11   25.60    2.60
  -3   2  11   27.90    2.80
  -2   3 -11   26.90    3.00
  -1  -2 -11   29.20    2.80
  -1  -2 -11   27.40    2.70
   3  -1 -11   23.80    2.80
   2  -3 -11   26.90    2.70
  -3   1 -11   26.50    2.90
   1   2 -11   23.90    2.80
   3  -2  11   26.10    3.00
  -3   1 -11   28.30    2.90
   3   0 -11    7.60    1.40
  -3   3  11    7.80    1.30
  -3   3 -11    9.60    1.50
   3  -3 -11    8.70    1.30
   0   3 -11    9.70    1.60
   0  -3 -11    6.20    1.00
   3   0 -11    6.40    1.30
   0  -3 -11    7.20    1.10
  -3   0  11    8.80    1.50
   0   3 -11    7.60    1.30
   0  -3 -11    6.10    1.00
   0  -3 -11    6.00    1.00
  -3   3 -11    6.90    1.30
   3   0 -11    7.70    1.30
   3  -3  11    8.90    1.50
   0  -3  11    8.70    1.50
   0   3  11    7.00    1.10
   3  -3 -11    7.00    1.20
   0  -3  11    9.90    1.60
  -3   0 -11    7.30    1.30
  -3   0 -11    6.00    1.10
  -3   3  11    6.30    1.10
   3   0  11    6.50    1.20
  -3   3 -11    6.70    1.40
   3   0 -11    7.00    1.20
   0   3 -11    8.20    1.60
   0   3  11    6.20    1.10
  -3   0  11    7.50    1.30
  -3   0 -11    7.70    1.20
   3  -3 -11    9.00    1.20
  -3   3 -11    6.30    1.20
   3  -3  11    8.20    1.60
   3  -3 -11    9.70    1.20
   0   3 -11    5.60    1.20
   3   0  11    6.60    1.30
   4  -2  11    0.30    0.60
   2  -4 -11    0.30    0.40
   4  -2  11    0.10    0.50
  -4   2  11    0.40    0.50
   4  -2 -11    0.30    0.50
  -2  -2 -11    0.50    0.60
  -4   2 -11    0.10    0.50
  -4   2 -11    0.10    0.50
  -2   4 -11    0.50    0.50
  -2  -2 -11    0.10    0.40
   4  -2 -11    0.20    0.50
  -2   4  11    0.00    0.30
   2   2  11    0.10    0.40
  -2  -2 -11   -0.20    0.40
   2   2 -11    0.40    0.50
   2   2  11    0.40    0.60
  -4   2 -11    0.40    0.60
  -4   2 -11   -0.20    0.40
   2   2 -11   -0.10    0.50
   4  -2 -11    0.20    0.50
  -2   4  11    0.30    0.50
   4  -2 -11    0.20    0.60
   2  -4 -11    0.20    0.50
  -4   2  11    0.30    0.50
  -2  -2 -11   -0.40    0.40
   2  -4 -11    0.30    0.50
  -4   3 -11   16.70    2.40
  -1   4 -11   18.50    2.80
  -3  -1 -11   13.50    2.20
   4  -1  11   25.50    3.00
   1  -4 -11   16.80    2.30
  -3   4  11   17.80    2.20
   4  -3 -11   19.80    2.50
   1  -4 -11   20.70    2.30
  -3  -1 -11   19.70    2.50
   1  -4 -11   17.30    2.30
  -1   4 -11   15.40    2.30
  -4   1  11   15.10    2.40
  -4   1  11   18.40    2.60
   3   1 -11   21.30    3.10
   3   1 -11   17.60    2.50
   4  -1  11   17.00    2.50
   4  -3 -11   17.20    2.50
  -3  -1 -11   21.40    2.50
  -1   4 -11   20.60    2.80
  -3  -1 -11   18.40    2.40
   1   3  11   18.70    2.40
  -1  -3  11   18.30    2.60
   1  -4 -11   17.30    2.30
  -3   4  11   16.40    2.40
  -4   3 -11   20.70    2.60
   1   3  11   19.30    2.40
   4  -3 -11   17.40    2.40
   4  -3 -11   17.00    2.40
  -3   4 -11   24.90    2.80
   1  -4  11   21.50    2.60
   3  -4 -11   21.90    2.30
   1   3 -11   22.10    3.00
  -1  -3 -11   23.10    2.30
   3  -4 -11   22.10    2.50
   4  -1 -11   19.80    2.50
   4  -1 -11   21.00    2.80
  -1  -3 -11   22.30    2.50
   1  -4  11   17.80    2.70
   1   3 -11   19.40    2.50
   3  -4 -11   22.30    2.40
  -4   1 -11   22.40    2.60
   3  -4 -11   17.70    2.40
   4  -1 -11   17.80    2.40
  -1  -3 -11   18.20    2.30
  -1   4  11   17.70    2.20
   3   1  11   20.70    2.40
  -4   1 -11   18.90    2.60
  -3   4 -11   18.90    3.20
  -1  -3 -11   20.80    2.30
   4  -1 -11   17.00    2.50
  -4   1 -11   18.20    2.40
  -4   1 -11   14.70    2.40
   3   1  11   23.60    2.50
  -1   4  11   20.40    2.40
  -4   3  11   22.30    2.50
  -4   3  11   14.10    2.30
   0   4  11   43.00    4.70
   4  -4 -11   51.49    5.00
   0   4 -11   44.00    4.90
   0   4 -11   45.60    4.90
   0   4 -11   42.50    4.60
  -4   4 -11   44.40    4.90
   4  -4 -11   60.79    4.90
  -4   4 -11   44.50    4.80
   0  -4  11   45.60    4.90
   0  -4 -11   48.20    4.70
   4   0 -11   45.20    5.00
   4  -4 -11   44.30    4.70
   4   0 -11   38.80    4.70
  -4   4 -11   51.79    5.10
  -4   0  11   38.50    4.80
  -4   4  11   42.50    4.70
   4  -4  11   44.40    5.10
   4  -4 -11   42.20    4.70
   0  -4 -11   39.30    4.60
  -4   0 -11   47.80    4.70
  -4   0 -11   42.00    4.90
   0  -4 -11   43.50    4.50
   0  -4 -11   39.30    4.60
   0   4  11   42.60    4.70
   4   0 -11   48.50    5.00
   4   0 -11   44.40    4.70
  -4   4  11   42.40    4.80
   0  -4  11   51.89    5.10
  -4   4 -11   50.19    4.80
  -4   0 -11   50.89    4.80
  -4   0  11   45.80    4.90
   0   4 -11   47.80    5.10
   4  -4  11   42.20    4.90
   5  -3 -11   35.20    3.70
   3   2 -11   35.40    4.10
   3   2 -11   30.30    4.20
   3   2 -11   32.00    3.60
  -5   2  11   32.50    3.90
   5  -2  11   27.60    3.70
  -2   5 -11   32.00    3.60
   3  -5  11   32.60    3.90
   5  -3 -11   31.10    3.70
  -2   5 -11   33.00    3.90
  -5   3 -11   32.90    3.70
   5  -3 -11   37.80    4.00
  -2  -3  11   40.50    3.90
  -5   3 -11   32.90    3.50
  -5   3 -11   30.60    3.70
  -5   2  11   29.90    3.70
   2  -5 -11   36.20    3.70
  -2   5 -11   35.70    4.10
   5  -2  11   28.40    3.80
   3  -5  11   27.30    4.10
   3   2 -11   29.80    3.80
  -3   5  11   31.80    3.70
   2  -5 -11   31.50    3.50
  -3   5  11   33.50    3.80
  -2   5 -11   23.50    3.70
  -2  -3  11   30.50    3.90
  -5   3 -11   28.20    3.80
   2  -5 -11   31.90    3.60
   2  -5 -11   29.70    3.60
  -3  -2 -11   36.10    3.60
   3  -5 -11   27.80    3.40
  -3  -2  11   32.40    3.80
  -5   3  11   32.70    3.70
   3  -5 -11   35.50    3.60
  -3   5 -11   29.30    3.80
   5  -2 -11   32.30    3.80
   5  -2 -11   30.20    3.80
  -3   5 -11   28.40    4.10
   2   3 -11   32.50    4.00
  -2   5  11   33.80    3.70
  -3   5 -11   30.60    3.60
  -5   2 -11   28.80    3.50
   5  -2 -11   31.90    3.60
  -5   2 -11   30.00    3.70
  -3   5 -11   22.80    3.60
   5  -2 -11   32.50    3.60
   2   3 -11   38.60    4.10
   2   3 -11   32.10    3.70
   2   3 -11   36.10    3.60
  -5   2 -11   33.70    3.90
  -5   2 -11   33.80    3.80
  -5   3  11   27.30    3.60
  -2  -3 -11   40.30    3.80
   2  -5  11   33.80    3.90
   3  -5 -11   37.50    4.10
   3  -5 -11   30.70    3.70
  -2   5  11   30.30    3.60
   2  -5  11   35.20    4.00
  -3  -2  11   26.80    4.00
   5  -3  11   37.00    3.90
  -4  -1 -11    0.90    0.70
  -4  -1 -11    0.70    0.80
   5  -1  11    0.50    0.60
  -4   5  11    0.80    0.70
   4   1 -11    1.30    0.90
   5  -4 -11    0.80    0.70
   4   1 -11    1.20    0.80
   5  -4 -11    1.40    0.90
  -1   5 -11    0.20    0.70
  -5   4 -11    0.10    0.80
   4   1 -11    0.90    0.80
  -5   4 -11    0.40    0.70
  -5   4 -11    0.90    0.80
   4   1 -11    1.00    0.60
  -4  -1 -11    0.00    0.70
   4  -5  11    1.40    0.90
  -1  -4  11    0.50    0.80
   5  -1  11    0.50    0.80
  -1  -4  11    0.90    1.00
   4  -5  11    0.50    0.90
  -5   1  11    0.90    0.80
   5  -4 -11    0.40    0.60
  -1   5 -11    0.30    0.80
   1  -5 -11    0.90    0.70
  -1   5 -11   -0.10    0.70
   5  -4 -11    0.40    0.80
  -1   5 -11    0.90    0.60
  -5   4 -11    1.30    1.00
  -5   1  11    0.80    0.70
  -4  -1 -11    0.40    0.60
   1   4 -11    0.50    0.90
   5  -1 -11    1.40    0.90
  -4  -1  11    0.70    0.70
   1   4 -11    1.20    1.10
  -4  -1  11    1.00    0.80
   1   4 -11    0.20    0.70
   4   1  11    1.70    0.90
  -5   1 -11    0.40    0.60
  -4   5 -11    1.00    0.70
  -4   5 -11    0.40    0.70
  -1  -4 -11    1.40    0.80
   5  -4  11    0.70    0.70
  -5   1 -11    0.80    0.80
  -5   1 -11    0.90    0.70
   5  -4  11    0.40    0.80
  -5   4  11    0.90    0.70
   1  -5  11    0.70    0.80
   5  -1 -11    1.10    0.90
   4  -5 -11    0.70    0.80
   4  -5 -11    0.80    0.70
   5  -1 -11    1.00    0.90
  -4   5 -11    0.50    0.80
   1   4 -11    0.50    0.70
   1  -5  11    0.60    0.70
   4  -5 -11    1.80    0.80
  -5   4  11    0.80    0.70
  -5   1 -11    1.50    0.90
   5  -1 -11    1.40    0.80
   4   1  11    1.10    0.90
  -4   5 -11    1.30    0.90
  -1   1 -12  235.38   20.10
   0   1 -12  228.68   20.10
   0   1 -12  216.08   20.10
   1   1 -12  133.29   11.80
  -1  -1  12  134.89   11.60
  -1  -1 -12  132.59   11.60
  -1   2 -12  128.89   11.80
  -1   2 -12  138.39   11.80
   1   1 -12  131.69   11.60
  -2   1 -12  122.19   11.80
   1  -2  12  135.59   11.70
  -1   2 -12  126.59   11.70
  -1  -1  12  131.19   11.60
  -2   1 -12  130.39   11.70
   1  -2  12  131.99   11.70
   2  -1 -12  128.19   11.70
   1   1 -12  132.89   11.80
   2  -1 -12  124.79   11.70
   1   1 -12  121.19   11.60
  -1   2 -12  128.49   11.70
   2   0 -12   72.89    6.20
   0  -2  12   68.59    6.20
   2  -2 -12   67.59    6.00
   2   0 -12   68.49    6.10
   2   0 -12   63.19    5.90
   0   2 -12   58.99    6.20
   0   2 -12   65.19    6.10
   2   0 -12   64.49    5.90
  -2   2 -12   66.99    6.10
  -2   2 -12   63.29    6.10
   2  -2  12   63.59    6.10
  -2   2 -12   63.29    6.00
   0   2 -12   67.89    6.20
   0  -2 -12   63.59    5.90
   2  -2  12   60.79    6.00
  -2   0 -12   65.19    6.00
   2  -2 -12   62.99    5.90
   0   2 -12   71.79    6.20
   0  -2  12   62.89    6.10
  -2   0  12   64.39    5.90
  -2   0  12   63.79    5.90
  -2   2 -12   65.89    6.20
  -2   0 -12   65.89    6.10
   1  -3 -12   92.49    8.70
   3  -2 -12  101.89    8.90
   2   1 -12   94.49    9.00
   2   1 -12  100.09    8.90
  -1   3 -12   92.69    9.00
  -3   1  12   97.59    8.80
  -3   2 -12  114.89    9.20
  -3   2 -12   93.99    9.00
   3  -2 -12   80.49    8.80
  -3   2 -12   85.49    8.80
   3  -1  12  111.99    9.00
  -1  -2  12  104.59    9.00
  -3   1  12   95.49    8.80
   3  -2 -12   99.69    8.70
   2   1 -12  101.19    9.10
  -2  -1 -12   97.39    8.80
   2  -3  12   95.09    9.00
  -1   3 -12   90.59    8.90
  -1   3 -12   94.49    9.10
   2  -3  12   96.19    9.00
   3  -2 -12  104.79    8.90
   1  -3 -12  106.19    8.80
  -1  -2  12   88.29    9.00
  -1   3 -12   83.89    8.90
   3  -1  12   96.39    8.80
   2   1 -12   90.39    9.00
  -2   3 -12   85.49    9.00
   1  -3  12  104.79    9.10
   1   2 -12   90.99    8.90
  -2  -1  12  115.79    9.20
  -1  -2 -12   87.59    8.70
   2  -3 -12   92.79    8.70
  -3   2  12   92.79    8.70
   3  -1 -12   99.09    8.90
   3  -1 -12   89.69    8.80
   3  -1 -12   98.09    8.90
   1   2 -12   94.29    9.10
  -2   3 -12   87.89    8.90
  -2   3 -12  106.59    9.10
   2  -3 -12  100.19    8.80
   3  -2  12  102.29    9.10
  -3   1 -12   98.59    8.90
  -3   2  12   93.59    8.70
   2   1  12   94.09    8.60
   1  -3  12  100.69    9.00
  -2   3 -12  101.69    9.00
   1   2 -12   85.49    8.90
   1   2 -12   92.69    9.10
   3  -2  12   84.59    8.90
  -1  -2 -12   94.39    8.80
   2   1  12   87.99    8.60
  -3   1 -12   90.69    8.90
  -3   1 -12   99.69    8.80
  -2  -1  12   86.79    8.90
   3   0 -12   44.40    4.80
  -3   3 -12   42.50    4.70
   3   0 -12   44.70    4.70
   0  -3 -12   45.80    4.60
  -3   0  12   47.60    4.70
   3  -3  12   44.80    4.80
  -3   3 -12   48.80    4.80
   0  -3  12   45.40    4.80
  -3   3 -12   49.50    4.90
   0   3 -12   52.29    4.90
  -3   0 -12   48.00    4.70
   0  -3  12   52.89    5.00
   3   0  12   49.60    4.70
  -3   3 -12   48.60    4.90
   0   3 -12   41.50    4.70
  -3   0  12   49.70    4.80
   3   0 -12   46.30    4.70
   3   0 -12   45.40    4.70
   0   3 -12   43.60    4.90
   3  -3  12   44.00    4.80
   0   3 -12   46.80    4.90
   3   0  12   47.30    4.60
  -4   2 -12  906.61   87.49
   4  -2  12  991.30   87.49
  -4   2 -12  884.01   87.29
   2  -4 -12  979.40   87.29
  -2   4 -12  938.31   87.39
   4  -2  12 1008.10   87.59
  -4   2 -12 1064.09   87.49
  -2  -2 -12 1060.29   87.29
  -4   2  12  887.81   87.39
   2   2 -12 1107.19   87.49
  -2  -2  12  884.61   87.49
  -4   2 -12  989.70   87.49
   4  -2 -12  962.70   87.39
  -4   2  12 1093.09   87.49
  -2  -2  12 1058.59   87.59
   2   2 -12  990.20   87.69
   0   0   0    0.00    0.00

_computing_structure_solution     'SHELXT 2014/5 (Sheldrick, 2014)'
;
_shelx_hkl_checksum              5461
loop_
_space_group_symop_operation_xyz
'x, y, z'
'-y, x-y, z'
'-x+y, -x, z'
'-x, -y, z+1/2'
'y, -x+y, z+1/2'
'x-y, x, z+1/2'
'y, x, -z'
'x-y, -y, -z'
'-x, -x+y, -z'
'-y, -x, -z+1/2'
'-x+y, y, -z+1/2'
'x, x-y, -z+1/2'
'-x, -y, -z'
'y, -x+y, -z'
'x-y, x, -z'
'x, y, -z-1/2'
'-y, x-y, -z-1/2'
'-x+y, -x, -z-1/2'
'-y, -x, z'
'-x+y, y, z'
'x, x-y, z'
'y, x, z-1/2'
'x-y, -y, z-1/2'
'-x, -x+y, z-1/2'
loop_
_atom_site_label
_atom_site_type_symbol
_atom_site_fract_x
_atom_site_fract_y
_atom_site_fract_z
_atom_site_U_iso_or_equiv
_atom_site_adp_type
_atom_site_occupancy
_atom_site_site_symmetry_order
_atom_site_calc_flag
_atom_site_refinement_flags_posn
_atom_site_refinement_flags_adp
_atom_site_refinement_flags_occupancy
_atom_site_disorder_assembly
_atom_site_disorder_group
Br1 Br 0.666667 0.333333 0.750000 0.01660(14) Uani 1 12 d S T P . .
Cu1 Cu 0.500000 0.000000 0.500000 0.01280(13) Uani 1 4 d S T P . .
Cu2 Cu 0.62949(6) 0.25898(13) 0.250000 0.01062(17) Uani 0.3333 4 d S T P A 2
O1 O 0.79793(8) 0.20207(8) 0.40803(9) 0.0115(2) Uani 1 2 d DS T P A .
F1 F 1.000000 0.000000 0.750000 0.0210(5) Uani 1 12 d S T P . .
D1 D 0.8632(16) 0.1368(16) 0.373(2) 0.031 Uiso 1 2 d DRS T P . .
loop_
_atom_site_aniso_label
_atom_site_aniso_U_11
_atom_site_aniso_U_22
_atom_site_aniso_U_33
_atom_site_aniso_U_23
_atom_site_aniso_U_13
_atom_site_aniso_U_12
Br1 0.01839(16) 0.01839(16) 0.01300(19) 0.000 0.000 0.00920(8)
Cu1 0.00957(15) 0.00886(17) 0.01974(19) 0.00366(7) 0.00183(4) 0.00443(8)
Cu2 0.0100(2) 0.0157(3) 0.0081(3) 0.000 0.000 0.00786(17)
O1 0.0098(3) 0.0098(3) 0.0148(4) -0.00087(16) 0.00087(16) 0.0048(3)
F1 0.0167(7) 0.0167(7) 0.0295(13) 0.000 0.000 0.0083(3)
loop_
_atom_type_symbol
_atom_type_description
_atom_type_scat_dispersion_real
_atom_type_scat_dispersion_imag
_atom_type_scat_source
Br Br 0.2860 0.9640 'International Tables Vol C Tables 4.2.6.8 and 6.1.1.4'
Cu Cu 0.2470 0.4710 'International Tables Vol C Tables 4.2.6.8 and 6.1.1.4'
D D 0.0000 0.0000 'International Tables Vol C Tables 4.2.6.8 and 6.1.1.4'
F F 0.0040 0.0030 'International Tables Vol C Tables 4.2.6.8 and 6.1.1.4'
O O 0.0020 0.0020 'International Tables Vol C Tables 4.2.6.8 and 6.1.1.4'
loop_
_geom_angle_atom_site_label_1
_geom_angle_atom_site_label_2
_geom_angle_atom_site_label_3
_geom_angle
_geom_angle_site_symmetry_1
_geom_angle_site_symmetry_3
Cu2 Cu1 Cu2 180.0 13_656 .
O1 Cu1 Cu2 133.71(3) 15_546 .
O1 Cu1 Cu2 46.29(3) . .
O1 Cu1 Cu2 133.71(3) 13_656 .
O1 Cu1 Cu2 46.29(3) 3_665 .
O1 Cu1 Cu2 133.71(3) . 13_656
O1 Cu1 Cu2 46.28(3) 15_546 13_656
O1 Cu1 Cu2 46.29(3) 13_656 13_656
O1 Cu1 Cu2 133.72(3) 3_665 13_656
O1 Cu1 O1 84.49(6) 13_656 15_546
O1 Cu1 O1 180.00(4) 15_546 3_665
O1 Cu1 O1 84.49(6) . 3_665
O1 Cu1 O1 95.51(6) . 15_546
O1 Cu1 O1 180.0 . 13_656
O1 Cu1 O1 95.51(6) 13_656 3_665
Cu1 Cu2 Cu1 114.39(3) 4_654 .
Cu2 Cu2 Cu1 117.982(10) 3_665 .
Cu2 Cu2 Cu1 117.983(10) 2_655 .
Cu2 Cu2 O1 46.250(17) 3_665 2_655
Cu2 Cu2 O1 46.248(17) 2_655 2_655
Cu2 Cu2 O1 46.250(17) 3_665 17_656
Cu2 Cu2 O1 79.262(19) 2_655 .
Cu2 Cu2 O1 118.13(3) 2_655 3_665
Cu2 Cu2 O1 118.14(3) 3_665 .
Cu2 Cu2 O1 46.248(17) 2_655 17_656
Cu2 Cu2 O1 118.13(3) 2_655 18_666
Cu2 Cu2 O1 79.260(19) 3_665 3_665
Cu2 Cu2 O1 79.260(19) 3_665 18_666
O1 Cu2 Cu1 45.016(15) 16_556 4_654
O1 Cu2 Cu1 121.90(3) 18_666 .
O1 Cu2 Cu1 159.82(3) 17_656 .
O1 Cu2 Cu1 85.79(2) 2_655 .
O1 Cu2 Cu1 45.016(15) 18_666 4_654
O1 Cu2 Cu1 45.016(15) 3_665 .
O1 Cu2 Cu1 121.90(3) 3_665 4_654
O1 Cu2 Cu1 121.90(3) 16_556 .
O1 Cu2 Cu1 121.90(3) . 4_654
O1 Cu2 Cu1 85.79(2) 17_656 4_654
O1 Cu2 Cu1 45.016(15) . .
O1 Cu2 Cu1 159.82(3) 2_655 4_654
O1 Cu2 O1 82.28(4) 18_666 16_556
O1 Cu2 O1 94.60(5) 16_556 .
O1 Cu2 O1 71.89(4) 3_665 2_655
O1 Cu2 O1 161.04(5) 18_666 .
O1 Cu2 O1 71.89(4) 16_556 17_656
O1 Cu2 O1 125.02(3) 3_665 17_656
O1 Cu2 O1 161.04(5) 16_556 3_665
O1 Cu2 O1 82.28(4) 3_665 .
O1 Cu2 O1 125.02(3) 18_666 2_655
O1 Cu2 O1 74.02(5) 2_655 17_656
O1 Cu2 O1 125.02(3) . 17_656
O1 Cu2 O1 94.60(5) 18_666 3_665
O1 Cu2 O1 71.89(4) 18_666 17_656
O1 Cu2 O1 71.89(4) . 2_655
O1 Cu2 O1 125.02(3) 16_556 2_655
Cu1 O1 Cu1 117.21(4) 2_655 .
Cu1 O1 Cu2 88.70(3) . .
Cu1 O1 Cu2 92.11(3) 2_655 3_665
Cu1 O1 Cu2 107.18(4) . 2_655
Cu1 O1 Cu2 88.70(3) 2_655 2_655
Cu1 O1 Cu2 92.11(3) . 3_665
Cu1 O1 Cu2 107.18(4) 2_655 .
Cu2 O1 Cu2 21.48(4) . 2_655
loop_
_geom_bond_atom_site_label_1
_geom_bond_atom_site_label_2
_geom_bond_distance
_geom_bond_site_symmetry_2
Cu1 Cu2 2.7617(4) .
Cu1 Cu2 2.7617(4) 13_656
Cu1 O1 1.9539(5) 3_665
Cu1 O1 1.9539(5) 15_546
Cu1 O1 1.9538(5) .
Cu1 O1 1.9539(5) 13_656
Cu2 Cu2 0.7441(13) 2_655
Cu2 Cu2 0.7441(13) 3_665
Cu2 O1 1.9966(9) 18_666
Cu2 O1 2.4375(11) 17_656
Cu2 O1 1.9966(9) 16_556
Cu2 O1 2.4375(11) 2_655
Cu2 O1 1.9966(9) 3_665
Cu2 O1 1.9966(9) .
