#------------------------------------------------------------------------------
#$Date: 2021-02-25 12:23:49 +0200 (Thu, 25 Feb 2021) $
#$Revision: 262230 $
#$URL: file:///home/coder/svn-repositories/cod/cif/1/56/06/1560655.cif $
#------------------------------------------------------------------------------
#
# This file is available in the Crystallography Open Database (COD),
# http://www.crystallography.net/
#
# All data on this site have been placed in the public domain by the
# contributors.
#
data_1560655
loop_
_publ_author_name
'L\"u, Minfeng'
'Jo, Hongil'
'Oh, Seung-Jin'
'Ok, Kang Min'
_publ_section_title
;
 Variable dimensionality and framework found in a series of quaternary
 zinc selenites, A 2 Zn 3 (SeO 3 ) 4 &#x00B7; x H 2 O (A = Na, Rb, and Cs;
 0&#x2264; x &#x2264;1) and Cs 2 Zn 2 (SeO 3 ) 3 &#x00B7;2H 2 O
;
_journal_name_full               'Journal of Solid State Chemistry'
_journal_page_first              1
_journal_page_last               9
_journal_paper_doi               10.1016/j.jssc.2016.09.031
_journal_volume                  245
_journal_year                    2017
_chemical_absolute_configuration .
_chemical_formula_sum            'Cs2 H4 O11 Se3 Zn2'
_chemical_formula_weight         813.5
_space_group_IT_number           2
_space_group_name_Hall           '-P 1'
_space_group_name_H-M_alt        'P -1'
_symmetry_cell_setting           triclinic
_symmetry_Int_Tables_number      2
_symmetry_space_group_name_Hall  '-P 1'
_symmetry_space_group_name_H-M   'P -1'
_cell_angle_alpha                77.0869(19)
_cell_angle_beta                 72.8487(18)
_cell_angle_gamma                88.320(2)
_cell_formula_units_Z            2
_cell_length_a                   7.5093(3)
_cell_length_b                   9.7918(4)
_cell_length_c                   9.9128(4)
_cell_measurement_reflns_used    1956
_cell_measurement_temperature    293
_cell_measurement_theta_max      25.26
_cell_measurement_theta_min      2.841
_cell_volume                     678.33(5)
_diffrn_ambient_temperature      293
_diffrn_measured_fraction_theta_full 0.99
_diffrn_measured_fraction_theta_max 0.99
_diffrn_measurement_device       CCD
_diffrn_measurement_device_type  'Bruker SMART BREEZE'
_diffrn_radiation_monochromator  graphite
_diffrn_radiation_probe          x-ray
_diffrn_radiation_source         'X-ray tube'
_diffrn_radiation_type           'Mo K\a'
_diffrn_radiation_wavelength     0.71073
_diffrn_reflns_av_R_equivalents  0.0492
_diffrn_reflns_av_unetI/netI     0.0602
_diffrn_reflns_limit_h_max       9
_diffrn_reflns_limit_h_min       -9
_diffrn_reflns_limit_k_max       12
_diffrn_reflns_limit_k_min       -12
_diffrn_reflns_limit_l_max       13
_diffrn_reflns_limit_l_min       -13
_diffrn_reflns_number            10345
_diffrn_reflns_theta_full        28.22
_diffrn_reflns_theta_max         28.22
_diffrn_reflns_theta_min         2.14
_exptl_absorpt_coefficient_mu    16.915
_exptl_absorpt_correction_T_max  0.7457
_exptl_absorpt_correction_T_min  0.4825
_exptl_absorpt_correction_type   multi-scan
_exptl_absorpt_process_details   Bruker
_exptl_crystal_colour            colorless
_exptl_crystal_density_diffrn    3.9827
_exptl_crystal_description       transparent
_exptl_crystal_F_000             728
_exptl_crystal_size_max          0.083
_exptl_crystal_size_mid          0.065
_exptl_crystal_size_min          0.032
_refine_diff_density_max         0.94
_refine_diff_density_min         -1.08
_refine_ls_extinction_method     none
_refine_ls_goodness_of_fit_gt    1.29
_refine_ls_goodness_of_fit_ref   1.13
_refine_ls_hydrogen_treatment    constr
_refine_ls_number_constraints    16
_refine_ls_number_parameters     108
_refine_ls_number_reflns         3293
_refine_ls_number_restraints     0
_refine_ls_R_factor_all          0.0698
_refine_ls_R_factor_gt           0.0359
_refine_ls_shift/su_max          0.0361
_refine_ls_shift/su_mean         0.0026
_refine_ls_structure_factor_coef F
_refine_ls_weighting_details     w=1/(\s^2^(F)+0.0001F^2^)
_refine_ls_weighting_scheme      sigma
_refine_ls_wR_factor_gt          0.0334
_refine_ls_wR_factor_ref         0.0368
_reflns_number_gt                2122
_reflns_number_total             3293
_reflns_threshold_expression     I>3\s(I)
_cod_data_source_file            JSSC-2017-245-1.cif
_cod_data_source_block           Cs2Zn2Se3O11H4
_cod_depositor_comments
;
The following automatic conversions were performed:

data item '_diffrn_radiation_probe' value 'X-ray' was changed to
'x-ray' in accordance with the built-in table derived from the CIF
Core dictionary named 'cif_core.dic' version 2.4.5 last updated on
2014-11-21.

Automatic conversion script
Id: cif_fix_values 8369 2020-08-20 11:38:08Z andrius 
;
_cod_database_code               1560655
loop_
_space_group_symop_id
_space_group_symop_operation_xyz
1 x,y,z
2 -x,-y,-z
loop_
_atom_site_label
_atom_site_type_symbol
_atom_site_fract_x
_atom_site_fract_y
_atom_site_fract_z
_atom_site_adp_type
_atom_site_U_iso_or_equiv
_atom_site_site_symmetry_multiplicity
_atom_site_occupancy
_atom_site_calc_flag
_atom_site_refinement_flags
_atom_site_disorder_assembly
_atom_site_disorder_group
Cs1 Cs 0.87910(7) 0.25146(5) 0.45900(5) Uani 0.02663(19) 2 1 d . . .
Cs2 Cs 0.12610(7) 0.72061(6) 0.00990(5) Uani 0.0293(2) 2 1 d . . .
Se1 Se 0.47923(11) 0.50101(8) 0.31273(8) Uani 0.0206(3) 2 1 d . . .
Se2 Se 0.76267(10) -0.09313(8) 0.31709(7) Uani 0.0180(3) 2 1 d . . .
Se3 Se 0.23577(10) 0.05675(8) 0.19153(7) Uani 0.0181(3) 2 1 d . . .
Zn1 Zn 0.51948(12) -0.17672(9) 0.13018(8) Uani 0.0206(3) 2 1 d . . .
Zn2 Zn 0.47879(12) 0.16769(9) 0.35305(9) Uani 0.0219(3) 2 1 d . . .
O1 O 0.7200(7) 0.0795(5) 0.3000(5) Uiso 0.0247(12) 2 1 d . . .
O2 O 0.5532(7) -0.1230(5) -0.0825(5) Uiso 0.0227(12) 2 1 d . . .
O3 O 0.4374(7) 0.1706(5) 0.5633(5) Uiso 0.0258(12) 2 1 d . . .
O4 O 0.7495(7) -0.1240(5) 0.1597(5) Uiso 0.0222(12) 2 1 d . . .
O5 O 0.2678(7) -0.1185(5) 0.2141(5) Uiso 0.0243(12) 2 1 d . . .
O6 O 0.2436(7) 0.0874(5) 0.3517(5) Uiso 0.0217(11) 2 1 d . . .
O7 O 0.5025(7) -0.3813(5) 0.1526(5) Uiso 0.0277(13) 2 1 d . . .
O8 O 0.5704(7) 0.3594(6) 0.2533(5) Uiso 0.0346(14) 2 1 d . . .
O9 O 0.2516(8) 0.4604(6) 0.3694(6) Uiso 0.0418(15) 2 1 d . . .
O10 O 0.0689(8) 0.4051(6) 0.6622(6) Uiso 0.0426(15) 2 1 d . . .
O11 O 0.8091(7) -0.3911(6) -0.1031(5) Uiso 0.0389(15) 2 1 d . . .
H1 H -0.037659 0.448707 0.659343 Uiso 0.038 2 1 d . . .
H2 H 0.163273 0.475039 0.677389 Uiso 0.038 2 1 d . . .
H3 H 0.758666 -0.325431 -0.143729 Uiso 0.038 2 1 d . . .
H4 H 0.771955 -0.464438 -0.017105 Uiso 0.038 2 1 d . . .
loop_
_atom_site_aniso_label
_atom_site_aniso_type_symbol
_atom_site_aniso_U_11
_atom_site_aniso_U_22
_atom_site_aniso_U_33
_atom_site_aniso_U_12
_atom_site_aniso_U_13
_atom_site_aniso_U_23
Cs1 Cs 0.0258(3) 0.0260(3) 0.0286(3) -0.0002(2) -0.0070(2) -0.0086(2)
Cs2 Cs 0.0310(3) 0.0316(3) 0.0235(3) 0.0012(2) -0.0054(2) -0.0062(2)
Se1 Se 0.0245(4) 0.0170(4) 0.0188(4) 0.0019(3) -0.0050(3) -0.0030(3)
Se2 Se 0.0163(4) 0.0178(4) 0.0203(4) 0.0028(3) -0.0063(3) -0.0043(3)
Se3 Se 0.0156(4) 0.0185(4) 0.0203(4) 0.0025(3) -0.0059(3) -0.0042(3)
Zn1 Zn 0.0214(5) 0.0175(5) 0.0202(4) -0.0003(4) -0.0039(4) -0.0018(4)
Zn2 Zn 0.0196(5) 0.0196(5) 0.0233(5) -0.0004(4) -0.0038(4) -0.0018(4)
loop_
_atom_type_symbol
_atom_type_scat_dispersion_real
_atom_type_scat_dispersion_imag
_atom_type_scat_source
Cs -0.3680 2.1192 'International Tables Vol C tables 4.2.6.8 and 6.1.1.1'
H 0.0000 0.0000 'International Tables Vol C tables 4.2.6.8 and 6.1.1.1'
O 0.0106 0.0060 'International Tables Vol C tables 4.2.6.8 and 6.1.1.1'
Se -0.0929 2.2259 'International Tables Vol C tables 4.2.6.8 and 6.1.1.1'
Zn 0.2839 1.4301 'International Tables Vol C tables 4.2.6.8 and 6.1.1.1'
loop_
_geom_angle_atom_site_label_1
_geom_angle_atom_site_label_2
_geom_angle_atom_site_label_3
_geom_angle_site_symmetry_1
_geom_angle_site_symmetry_2
_geom_angle_site_symmetry_3
_geom_angle
O1 Cs1 O5 . . 2_656 108.03(13)
O1 Cs1 O6 . . 1_655 83.39(14)
O5 Cs1 O6 2_656 . 1_655 103.77(12)
O1 Cs2 O8 2_665 . 2_665 55.26(13)
O1 Cs2 O10 2_665 . 2_566 165.05(15)
O8 Cs2 O10 2_665 . 2_566 139.24(15)
O7 Se1 O8 1_565 . . 100.8(2)
O7 Se1 O9 1_565 . . 102.1(3)
O8 Se1 O9 . . . 102.4(3)
O1 Se2 O3 . . 2_656 102.7(2)
O1 Se2 O4 . . . 103.0(2)
O3 Se2 O4 2_656 . . 102.5(2)
O2 Se3 O5 2_655 . . 101.6(2)
O2 Se3 O6 2_655 . . 100.7(2)
O5 Se3 O6 . . . 102.5(2)
O2 Zn1 O4 . . . 107.11(19)
O2 Zn1 O5 . . . 103.2(2)
O2 Zn1 O7 . . . 97.4(2)
O4 Zn1 O5 . . . 128.1(2)
O4 Zn1 O7 . . . 109.9(2)
O5 Zn1 O7 . . . 106.7(2)
O1 Zn2 O3 . . . 103.4(2)
O1 Zn2 O6 . . . 124.0(2)
O1 Zn2 O8 . . . 96.5(2)
O3 Zn2 O6 . . . 103.83(19)
O3 Zn2 O8 . . . 102.5(2)
O6 Zn2 O8 . . . 123.4(2)
loop_
_geom_bond_atom_site_label_1
_geom_bond_atom_site_label_2
_geom_bond_site_symmetry_1
_geom_bond_site_symmetry_2
_geom_bond_distance
Cs1 O1 . . 3.027(6)
Cs1 O5 . 2_656 3.083(4)
Cs1 O6 . 1_655 3.161(5)
Cs2 O1 . 2_665 3.155(4)
Cs2 O8 . 2_665 3.149(5)
Cs2 O10 . 2_566 3.120(5)
Se1 O7 . 1_565 1.705(5)
Se1 O8 . . 1.677(6)
Se1 O9 . . 1.664(6)
Se2 O1 . . 1.691(5)
Se2 O3 . 2_656 1.689(4)
Se2 O4 . . 1.685(5)
Se3 O2 . 2_655 1.684(4)
Se3 O5 . . 1.699(5)
Se3 O6 . . 1.698(5)
Zn1 O2 . . 1.996(5)
Zn1 O4 . . 1.937(5)
Zn1 O5 . . 1.952(5)
Zn1 O7 . . 1.970(5)
Zn2 O1 . . 1.963(5)
Zn2 O3 . . 2.021(5)
Zn2 O6 . . 1.959(5)
Zn2 O8 . . 1.954(5)
loop_
_refln_index_h
_refln_index_k
_refln_index_l
_refln_F_squared_calc
_refln_F_squared_meas
_refln_F_squared_sigma
_refln_observed_status
1 0 0 3578.10 3913.80 53.13 o
2 0 0 368.26 336.48 35.42 o
3 0 0 79244.10 77479.00 867.77 o
4 0 0 9530.44 9474.58 159.38 o
5 0 0 17090.60 17107.40 283.35 o
6 0 0 603.85 814.64 106.26 o
7 0 0 363.22 247.93 106.26 <
8 0 0 13152.40 13707.10 478.16 o
9 0 0 1574.58 1576.14 283.35 o
-9 1 0 873.58 885.47 265.64 o
-8 1 0 89.62 -35.42 123.97 <
-7 1 0 1671.98 1558.44 177.10 o
-6 1 0 64.43 177.10 88.55 <
-5 1 0 32089.80 31717.70 460.45 o
-4 1 0 807.22 761.51 53.13 o
-3 1 0 12740.50 12697.70 159.38 o
-2 1 0 101512.00 98393.90 974.02 o
-1 1 0 3588.42 3683.57 106.26 o
0 1 0 7495.11 7650.50 194.80 o
1 1 0 1241.00 1310.50 70.84 o
2 1 0 2366.97 2514.75 70.84 o
3 1 0 16251.50 15850.00 212.51 o
4 1 0 23424.30 23783.80 318.77 o
5 1 0 12063.10 12113.30 230.22 o
6 1 0 16871.50 16611.50 389.61 o
7 1 0 6457.37 6605.64 247.93 o
8 1 0 3941.26 4391.95 354.19 o
9 1 0 172.38 177.10 194.80 <
-9 2 0 896.47 974.02 212.51 o
-8 2 0 5660.94 4710.73 318.77 o
-7 2 0 6212.61 6251.45 336.48 o
-6 2 0 3120.22 3187.71 177.10 o
-5 2 0 28694.20 27237.20 531.28 o
-4 2 0 9845.87 9492.29 212.51 o
-3 2 0 6767.26 6942.12 123.97 o
-2 2 0 9292.89 9474.58 194.80 o
-1 2 0 102.39 88.55 35.42 <
0 2 0 7788.69 8057.82 230.22 o
1 2 0 51803.00 51446.10 1080.28 o
2 2 0 7233.84 7880.72 141.68 o
3 2 0 8394.90 8376.59 141.68 o
4 2 0 62219.20 62638.50 743.80 o
5 2 0 77.13 159.38 53.13 <
6 2 0 16.17 35.42 70.84 <
7 2 0 1800.80 1965.75 177.10 o
8 2 0 306.93 495.87 194.80 <
9 2 0 3969.17 3878.38 354.19 o
-9 3 0 4839.04 5100.33 371.90 o
-8 3 0 1609.29 1682.40 230.22 o
-7 3 0 2489.34 1983.46 212.51 o
-6 3 0 7316.44 7544.24 265.64 o
-5 3 0 4082.70 4409.66 194.80 o
-4 3 0 22673.20 21233.70 371.90 o
-3 3 0 7304.83 7119.22 141.68 o
-2 3 0 2321.18 2550.17 88.55 o
-1 3 0 178985.00 158907.00 2072.01 o
0 3 0 12436.90 11918.50 318.77 o
1 3 0 1621.14 1682.40 88.55 o
2 3 0 96061.40 93205.10 1576.14 o
3 3 0 5193.49 5100.33 141.68 o
4 3 0 9460.82 9403.74 194.80 o
5 3 0 2993.32 3258.55 141.68 o
6 3 0 172.05 177.10 88.55 <
7 3 0 15204.00 15442.70 442.74 o
8 3 0 494.65 442.74 230.22 <
9 3 0 437.75 460.45 265.64 <
-9 4 0 189.07 265.64 212.51 <
-8 4 0 1011.64 796.93 194.80 o
-7 4 0 212.93 123.97 123.97 <
-6 4 0 11748.50 10537.10 318.77 o
-5 4 0 1192.54 1168.83 123.97 o
-4 4 0 13055.60 12485.20 230.22 o
-3 4 0 39752.80 36640.90 619.83 o
-2 4 0 974.81 991.73 70.84 o
-1 4 0 13195.90 13264.40 230.22 o
0 4 0 2681.44 2054.30 106.26 o
1 4 0 7266.77 8004.69 212.51 o
2 4 0 2752.44 2922.07 141.68 o
3 4 0 3664.56 3984.64 141.68 o
4 4 0 16675.40 16841.70 301.06 o
5 4 0 10673.90 10661.10 265.64 o
6 4 0 3260.43 3329.38 230.22 o
7 4 0 6058.21 6570.22 336.48 o
8 4 0 1222.36 1221.95 301.06 o
-8 5 0 1100.12 974.02 212.51 o
-7 5 0 459.18 584.41 159.38 o
-6 5 0 18839.30 18577.30 548.99 o
-5 5 0 4016.05 4144.02 212.51 o
-4 5 0 13.28 53.13 70.84 <
-3 5 0 11387.00 11440.30 265.64 o
-2 5 0 161.07 194.80 53.13 o
-1 5 0 5605.42 5879.55 141.68 o
0 5 0 12323.60 12591.40 318.77 o
1 5 0 308.89 230.22 70.84 o
2 5 0 24718.10 24439.10 513.58 o
3 5 0 25163.00 25944.40 548.99 o
4 5 0 192.10 194.80 88.55 <
5 5 0 1806.10 1788.66 141.68 o
6 5 0 3148.04 3028.32 212.51 o
7 5 0 9.51 35.42 141.68 <
8 5 0 2018.95 1434.47 354.19 o
-8 6 0 1872.72 1115.70 230.22 o
-7 6 0 2335.18 2036.59 230.22 o
-6 6 0 3264.99 3364.80 265.64 o
-5 6 0 1730.73 1646.98 141.68 o
-4 6 0 5556.90 5737.88 194.80 o
-3 6 0 41.67 141.68 70.84 <
-2 6 0 51174.70 52437.80 761.51 o
-1 6 0 17024.40 16682.30 336.48 o
0 6 0 2495.49 2638.71 159.38 o
1 6 0 53788.60 53482.70 1221.95 o
2 6 0 10408.80 10147.50 301.06 o
3 6 0 2107.17 1965.75 141.68 o
4 6 0 7464.03 7066.09 247.93 o
5 6 0 103.29 88.55 106.26 <
6 6 0 9537.79 9386.03 336.48 o
7 6 0 332.88 318.77 177.10 <
8 6 0 485.73 318.77 318.77 <
-8 7 0 507.59 548.99 194.80 <
-7 7 0 1301.51 1416.76 230.22 o
-6 7 0 1943.44 1770.95 212.51 o
-5 7 0 1405.02 1523.02 159.38 o
-4 7 0 10991.00 11263.20 265.64 o
-3 7 0 3706.77 3931.51 141.68 o
-2 7 0 4831.49 4887.82 177.10 o
-1 7 0 9386.44 9368.32 283.35 o
0 7 0 358.95 513.58 106.26 o
1 7 0 92.97 35.42 88.55 <
2 7 0 106.42 88.55 88.55 <
3 7 0 4545.44 4515.92 230.22 o
4 7 0 4892.64 4816.98 247.93 o
5 7 0 217.35 194.80 141.68 <
6 7 0 6040.02 6446.26 301.06 o
7 7 0 1119.48 1097.99 247.93 o
-7 8 0 4513.87 4887.82 336.48 o
-6 8 0 154.94 177.10 141.68 <
-5 8 0 153.03 230.22 141.68 <
-4 8 0 4665.29 4746.14 194.80 o
-3 8 0 73.95 53.13 88.55 <
-2 8 0 756.11 814.64 123.97 o
-1 8 0 236.80 247.93 106.26 <
0 8 0 617.03 761.51 123.97 o
1 8 0 5901.29 5507.65 247.93 o
2 8 0 6339.80 6410.84 265.64 o
3 8 0 1094.21 1133.41 141.68 o
4 8 0 2418.00 2833.52 212.51 o
5 8 0 2749.64 2727.26 230.22 o
6 8 0 50.45 177.10 159.38 <
7 8 0 197.17 460.45 230.22 <
-6 9 0 140.44 17.71 194.80 <
-5 9 0 1664.35 1717.82 212.51 o
-4 9 0 190.81 159.38 123.97 <
-3 9 0 5976.30 6251.45 230.22 o
-2 9 0 8805.74 9014.13 318.77 o
-1 9 0 72.15 106.26 106.26 <
0 9 0 14013.50 14521.80 407.32 o
1 9 0 7860.72 7703.63 283.35 o
2 9 0 571.17 495.87 123.97 o
3 9 0 8994.74 8996.42 336.48 o
4 9 0 1071.54 938.60 177.10 o
5 9 0 2997.57 2337.65 318.77 o
6 9 0 1842.60 1700.11 318.77 o
-4 10 0 2973.15 2550.17 460.45 o
-3 10 0 630.09 850.06 212.51 o
-2 10 0 1932.14 2266.82 247.93 o
-1 10 0 1230.82 1345.92 230.22 o
0 10 0 5.15 194.80 177.10 <
1 10 0 851.41 920.89 212.51 o
2 10 0 435.62 743.80 212.51 o
3 10 0 583.15 1027.15 212.51 o
4 10 0 198.92 177.10 230.22 <
5 10 0 1788.72 2337.65 478.16 o
-4 11 0 11.73 212.51 389.61 <
-3 11 0 25.05 70.84 230.22 <
-2 11 0 221.58 141.68 212.51 <
-1 11 0 98.55 -159.38 177.10 <
0 11 0 1342.19 1275.08 247.93 o
1 11 0 64.27 -53.13 194.80 <
2 11 0 461.67 354.19 212.51 <
3 11 0 1062.48 938.60 407.32 <
-3 12 0 1803.30 1239.66 318.77 o
-2 12 0 142.06 212.51 230.22 <
-1 12 0 1993.51 2284.52 318.77 o
0 12 0 2894.42 2727.26 460.45 o
1 12 0 171.29 -194.80 318.77 <
0 -12 1 6210.17 5472.23 619.83 o
1 -12 1 80.02 106.26 354.19 <
2 -12 1 333.38 513.58 336.48 <
3 -12 1 569.16 495.87 460.45 <
-3 -11 1 539.01 566.70 389.61 <
-2 -11 1 5113.07 5011.79 407.32 o
-1 -11 1 5.87 53.13 194.80 <
0 -11 1 465.23 548.99 212.51 <
1 -11 1 48.46 -53.13 212.51 <
2 -11 1 11.34 -17.71 212.51 <
3 -11 1 1348.78 1363.63 265.64 o
-4 -10 1 1360.88 1505.31 301.06 o
-3 -10 1 17.95 159.38 194.80 <
-2 -10 1 12.64 106.26 177.10 <
-1 -10 1 611.33 531.28 194.80 <
0 -10 1 265.96 177.10 159.38 <
1 -10 1 4800.52 4940.95 354.19 o
2 -10 1 2556.82 2550.17 283.35 o
3 -10 1 2828.90 3435.64 318.77 o
4 -10 1 2912.19 2886.65 442.74 o
-5 -9 1 271.79 70.84 212.51 <
-4 -9 1 1672.76 2001.17 283.35 o
-3 -9 1 8.58 -17.71 141.68 <
-2 -9 1 243.04 478.16 177.10 <
-1 -9 1 10734.00 10537.10 460.45 o
0 -9 1 0.95 -177.10 123.97 <
1 -9 1 1529.07 1452.18 212.51 o
2 -9 1 4264.49 4374.24 318.77 o
3 -9 1 46.30 53.13 177.10 <
4 -9 1 2.96 -106.26 177.10 <
-6 -8 1 2665.97 2603.30 425.03 o
-5 -8 1 115.31 -17.71 212.51 <
-4 -8 1 1448.11 1275.08 230.22 o
-3 -8 1 6813.47 6410.84 371.90 o
-2 -8 1 774.55 867.77 194.80 o
-1 -8 1 1420.41 1080.28 194.80 o
0 -8 1 447.07 495.87 159.38 o
1 -8 1 7.29 106.26 141.68 <
2 -8 1 1680.03 1717.82 212.51 o
3 -8 1 2625.82 2461.62 230.22 o
4 -8 1 2424.51 2638.71 265.64 o
5 -8 1 4122.94 4108.60 371.90 o
6 -8 1 1220.61 1629.27 283.35 o
7 -8 1 2253.31 3099.16 354.19 o
-7 -7 1 141.38 265.64 212.51 <
-6 -7 1 2075.07 1930.33 265.64 o
-5 -7 1 1578.06 1469.89 177.10 o
-4 -7 1 937.51 974.02 141.68 o
-3 -7 1 169.70 230.22 106.26 <
-2 -7 1 295.17 354.19 106.26 o
-1 -7 1 618.34 655.25 106.26 o
0 -7 1 7459.96 7402.57 265.64 o
1 -7 1 242.15 212.51 106.26 <
2 -7 1 5202.71 5171.17 230.22 o
3 -7 1 5512.05 5578.49 177.10 o
4 -7 1 116.77 106.26 88.55 <
5 -7 1 1027.31 1434.47 194.80 o
6 -7 1 3.50 -53.13 123.97 <
7 -7 1 31.40 70.84 177.10 <
8 -7 1 282.61 123.97 177.10 <
-7 -6 1 453.58 566.70 212.51 <
-6 -6 1 1831.71 1452.18 212.51 o
-5 -6 1 988.87 938.60 141.68 o
-4 -6 1 0.39 -177.10 88.55 <
-3 -6 1 0.53 -106.26 70.84 <
-2 -6 1 13456.70 13813.40 354.19 o
-1 -6 1 858.63 761.51 106.26 o
0 -6 1 4311.84 4391.95 194.80 o
1 -6 1 7485.16 7685.92 212.51 o
2 -6 1 1649.72 1824.08 106.26 o
3 -6 1 48.80 141.68 53.13 <
4 -6 1 24.20 17.71 70.84 <
5 -6 1 560.04 602.12 106.26 o
6 -6 1 2156.66 2213.69 230.22 o
7 -6 1 625.38 442.74 159.38 <
8 -6 1 1821.28 2072.01 265.64 o
-8 -5 1 793.46 761.51 247.93 o
-7 -5 1 1465.10 1027.15 194.80 o
-6 -5 1 412.49 478.16 159.38 o
-5 -5 1 68.69 35.42 106.26 <
-4 -5 1 7082.44 7172.34 265.64 o
-3 -5 1 3862.57 3931.51 177.10 o
-2 -5 1 3357.87 3789.83 177.10 o
-1 -5 1 1066.27 1257.37 123.97 o
0 -5 1 1487.40 1646.98 88.55 o
1 -5 1 855.83 956.31 88.55 o
2 -5 1 2402.25 2390.78 106.26 o
3 -5 1 3956.43 4303.41 177.10 o
4 -5 1 6566.27 6729.61 194.80 o
5 -5 1 205.76 106.26 70.84 <
6 -5 1 3665.63 3612.74 265.64 o
7 -5 1 456.85 371.90 141.68 <
8 -5 1 4.56 -53.13 141.68 <
9 -5 1 97.85 35.42 194.80 <
-8 -4 1 325.62 442.74 194.80 <
-7 -4 1 205.10 389.61 159.38 <
-6 -4 1 958.82 655.25 159.38 o
-5 -4 1 1902.42 1770.95 141.68 o
-4 -4 1 6.76 0.00 70.84 <
-3 -4 1 532.64 619.83 70.84 o
-2 -4 1 95.57 70.84 53.13 <
-1 -4 1 3737.07 3860.67 159.38 o
0 -4 1 6.84 -17.71 53.13 <
1 -4 1 2776.32 2851.23 88.55 o
2 -4 1 3944.17 3595.03 123.97 o
3 -4 1 477.47 389.61 70.84 o
4 -4 1 2227.82 2107.43 141.68 o
5 -4 1 23.28 70.84 70.84 <
6 -4 1 2.90 -53.13 106.26 <
7 -4 1 11.19 53.13 159.38 <
8 -4 1 267.65 177.10 159.38 <
9 -4 1 659.88 354.19 194.80 <
-8 -3 1 31.64 -159.38 141.68 <
-7 -3 1 1410.13 1770.95 177.10 o
-6 -3 1 747.51 832.35 123.97 o
-5 -3 1 55.89 88.55 70.84 <
-4 -3 1 802.67 903.18 70.84 o
-3 -3 1 6046.29 6145.19 141.68 o
-2 -3 1 1298.59 1310.50 70.84 o
-1 -3 1 83.00 35.42 53.13 <
0 -3 1 5483.19 5826.42 212.51 o
1 -3 1 2190.39 2178.27 88.55 o
2 -3 1 2353.23 2585.59 88.55 o
3 -3 1 1.11 0.00 53.13 <
4 -3 1 461.13 460.45 53.13 o
5 -3 1 8.30 53.13 70.84 <
6 -3 1 507.65 336.48 123.97 <
7 -3 1 2517.70 2815.81 247.93 o
8 -3 1 124.44 -35.42 141.68 <
9 -3 1 64.73 -247.93 177.10 <
-9 -2 1 480.68 602.12 247.93 <
-8 -2 1 677.31 885.47 177.10 o
-7 -2 1 28.89 -53.13 106.26 <
-6 -2 1 28.31 106.26 88.55 <
-5 -2 1 1031.59 1115.70 88.55 o
-4 -2 1 3771.97 4037.76 123.97 o
-3 -2 1 39.16 35.42 35.42 <
-2 -2 1 28.11 35.42 35.42 <
-1 -2 1 3420.83 3577.32 106.26 o
0 -2 1 1300.84 1487.60 106.26 o
1 -2 1 164.52 177.10 53.13 o
2 -2 1 2437.56 2621.00 88.55 o
3 -2 1 1170.27 1292.79 70.84 o
4 -2 1 153.80 88.55 35.42 <
5 -2 1 2608.58 2638.71 141.68 o
6 -2 1 3.79 17.71 106.26 <
7 -2 1 57.99 53.13 106.26 <
8 -2 1 408.16 283.35 159.38 <
9 -2 1 50.00 -123.97 141.68 <
-9 -1 1 16.55 265.64 212.51 <
-8 -1 1 143.50 123.97 159.38 <
-7 -1 1 166.64 141.68 123.97 <
-6 -1 1 735.59 619.83 123.97 o
-5 -1 1 330.67 442.74 70.84 o
-4 -1 1 42.55 0.00 35.42 <
-3 -1 1 241.99 194.80 35.42 o
-2 -1 1 1577.89 1505.31 53.13 o
-1 -1 1 632.75 726.09 35.42 o
0 -1 1 255.75 265.64 17.71 o
1 -1 1 502.66 442.74 35.42 o
2 -1 1 426.04 407.32 35.42 o
3 -1 1 42.93 70.84 17.71 o
4 -1 1 64.44 53.13 35.42 <
5 -1 1 0.50 -17.71 35.42 <
6 -1 1 350.26 442.74 88.55 o
7 -1 1 216.57 -17.71 123.97 <
8 -1 1 341.87 336.48 141.68 <
9 -1 1 76.05 123.97 177.10 <
-9 0 1 61.58 35.42 230.22 <
-8 0 1 477.77 548.99 194.80 <
-7 0 1 808.69 672.96 141.68 o
-6 0 1 27.06 106.26 106.26 <
-5 0 1 1537.06 1664.69 106.26 o
-4 0 1 1558.44 1540.73 70.84 o
-3 0 1 667.60 832.35 53.13 o
-2 0 1 1428.18 1239.66 53.13 o
-1 0 1 156.07 159.38 17.71 o
0 0 1 402.07 478.16 17.71 o
1 0 1 14.07 0.00 17.71 <
2 0 1 44.93 53.13 17.71 o
3 0 1 172.34 212.51 35.42 o
4 0 1 415.15 425.03 35.42 o
5 0 1 119.32 53.13 35.42 <
6 0 1 408.54 460.45 88.55 o
7 0 1 343.98 123.97 106.26 <
8 0 1 176.94 17.71 141.68 <
9 0 1 400.52 371.90 159.38 <
-9 1 1 432.95 247.93 247.93 <
-8 1 1 4.62 -53.13 177.10 <
-7 1 1 1204.75 1593.85 194.80 o
-6 1 1 263.73 247.93 88.55 <
-5 1 1 140.33 283.35 70.84 o
-4 1 1 4102.15 4356.54 106.26 o
-3 1 1 218.00 301.06 35.42 o
-2 1 1 837.34 761.51 35.42 o
-1 1 1 2223.92 2390.78 53.13 o
0 1 1 11.54 17.71 17.71 <
1 1 1 432.95 371.90 17.71 o
2 1 1 20.79 35.42 17.71 <
3 1 1 36.22 17.71 17.71 <
4 1 1 1078.64 991.73 53.13 o
5 1 1 40.57 70.84 53.13 <
6 1 1 264.66 283.35 88.55 o
7 1 1 0.64 35.42 106.26 <
8 1 1 1.27 17.71 141.68 <
9 1 1 20.46 -123.97 141.68 <
-9 2 1 1266.18 1363.63 265.64 o
-8 2 1 322.83 194.80 177.10 <
-7 2 1 8.88 -17.71 106.26 <
-6 2 1 4587.06 4569.05 212.51 o
-5 2 1 1490.84 1399.05 70.84 o
-4 2 1 1145.30 1133.41 53.13 o
-3 2 1 2948.34 2851.23 70.84 o
-2 2 1 554.36 478.16 35.42 o
-1 2 1 6753.69 7172.34 123.97 o
0 2 1 183.79 194.80 35.42 o
1 2 1 1210.72 1310.50 53.13 o
2 2 1 7265.38 7703.63 159.38 o
3 2 1 252.24 177.10 35.42 o
4 2 1 6.02 53.13 35.42 <
5 2 1 123.64 88.55 53.13 <
6 2 1 23.86 70.84 70.84 <
7 2 1 167.55 159.38 106.26 <
8 2 1 473.36 336.48 141.68 <
9 2 1 47.08 177.10 212.51 <
-9 3 1 3.26 -35.42 194.80 <
-8 3 1 1532.50 1434.47 283.35 o
-7 3 1 161.46 -17.71 106.26 <
-6 3 1 1114.90 1027.15 141.68 o
-5 3 1 2006.62 2072.01 159.38 o
-4 3 1 526.32 584.41 70.84 o
-3 3 1 10161.50 9669.38 212.51 o
-2 3 1 870.43 903.18 53.13 o
-1 3 1 2042.76 1841.79 53.13 o
0 3 1 9311.67 9439.16 212.51 o
1 3 1 641.83 602.12 53.13 o
2 3 1 2.24 35.42 35.42 <
3 3 1 18.68 17.71 35.42 <
4 3 1 300.43 460.45 53.13 o
5 3 1 342.17 336.48 53.13 o
6 3 1 1642.29 1735.53 123.97 o
7 3 1 389.60 495.87 141.68 o
8 3 1 132.07 -141.68 212.51 <
9 3 1 321.37 283.35 247.93 <
-8 4 1 667.97 903.18 265.64 o
-7 4 1 175.18 -35.42 123.97 <
-6 4 1 741.09 584.41 123.97 o
-5 4 1 9009.89 8429.72 265.64 o
-4 4 1 731.42 832.35 106.26 o
-3 4 1 343.77 283.35 53.13 o
-2 4 1 8490.09 7827.60 141.68 o
-1 4 1 520.26 655.25 53.13 o
0 4 1 5235.56 5613.91 177.10 o
1 4 1 120.11 159.38 53.13 <
2 4 1 2425.34 2355.36 106.26 o
3 4 1 5394.55 5436.81 141.68 o
4 4 1 209.08 230.22 53.13 o
5 4 1 2408.30 2585.59 123.97 o
6 4 1 641.39 796.93 123.97 o
7 4 1 94.43 194.80 123.97 <
8 4 1 65.15 123.97 212.51 <
9 4 1 133.74 389.61 283.35 <
-8 5 1 574.58 247.93 230.22 <
-7 5 1 4149.05 3984.64 301.06 o
-6 5 1 1852.18 1558.44 141.68 o
-5 5 1 34.08 17.71 88.55 <
-4 5 1 3124.36 3134.58 177.10 o
-3 5 1 501.22 513.58 70.84 o
-2 5 1 8342.67 7845.31 177.10 o
-1 5 1 1332.87 1523.02 88.55 o
0 5 1 4254.67 4303.41 159.38 o
1 5 1 13686.20 14167.60 336.48 o
2 5 1 244.48 318.77 70.84 o
3 5 1 1683.95 1735.53 123.97 o
4 5 1 1176.31 1328.21 123.97 o
5 5 1 415.79 389.61 88.55 o
6 5 1 313.18 301.06 88.55 o
7 5 1 296.25 336.48 159.38 <
8 5 1 413.19 513.58 247.93 <
-8 6 1 469.62 318.77 247.93 <
-7 6 1 5.08 -88.55 141.68 <
-6 6 1 649.27 672.96 141.68 o
-5 6 1 562.55 495.87 123.97 o
-4 6 1 4696.80 4657.60 212.51 o
-3 6 1 323.92 371.90 70.84 o
-2 6 1 9533.76 9580.83 194.80 o
-1 6 1 12885.10 13459.20 265.64 o
0 6 1 412.86 460.45 88.55 o
1 6 1 2586.08 2762.68 159.38 o
2 6 1 386.00 389.61 88.55 o
3 6 1 399.42 247.93 88.55 <
4 6 1 1542.78 1611.56 141.68 o
5 6 1 1619.10 1505.31 141.68 o
6 6 1 3012.13 3116.87 212.51 o
7 6 1 776.08 495.87 177.10 <
8 6 1 540.34 318.77 318.77 <
-8 7 1 137.35 -35.42 247.93 <
-7 7 1 1104.18 920.89 212.51 o
-6 7 1 3409.64 3524.19 230.22 o
-5 7 1 883.93 743.80 123.97 o
-4 7 1 4602.64 4940.95 212.51 o
-3 7 1 5237.01 5348.27 159.38 o
-2 7 1 446.34 336.48 88.55 o
-1 7 1 17.92 17.71 88.55 <
0 7 1 302.82 301.06 88.55 o
1 7 1 1873.60 1770.95 141.68 o
2 7 1 6391.46 6021.23 247.93 o
3 7 1 58.06 159.38 106.26 <
4 7 1 6664.12 6304.58 247.93 o
5 7 1 2490.14 2532.46 194.80 o
6 7 1 1.60 17.71 123.97 <
7 7 1 765.45 655.25 177.10 o
8 7 1 62.10 442.74 318.77 <
-7 8 1 2191.68 2461.62 318.77 o
-6 8 1 545.23 513.58 177.10 <
-5 8 1 2123.53 2319.94 177.10 o
-4 8 1 573.79 531.28 106.26 o
-3 8 1 970.73 956.31 123.97 o
-2 8 1 1439.44 1221.95 123.97 o
-1 8 1 2683.54 2691.84 177.10 o
0 8 1 7392.16 7526.53 265.64 o
1 8 1 507.81 460.45 106.26 o
2 8 1 4813.97 4267.99 230.22 o
3 8 1 4893.44 4533.63 230.22 o
4 8 1 46.43 70.84 106.26 <
5 8 1 19.70 70.84 123.97 <
6 8 1 7.30 0.00 141.68 <
7 8 1 275.42 212.51 177.10 <
-6 9 1 8.56 35.42 123.97 <
-5 9 1 1721.71 1664.69 212.51 o
-4 9 1 1465.49 1611.56 177.10 o
-3 9 1 5699.15 5702.46 230.22 o
-2 9 1 4859.17 4657.60 247.93 o
-1 9 1 1724.07 1682.40 159.38 o
0 9 1 4539.95 4480.50 230.22 o
1 9 1 1402.41 1204.25 159.38 o
2 9 1 99.87 70.84 106.26 <
3 9 1 92.48 106.26 123.97 <
4 9 1 125.89 159.38 123.97 <
5 9 1 2406.13 2638.71 230.22 o
6 9 1 1283.12 1044.86 230.22 o
-6 10 1 1523.37 2125.14 247.93 o
-5 10 1 3105.08 3665.86 265.64 o
-4 10 1 1860.24 2089.72 212.51 o
-3 10 1 2356.16 2727.26 212.51 o
-2 10 1 359.19 389.61 141.68 <
-1 10 1 571.49 708.38 141.68 o
0 10 1 752.45 672.96 141.68 o
1 10 1 1658.94 1434.47 177.10 o
2 10 1 302.66 301.06 141.68 <
3 10 1 5132.18 5808.71 301.06 o
4 10 1 1588.08 1965.75 212.51 o
5 10 1 68.51 318.77 177.10 <
-4 11 1 149.92 548.99 407.32 <
-3 11 1 852.03 850.06 389.61 <
-2 11 1 327.12 177.10 212.51 <
-1 11 1 3991.68 4445.08 336.48 o
0 11 1 2461.42 2461.62 283.35 o
1 11 1 3761.97 3382.51 318.77 o
2 11 1 2530.52 2497.04 283.35 o
3 11 1 1033.66 743.80 230.22 o
4 11 1 219.31 672.96 371.90 <
-3 12 1 1890.50 2815.81 531.28 o
-2 12 1 2764.83 3400.22 354.19 o
-1 12 1 3254.80 3329.38 336.48 o
0 12 1 718.77 637.54 247.93 <
1 12 1 652.93 88.55 336.48 <
2 12 1 23.81 159.38 318.77 <
1 -12 2 131.73 425.03 389.61 <
2 -12 2 2253.38 2550.17 513.58 o
-2 -11 2 642.69 920.89 389.61 <
-1 -11 2 185.33 141.68 318.77 <
0 -11 2 2167.37 2018.88 301.06 o
1 -11 2 68.68 212.51 212.51 <
2 -11 2 1731.29 2089.72 301.06 o
3 -11 2 1132.01 2001.17 389.61 o
4 -11 2 412.67 -194.80 212.51 <
-3 -10 2 672.26 672.96 230.22 <
-2 -10 2 23.10 -70.84 194.80 <
-1 -10 2 4439.45 5011.79 371.90 o
0 -10 2 18.05 -17.71 194.80 <
1 -10 2 29.68 159.38 194.80 <
2 -10 2 4393.29 4870.11 371.90 o
3 -10 2 144.37 371.90 212.51 <
4 -10 2 28.12 17.71 301.06 <
5 -10 2 140.10 -35.42 159.38 <
-5 -9 2 3.26 70.84 265.64 <
-4 -9 2 1881.77 2337.65 318.77 o
-3 -9 2 2108.64 2018.88 265.64 o
-2 -9 2 1876.14 2107.43 265.64 o
-1 -9 2 5772.45 5011.79 354.19 o
0 -9 2 514.76 672.96 177.10 o
1 -9 2 4502.83 4285.70 318.77 o
2 -9 2 1837.39 1611.56 212.51 o
3 -9 2 2712.03 2851.23 283.35 o
4 -9 2 4642.26 5560.78 513.58 o
5 -9 2 50.88 -17.71 177.10 <
-6 -8 2 5027.37 5791.00 619.83 o
-5 -8 2 515.00 88.55 247.93 <
-4 -8 2 2160.15 2514.75 301.06 o
-3 -8 2 7173.26 8164.08 407.32 o
-2 -8 2 57.83 17.71 159.38 <
-1 -8 2 7837.33 8518.27 407.32 o
0 -8 2 20.26 17.71 141.68 <
1 -8 2 3664.51 4586.76 318.77 o
2 -8 2 10445.50 10944.50 442.74 o
3 -8 2 2965.88 2922.07 265.64 o
4 -8 2 3221.87 4126.31 407.32 o
5 -8 2 3158.18 3577.32 265.64 o
6 -8 2 653.62 672.96 301.06 <
7 -8 2 311.11 354.19 247.93 <
-6 -7 2 373.81 566.70 283.35 <
-5 -7 2 10.65 53.13 212.51 <
-4 -7 2 2305.69 2018.88 265.64 o
-3 -7 2 266.14 407.32 159.38 <
-2 -7 2 9376.22 9120.39 407.32 o
-1 -7 2 60.53 247.93 141.68 <
0 -7 2 5090.20 4958.66 301.06 o
1 -7 2 16517.00 15602.10 513.58 o
2 -7 2 19.61 35.42 123.97 <
3 -7 2 1105.01 1275.08 159.38 o
4 -7 2 2284.82 2798.10 212.51 o
5 -7 2 251.39 247.93 123.97 <
6 -7 2 1515.73 1912.63 389.61 o
7 -7 2 319.14 212.51 230.22 <
8 -7 2 604.01 566.70 230.22 <
-7 -6 2 109.95 371.90 265.64 <
-6 -6 2 224.10 212.51 177.10 <
-5 -6 2 2877.57 2957.49 247.93 o
-4 -6 2 6867.95 7260.89 283.35 o
-3 -6 2 185.60 194.80 106.26 <
-2 -6 2 27004.80 28246.60 602.12 o
-1 -6 2 4539.05 4462.79 283.35 o
0 -6 2 2297.01 2744.97 212.51 o
1 -6 2 12408.70 13140.40 354.19 o
2 -6 2 3479.86 3842.96 194.80 o
3 -6 2 17467.30 18116.80 336.48 o
4 -6 2 655.53 779.22 88.55 o
5 -6 2 8265.54 8341.17 301.06 o
6 -6 2 16136.40 17851.20 637.54 o
7 -6 2 555.53 566.70 177.10 o
8 -6 2 2426.24 2426.20 283.35 o
-7 -5 2 7983.33 7951.56 425.03 o
-6 -5 2 756.78 920.89 177.10 o
-5 -5 2 418.08 513.58 159.38 o
-4 -5 2 24023.80 23837.00 548.99 o
-3 -5 2 521.22 779.22 123.97 o
-2 -5 2 5870.03 5047.21 194.80 o
-1 -5 2 2914.11 2833.52 123.97 o
0 -5 2 3433.31 3400.22 123.97 o
1 -5 2 38680.90 38287.90 566.70 o
2 -5 2 8856.84 8801.62 159.38 o
3 -5 2 5218.05 5188.88 177.10 o
4 -5 2 30948.90 30513.50 495.87 o
5 -5 2 2694.54 2727.26 177.10 o
6 -5 2 676.86 548.99 123.97 o
7 -5 2 938.55 903.18 194.80 o
8 -5 2 177.06 247.93 159.38 <
9 -5 2 342.24 478.16 194.80 <
-8 -4 2 2677.94 2408.49 283.35 o
-7 -4 2 2217.27 2302.23 247.93 o
-6 -4 2 1731.68 1664.69 194.80 o
-5 -4 2 5423.79 6056.65 301.06 o
-4 -4 2 60.17 0.00 70.84 <
-3 -4 2 7772.69 7703.63 159.38 o
-2 -4 2 3840.25 3913.80 123.97 o
-1 -4 2 11004.20 10732.00 194.80 o
0 -4 2 49546.90 48506.30 672.96 o
1 -4 2 2971.18 3046.03 106.26 o
2 -4 2 15290.30 14964.50 247.93 o
3 -4 2 14942.00 15513.50 247.93 o
4 -4 2 427.16 425.03 53.13 o
5 -4 2 1131.46 1062.57 123.97 o
6 -4 2 16.69 17.71 88.55 <
7 -4 2 2536.78 2266.82 265.64 o
8 -4 2 7744.59 8234.91 425.03 o
9 -4 2 59.09 -123.97 177.10 <
-8 -3 2 7.99 53.13 159.38 <
-7 -3 2 921.57 743.80 159.38 o
-6 -3 2 1930.35 2018.88 177.10 o
-5 -3 2 5877.43 5879.55 194.80 o
-4 -3 2 2970.62 2886.65 123.97 o
-3 -3 2 38850.00 38836.90 513.58 o
-2 -3 2 9460.85 9315.19 159.38 o
-1 -3 2 1413.42 1576.14 70.84 o
0 -3 2 30615.80 30035.30 478.16 o
1 -3 2 1635.57 1930.33 88.55 o
2 -3 2 15271.60 14397.80 212.51 o
3 -3 2 81.70 88.55 35.42 <
4 -3 2 3431.49 3807.54 106.26 o
5 -3 2 39359.00 38571.30 796.93 o
6 -3 2 3156.79 3612.74 212.51 o
7 -3 2 3175.82 3099.16 283.35 o
8 -3 2 12442.70 11528.90 460.45 o
9 -3 2 80.09 177.10 177.10 <
-8 -2 2 6338.63 6180.61 318.77 o
-7 -2 2 219.38 123.97 106.26 <
-6 -2 2 706.41 584.41 106.26 o
-5 -2 2 36143.30 35702.30 619.83 o
-4 -2 2 23.06 53.13 53.13 <
-3 -2 2 1103.63 1204.25 70.84 o
-2 -2 2 14679.60 13955.10 212.51 o
-1 -2 2 60.74 35.42 17.71 <
0 -2 2 75968.80 74468.40 956.31 o
1 -2 2 4051.45 4250.28 106.26 o
2 -2 2 92.83 88.55 35.42 <
3 -2 2 75940.70 73405.80 974.02 o
4 -2 2 6753.92 6375.42 141.68 o
5 -2 2 877.44 1027.15 123.97 o
6 -2 2 10790.30 10802.80 336.48 o
7 -2 2 70.42 177.10 159.38 <
8 -2 2 821.79 690.67 177.10 o
9 -2 2 742.63 584.41 194.80 <
-8 -1 2 5479.39 5507.65 301.06 o
-7 -1 2 4512.27 4994.08 265.64 o
-6 -1 2 2159.64 2142.85 177.10 o
-5 -1 2 2728.07 2497.04 141.68 o
-4 -1 2 2155.40 2178.27 106.26 o
-3 -1 2 6551.46 6375.42 123.97 o
-2 -1 2 33077.80 34267.90 425.03 o
-1 -1 2 35545.60 35312.70 478.16 o
0 -1 2 29690.00 30513.50 407.32 o
1 -1 2 45753.90 46204.10 602.12 o
2 -1 2 15525.90 14663.50 247.93 o
3 -1 2 5192.49 5135.75 88.55 o
4 -1 2 549.49 478.16 35.42 o
5 -1 2 4674.95 4267.99 106.26 o
6 -1 2 3480.81 3701.28 159.38 o
7 -1 2 9385.07 9155.81 425.03 o
8 -1 2 590.84 708.38 177.10 o
9 -1 2 4201.22 4108.60 318.77 o
-8 0 2 672.33 619.83 159.38 o
-7 0 2 45.01 123.97 106.26 <
-6 0 2 2925.79 2939.78 194.80 o
-5 0 2 5585.34 5472.23 177.10 o
-4 0 2 32271.20 32107.30 548.99 o
-3 0 2 6710.00 5702.46 123.97 o
-2 0 2 18237.20 18807.50 247.93 o
-1 0 2 74564.20 73069.40 956.31 o
0 0 2 37.28 53.13 17.71 o
1 0 2 5035.94 5454.52 106.26 o
2 0 2 2930.98 2762.68 70.84 o
3 0 2 60.50 53.13 17.71 o
4 0 2 68834.30 66233.50 743.80 o
5 0 2 1105.43 1115.70 70.84 o
6 0 2 276.82 336.48 106.26 o
7 0 2 27450.50 28990.40 726.09 o
8 0 2 36.72 53.13 123.97 <
9 0 2 1283.17 1133.41 212.51 o
-8 1 2 63.47 159.38 123.97 <
-7 1 2 946.84 991.73 159.38 o
-6 1 2 24114.00 23535.90 566.70 o
-5 1 2 294.58 336.48 70.84 o
-4 1 2 1258.64 1221.95 88.55 o
-3 1 2 41881.40 41971.50 672.96 o
-2 1 2 1546.49 1363.63 53.13 o
-1 1 2 37193.70 37384.70 442.74 o
0 1 2 2991.23 3099.16 70.84 o
1 1 2 1797.90 1894.92 53.13 o
2 1 2 192950.00 171977.00 2178.27 o
3 1 2 961.26 1186.54 53.13 o
4 1 2 32.77 88.55 35.42 <
5 1 2 44065.20 42520.50 619.83 o
6 1 2 166.43 88.55 88.55 <
7 1 2 812.94 832.35 159.38 o
8 1 2 3.81 -106.26 123.97 <
9 1 2 22.58 -53.13 159.38 <
-8 2 2 2847.18 3063.74 336.48 o
-7 2 2 81.99 -177.10 123.97 <
-6 2 2 4051.27 4321.12 247.93 o
-5 2 2 227.14 123.97 70.84 <
-4 2 2 6188.84 6233.74 159.38 o
-3 2 2 6767.54 6888.99 177.10 o
-2 2 2 6020.71 6021.23 123.97 o
-1 2 2 26758.70 27024.70 336.48 o
0 2 2 49435.70 49267.80 584.41 o
1 2 2 11539.70 11528.90 194.80 o
2 2 2 14926.70 15177.00 230.22 o
3 2 2 6813.94 6676.48 123.97 o
4 2 2 4019.29 4161.73 106.26 o
5 2 2 662.85 743.80 88.55 o
6 2 2 5206.86 5454.52 212.51 o
7 2 2 2686.37 2992.90 194.80 o
8 2 2 6890.59 7473.41 336.48 o
9 2 2 3038.68 3187.71 283.35 o
-8 3 2 687.72 531.28 230.22 <
-7 3 2 747.38 708.38 141.68 o
-6 3 2 5065.05 5525.36 265.64 o
-5 3 2 7274.93 7030.67 283.35 o
-4 3 2 676.24 371.90 106.26 o
-3 3 2 20517.20 20737.80 371.90 o
-2 3 2 23651.60 22579.60 460.45 o
-1 3 2 1606.56 1806.37 53.13 o
0 3 2 1719.71 1770.95 53.13 o
1 3 2 20144.40 20507.60 301.06 o
2 3 2 1851.63 1841.79 70.84 o
3 3 2 26152.70 25873.60 389.61 o
4 3 2 656.19 690.67 53.13 o
5 3 2 35.75 35.42 53.13 <
6 3 2 38495.00 39226.50 619.83 o
7 3 2 66.75 106.26 106.26 <
8 3 2 287.25 354.19 159.38 <
9 3 2 5420.24 5684.75 531.28 o
-8 4 2 596.58 513.58 230.22 <
-7 4 2 9276.74 8553.68 371.90 o
-6 4 2 2395.06 2532.46 212.51 o
-5 4 2 3624.12 2957.49 194.80 o
-4 4 2 19197.40 17479.30 389.61 o
-3 4 2 5311.97 4976.37 159.38 o
-2 4 2 7156.14 7668.21 159.38 o
-1 4 2 10125.60 9456.87 159.38 o
0 4 2 690.94 938.60 53.13 o
1 4 2 81088.30 77850.90 1027.15 o
2 4 2 2061.19 2072.01 88.55 o
3 4 2 962.58 974.02 53.13 o
4 4 2 46848.20 47213.50 584.41 o
5 4 2 473.03 495.87 70.84 o
6 4 2 127.61 177.10 88.55 <
7 4 2 2504.92 2567.88 247.93 o
8 4 2 21.24 -17.71 177.10 <
9 4 2 1678.63 1770.95 371.90 o
-8 5 2 140.20 141.68 230.22 <
-7 5 2 4497.90 3842.96 265.64 o
-6 5 2 276.24 371.90 141.68 <
-5 5 2 226.77 -35.42 106.26 <
-4 5 2 457.26 478.16 88.55 o
-3 5 2 619.57 513.58 70.84 o
-2 5 2 20298.80 19391.90 371.90 o
-1 5 2 14381.80 13972.80 230.22 o
0 5 2 1005.99 1027.15 88.55 o
1 5 2 26261.00 26086.10 460.45 o
2 5 2 1335.99 1062.57 88.55 o
3 5 2 4329.34 4639.89 159.38 o
4 5 2 942.10 867.77 106.26 o
5 5 2 930.03 1115.70 123.97 o
6 5 2 5437.76 5720.17 247.93 o
7 5 2 2516.44 2762.68 247.93 o
8 5 2 1276.83 1009.44 283.35 o
9 5 2 1832.53 1859.50 407.32 o
-8 6 2 465.36 177.10 247.93 <
-7 6 2 1206.84 903.18 194.80 o
-6 6 2 87.15 141.68 123.97 <
-5 6 2 802.17 796.93 159.38 o
-4 6 2 11077.40 9917.32 336.48 o
-3 6 2 7798.27 8164.08 230.22 o
-2 6 2 35.85 70.84 53.13 <
-1 6 2 10463.50 10377.80 212.51 o
0 6 2 6652.32 6109.77 212.51 o
1 6 2 33.10 -70.84 53.13 <
2 6 2 3343.55 3524.19 177.10 o
3 6 2 1175.24 1080.28 123.97 o
4 6 2 1217.36 1310.50 141.68 o
5 6 2 19853.80 19870.10 584.41 o
6 6 2 820.80 1097.99 141.68 o
7 6 2 84.67 230.22 141.68 <
8 6 2 5684.88 5773.29 566.70 o
-7 7 2 874.18 1221.95 247.93 o
-6 7 2 1247.13 1044.86 177.10 o
-5 7 2 5475.76 5613.91 283.35 o
-4 7 2 4462.43 4693.02 247.93 o
-3 7 2 55.11 35.42 70.84 <
-2 7 2 7963.55 8624.52 230.22 o
-1 7 2 1943.01 1877.21 177.10 o
0 7 2 22138.00 20826.40 478.16 o
1 7 2 5207.50 5188.88 230.22 o
2 7 2 659.16 867.77 123.97 o
3 7 2 28716.10 27237.20 602.12 o
4 7 2 2907.10 3010.61 194.80 o
5 7 2 188.36 318.77 123.97 <
6 7 2 3403.55 4108.60 247.93 o
7 7 2 167.10 318.77 177.10 <
8 7 2 713.93 655.25 318.77 <
-7 8 2 30.22 106.26 212.51 <
-6 8 2 12.88 -159.38 159.38 <
-5 8 2 238.94 283.35 141.68 <
-4 8 2 22.63 88.55 88.55 <
-3 8 2 3001.53 3435.64 194.80 o
-2 8 2 1042.04 1080.28 123.97 o
-1 8 2 0.20 -17.71 88.55 <
0 8 2 8218.18 8447.43 283.35 o
1 8 2 1989.89 2125.14 177.10 o
2 8 2 130.85 88.55 106.26 <
3 8 2 2730.40 2886.65 194.80 o
4 8 2 2.14 53.13 106.26 <
5 8 2 1334.18 1540.73 177.10 o
6 8 2 238.51 265.64 159.38 <
7 8 2 248.51 354.19 177.10 <
-6 9 2 226.39 336.48 123.97 <
-5 9 2 2925.28 3152.29 230.22 o
-4 9 2 193.73 460.45 123.97 o
-3 9 2 107.81 35.42 106.26 <
-2 9 2 3792.64 3842.96 230.22 o
-1 9 2 1169.22 1328.21 159.38 o
0 9 2 410.28 354.19 106.26 o
1 9 2 26.36 -17.71 106.26 <
2 9 2 2006.96 1930.33 177.10 o
3 9 2 1.40 88.55 123.97 <
4 9 2 5425.92 5489.94 283.35 o
5 9 2 1730.35 2089.72 212.51 o
6 9 2 70.32 212.51 159.38 <
7 9 2 3554.70 3223.13 318.77 o
-5 10 2 2493.24 2603.30 247.93 o
-4 10 2 47.86 0.00 123.97 <
-3 10 2 1737.81 1983.46 247.93 o
-2 10 2 1664.60 1753.24 194.80 o
-1 10 2 3541.17 3400.22 230.22 o
0 10 2 4349.16 4462.79 247.93 o
1 10 2 36.37 123.97 123.97 <
2 10 2 7041.89 6871.28 371.90 o
3 10 2 3746.67 3435.64 247.93 o
4 10 2 11.87 -141.68 141.68 <
5 10 2 2896.77 3010.61 247.93 o
6 10 2 700.58 531.28 194.80 <
-4 11 2 81.63 212.51 230.22 <
-3 11 2 23.68 35.42 194.80 <
-2 11 2 52.46 -17.71 141.68 <
-1 11 2 1544.34 1399.05 177.10 o
0 11 2 47.85 35.42 141.68 <
1 11 2 48.27 35.42 141.68 <
2 11 2 1063.78 814.64 159.38 o
3 11 2 0.68 141.68 141.68 <
4 11 2 110.56 -177.10 194.80 <
5 11 2 26.65 354.19 212.51 <
-3 12 2 649.57 1027.15 460.45 <
-2 12 2 3.20 -35.42 336.48 <
-1 12 2 223.46 318.77 230.22 <
0 12 2 62.23 141.68 230.22 <
1 12 2 224.61 354.19 212.51 <
2 12 2 33.35 106.26 265.64 <
3 12 2 349.62 212.51 389.61 <
-2 -11 3 970.37 1965.75 354.19 o
-1 -11 3 1204.42 1044.86 265.64 o
0 -11 3 390.46 407.32 247.93 <
1 -11 3 5.23 -123.97 230.22 <
2 -11 3 6665.38 5773.29 425.03 o
3 -11 3 111.78 159.38 177.10 <
4 -11 3 464.73 389.61 265.64 <
-3 -10 3 2384.27 2550.17 318.77 o
-2 -10 3 53.25 53.13 159.38 <
-1 -10 3 194.37 247.93 159.38 <
0 -10 3 6724.25 6304.58 425.03 o
1 -10 3 98.72 70.84 194.80 <
2 -10 3 420.56 602.12 177.10 o
3 -10 3 321.77 265.64 159.38 <
4 -10 3 379.93 301.06 194.80 <
5 -10 3 529.11 566.70 212.51 <
-4 -9 3 15.42 354.19 230.22 <
-3 -9 3 552.24 194.80 177.10 <
-2 -9 3 3411.16 3612.74 265.64 o
-1 -9 3 657.27 531.28 230.22 <
0 -9 3 16.36 106.26 194.80 <
1 -9 3 10.17 0.00 194.80 <
2 -9 3 255.30 425.03 194.80 <
3 -9 3 2691.36 2603.30 265.64 o
4 -9 3 987.45 743.80 194.80 o
5 -9 3 664.26 867.77 194.80 o
-5 -8 3 528.17 177.10 336.48 <
-4 -8 3 277.83 318.77 212.51 <
-3 -8 3 1433.57 1363.63 194.80 o
-2 -8 3 966.32 1097.99 177.10 o
-1 -8 3 30.92 318.77 177.10 <
0 -8 3 8.59 -88.55 159.38 <
1 -8 3 8503.98 8075.53 389.61 o
2 -8 3 51.53 35.42 177.10 <
3 -8 3 810.78 867.77 159.38 o
4 -8 3 4096.61 4108.60 301.06 o
5 -8 3 307.04 0.00 141.68 <
6 -8 3 25.26 212.51 212.51 <
7 -8 3 32.67 -425.03 336.48 <
-6 -7 3 0.14 -17.71 301.06 <
-5 -7 3 707.10 548.99 265.64 <
-4 -7 3 2047.42 1912.63 265.64 o
-3 -7 3 32.78 159.38 123.97 <
-2 -7 3 437.31 407.32 141.68 <
-1 -7 3 7663.54 7491.12 371.90 o
0 -7 3 1792.70 1664.69 212.51 o
1 -7 3 370.85 336.48 159.38 <
2 -7 3 1429.00 1611.56 194.80 o
3 -7 3 1019.74 1115.70 141.68 o
4 -7 3 783.32 602.12 141.68 o
5 -7 3 365.42 318.77 141.68 <
6 -7 3 89.01 247.93 194.80 <
7 -7 3 1624.48 2018.88 442.74 o
8 -7 3 334.55 726.09 301.06 <
-6 -6 3 2063.99 2231.40 371.90 o
-5 -6 3 82.15 35.42 177.10 <
-4 -6 3 539.57 920.89 212.51 o
-3 -6 3 3926.94 4197.15 230.22 o
-2 -6 3 2802.97 2532.46 194.80 o
-1 -6 3 178.53 212.51 123.97 <
0 -6 3 17.66 -35.42 106.26 <
1 -6 3 1063.82 1115.70 123.97 o
2 -6 3 3818.33 3984.64 194.80 o
3 -6 3 113.87 70.84 88.55 <
4 -6 3 856.56 832.35 123.97 o
5 -6 3 3848.29 4462.79 265.64 o
6 -6 3 303.09 336.48 194.80 <
7 -6 3 663.24 513.58 354.19 <
8 -6 3 171.24 53.13 247.93 <
-7 -5 3 428.44 318.77 283.35 <
-6 -5 3 57.27 70.84 212.51 <
-5 -5 3 380.92 212.51 177.10 <
-4 -5 3 3210.14 3063.74 265.64 o
-3 -5 3 523.14 531.28 123.97 o
-2 -5 3 48.24 -35.42 70.84 <
-1 -5 3 995.24 956.31 88.55 o
0 -5 3 7342.19 7402.57 212.51 o
1 -5 3 609.21 495.87 70.84 o
2 -5 3 745.52 850.06 88.55 o
3 -5 3 5581.11 5472.23 194.80 o
4 -5 3 2316.87 2426.20 177.10 o
5 -5 3 18.31 -35.42 88.55 <
6 -5 3 127.18 177.10 159.38 <
7 -5 3 138.74 230.22 247.93 <
8 -5 3 494.67 850.06 425.03 <
9 -5 3 125.47 159.38 247.93 <
-7 -4 3 4.68 -141.68 177.10 <
-6 -4 3 1507.22 1239.66 212.51 o
-5 -4 3 1224.42 938.60 177.10 o
-4 -4 3 447.52 442.74 106.26 o
-3 -4 3 1350.13 1593.85 106.26 o
-2 -4 3 6745.16 7207.76 159.38 o
-1 -4 3 3463.81 3541.90 106.26 o
0 -4 3 23.32 35.42 35.42 <
1 -4 3 4127.20 4073.18 123.97 o
2 -4 3 4648.96 4799.27 106.26 o
3 -4 3 430.21 425.03 53.13 o
4 -4 3 127.35 301.06 70.84 o
5 -4 3 327.07 283.35 88.55 o
6 -4 3 2096.52 2160.56 194.80 o
7 -4 3 33.50 247.93 194.80 <
8 -4 3 412.89 495.87 212.51 <
9 -4 3 461.58 761.51 212.51 o
-8 -3 3 393.83 354.19 212.51 <
-7 -3 3 1062.53 1080.28 194.80 o
-6 -3 3 218.88 283.35 123.97 <
-5 -3 3 335.26 265.64 106.26 <
-4 -3 3 2147.60 2390.78 141.68 o
-3 -3 3 3625.81 3913.80 123.97 o
-2 -3 3 1802.79 1894.92 88.55 o
-1 -3 3 517.09 672.96 53.13 o
0 -3 3 4174.96 4002.35 106.26 o
1 -3 3 3294.76 3329.38 88.55 o
2 -3 3 12.71 88.55 35.42 <
3 -3 3 178.47 177.10 35.42 o
4 -3 3 1545.47 1487.60 106.26 o
5 -3 3 748.95 885.47 88.55 o
6 -3 3 296.99 318.77 123.97 <
7 -3 3 121.51 159.38 159.38 <
8 -3 3 437.55 814.64 212.51 o
9 -3 3 5.10 -141.68 159.38 <
-8 -2 3 70.80 53.13 159.38 <
-7 -2 3 126.11 88.55 141.68 <
-6 -2 3 6.18 -70.84 106.26 <
-5 -2 3 1556.01 1558.44 141.68 o
-4 -2 3 2040.39 2036.59 123.97 o
-3 -2 3 132.30 123.97 53.13 <
-2 -2 3 3858.34 3949.22 88.55 o
-1 -2 3 3203.24 3453.35 70.84 o
0 -2 3 1409.14 1434.47 53.13 o
1 -2 3 3337.48 3524.19 70.84 o
2 -2 3 1859.79 2160.56 70.84 o
3 -2 3 1624.81 1523.02 70.84 o
4 -2 3 35.02 53.13 35.42 <
5 -2 3 146.66 265.64 88.55 <
6 -2 3 278.12 177.10 106.26 <
7 -2 3 0.92 17.71 106.26 <
8 -2 3 73.38 283.35 194.80 <
9 -2 3 53.47 177.10 159.38 <
-8 -1 3 63.14 53.13 159.38 <
-7 -1 3 683.34 885.47 159.38 o
-6 -1 3 979.46 1080.28 141.68 o
-5 -1 3 158.43 141.68 88.55 <
-4 -1 3 2146.02 2036.59 106.26 o
-3 -1 3 2090.07 2178.27 88.55 o
-2 -1 3 2191.38 2302.23 70.84 o
-1 -1 3 2860.65 2904.36 70.84 o
0 -1 3 1321.56 1257.37 53.13 o
1 -1 3 8407.99 8695.36 123.97 o
2 -1 3 4387.02 4480.50 88.55 o
3 -1 3 68.07 106.26 35.42 o
4 -1 3 2502.46 2443.91 70.84 o
5 -1 3 1091.11 1151.12 70.84 o
6 -1 3 25.36 -17.71 70.84 <
7 -1 3 25.70 0.00 106.26 <
8 -1 3 21.27 35.42 159.38 <
9 -1 3 110.04 247.93 194.80 <
-8 0 3 555.75 478.16 159.38 o
-7 0 3 39.39 -88.55 123.97 <
-6 0 3 1650.26 1629.27 159.38 o
-5 0 3 650.75 548.99 106.26 o
-4 0 3 261.09 265.64 70.84 o
-3 0 3 5101.21 5135.75 141.68 o
-2 0 3 6.84 35.42 35.42 <
-1 0 3 1432.67 1416.76 53.13 o
0 0 3 8330.18 8288.04 141.68 o
1 0 3 5.57 0.00 17.71 <
2 0 3 5239.77 5401.40 106.26 o
3 0 3 136.28 70.84 35.42 <
4 0 3 672.80 548.99 35.42 o
5 0 3 1530.32 1700.11 106.26 o
6 0 3 238.65 318.77 106.26 <
7 0 3 278.90 247.93 106.26 <
8 0 3 5.14 123.97 159.38 <
9 0 3 101.42 141.68 159.38 <
-8 1 3 993.28 1345.92 194.80 o
-7 1 3 23.98 -17.71 123.97 <
-6 1 3 1.77 -53.13 88.55 <
-5 1 3 3038.58 3187.71 194.80 o
-4 1 3 566.73 371.90 70.84 o
-3 1 3 2261.26 2089.72 106.26 o
-2 1 3 1036.80 1097.99 53.13 o
-1 1 3 4373.89 4338.83 88.55 o
0 1 3 10842.10 10448.60 159.38 o
1 1 3 109.69 141.68 17.71 o
2 1 3 234.55 212.51 17.71 o
3 1 3 2640.90 2709.55 70.84 o
4 1 3 47.70 70.84 35.42 <
5 1 3 372.59 389.61 88.55 o
6 1 3 2.53 0.00 88.55 <
7 1 3 103.55 88.55 106.26 <
8 1 3 146.39 247.93 159.38 <
9 1 3 249.81 159.38 177.10 <
-8 2 3 5.15 17.71 141.68 <
-7 2 3 1548.02 1700.11 194.80 o
-6 2 3 149.00 -17.71 106.26 <
-5 2 3 2200.38 2302.23 177.10 o
-4 2 3 1293.64 1221.95 88.55 o
-3 2 3 53.19 35.42 35.42 <
-2 2 3 10055.50 9970.44 212.51 o
-1 2 3 54.79 70.84 17.71 o
0 2 3 1488.38 1363.63 53.13 o
1 2 3 13179.30 13547.80 212.51 o
2 2 3 613.48 531.28 35.42 o
3 2 3 3301.85 3276.26 70.84 o
4 2 3 2941.73 2992.90 88.55 o
5 2 3 10.77 -35.42 53.13 <
6 2 3 3835.66 3825.25 212.51 o
7 2 3 28.91 -106.26 106.26 <
8 2 3 50.41 17.71 141.68 <
9 2 3 629.80 531.28 194.80 <
-8 3 3 31.22 35.42 159.38 <
-7 3 3 2353.66 2390.78 212.51 o
-6 3 3 972.00 1027.15 159.38 o
-5 3 3 85.50 159.38 106.26 <
-4 3 3 15455.40 14911.40 318.77 o
-3 3 3 1771.29 1859.50 88.55 o
-2 3 3 260.79 318.77 35.42 o
-1 3 3 18775.50 18718.90 247.93 o
0 3 3 303.00 230.22 17.71 o
1 3 3 8235.96 8429.72 123.97 o
2 3 3 592.86 708.38 35.42 o
3 3 3 92.95 70.84 35.42 <
4 3 3 11740.60 11670.60 194.80 o
5 3 3 1060.58 1151.12 88.55 o
6 3 3 5.54 53.13 88.55 <
7 3 3 1318.84 1469.89 159.38 o
8 3 3 111.25 159.38 159.38 <
9 3 3 37.06 336.48 247.93 <
-8 4 3 200.20 106.26 230.22 <
-7 4 3 651.13 832.35 159.38 o
-6 4 3 4584.94 4267.99 265.64 o
-5 4 3 65.24 -88.55 88.55 <
-4 4 3 290.66 194.80 88.55 <
-3 4 3 5070.90 5082.62 159.38 o
-2 4 3 2551.25 2373.07 88.55 o
-1 4 3 14085.80 14079.00 194.80 o
0 4 3 514.48 531.28 35.42 o
1 4 3 4708.82 4604.47 106.26 o
2 4 3 10871.60 11387.20 177.10 o
3 4 3 874.77 974.02 53.13 o
4 4 3 147.26 194.80 53.13 o
5 4 3 858.82 1009.44 88.55 o
6 4 3 401.43 478.16 123.97 o
7 4 3 440.55 832.35 159.38 o
8 4 3 353.76 389.61 212.51 <
9 4 3 54.86 0.00 265.64 <
-8 5 3 1080.78 1257.37 265.64 o
-7 5 3 4.38 -17.71 141.68 <
-6 5 3 150.03 35.42 123.97 <
-5 5 3 1051.29 885.47 141.68 o
-4 5 3 735.02 655.25 106.26 o
-3 5 3 13744.80 13654.00 301.06 o
-2 5 3 736.11 761.51 70.84 o
-1 5 3 509.70 495.87 53.13 o
0 5 3 27882.90 27626.80 478.16 o
1 5 3 924.40 832.35 70.84 o
2 5 3 1851.98 2018.88 106.26 o
3 5 3 6726.29 6570.22 177.10 o
4 5 3 9.96 -70.84 53.13 <
5 5 3 7896.63 7721.34 247.93 o
6 5 3 3.51 88.55 123.97 <
7 5 3 165.97 70.84 123.97 <
8 5 3 3204.95 3046.03 301.06 o
9 5 3 40.23 -159.38 247.93 <
-7 6 3 714.26 513.58 159.38 o
-6 6 3 754.94 832.35 159.38 o
-5 6 3 10643.80 9970.44 354.19 o
-4 6 3 2939.09 2833.52 194.80 o
-3 6 3 1199.65 1204.25 123.97 o
-2 6 3 17101.80 16770.90 283.35 o
-1 6 3 3264.45 3364.80 106.26 o
0 6 3 4709.21 4693.02 177.10 o
1 6 3 3395.51 3382.51 141.68 o
2 6 3 776.69 708.38 88.55 o
3 6 3 20295.20 20242.00 407.32 o
4 6 3 6.89 17.71 70.84 <
5 6 3 2216.67 2550.17 177.10 o
6 6 3 3730.92 3612.74 212.51 o
7 6 3 128.83 106.26 159.38 <
8 6 3 4.82 -106.26 177.10 <
-7 7 3 2329.91 2638.71 247.93 o
-6 7 3 543.38 513.58 159.38 o
-5 7 3 1211.37 1080.28 159.38 o
-4 7 3 2864.33 2815.81 212.51 o
-3 7 3 548.82 584.41 88.55 o
-2 7 3 1754.25 1700.11 106.26 o
-1 7 3 137.58 141.68 88.55 <
0 7 3 8569.86 8465.14 230.22 o
1 7 3 14762.40 14805.10 336.48 o
2 7 3 91.91 -35.42 70.84 <
3 7 3 5473.56 6269.16 247.93 o
4 7 3 3027.32 2868.94 177.10 o
5 7 3 29.21 -53.13 88.55 <
6 7 3 112.37 53.13 123.97 <
7 7 3 339.21 336.48 159.38 <
8 7 3 571.83 318.77 230.22 <
-7 8 3 197.74 70.84 230.22 <
-6 8 3 429.16 265.64 159.38 <
-5 8 3 592.05 495.87 159.38 o
-4 8 3 3484.44 3896.09 212.51 o
-3 8 3 651.98 867.77 123.97 o
-2 8 3 4920.52 4799.27 194.80 o
-1 8 3 14928.10 14610.30 478.16 o
0 8 3 1408.40 1080.28 141.68 o
1 8 3 957.57 584.41 106.26 o
2 8 3 6017.34 6375.42 265.64 o
3 8 3 354.61 371.90 106.26 o
4 8 3 4984.66 4693.02 247.93 o
5 8 3 82.38 159.38 123.97 <
6 8 3 1015.73 1151.12 177.10 o
7 8 3 5847.31 5914.97 407.32 o
-6 9 3 3752.92 3896.09 265.64 o
-5 9 3 3446.80 3524.19 230.22 o
-4 9 3 1910.68 1948.04 177.10 o
-3 9 3 6935.84 6977.54 265.64 o
-2 9 3 3221.80 2585.59 318.77 o
-1 9 3 84.57 88.55 106.26 <
0 9 3 3357.06 3417.93 212.51 o
1 9 3 422.19 123.97 106.26 <
2 9 3 7332.07 6888.99 283.35 o
3 9 3 301.64 194.80 106.26 <
4 9 3 3905.31 3984.64 247.93 o
5 9 3 5584.37 5082.62 301.06 o
6 9 3 19.58 17.71 159.38 <
7 9 3 625.27 531.28 212.51 <
-5 10 3 637.53 425.03 141.68 o
-4 10 3 183.15 247.93 141.68 <
-3 10 3 168.83 265.64 123.97 <
-2 10 3 448.72 389.61 159.38 <
-1 10 3 5407.64 5277.43 265.64 o
0 10 3 4659.12 4338.83 247.93 o
1 10 3 449.89 301.06 141.68 <
2 10 3 7797.28 7260.89 301.06 o
3 10 3 2195.03 2036.59 194.80 o
4 10 3 29.49 -141.68 141.68 <
5 10 3 227.60 -53.13 159.38 <
6 10 3 4.21 -177.10 194.80 <
-4 11 3 756.41 708.38 194.80 o
-3 11 3 3329.49 3701.28 336.48 o
-2 11 3 5120.06 5188.88 371.90 o
-1 11 3 4366.98 4285.70 265.64 o
0 11 3 1702.70 1487.60 177.10 o
1 11 3 2167.67 2195.98 212.51 o
2 11 3 755.83 407.32 159.38 <
3 11 3 1552.63 1204.25 194.80 o
4 11 3 595.94 495.87 177.10 <
5 11 3 1083.24 1133.41 247.93 o
-3 12 3 4714.22 4622.18 495.87 o
-2 12 3 62.03 -17.71 194.80 <
-1 12 3 1321.94 1593.85 212.51 o
0 12 3 234.56 17.71 159.38 <
1 12 3 3172.04 3665.86 265.64 o
2 12 3 1238.02 1487.60 212.51 o
3 12 3 2783.34 2939.78 301.06 o
4 12 3 2811.45 2072.01 336.48 o
0 -11 4 163.77 -88.55 265.64 <
1 -11 4 2196.18 2390.78 336.48 o
2 -11 4 1341.24 1416.76 354.19 o
-2 -10 4 2193.91 2266.82 301.06 o
-1 -10 4 466.22 460.45 194.80 <
0 -10 4 13.53 88.55 177.10 <
1 -10 4 1315.94 1186.54 230.22 o
2 -10 4 303.31 354.19 194.80 <
3 -10 4 1008.68 956.31 212.51 o
4 -10 4 27.47 -53.13 194.80 <
5 -10 4 65.31 -70.84 177.10 <
-3 -9 4 197.18 -53.13 247.93 <
-2 -9 4 653.18 974.02 194.80 o
-1 -9 4 2811.69 2638.71 247.93 o
0 -9 4 20.03 141.68 159.38 <
1 -9 4 4251.18 3807.54 265.64 o
2 -9 4 2.13 17.71 141.68 <
3 -9 4 392.12 425.03 159.38 <
4 -9 4 3603.06 3524.19 318.77 o
5 -9 4 833.21 850.06 194.80 o
6 -9 4 233.13 0.00 407.32 <
-4 -8 4 31.07 230.22 283.35 <
-3 -8 4 7.79 106.26 159.38 <
-2 -8 4 5089.92 4569.05 283.35 o
-1 -8 4 973.90 1044.86 177.10 o
0 -8 4 3253.76 2691.84 230.22 o
1 -8 4 9284.78 8748.49 354.19 o
2 -8 4 900.45 690.67 159.38 o
3 -8 4 6491.17 6924.41 354.19 o
4 -8 4 2744.38 2089.72 247.93 o
5 -8 4 554.21 619.83 159.38 o
6 -8 4 3107.67 3630.45 371.90 o
7 -8 4 1.45 194.80 301.06 <
-5 -7 4 3.81 -354.19 283.35 <
-4 -7 4 3898.91 4816.98 513.58 o
-3 -7 4 4488.52 4480.50 265.64 o
-2 -7 4 316.43 318.77 141.68 <
-1 -7 4 4585.50 4604.47 265.64 o
0 -7 4 4474.50 4321.12 265.64 o
1 -7 4 1161.66 1115.70 141.68 o
2 -7 4 542.55 425.03 141.68 o
3 -7 4 87.06 53.13 123.97 <
4 -7 4 1537.22 1735.53 177.10 o
5 -7 4 6377.96 7774.47 318.77 o
6 -7 4 295.00 531.28 212.51 <
7 -7 4 526.30 495.87 318.77 <
8 -7 4 2595.19 2992.90 548.99 o
-6 -6 4 396.40 301.06 318.77 <
-5 -6 4 10764.40 11404.90 690.67 o
-4 -6 4 2332.13 2621.00 371.90 o
-3 -6 4 6.78 70.84 123.97 <
-2 -6 4 10421.10 10625.70 354.19 o
-1 -6 4 147.21 17.71 106.26 <
0 -6 4 7361.84 6800.45 265.64 o
1 -6 4 1043.32 920.89 106.26 o
2 -6 4 4103.88 4693.02 212.51 o
3 -6 4 13089.10 13264.40 389.61 o
4 -6 4 367.57 265.64 106.26 <
5 -6 4 3368.29 3736.70 247.93 o
6 -6 4 1886.98 1841.79 265.64 o
7 -6 4 1108.70 920.89 265.64 o
8 -6 4 22.44 106.26 354.19 <
-6 -5 4 74.14 53.13 265.64 <
-5 -5 4 1037.43 956.31 265.64 o
-4 -5 4 450.59 265.64 194.80 <
-3 -5 4 4549.22 4179.44 230.22 o
-2 -5 4 1219.70 1009.44 123.97 o
-1 -5 4 2283.59 2727.26 159.38 o
0 -5 4 36751.70 36888.90 637.54 o
1 -5 4 5038.40 5047.21 177.10 o
2 -5 4 8363.42 8819.33 247.93 o
3 -5 4 25899.60 25749.60 584.41 o
4 -5 4 437.41 478.16 106.26 o
5 -5 4 9090.37 9386.03 318.77 o
6 -5 4 219.16 141.68 159.38 <
7 -5 4 4804.74 5507.65 389.61 o
8 -5 4 5757.97 7597.37 796.93 o
9 -5 4 738.07 -70.84 389.61 <
-7 -4 4 426.92 354.19 301.06 <
-6 -4 4 14.31 -70.84 194.80 <
-5 -4 4 6121.78 6711.90 460.45 o
-4 -4 4 2738.34 2851.23 230.22 o
-3 -4 4 12.29 35.42 70.84 <
-2 -4 4 19696.20 20472.20 407.32 o
-1 -4 4 13196.80 14025.90 301.06 o
0 -4 4 218.90 177.10 53.13 o
1 -4 4 1729.77 1877.21 106.26 o
2 -4 4 2073.03 2107.43 123.97 o
3 -4 4 3555.08 3665.86 159.38 o
4 -4 4 11839.60 11953.90 336.48 o
5 -4 4 238.04 194.80 88.55 <
6 -4 4 6764.24 6818.15 407.32 o
7 -4 4 9226.94 9704.80 495.87 o
8 -4 4 4.81 -35.42 336.48 <
9 -4 4 728.56 336.48 389.61 <
-7 -3 4 730.84 867.77 194.80 o
-6 -3 4 9231.85 8890.17 336.48 o
-5 -3 4 7348.77 6871.28 265.64 o
-4 -3 4 1056.84 832.35 106.26 o
-3 -3 4 23127.70 22668.20 389.61 o
-2 -3 4 3905.95 3896.09 123.97 o
-1 -3 4 4475.27 4728.43 123.97 o
0 -3 4 15500.20 15991.70 247.93 o
1 -3 4 976.31 850.06 53.13 o
2 -3 4 28275.60 27042.40 407.32 o
3 -3 4 400.16 495.87 70.84 o
4 -3 4 13080.20 13158.20 301.06 o
5 -3 4 13503.20 14025.90 318.77 o
6 -3 4 225.14 301.06 123.97 <
7 -3 4 2226.08 2089.72 212.51 o
8 -3 4 75.79 194.80 194.80 <
9 -3 4 1092.33 655.25 247.93 <
-7 -2 4 2445.92 2497.04 230.22 o
-6 -2 4 1914.64 2072.01 194.80 o
-5 -2 4 836.68 761.51 123.97 o
-4 -2 4 1306.93 1452.18 106.26 o
-3 -2 4 219.50 265.64 70.84 o
-2 -2 4 48.33 70.84 35.42 <
-1 -2 4 52214.60 51233.60 584.41 o
0 -2 4 5297.11 5737.88 106.26 o
1 -2 4 1308.87 1363.63 53.13 o
2 -2 4 64423.30 62107.20 761.51 o
3 -2 4 1581.73 1505.31 53.13 o
4 -2 4 8143.63 7986.98 212.51 o
5 -2 4 5107.02 4746.14 177.10 o
6 -2 4 3259.17 3488.77 212.51 o
7 -2 4 11487.30 11989.30 407.32 o
8 -2 4 1515.14 1664.69 247.93 o
9 -2 4 2184.39 2727.26 318.77 o
-8 -1 4 991.14 956.31 194.80 o
-7 -1 4 21.19 53.13 141.68 <
-6 -1 4 3198.64 3524.19 230.22 o
-5 -1 4 739.21 796.93 123.97 o
-4 -1 4 1349.31 1452.18 106.26 o
-3 -1 4 35304.30 35029.40 584.41 o
-2 -1 4 6347.30 6021.23 106.26 o
-1 -1 4 2316.12 2585.59 70.84 o
0 -1 4 11032.60 10625.70 159.38 o
1 -1 4 8982.12 9297.48 141.68 o
2 -1 4 3787.67 3878.38 88.55 o
3 -1 4 9598.24 9421.45 159.38 o
4 -1 4 3162.93 3170.00 106.26 o
5 -1 4 11461.10 12042.50 230.22 o
6 -1 4 15589.90 14999.90 407.32 o
7 -1 4 546.62 513.58 159.38 o
8 -1 4 3965.93 4055.47 336.48 o
9 -1 4 1933.69 1859.50 301.06 o
-8 0 4 71.83 -17.71 159.38 <
-7 0 4 6412.38 6410.84 318.77 o
-6 0 4 11267.70 11050.70 371.90 o
-5 0 4 3026.18 3240.84 212.51 o
-4 0 4 20521.70 20755.50 407.32 o
-3 0 4 23144.20 22561.90 407.32 o
-2 0 4 609.83 672.96 53.13 o
-1 0 4 15619.70 16151.10 212.51 o
0 0 4 0.76 17.71 17.71 <
1 0 4 33366.00 32089.60 407.32 o
2 0 4 10666.50 10519.40 141.68 o
3 0 4 27739.20 26989.30 354.19 o
4 0 4 19635.30 18754.40 283.35 o
5 0 4 2966.45 2868.94 141.68 o
6 0 4 6105.57 6517.09 265.64 o
7 0 4 527.78 531.28 123.97 o
8 0 4 711.97 850.06 159.38 o
9 0 4 553.49 584.41 194.80 <
-8 1 4 3785.21 4427.37 301.06 o
-7 1 4 1724.10 1664.69 194.80 o
-6 1 4 768.28 956.31 141.68 o
-5 1 4 1435.59 1629.27 159.38 o
-4 1 4 56.34 70.84 70.84 <
-3 1 4 30.48 0.00 53.13 <
-2 1 4 29442.10 29539.40 442.74 o
-1 1 4 3717.89 3541.90 70.84 o
0 1 4 756.86 690.67 35.42 o
1 1 4 139213.00 133229.00 1434.47 o
2 1 4 9.65 53.13 17.71 o
3 1 4 336.08 318.77 35.42 o
4 1 4 19850.30 19391.90 283.35 o
5 1 4 3615.32 3170.00 141.68 o
6 1 4 16882.50 15584.40 425.03 o
7 1 4 778.30 513.58 123.97 o
8 1 4 707.48 779.22 177.10 o
9 1 4 11835.40 12308.10 478.16 o
-8 2 4 243.42 212.51 177.10 <
-7 2 4 513.07 761.51 159.38 o
-6 2 4 176.70 141.68 123.97 <
-5 2 4 615.62 796.93 141.68 o
-4 2 4 17686.40 17249.00 425.03 o
-3 2 4 1488.98 1399.05 88.55 o
-2 2 4 5826.17 5844.13 141.68 o
-1 2 4 35483.60 35507.50 407.32 o
0 2 4 5555.44 5932.68 88.55 o
1 2 4 320.01 425.03 35.42 o
2 2 4 67.09 70.84 17.71 o
3 2 4 257.01 283.35 35.42 o
4 2 4 17578.20 17231.30 230.22 o
5 2 4 12090.30 12927.90 283.35 o
6 2 4 2243.07 2603.30 177.10 o
7 2 4 13647.80 13441.50 389.61 o
8 2 4 1584.04 1434.47 177.10 o
9 2 4 956.32 1292.79 212.51 o
-8 3 4 1625.48 1806.37 230.22 o
-7 3 4 6927.62 6286.87 442.74 o
-6 3 4 1425.97 1080.28 159.38 o
-5 3 4 5667.43 5348.27 247.93 o
-4 3 4 22348.60 22136.90 531.28 o
-3 3 4 13.09 35.42 53.13 <
-2 3 4 12880.70 12644.60 230.22 o
-1 3 4 5245.32 5472.23 106.26 o
0 3 4 11139.80 11068.40 141.68 o
1 3 4 10788.20 10413.20 159.38 o
2 3 4 15320.40 15690.60 265.64 o
3 3 4 14021.80 14256.10 230.22 o
4 3 4 9013.19 9403.74 177.10 o
5 3 4 17330.70 16399.00 336.48 o
6 3 4 333.27 389.61 106.26 o
7 3 4 119.53 283.35 106.26 <
8 3 4 4.35 35.42 123.97 <
9 3 4 96.77 -230.22 230.22 <
-7 4 4 3.97 0.00 123.97 <
-6 4 4 2856.12 2585.59 212.51 o
-5 4 4 6.70 -88.55 88.55 <
-4 4 4 14.58 -53.13 53.13 <
-3 4 4 8021.26 8004.69 177.10 o
-2 4 4 45.96 53.13 35.42 <
-1 4 4 4573.75 4746.14 106.26 o
0 4 4 52372.50 50826.20 602.12 o
1 4 4 785.32 672.96 53.13 o
2 4 4 1056.22 1080.28 53.13 o
3 4 4 28454.30 28352.90 354.19 o
4 4 4 1813.02 2072.01 88.55 o
5 4 4 7690.11 7632.79 177.10 o
6 4 4 722.09 726.09 123.97 o
7 4 4 645.56 531.28 141.68 o
8 4 4 13466.30 13211.30 495.87 o
9 4 4 8.86 212.51 247.93 <
-7 5 4 41.60 -141.68 123.97 <
-6 5 4 6.24 -88.55 123.97 <
-5 5 4 7240.61 6251.45 283.35 o
-4 5 4 73.07 106.26 88.55 <
-3 5 4 6691.26 6251.45 194.80 o
-2 5 4 18356.30 17975.10 283.35 o
-1 5 4 567.76 655.25 53.13 o
0 5 4 3121.01 3046.03 88.55 o
1 5 4 604.16 619.83 53.13 o
2 5 4 575.82 584.41 53.13 o
3 5 4 7111.34 7260.89 177.10 o
4 5 4 2406.18 2213.69 106.26 o
5 5 4 3714.88 3648.16 159.38 o
6 5 4 10836.60 11033.00 407.32 o
7 5 4 404.17 478.16 141.68 o
8 5 4 1591.38 1664.69 212.51 o
9 5 4 820.53 1044.86 301.06 o
-7 6 4 185.76 194.80 159.38 <
-6 6 4 1463.43 1292.79 177.10 o
-5 6 4 15027.80 14893.70 495.87 o
-4 6 4 5.08 17.71 106.26 <
-3 6 4 967.00 726.09 88.55 o
-2 6 4 7630.59 7703.63 194.80 o
-1 6 4 7069.09 7225.47 159.38 o
0 6 4 7935.45 7933.85 177.10 o
1 6 4 3609.48 3612.74 159.38 o
2 6 4 4579.33 4498.21 159.38 o
3 6 4 19523.10 19445.00 389.61 o
4 6 4 4419.94 4746.14 177.10 o
5 6 4 32.75 17.71 70.84 <
6 6 4 2023.91 1877.21 212.51 o
7 6 4 5.01 -35.42 141.68 <
8 6 4 47.88 -17.71 177.10 <
-7 7 4 2611.83 2319.94 247.93 o
-6 7 4 156.24 123.97 159.38 <
-5 7 4 2.36 -35.42 141.68 <
-4 7 4 4.38 -35.42 106.26 <
-3 7 4 357.88 425.03 88.55 o
-2 7 4 1466.49 1399.05 106.26 o
-1 7 4 12563.10 13105.00 265.64 o
0 7 4 988.62 885.47 88.55 o
1 7 4 4463.28 4391.95 159.38 o
2 7 4 12179.30 12042.50 283.35 o
3 7 4 3317.92 3205.42 159.38 o
4 7 4 663.40 867.77 106.26 o
5 7 4 990.89 1168.83 141.68 o
6 7 4 152.57 247.93 141.68 <
7 7 4 6927.35 6694.19 389.61 o
8 7 4 260.57 123.97 194.80 <
-6 8 4 612.39 478.16 177.10 <
-5 8 4 61.76 123.97 106.26 <
-4 8 4 1406.94 1381.34 141.68 o
-3 8 4 3439.61 3400.22 212.51 o
-2 8 4 1082.33 1027.15 123.97 o
-1 8 4 2598.39 2355.36 177.10 o
0 8 4 1278.72 1186.54 106.26 o
1 8 4 668.28 796.93 106.26 o
2 8 4 956.08 1009.44 106.26 o
3 8 4 137.22 -17.71 70.84 <
4 8 4 1115.92 1062.57 141.68 o
5 8 4 4887.03 4285.70 247.93 o
6 8 4 6.75 -106.26 141.68 <
7 8 4 1979.51 2337.65 265.64 o
8 8 4 543.39 1328.21 301.06 o
-6 9 4 3734.81 3506.48 265.64 o
-5 9 4 435.12 584.41 141.68 o
-4 9 4 206.95 301.06 123.97 <
-3 9 4 3726.56 3789.83 230.22 o
-2 9 4 2417.59 2337.65 212.51 o
-1 9 4 2556.84 2762.68 230.22 o
0 9 4 82.79 35.42 106.26 <
1 9 4 1032.10 814.64 123.97 o
2 9 4 6159.95 5560.78 265.64 o
3 9 4 347.08 336.48 123.97 <
4 9 4 14.69 0.00 106.26 <
5 9 4 2218.34 2638.71 230.22 o
6 9 4 12.03 -35.42 141.68 <
7 9 4 1.96 -70.84 141.68 <
-5 10 4 77.41 123.97 123.97 <
-4 10 4 416.61 354.19 141.68 <
-3 10 4 433.32 478.16 123.97 o
-2 10 4 575.18 531.28 230.22 <
-1 10 4 396.87 495.87 159.38 o
0 10 4 980.14 796.93 141.68 o
1 10 4 1524.57 1381.34 177.10 o
2 10 4 2039.53 1965.75 194.80 o
3 10 4 55.13 177.10 141.68 <
4 10 4 1308.30 1204.25 177.10 o
5 10 4 619.09 690.67 177.10 o
6 10 4 1864.41 2001.17 336.48 o
-4 11 4 473.76 106.26 177.10 <
-3 11 4 989.83 867.77 212.51 o
-2 11 4 188.55 389.61 177.10 <
-1 11 4 85.33 354.19 177.10 <
0 11 4 874.98 1151.12 177.10 o
1 11 4 210.45 230.22 141.68 <
2 11 4 54.43 177.10 159.38 <
3 11 4 18.22 106.26 141.68 <
4 11 4 805.16 761.51 177.10 o
5 11 4 327.15 371.90 230.22 <
-3 12 4 853.31 991.73 336.48 <
-2 12 4 287.16 283.35 212.51 <
-1 12 4 311.12 354.19 177.10 <
0 12 4 483.25 407.32 177.10 <
1 12 4 1156.72 1062.57 194.80 o
2 12 4 193.75 230.22 141.68 <
3 12 4 0.13 17.71 194.80 <
4 12 4 643.81 531.28 212.51 <
-1 -10 5 1488.97 1930.33 318.77 o
0 -10 5 826.58 814.64 301.06 <
1 -10 5 55.01 -53.13 265.64 <
2 -10 5 41.41 -106.26 247.93 <
3 -10 5 469.80 513.58 212.51 <
4 -10 5 2668.05 2479.33 389.61 o
-2 -9 5 536.85 885.47 212.51 o
-1 -9 5 697.62 690.67 194.80 o
0 -9 5 39.86 -53.13 177.10 <
1 -9 5 176.20 283.35 159.38 <
2 -9 5 4704.17 3541.90 336.48 o
3 -9 5 23.30 177.10 177.10 <
4 -9 5 78.83 141.68 194.80 <
5 -9 5 1650.98 708.38 230.22 o
-3 -8 5 1295.80 1044.86 354.19 <
-2 -8 5 2.29 70.84 159.38 <
-1 -8 5 4.32 53.13 141.68 <
0 -8 5 3593.25 3152.29 265.64 o
1 -8 5 633.22 442.74 141.68 o
2 -8 5 29.10 212.51 159.38 <
3 -8 5 846.90 442.74 177.10 <
4 -8 5 1110.62 1097.99 212.51 o
5 -8 5 299.68 301.06 159.38 <
6 -8 5 255.58 -35.42 371.90 <
-4 -7 5 35.81 460.45 336.48 <
-3 -7 5 457.61 708.38 283.35 <
-2 -7 5 618.17 548.99 159.38 o
-1 -7 5 1783.53 1593.85 177.10 o
0 -7 5 3.15 53.13 106.26 <
1 -7 5 35.99 35.42 106.26 <
2 -7 5 958.01 903.18 177.10 o
3 -7 5 2793.49 3134.58 265.64 o
4 -7 5 89.64 35.42 123.97 <
5 -7 5 20.79 -35.42 141.68 <
6 -7 5 2991.14 2461.62 318.77 o
7 -7 5 189.07 -35.42 230.22 <
-5 -6 5 323.35 690.67 283.35 <
-4 -6 5 4.64 -53.13 212.51 <
-3 -6 5 1647.95 1540.73 301.06 o
-2 -6 5 389.49 531.28 141.68 o
-1 -6 5 155.80 230.22 123.97 <
0 -6 5 440.10 425.03 123.97 o
1 -6 5 5468.13 5826.42 230.22 o
2 -6 5 781.64 637.54 106.26 o
3 -6 5 2.53 123.97 106.26 <
4 -6 5 2491.54 2656.42 194.80 o
5 -6 5 2824.77 2922.07 230.22 o
6 -6 5 126.20 88.55 194.80 <
7 -6 5 7.79 -17.71 212.51 <
8 -6 5 522.44 814.64 407.32 <
-5 -5 5 1293.63 1363.63 283.35 o
-4 -5 5 764.98 1310.50 265.64 o
-3 -5 5 265.26 88.55 177.10 <
-2 -5 5 469.08 619.83 123.97 o
-1 -5 5 3742.21 3825.25 177.10 o
0 -5 5 939.22 956.31 106.26 o
1 -5 5 214.42 159.38 70.84 <
2 -5 5 344.35 389.61 88.55 o
3 -5 5 4039.27 4179.44 230.22 o
4 -5 5 141.85 35.42 106.26 <
5 -5 5 270.32 141.68 106.26 <
6 -5 5 152.22 230.22 159.38 <
7 -5 5 1264.04 1151.12 247.93 o
8 -5 5 0.14 35.42 354.19 <
-6 -4 5 266.76 389.61 230.22 <
-5 -4 5 21.47 -141.68 177.10 <
-4 -4 5 35.74 -35.42 123.97 <
-3 -4 5 259.76 318.77 123.97 <
-2 -4 5 2389.14 2567.88 141.68 o
-1 -4 5 34.94 17.71 70.84 <
0 -4 5 441.69 442.74 70.84 o
1 -4 5 4517.66 4250.28 159.38 o
2 -4 5 1612.28 1700.11 123.97 o
3 -4 5 318.32 301.06 88.55 o
4 -4 5 124.70 88.55 88.55 <
5 -4 5 3500.76 3276.26 212.51 o
6 -4 5 1192.00 1275.08 230.22 o
7 -4 5 20.97 -123.97 159.38 <
8 -4 5 283.76 35.42 212.51 <
9 -4 5 1125.74 1363.63 442.74 o
-6 -3 5 95.43 35.42 177.10 <
-5 -3 5 11.16 0.00 123.97 <
-4 -3 5 1981.03 2054.30 194.80 o
-3 -3 5 1059.99 920.89 159.38 o
-2 -3 5 46.00 141.68 70.84 <
-1 -3 5 5871.80 6109.77 177.10 o
0 -3 5 4631.48 4852.40 159.38 o
1 -3 5 1180.35 1221.95 88.55 o
2 -3 5 3603.89 3772.12 141.68 o
3 -3 5 3570.20 3329.38 141.68 o
4 -3 5 5653.30 5613.91 230.22 o
5 -3 5 638.34 602.12 123.97 o
6 -3 5 73.59 53.13 141.68 <
7 -3 5 2933.66 3293.97 336.48 o
8 -3 5 546.22 708.38 230.22 o
9 -3 5 0.01 -212.51 301.06 <
-7 -2 5 306.96 53.13 177.10 <
-6 -2 5 1116.34 1115.70 212.51 o
-5 -2 5 1131.40 1009.44 141.68 o
-4 -2 5 385.18 336.48 106.26 o
-3 -2 5 3148.08 2992.90 177.10 o
-2 -2 5 2618.30 2922.07 106.26 o
-1 -2 5 859.78 956.31 70.84 o
0 -2 5 3529.44 3630.45 106.26 o
1 -2 5 174.87 194.80 35.42 o
2 -2 5 7254.43 7225.47 141.68 o
3 -2 5 594.13 531.28 70.84 o
4 -2 5 468.14 495.87 70.84 o
5 -2 5 2099.18 2072.01 159.38 o
6 -2 5 241.49 265.64 106.26 <
7 -2 5 9.72 53.13 123.97 <
8 -2 5 15.92 -53.13 141.68 <
9 -2 5 22.13 -70.84 301.06 <
-7 -1 5 176.11 53.13 141.68 <
-6 -1 5 623.57 655.25 159.38 o
-5 -1 5 392.93 230.22 106.26 <
-4 -1 5 137.44 194.80 88.55 <
-3 -1 5 633.35 690.67 88.55 o
-2 -1 5 2032.24 1948.04 88.55 o
-1 -1 5 2700.12 2904.36 88.55 o
0 -1 5 6396.29 6269.16 123.97 o
1 -1 5 2886.09 2904.36 88.55 o
2 -1 5 65.58 70.84 35.42 <
3 -1 5 4561.02 4356.54 106.26 o
4 -1 5 852.60 867.77 88.55 o
5 -1 5 1169.79 1097.99 106.26 o
6 -1 5 1013.08 1186.54 141.68 o
7 -1 5 36.44 123.97 123.97 <
8 -1 5 1292.86 1611.56 194.80 o
9 -1 5 120.59 177.10 177.10 <
-7 0 5 629.38 867.77 194.80 o
-6 0 5 72.98 123.97 123.97 <
-5 0 5 377.19 265.64 106.26 <
-4 0 5 2097.35 1983.46 159.38 o
-3 0 5 572.05 442.74 70.84 o
-2 0 5 6314.51 6481.67 141.68 o
-1 0 5 3658.16 3595.03 88.55 o
0 0 5 250.83 247.93 35.42 o
1 0 5 14510.80 14539.50 194.80 o
2 0 5 2126.15 1983.46 70.84 o
3 0 5 5742.80 5543.07 123.97 o
4 0 5 7901.06 7827.60 212.51 o
5 0 5 22.90 35.42 70.84 <
6 0 5 5503.39 5118.04 247.93 o
7 0 5 728.06 761.51 141.68 o
8 0 5 3.50 -35.42 123.97 <
9 0 5 786.45 761.51 230.22 o
-7 1 5 193.39 159.38 159.38 <
-6 1 5 1197.18 1257.37 177.10 o
-5 1 5 1209.37 1292.79 159.38 o
-4 1 5 3071.35 2780.39 194.80 o
-3 1 5 1017.83 1115.70 88.55 o
-2 1 5 1043.82 1204.25 70.84 o
-1 1 5 8222.11 8305.75 159.38 o
0 1 5 718.70 867.77 35.42 o
1 1 5 1168.67 1151.12 53.13 o
2 1 5 5882.14 5737.88 106.26 o
3 1 5 1956.57 2018.88 70.84 o
4 1 5 4328.09 4002.35 123.97 o
5 1 5 21.48 159.38 53.13 <
6 1 5 7.92 17.71 88.55 <
7 1 5 1291.90 1399.05 159.38 o
8 1 5 420.86 478.16 159.38 o
9 1 5 75.05 230.22 212.51 <
-7 2 5 1118.15 708.38 159.38 o
-6 2 5 993.45 938.60 159.38 o
-5 2 5 154.19 -35.42 88.55 <
-4 2 5 1381.15 1328.21 141.68 o
-3 2 5 5803.85 6074.36 177.10 o
-2 2 5 3756.44 3825.25 123.97 o
-1 2 5 238.15 159.38 35.42 o
0 2 5 2153.60 2195.98 70.84 o
1 2 5 3911.73 3842.96 88.55 o
2 2 5 7592.96 7331.73 123.97 o
3 2 5 174.56 141.68 35.42 o
4 2 5 168.69 123.97 53.13 <
5 2 5 7713.83 7561.95 212.51 o
6 2 5 129.49 177.10 88.55 <
7 2 5 276.97 141.68 123.97 <
8 2 5 724.34 938.60 159.38 o
9 2 5 2.78 -70.84 194.80 <
-7 3 5 1.29 -70.84 141.68 <
-6 3 5 366.54 602.12 159.38 o
-5 3 5 4467.82 4693.02 265.64 o
-4 3 5 145.58 35.42 88.55 <
-3 3 5 2355.78 2443.91 123.97 o
-2 3 5 3820.94 3577.32 106.26 o
-1 3 5 426.33 442.74 35.42 o
0 3 5 17780.60 17833.50 247.93 o
1 3 5 400.56 354.19 35.42 o
2 3 5 29.01 35.42 35.42 <
3 3 5 19832.80 20365.90 265.64 o
4 3 5 91.86 35.42 53.13 <
5 3 5 2859.59 3028.32 141.68 o
6 3 5 3075.34 3223.13 194.80 o
7 3 5 19.65 -17.71 106.26 <
8 3 5 3454.27 3311.68 247.93 o
9 3 5 23.60 35.42 177.10 <
-7 4 5 1317.56 1257.37 194.80 o
-6 4 5 269.48 194.80 123.97 <
-5 4 5 1354.25 1345.92 159.38 o
-4 4 5 1263.25 1540.73 159.38 o
-3 4 5 1954.89 1753.24 141.68 o
-2 4 5 16611.50 16611.50 301.06 o
-1 4 5 75.89 123.97 35.42 o
0 4 5 1198.58 1239.66 53.13 o
1 4 5 18823.70 18276.20 265.64 o
2 4 5 868.22 814.64 53.13 o
3 4 5 1880.66 2089.72 88.55 o
4 4 5 346.51 531.28 53.13 o
5 4 5 497.23 389.61 70.84 o
6 4 5 5590.94 5613.91 247.93 o
7 4 5 1147.18 920.89 159.38 o
8 4 5 119.59 212.51 123.97 <
9 4 5 1218.90 1044.86 247.93 o
-7 5 5 403.21 371.90 177.10 <
-6 5 5 0.28 -17.71 123.97 <
-5 5 5 4156.47 3931.51 247.93 o
-4 5 5 7206.35 6587.93 283.35 o
-3 5 5 42.91 -17.71 88.55 <
-2 5 5 1241.86 1328.21 70.84 o
-1 5 5 6375.03 6747.32 141.68 o
0 5 5 1313.32 1328.21 70.84 o
1 5 5 9064.12 8500.56 159.38 o
2 5 5 79.59 35.42 35.42 <
3 5 5 3894.41 3966.93 123.97 o
4 5 5 14042.70 13884.20 265.64 o
5 5 5 90.03 141.68 53.13 <
6 5 5 478.28 637.54 141.68 o
7 5 5 2399.97 2762.68 247.93 o
8 5 5 10.62 -70.84 141.68 <
9 5 5 444.05 70.84 230.22 <
-7 6 5 1654.70 1558.44 230.22 o
-6 6 5 3269.07 2922.07 265.64 o
-5 6 5 143.13 70.84 123.97 <
-4 6 5 13.31 123.97 106.26 <
-3 6 5 3488.46 3718.99 159.38 o
-2 6 5 156.41 53.13 53.13 <
-1 6 5 15069.00 15407.30 265.64 o
0 6 5 1987.51 2125.14 88.55 o
1 6 5 1417.24 1576.14 88.55 o
2 6 5 30362.20 30336.40 478.16 o
3 6 5 1557.34 1523.02 88.55 o
4 6 5 236.32 123.97 70.84 <
5 6 5 6882.76 6605.64 230.22 o
6 6 5 81.01 212.51 123.97 <
7 6 5 4861.73 4923.24 336.48 o
8 6 5 66.60 -141.68 177.10 <
-6 7 5 64.65 -247.93 159.38 <
-5 7 5 719.46 531.28 141.68 o
-4 7 5 1463.56 1540.73 141.68 o
-3 7 5 9672.67 9226.65 247.93 o
-2 7 5 1032.68 974.02 88.55 o
-1 7 5 6364.43 6269.16 194.80 o
0 7 5 19624.10 19303.30 389.61 o
1 7 5 1345.19 1239.66 123.97 o
2 7 5 18.94 88.55 70.84 <
3 7 5 2062.63 2072.01 141.68 o
4 7 5 276.31 336.48 88.55 o
5 7 5 9152.07 8465.14 283.35 o
6 7 5 194.88 283.35 159.38 <
7 7 5 1987.87 1912.63 230.22 o
8 7 5 2806.28 2744.97 301.06 o
-6 8 5 3049.50 3293.97 283.35 o
-5 8 5 2522.85 2125.14 177.10 o
-4 8 5 354.73 177.10 106.26 <
-3 8 5 5301.91 5950.39 247.93 o
-2 8 5 3487.10 3364.80 177.10 o
-1 8 5 128.13 177.10 70.84 <
0 8 5 362.29 301.06 88.55 o
1 8 5 265.58 247.93 88.55 <
2 8 5 4664.31 4108.60 177.10 o
3 8 5 11291.10 11493.50 301.06 o
4 8 5 20.22 -17.71 88.55 <
5 8 5 4002.70 4108.60 212.51 o
6 8 5 3989.19 3718.99 301.06 o
7 8 5 95.96 35.42 159.38 <
8 8 5 5.99 -247.93 177.10 <
-5 9 5 793.67 1027.15 159.38 o
-4 9 5 1204.56 1452.18 159.38 o
-3 9 5 24.59 88.55 106.26 <
-2 9 5 2733.83 3293.97 247.93 o
-1 9 5 1593.03 1576.14 177.10 o
0 9 5 3255.73 3258.55 194.80 o
1 9 5 13779.90 13459.20 336.48 o
2 9 5 2215.60 2178.27 159.38 o
3 9 5 1098.01 832.35 123.97 o
4 9 5 7388.28 7066.09 265.64 o
5 9 5 749.31 779.22 177.10 o
6 9 5 1853.78 1700.11 230.22 o
7 9 5 418.02 212.51 212.51 <
-4 10 5 2907.20 2868.94 230.22 o
-3 10 5 2203.29 2160.56 212.51 o
-2 10 5 5199.41 5436.81 318.77 o
-1 10 5 5853.45 5879.55 442.74 o
0 10 5 2901.08 2798.10 230.22 o
1 10 5 774.43 690.67 141.68 o
2 10 5 1834.93 1593.85 177.10 o
3 10 5 156.47 0.00 123.97 <
4 10 5 2560.87 2390.78 212.51 o
5 10 5 85.51 -88.55 159.38 <
6 10 5 2425.79 1611.56 283.35 o
-3 11 5 505.61 478.16 212.51 <
-2 11 5 488.67 425.03 212.51 <
-1 11 5 108.99 -17.71 159.38 <
0 11 5 165.18 230.22 159.38 <
1 11 5 2954.24 2798.10 230.22 o
2 11 5 2640.60 2337.65 212.51 o
3 11 5 473.06 389.61 159.38 <
4 11 5 4967.15 4639.89 301.06 o
5 11 5 1555.87 1753.24 265.64 o
-2 12 5 632.26 -17.71 212.51 <
-1 12 5 1413.37 1345.92 247.93 o
0 12 5 4740.54 5153.46 389.61 o
1 12 5 3788.29 3541.90 265.64 o
2 12 5 1696.28 1682.40 212.51 o
3 12 5 2607.64 1841.79 265.64 o
4 12 5 1668.90 1540.73 283.35 o
-1 -9 6 8.05 -106.26 230.22 <
0 -9 6 6462.32 6587.93 478.16 o
1 -9 6 43.68 -247.93 194.80 <
2 -9 6 364.69 584.41 301.06 <
3 -9 6 5599.85 4852.40 531.28 o
4 -9 6 16.31 265.64 212.51 <
5 -9 6 1077.54 460.45 283.35 <
-2 -8 6 6982.03 7314.02 407.32 o
-1 -8 6 11.34 88.55 159.38 <
0 -8 6 20.69 212.51 159.38 <
1 -8 6 3438.58 3258.55 318.77 o
2 -8 6 252.70 212.51 159.38 <
3 -8 6 676.80 478.16 177.10 <
4 -8 6 140.96 0.00 159.38 <
5 -8 6 776.63 850.06 230.22 o
6 -8 6 1563.02 1753.24 354.19 o
-3 -7 6 623.55 743.80 371.90 <
-2 -7 6 1002.36 814.64 177.10 o
-1 -7 6 115.03 141.68 141.68 <
0 -7 6 3697.04 3772.12 265.64 o
1 -7 6 991.33 1027.15 159.38 o
2 -7 6 1483.17 1310.50 212.51 o
3 -7 6 4808.13 4303.41 318.77 o
4 -7 6 3414.43 3754.41 265.64 o
5 -7 6 2147.99 2195.98 230.22 o
6 -7 6 1077.13 1275.08 194.80 o
7 -7 6 295.10 584.41 389.61 <
-4 -6 6 264.81 336.48 283.35 <
-3 -6 6 1763.66 1540.73 336.48 o
-2 -6 6 104.07 0.00 123.97 <
-1 -6 6 12658.90 12715.40 407.32 o
0 -6 6 369.00 442.74 141.68 o
1 -6 6 747.30 920.89 123.97 o
2 -6 6 17590.40 17426.10 478.16 o
3 -6 6 305.08 407.32 123.97 o
4 -6 6 391.38 301.06 123.97 <
5 -6 6 2516.17 2744.97 230.22 o
6 -6 6 60.80 212.51 159.38 <
7 -6 6 4221.30 4746.14 442.74 o
8 -6 6 36.65 -159.38 425.03 <
-5 -5 6 1443.27 1611.56 371.90 o
-4 -5 6 220.26 318.77 230.22 <
-3 -5 6 14800.60 15159.30 743.80 o
-2 -5 6 1467.47 1611.56 194.80 o
-1 -5 6 2207.67 2036.59 141.68 o
0 -5 6 12687.70 12290.40 301.06 o
1 -5 6 380.53 495.87 88.55 o
2 -5 6 210.54 141.68 88.55 <
3 -5 6 23.46 17.71 88.55 <
4 -5 6 2801.60 2992.90 212.51 o
5 -5 6 6153.87 6269.16 301.06 o
6 -5 6 1653.70 1611.56 194.80 o
7 -5 6 5068.54 4604.47 389.61 o
8 -5 6 1257.27 1257.37 301.06 o
-5 -4 6 1966.26 1505.31 336.48 o
-4 -4 6 11.40 -53.13 159.38 <
-3 -4 6 6171.15 6003.52 336.48 o
-2 -4 6 1202.77 1115.70 123.97 o
-1 -4 6 2014.03 2142.85 141.68 o
0 -4 6 28.26 17.71 70.84 <
1 -4 6 1615.75 1576.14 123.97 o
2 -4 6 17242.50 17461.60 442.74 o
3 -4 6 9264.25 9244.36 301.06 o
4 -4 6 3397.69 3772.12 230.22 o
5 -4 6 15057.80 14203.00 425.03 o
6 -4 6 1159.78 1168.83 159.38 o
7 -4 6 600.45 566.70 230.22 <
8 -4 6 214.67 247.93 247.93 <
-6 -3 6 699.09 513.58 265.64 <
-5 -3 6 414.96 672.96 194.80 o
-4 -3 6 1871.52 1487.60 212.51 o
-3 -3 6 94.57 88.55 106.26 <
-2 -3 6 9494.18 9704.80 283.35 o
-1 -3 6 1576.97 1664.69 123.97 o
0 -3 6 5504.23 5684.75 177.10 o
1 -3 6 36396.80 35489.80 619.83 o
2 -3 6 2979.28 3081.45 177.10 o
3 -3 6 1576.33 1469.89 141.68 o
4 -3 6 8770.41 8783.91 301.06 o
5 -3 6 1161.17 1080.28 141.68 o
6 -3 6 5904.10 6499.38 301.06 o
7 -3 6 1.84 -106.26 141.68 <
8 -3 6 911.20 814.64 265.64 o
9 -3 6 7255.51 6871.28 850.06 o
-6 -2 6 1744.87 1523.02 247.93 o
-5 -2 6 247.98 336.48 177.10 <
-4 -2 6 13183.20 12131.00 460.45 o
-3 -2 6 6795.91 6729.61 247.93 o
-2 -2 6 5068.90 5436.81 212.51 o
-1 -2 6 20236.10 19994.00 389.61 o
0 -2 6 6691.52 6162.90 177.10 o
1 -2 6 31.85 0.00 53.13 <
2 -2 6 5041.43 4905.53 159.38 o
3 -2 6 559.54 761.51 106.26 o
4 -2 6 9226.35 8535.98 283.35 o
5 -2 6 135.63 -35.42 88.55 <
6 -2 6 11799.10 11812.20 371.90 o
7 -2 6 5352.87 4693.02 354.19 o
8 -2 6 338.69 177.10 212.51 <
9 -2 6 4149.24 3913.80 619.83 o
-6 -1 6 1735.45 1841.79 265.64 o
-5 -1 6 1544.56 1381.34 194.80 o
-4 -1 6 10072.50 9244.36 389.61 o
-3 -1 6 403.20 336.48 88.55 o
-2 -1 6 5.42 0.00 53.13 <
-1 -1 6 610.56 672.96 70.84 o
0 -1 6 311.34 336.48 53.13 o
1 -1 6 26727.00 26050.70 407.32 o
2 -1 6 8131.23 8252.62 194.80 o
3 -1 6 249.03 230.22 70.84 o
4 -1 6 36207.00 37402.40 779.22 o
5 -1 6 3221.27 3028.32 194.80 o
6 -1 6 157.68 -177.10 106.26 <
7 -1 6 3047.56 3329.38 318.77 o
8 -1 6 414.94 442.74 212.51 <
9 -1 6 890.85 1487.60 301.06 o
-7 0 6 2447.58 2213.69 301.06 o
-6 0 6 1430.70 1434.47 194.80 o
-5 0 6 389.66 584.41 141.68 o
-4 0 6 542.60 690.67 123.97 o
-3 0 6 5585.88 5826.42 230.22 o
-2 0 6 2800.69 2815.81 106.26 o
-1 0 6 14734.50 15265.60 247.93 o
0 0 6 30005.30 29273.80 371.90 o
1 0 6 18425.30 18435.60 247.93 o
2 0 6 7002.95 7012.96 141.68 o
3 0 6 9820.70 9350.61 212.51 o
4 0 6 6130.19 5861.84 177.10 o
5 0 6 8051.54 8128.66 265.64 o
6 0 6 2098.54 1841.79 159.38 o
7 0 6 1011.41 1328.21 177.10 o
8 0 6 10794.80 10537.10 389.61 o
9 0 6 1067.95 1027.15 212.51 o
-7 1 6 974.29 531.28 247.93 <
-6 1 6 313.60 141.68 159.38 <
-5 1 6 9912.15 9757.93 336.48 o
-4 1 6 9552.91 10236.10 336.48 o
-3 1 6 3981.13 4108.60 194.80 o
-2 1 6 22251.50 23411.90 389.61 o
-1 1 6 28564.70 29025.90 478.16 o
0 1 6 943.47 991.73 53.13 o
1 1 6 4611.90 4940.95 106.26 o
2 1 6 2000.49 2036.59 70.84 o
3 1 6 11478.70 11174.70 212.51 o
4 1 6 1456.33 1505.31 106.26 o
5 1 6 16450.40 16363.60 354.19 o
6 1 6 6893.54 6340.00 265.64 o
7 1 6 973.85 903.18 159.38 o
8 1 6 7456.71 7969.27 371.90 o
9 1 6 11.48 17.71 159.38 <
-7 2 6 710.10 743.80 230.22 o
-6 2 6 2291.02 2337.65 212.51 o
-5 2 6 5786.30 5791.00 283.35 o
-4 2 6 225.28 123.97 106.26 <
-3 2 6 3827.98 4090.89 212.51 o
-2 2 6 2090.12 2160.56 106.26 o
-1 2 6 771.82 743.80 53.13 o
0 2 6 9342.73 9368.32 159.38 o
1 2 6 3929.67 3984.64 88.55 o
2 2 6 1.04 35.42 35.42 <
3 2 6 63987.10 62160.30 867.77 o
4 2 6 1128.94 1097.99 88.55 o
5 2 6 1106.94 1115.70 106.26 o
6 2 6 10756.00 10643.40 354.19 o
7 2 6 1136.52 1062.57 159.38 o
8 2 6 738.94 779.22 177.10 o
9 2 6 681.59 301.06 194.80 <
-7 3 6 889.49 938.60 265.64 o
-6 3 6 69.35 53.13 141.68 <
-5 3 6 872.35 1027.15 159.38 o
-4 3 6 809.62 850.06 141.68 o
-3 3 6 2050.08 1806.37 159.38 o
-2 3 6 4607.53 4905.53 141.68 o
-1 3 6 9711.56 10448.60 194.80 o
0 3 6 18644.20 18701.20 265.64 o
1 3 6 8232.21 8518.27 159.38 o
2 3 6 7158.40 7012.96 123.97 o
3 3 6 12754.70 13175.90 247.93 o
4 3 6 1364.76 1611.56 88.55 o
5 3 6 1576.95 1877.21 123.97 o
6 3 6 144.66 88.55 88.55 <
7 3 6 8636.54 9049.55 318.77 o
8 3 6 2390.42 2744.97 230.22 o
9 3 6 2751.95 2709.55 301.06 o
-6 4 6 4001.00 4020.05 265.64 o
-5 4 6 5992.40 5631.62 301.06 o
-4 4 6 1010.86 1204.25 159.38 o
-3 4 6 6776.57 7314.02 265.64 o
-2 4 6 25168.50 24386.00 425.03 o
-1 4 6 8.85 35.42 35.42 <
0 4 6 4397.02 4285.70 106.26 o
1 4 6 8100.42 7792.18 159.38 o
2 4 6 3957.18 4055.47 106.26 o
3 4 6 3162.00 3240.84 106.26 o
4 4 6 4899.15 5047.21 159.38 o
5 4 6 2881.32 3099.16 159.38 o
6 4 6 1984.33 2567.88 177.10 o
7 4 6 9630.32 8996.42 371.90 o
8 4 6 26.56 -53.13 141.68 <
9 4 6 48.49 159.38 194.80 <
-6 5 6 2285.78 2284.52 230.22 o
-5 5 6 316.33 283.35 123.97 <
-4 5 6 3942.10 3825.25 247.93 o
-3 5 6 416.23 478.16 123.97 o
-2 5 6 2417.80 2426.20 123.97 o
-1 5 6 3381.21 3223.13 123.97 o
0 5 6 288.99 318.77 53.13 o
1 5 6 847.14 885.47 70.84 o
2 5 6 30331.70 29185.20 407.32 o
3 5 6 480.92 478.16 70.84 o
4 5 6 1953.99 1788.66 106.26 o
5 5 6 10261.50 10554.90 354.19 o
6 5 6 1422.80 1328.21 159.38 o
7 5 6 316.73 194.80 123.97 <
8 5 6 64.90 230.22 159.38 <
9 5 6 121.80 301.06 194.80 <
-6 6 6 972.31 991.73 194.80 o
-5 6 6 254.57 70.84 141.68 <
-4 6 6 0.77 17.71 123.97 <
-3 6 6 1306.06 1363.63 141.68 o
-2 6 6 1824.82 1948.04 123.97 o
-1 6 6 9982.02 10041.30 230.22 o
0 6 6 3744.66 4090.89 141.68 o
1 6 6 308.02 212.51 53.13 o
2 6 6 12014.40 12874.80 283.35 o
3 6 6 1302.29 1151.12 88.55 o
4 6 6 1005.48 743.80 88.55 o
5 6 6 161.29 106.26 88.55 <
6 6 6 3537.55 3577.32 265.64 o
7 6 6 3074.01 3435.64 283.35 o
8 6 6 935.33 956.31 212.51 o
-6 7 6 1520.38 1239.66 283.35 o
-5 7 6 10.78 88.55 141.68 <
-4 7 6 3334.56 3683.57 212.51 o
-3 7 6 12187.30 11599.70 318.77 o
-2 7 6 53.98 88.55 70.84 <
-1 7 6 667.44 566.70 88.55 o
0 7 6 10009.60 10076.70 265.64 o
1 7 6 3609.65 3559.61 159.38 o
2 7 6 832.55 1133.41 106.26 o
3 7 6 231.31 159.38 70.84 <
4 7 6 1609.03 1611.56 123.97 o
5 7 6 3856.97 3665.86 230.22 o
6 7 6 3003.24 2922.07 265.64 o
7 7 6 179.24 -35.42 159.38 <
8 7 6 571.86 407.32 194.80 <
-5 8 6 1474.62 1452.18 177.10 o
-4 8 6 16.25 141.68 106.26 <
-3 8 6 779.04 602.12 123.97 o
-2 8 6 1.38 0.00 53.13 <
-1 8 6 130.54 194.80 70.84 <
0 8 6 3.42 0.00 70.84 <
1 8 6 5910.32 5808.71 230.22 o
2 8 6 565.28 425.03 88.55 o
3 8 6 1268.15 1221.95 123.97 o
4 8 6 4465.70 4498.21 194.80 o
5 8 6 1774.62 1841.79 177.10 o
6 8 6 25.60 -70.84 159.38 <
7 8 6 129.39 194.80 177.10 <
8 8 6 148.45 35.42 194.80 <
-5 9 6 11.43 -123.97 141.68 <
-4 9 6 1.27 70.84 106.26 <
-3 9 6 507.05 336.48 123.97 <
-2 9 6 1926.29 1983.46 159.38 o
-1 9 6 16.19 53.13 88.55 <
0 9 6 127.60 106.26 88.55 <
1 9 6 4267.24 4391.95 212.51 o
2 9 6 412.57 283.35 106.26 <
3 9 6 100.86 123.97 88.55 <
4 9 6 1032.81 974.02 123.97 o
5 9 6 1280.70 956.31 141.68 o
6 9 6 849.32 672.96 194.80 o
7 9 6 16.34 53.13 230.22 <
-4 10 6 3291.39 3187.71 301.06 o
-3 10 6 1023.13 1080.28 159.38 o
-2 10 6 443.94 389.61 159.38 <
-1 10 6 3670.08 3754.41 407.32 o
0 10 6 2948.91 3187.71 230.22 o
1 10 6 523.03 584.41 123.97 o
2 10 6 463.44 602.12 123.97 o
3 10 6 724.48 548.99 123.97 o
4 10 6 1010.24 779.22 141.68 o
5 10 6 86.60 35.42 159.38 <
6 10 6 98.85 -53.13 194.80 <
-3 11 6 1.01 35.42 194.80 <
-2 11 6 344.22 -53.13 212.51 <
-1 11 6 22.40 70.84 177.10 <
0 11 6 343.25 354.19 194.80 <
1 11 6 147.35 70.84 159.38 <
2 11 6 68.08 17.71 141.68 <
3 11 6 346.71 301.06 177.10 <
4 11 6 920.26 920.89 212.51 o
5 11 6 2.38 70.84 159.38 <
-1 12 6 35.64 -230.22 194.80 <
0 12 6 526.29 637.54 230.22 <
1 12 6 447.90 141.68 194.80 <
2 12 6 0.02 -247.93 159.38 <
3 12 6 327.21 301.06 230.22 <
1 -9 7 1878.56 1275.08 389.61 o
2 -9 7 663.79 301.06 283.35 <
3 -9 7 115.66 371.90 230.22 <
-1 -8 7 236.64 371.90 194.80 <
0 -8 7 1158.62 1806.37 283.35 o
1 -8 7 0.80 141.68 194.80 <
2 -8 7 221.21 -35.42 177.10 <
3 -8 7 998.11 1044.86 212.51 o
4 -8 7 1698.41 1257.37 301.06 o
5 -8 7 81.12 -35.42 212.51 <
-2 -7 7 724.57 779.22 212.51 o
-1 -7 7 91.75 -17.71 159.38 <
0 -7 7 912.99 850.06 177.10 o
1 -7 7 42.90 -141.68 159.38 <
2 -7 7 1786.96 1540.73 212.51 o
3 -7 7 183.35 106.26 159.38 <
4 -7 7 260.11 371.90 177.10 <
5 -7 7 569.93 389.61 159.38 <
6 -7 7 1396.19 1611.56 283.35 o
-3 -6 7 324.99 247.93 265.64 <
-2 -6 7 352.42 354.19 177.10 <
-1 -6 7 126.38 141.68 123.97 <
0 -6 7 896.18 832.35 159.38 o
1 -6 7 1802.92 1824.08 212.51 o
2 -6 7 211.31 230.22 123.97 <
3 -6 7 22.21 106.26 106.26 <
4 -6 7 3069.18 2815.81 230.22 o
5 -6 7 752.77 814.64 159.38 o
6 -6 7 189.26 318.77 159.38 <
7 -6 7 186.50 230.22 371.90 <
-4 -5 7 25.11 -17.71 283.35 <
-3 -5 7 264.97 548.99 230.22 <
-2 -5 7 8.69 53.13 123.97 <
-1 -5 7 2432.53 2284.52 177.10 o
0 -5 7 26.83 53.13 88.55 <
1 -5 7 1708.84 2107.43 177.10 o
2 -5 7 2208.42 1894.92 159.38 o
3 -5 7 1960.77 1664.69 212.51 o
4 -5 7 16.34 35.42 123.97 <
5 -5 7 0.26 106.26 106.26 <
6 -5 7 1099.19 1027.15 194.80 o
7 -5 7 1893.72 2125.14 318.77 o
8 -5 7 25.81 -389.61 354.19 <
-4 -4 7 1079.66 761.51 283.35 <
-3 -4 7 1080.69 1009.44 194.80 o
-2 -4 7 0.77 35.42 106.26 <
-1 -4 7 3376.37 3187.71 177.10 o
0 -4 7 845.55 814.64 106.26 o
1 -4 7 534.18 283.35 88.55 o
2 -4 7 3.15 -35.42 88.55 <
3 -4 7 213.17 230.22 106.26 <
4 -4 7 10.69 17.71 106.26 <
5 -4 7 2892.17 2904.36 212.51 o
6 -4 7 32.30 159.38 123.97 <
7 -4 7 292.99 548.99 230.22 <
8 -4 7 609.48 548.99 247.93 <
-5 -3 7 411.62 318.77 194.80 <
-4 -3 7 64.57 265.64 159.38 <
-3 -3 7 1090.21 743.80 177.10 o
-2 -3 7 467.84 478.16 123.97 o
-1 -3 7 83.49 70.84 70.84 <
0 -3 7 1135.14 1381.34 123.97 o
1 -3 7 0.22 -17.71 70.84 <
2 -3 7 508.26 513.58 106.26 o
3 -3 7 6095.16 5507.65 230.22 o
4 -3 7 426.72 690.67 123.97 o
5 -3 7 696.13 584.41 123.97 o
6 -3 7 1461.08 1540.73 177.10 o
7 -3 7 1204.19 1399.05 283.35 o
8 -3 7 376.57 460.45 230.22 <
9 -3 7 11.38 371.90 301.06 <
-5 -2 7 110.91 247.93 159.38 <
-4 -2 7 326.44 230.22 123.97 <
-3 -2 7 150.90 -53.13 106.26 <
-2 -2 7 1805.70 1735.53 141.68 o
-1 -2 7 1519.74 1469.89 123.97 o
0 -2 7 1201.35 1044.86 106.26 o
1 -2 7 5338.95 5277.43 177.10 o
2 -2 7 2058.87 2249.11 159.38 o
3 -2 7 3.60 123.97 88.55 <
4 -2 7 2693.08 3116.87 194.80 o
5 -2 7 324.36 318.77 106.26 <
6 -2 7 2436.48 2585.59 194.80 o
7 -2 7 313.90 442.74 177.10 <
8 -2 7 5.78 318.77 230.22 <
9 -2 7 1756.12 1824.08 460.45 o
-6 -1 7 32.78 301.06 283.35 <
-5 -1 7 1701.30 1469.89 212.51 o
-4 -1 7 306.88 584.41 159.38 o
-3 -1 7 492.52 247.93 123.97 <
-2 -1 7 4899.21 4958.66 177.10 o
-1 -1 7 2467.86 2479.33 159.38 o
0 -1 7 153.65 230.22 70.84 o
1 -1 7 297.09 354.19 70.84 o
2 -1 7 2736.10 2798.10 159.38 o
3 -1 7 511.76 566.70 88.55 o
4 -1 7 2135.85 1841.79 141.68 o
5 -1 7 223.61 106.26 88.55 <
6 -1 7 748.43 726.09 123.97 o
7 -1 7 1560.78 1806.37 247.93 o
8 -1 7 2.08 88.55 212.51 <
9 -1 7 28.98 265.64 212.51 <
-6 0 7 47.26 106.26 212.51 <
-5 0 7 145.38 -17.71 159.38 <
-4 0 7 3469.66 3772.12 301.06 o
-3 0 7 915.31 1009.44 159.38 o
-2 0 7 140.86 177.10 70.84 <
-1 0 7 8.08 0.00 53.13 <
0 0 7 2767.05 2992.90 123.97 o
1 0 7 2634.01 2780.39 106.26 o
2 0 7 5823.19 5844.13 212.51 o
3 0 7 3300.24 2904.36 159.38 o
4 0 7 778.15 832.35 106.26 o
5 0 7 5427.09 5472.23 247.93 o
6 0 7 643.86 336.48 123.97 <
7 0 7 360.70 301.06 177.10 <
8 0 7 1529.02 1558.44 283.35 o
9 0 7 15.91 70.84 194.80 <
-6 1 7 768.58 672.96 177.10 o
-5 1 7 1644.57 1841.79 177.10 o
-4 1 7 113.12 17.71 106.26 <
-3 1 7 2.53 141.68 106.26 <
-2 1 7 4814.50 5082.62 177.10 o
-1 1 7 1582.71 1629.27 88.55 o
0 1 7 3617.01 3896.09 106.26 o
1 1 7 3775.18 4002.35 123.97 o
2 1 7 259.49 212.51 53.13 o
3 1 7 11574.20 10944.50 247.93 o
4 1 7 96.66 88.55 70.84 <
5 1 7 1180.37 1080.28 106.26 o
6 1 7 5517.47 4870.11 194.80 o
7 1 7 105.78 106.26 123.97 <
8 1 7 1992.49 1806.37 212.51 o
9 1 7 248.80 301.06 194.80 <
-6 2 7 542.60 548.99 159.38 o
-5 2 7 245.54 159.38 123.97 <
-4 2 7 1130.09 832.35 141.68 o
-3 2 7 4815.62 4816.98 230.22 o
-2 2 7 1096.76 1097.99 106.26 o
-1 2 7 18.60 88.55 53.13 <
0 2 7 7485.80 7473.41 141.68 o
1 2 7 6355.28 6410.84 141.68 o
2 2 7 2553.06 2815.81 106.26 o
3 2 7 200.96 194.80 53.13 o
4 2 7 2535.95 2674.13 141.68 o
5 2 7 2380.90 2195.98 141.68 o
6 2 7 1415.50 1540.73 123.97 o
7 2 7 4.29 53.13 123.97 <
8 2 7 254.54 159.38 159.38 <
9 2 7 896.09 779.22 194.80 o
-6 3 7 154.83 371.90 159.38 <
-5 3 7 3281.15 3258.55 247.93 o
-4 3 7 491.87 478.16 123.97 o
-3 3 7 258.97 230.22 106.26 <
-2 3 7 3781.16 3825.25 141.68 o
-1 3 7 6488.31 6623.35 159.38 o
0 3 7 4108.18 4037.76 123.97 o
1 3 7 0.66 -35.42 35.42 <
2 3 7 5002.52 4870.11 123.97 o
3 3 7 2672.83 2390.78 106.26 o
4 3 7 4492.87 5153.46 177.10 o
5 3 7 258.86 301.06 88.55 o
6 3 7 31.19 17.71 70.84 <
7 3 7 6189.02 6357.71 301.06 o
8 3 7 34.64 70.84 123.97 <
9 3 7 275.12 70.84 212.51 <
-6 4 7 1443.90 1629.27 212.51 o
-5 4 7 2.15 -106.26 141.68 <
-4 4 7 1477.37 1700.11 177.10 o
-3 4 7 7932.12 8181.79 301.06 o
-2 4 7 104.53 35.42 70.84 <
-1 4 7 344.33 318.77 70.84 o
0 4 7 5454.27 5560.78 159.38 o
1 4 7 986.62 991.73 70.84 o
2 4 7 11648.30 11174.70 212.51 o
3 4 7 162.78 230.22 53.13 o
4 4 7 493.41 247.93 53.13 o
5 4 7 12132.70 12255.00 301.06 o
6 4 7 292.17 247.93 88.55 <
7 4 7 376.66 566.70 141.68 o
8 4 7 1495.42 1381.34 212.51 o
9 4 7 42.68 123.97 212.51 <
-6 5 7 1560.46 1399.05 301.06 o
-5 5 7 1307.41 974.02 177.10 o
-4 5 7 1315.89 1027.15 159.38 o
-3 5 7 0.67 141.68 88.55 <
-2 5 7 416.77 442.74 70.84 o
-1 5 7 8217.62 7685.92 212.51 o
0 5 7 6990.98 6959.83 212.51 o
1 5 7 488.74 602.12 70.84 o
2 5 7 6012.62 6304.58 159.38 o
3 5 7 6476.75 6906.70 159.38 o
4 5 7 2626.66 2054.30 123.97 o
5 5 7 9.74 -17.71 70.84 <
6 5 7 183.36 247.93 88.55 <
7 5 7 1116.46 761.51 159.38 o
8 5 7 1417.06 1487.60 230.22 o
9 5 7 356.37 637.54 177.10 o
-5 6 7 6.63 -88.55 141.68 <
-4 6 7 53.34 35.42 106.26 <
-3 6 7 6592.75 6747.32 247.93 o
-2 6 7 5890.10 5631.62 177.10 o
-1 6 7 327.14 194.80 70.84 <
0 6 7 3437.53 3648.16 159.38 o
1 6 7 8016.36 7721.34 194.80 o
2 6 7 429.80 442.74 70.84 o
3 6 7 2376.55 2390.78 141.68 o
4 6 7 992.84 1239.66 123.97 o
5 6 7 898.03 885.47 106.26 o
6 6 7 8591.42 8376.59 283.35 o
7 6 7 8.82 35.42 141.68 <
8 6 7 92.74 17.71 159.38 <
-5 7 7 2354.77 2337.65 194.80 o
-4 7 7 4954.79 4639.89 247.93 o
-3 7 7 404.01 354.19 123.97 <
-2 7 7 623.13 672.96 88.55 o
-1 7 7 5761.29 5578.49 212.51 o
0 7 7 6.02 35.42 70.84 <
1 7 7 6586.56 6694.19 212.51 o
2 7 7 1796.56 1841.79 141.68 o
3 7 7 1624.98 1523.02 123.97 o
4 7 7 15929.70 15389.50 407.32 o
5 7 7 272.37 177.10 88.55 <
6 7 7 169.02 141.68 88.55 <
7 7 7 3413.20 3577.32 318.77 o
8 7 7 7.42 -123.97 194.80 <
-5 8 7 3.41 53.13 159.38 <
-4 8 7 678.27 637.54 141.68 o
-3 8 7 474.12 460.45 123.97 o
-2 8 7 3131.33 3099.16 177.10 o
-1 8 7 1828.60 2266.82 159.38 o
0 8 7 2.60 0.00 88.55 <
1 8 7 8853.90 8783.91 247.93 o
2 8 7 7959.76 8288.04 265.64 o
3 8 7 112.13 70.84 88.55 <
4 8 7 1499.49 1629.27 159.38 o
5 8 7 1317.77 1469.89 159.38 o
6 8 7 323.78 354.19 123.97 <
7 8 7 1154.36 1097.99 247.93 o
-4 9 7 3673.79 3772.12 265.64 o
-3 9 7 1222.59 1009.44 159.38 o
-2 9 7 57.23 70.84 88.55 <
-1 9 7 6249.94 5968.10 265.64 o
0 9 7 4012.15 4002.35 230.22 o
1 9 7 6.05 -53.13 106.26 <
2 9 7 44.99 35.42 88.55 <
3 9 7 1461.85 1328.21 141.68 o
4 9 7 474.09 495.87 123.97 o
5 9 7 4838.25 4852.40 247.93 o
6 9 7 165.08 141.68 141.68 <
7 9 7 793.64 460.45 212.51 <
-3 10 7 1243.91 1027.15 194.80 o
-2 10 7 2149.14 2319.94 194.80 o
-1 10 7 176.01 159.38 106.26 <
0 10 7 677.55 832.35 141.68 o
1 10 7 1898.86 1257.37 159.38 o
2 10 7 1252.20 1044.86 141.68 o
3 10 7 5813.97 6269.16 265.64 o
4 10 7 818.13 655.25 141.68 o
5 10 7 1034.70 672.96 141.68 o
6 10 7 3865.88 4214.86 495.87 o
-2 11 7 193.08 -194.80 212.51 <
-1 11 7 197.72 35.42 177.10 <
0 11 7 5817.01 5525.36 318.77 o
1 11 7 1935.33 1434.47 194.80 o
2 11 7 266.42 212.51 123.97 <
3 11 7 3149.46 2638.71 212.51 o
4 11 7 740.32 743.80 230.22 o
5 11 7 90.57 -106.26 212.51 <
0 12 7 595.96 655.25 212.51 o
1 12 7 852.71 1115.70 230.22 o
2 12 7 321.76 230.22 194.80 <
3 12 7 151.92 566.70 230.22 <
1 -8 8 220.82 460.45 265.64 <
2 -8 8 6461.86 6570.22 637.54 o
3 -8 8 244.81 247.93 194.80 <
-1 -7 8 634.01 531.28 247.93 <
0 -7 8 3905.99 3612.74 354.19 o
1 -7 8 264.78 70.84 194.80 <
2 -7 8 1172.97 1080.28 230.22 o
3 -7 8 2087.27 2532.46 265.64 o
4 -7 8 569.41 318.77 194.80 <
5 -7 8 5.99 247.93 194.80 <
-2 -6 8 2657.24 2142.85 442.74 o
-1 -6 8 105.73 -53.13 177.10 <
0 -6 8 1205.99 1186.54 230.22 o
1 -6 8 1338.02 1487.60 230.22 o
2 -6 8 271.11 336.48 141.68 <
3 -6 8 1878.81 1576.14 212.51 o
4 -6 8 7.94 106.26 159.38 <
5 -6 8 585.25 690.67 159.38 o
6 -6 8 5363.81 5808.71 442.74 o
-3 -5 8 1494.89 1292.79 371.90 o
-2 -5 8 545.86 602.12 301.06 <
-1 -5 8 4875.97 5578.49 265.64 o
0 -5 8 767.64 548.99 123.97 o
1 -5 8 12557.00 13317.50 495.87 o
2 -5 8 1389.78 1487.60 177.10 o
3 -5 8 84.15 0.00 106.26 <
4 -5 8 14753.00 13778.00 442.74 o
5 -5 8 737.33 920.89 159.38 o
6 -5 8 5.44 70.84 141.68 <
7 -5 8 2026.09 1558.44 513.58 o
-3 -4 8 439.00 301.06 194.80 <
-2 -4 8 509.58 283.35 123.97 <
-1 -4 8 7470.53 7561.95 283.35 o
0 -4 8 17.60 106.26 88.55 <
1 -4 8 6368.65 6145.19 265.64 o
2 -4 8 7026.16 6800.45 283.35 o
3 -4 8 3.51 0.00 88.55 <
4 -4 8 1424.79 1345.92 159.38 o
5 -4 8 20.73 -17.71 123.97 <
6 -4 8 1042.90 867.77 177.10 o
7 -4 8 1429.56 1629.27 301.06 o
8 -4 8 1157.87 2018.88 495.87 o
-4 -3 8 4152.13 4250.28 318.77 o
-3 -3 8 1836.53 1735.53 301.06 o
-2 -3 8 22.04 70.84 88.55 <
-1 -3 8 6371.33 6162.90 283.35 o
0 -3 8 2807.92 2815.81 159.38 o
1 -3 8 9.63 -53.13 88.55 <
2 -3 8 221.32 141.68 88.55 <
3 -3 8 58.32 194.80 106.26 <
4 -3 8 1967.83 1983.46 177.10 o
5 -3 8 9474.74 9527.71 354.19 o
6 -3 8 17.92 -17.71 88.55 <
7 -3 8 2704.20 2178.27 318.77 o
8 -3 8 3242.43 3364.80 584.41 o
-5 -2 8 3486.97 2798.10 442.74 o
-4 -2 8 3193.14 2054.30 247.93 o
-3 -2 8 28.27 53.13 141.68 <
-2 -2 8 5718.43 5613.91 247.93 o
-1 -2 8 1760.22 1646.98 141.68 o
0 -2 8 10228.30 10236.10 265.64 o
1 -2 8 4706.78 4374.24 212.51 o
2 -2 8 213.65 247.93 88.55 <
3 -2 8 24189.00 23199.40 637.54 o
4 -2 8 3239.49 3559.61 212.51 o
5 -2 8 744.31 726.09 141.68 o
6 -2 8 6609.85 6216.03 301.06 o
7 -2 8 1050.95 956.31 230.22 o
8 -2 8 523.33 672.96 265.64 <
-5 -1 8 60.54 17.71 177.10 <
-4 -1 8 281.05 159.38 159.38 <
-3 -1 8 304.11 194.80 159.38 <
-2 -1 8 6023.29 6233.74 230.22 o
-1 -1 8 1262.88 991.73 123.97 o
0 -1 8 10599.40 10572.60 301.06 o
1 -1 8 6357.74 6800.45 212.51 o
2 -1 8 1838.04 1611.56 141.68 o
3 -1 8 3808.59 3984.64 212.51 o
4 -1 8 494.53 513.58 106.26 o
5 -1 8 444.78 265.64 106.26 <
6 -1 8 805.91 584.41 123.97 o
7 -1 8 323.13 548.99 212.51 <
8 -1 8 3824.04 3984.64 389.61 o
9 -1 8 1543.81 743.80 442.74 <
-5 0 8 2956.46 3170.00 318.77 o
-4 0 8 888.66 991.73 194.80 o
-3 0 8 644.87 495.87 159.38 o
-2 0 8 11078.40 10537.10 318.77 o
-1 0 8 627.51 672.96 88.55 o
0 0 8 1082.32 1221.95 123.97 o
1 0 8 238.70 336.48 70.84 o
2 0 8 191.15 301.06 88.55 o
3 0 8 2867.79 2762.68 177.10 o
4 0 8 7692.41 7597.37 283.35 o
5 0 8 792.80 743.80 123.97 o
6 0 8 5377.63 5312.85 265.64 o
7 0 8 4390.86 4267.99 354.19 o
8 0 8 622.30 354.19 230.22 <
9 0 8 480.76 389.61 407.32 <
-5 1 8 4484.32 4923.24 371.90 o
-4 1 8 461.76 637.54 194.80 o
-3 1 8 3425.43 2975.19 265.64 o
-2 1 8 6891.59 7030.67 247.93 o
-1 1 8 6320.44 6676.48 194.80 o
0 1 8 4119.51 4569.05 177.10 o
1 1 8 239.35 230.22 53.13 o
2 1 8 24463.80 23783.80 531.28 o
3 1 8 11109.20 10554.90 318.77 o
4 1 8 2312.76 2089.72 159.38 o
5 1 8 7389.23 6676.48 283.35 o
6 1 8 5776.96 5454.52 265.64 o
7 1 8 637.01 637.54 212.51 <
8 1 8 529.97 442.74 247.93 <
9 1 8 3.46 318.77 336.48 <
-5 2 8 283.34 389.61 177.10 <
-4 2 8 483.43 584.41 194.80 <
-3 2 8 4037.66 4214.86 318.77 o
-2 2 8 1838.17 1682.40 141.68 o
-1 2 8 4097.14 4108.60 194.80 o
0 2 8 6953.95 7579.66 212.51 o
1 2 8 7439.45 7349.44 177.10 o
2 2 8 6195.84 5596.20 194.80 o
3 2 8 440.42 371.90 88.55 o
4 2 8 957.15 974.02 123.97 o
5 2 8 321.98 194.80 106.26 <
6 2 8 25.22 -17.71 88.55 <
7 2 8 3564.96 4090.89 354.19 o
8 2 8 1797.71 1469.89 265.64 o
9 2 8 85.78 247.93 371.90 <
-5 3 8 99.64 70.84 159.38 <
-4 3 8 460.38 389.61 141.68 <
-3 3 8 4505.45 4391.95 247.93 o
-2 3 8 200.82 159.38 70.84 <
-1 3 8 2954.80 2886.65 141.68 o
0 3 8 1446.22 1399.05 88.55 o
1 3 8 178.70 194.80 53.13 o
2 3 8 1.80 -17.71 53.13 <
3 3 8 2446.16 2355.36 141.68 o
4 3 8 292.45 230.22 70.84 o
5 3 8 5862.45 6127.48 212.51 o
6 3 8 3757.55 3896.09 194.80 o
7 3 8 1660.45 1770.95 194.80 o
8 3 8 2166.23 1735.53 194.80 o
9 3 8 87.38 -212.51 247.93 <
-5 4 8 160.70 212.51 141.68 <
-4 4 8 434.58 194.80 123.97 <
-3 4 8 5345.66 5365.98 230.22 o
-2 4 8 2717.89 2922.07 141.68 o
-1 4 8 3218.27 3453.35 141.68 o
0 4 8 435.45 442.74 70.84 o
1 4 8 11432.90 11670.60 212.51 o
2 4 8 10266.70 10023.60 194.80 o
3 4 8 388.93 407.32 70.84 o
4 4 8 6050.35 6286.87 212.51 o
5 4 8 8577.84 8447.43 247.93 o
6 4 8 41.27 17.71 88.55 <
7 4 8 603.20 814.64 159.38 o
8 4 8 663.59 832.35 194.80 o
9 4 8 1592.10 2195.98 354.19 o
-5 5 8 651.43 301.06 159.38 <
-4 5 8 2285.49 2284.52 194.80 o
-3 5 8 779.05 690.67 123.97 o
-2 5 8 881.78 903.18 106.26 o
-1 5 8 2197.94 2319.94 123.97 o
0 5 8 6783.43 6782.74 212.51 o
1 5 8 926.91 1044.86 88.55 o
2 5 8 189.21 230.22 70.84 o
3 5 8 2872.75 3010.61 141.68 o
4 5 8 20.80 -106.26 53.13 <
5 5 8 51.42 -17.71 70.84 <
6 5 8 524.39 407.32 88.55 o
7 5 8 346.84 389.61 159.38 <
8 5 8 69.35 35.42 177.10 <
-5 6 8 0.28 265.64 159.38 <
-4 6 8 2164.48 2319.94 194.80 o
-3 6 8 71.66 -17.71 106.26 <
-2 6 8 1915.07 1824.08 141.68 o
-1 6 8 850.57 920.89 106.26 o
0 6 8 1060.85 1115.70 106.26 o
1 6 8 157.53 88.55 70.84 <
2 6 8 762.96 743.80 88.55 o
3 6 8 68.00 106.26 88.55 <
4 6 8 2577.98 2461.62 177.10 o
5 6 8 701.47 619.83 106.26 o
6 6 8 1492.77 1257.37 141.68 o
7 6 8 1570.69 1505.31 212.51 o
8 6 8 3.06 -141.68 159.38 <
-4 7 8 2564.17 2550.17 212.51 o
-3 7 8 829.85 779.22 141.68 o
-2 7 8 50.89 0.00 70.84 <
-1 7 8 737.95 1062.57 123.97 o
0 7 8 5036.01 4799.27 212.51 o
1 7 8 3513.58 3754.41 194.80 o
2 7 8 47.96 88.55 70.84 <
3 7 8 1968.03 1735.53 159.38 o
4 7 8 7745.74 7012.96 265.64 o
5 7 8 423.19 301.06 88.55 o
6 7 8 164.70 123.97 106.26 <
7 7 8 1501.70 1434.47 230.22 o
8 7 8 1110.01 1097.99 265.64 o
-4 8 8 92.98 106.26 159.38 <
-3 8 8 63.67 141.68 123.97 <
-2 8 8 1847.02 1328.21 141.68 o
-1 8 8 1672.83 1859.50 159.38 o
0 8 8 44.98 53.13 88.55 <
1 8 8 96.38 70.84 88.55 <
2 8 8 3227.68 3541.90 212.51 o
3 8 8 106.92 -17.71 106.26 <
4 8 8 162.97 106.26 88.55 <
5 8 8 82.77 -70.84 88.55 <
6 8 8 326.95 265.64 123.97 <
7 8 8 58.55 -106.26 194.80 <
-3 9 8 223.94 283.35 141.68 <
-2 9 8 12.45 70.84 88.55 <
-1 9 8 483.25 389.61 106.26 o
0 9 8 298.50 336.48 123.97 <
1 9 8 271.43 159.38 106.26 <
2 9 8 292.71 301.06 106.26 <
3 9 8 220.72 389.61 123.97 o
4 9 8 243.69 159.38 106.26 <
5 9 8 296.51 354.19 141.68 <
6 9 8 505.79 354.19 106.26 o
-2 10 8 485.89 177.10 123.97 <
-1 10 8 2261.75 2656.42 212.51 o
0 10 8 870.86 637.54 230.22 <
1 10 8 534.20 478.16 141.68 o
2 10 8 1205.98 1257.37 159.38 o
3 10 8 2269.07 2125.14 177.10 o
4 10 8 848.01 478.16 141.68 o
5 10 8 113.50 35.42 123.97 <
-1 11 8 309.80 389.61 141.68 <
0 11 8 266.75 194.80 141.68 <
1 11 8 1008.41 991.73 177.10 o
2 11 8 865.71 1097.99 159.38 o
3 11 8 21.03 -17.71 141.68 <
4 11 8 298.73 -265.64 123.97 <
1 -7 9 5.50 88.55 177.10 <
2 -7 9 621.22 460.45 212.51 <
3 -7 9 235.15 301.06 212.51 <
4 -7 9 345.58 -53.13 194.80 <
-1 -6 9 1465.56 938.60 230.22 o
0 -6 9 556.39 513.58 247.93 <
1 -6 9 258.01 247.93 194.80 <
2 -6 9 2177.18 2072.01 247.93 o
3 -6 9 73.37 53.13 141.68 <
4 -6 9 170.39 389.61 194.80 <
5 -6 9 8.27 389.61 194.80 <
-2 -5 9 732.14 478.16 318.77 <
-1 -5 9 16.41 35.42 159.38 <
0 -5 9 899.47 779.22 177.10 o
1 -5 9 72.18 0.00 141.68 <
2 -5 9 296.90 301.06 141.68 <
3 -5 9 836.36 672.96 159.38 o
4 -5 9 12.12 -177.10 123.97 <
5 -5 9 3.61 123.97 141.68 <
6 -5 9 2501.45 2443.91 301.06 o
-3 -4 9 34.49 88.55 283.35 <
-2 -4 9 630.56 602.12 212.51 <
-1 -4 9 3.68 -106.26 106.26 <
0 -4 9 105.68 88.55 123.97 <
1 -4 9 513.09 407.32 141.68 <
2 -4 9 354.04 478.16 123.97 o
3 -4 9 2157.23 2160.56 194.80 o
4 -4 9 1548.07 1168.83 159.38 o
5 -4 9 6.96 141.68 141.68 <
6 -4 9 703.43 637.54 177.10 o
7 -4 9 10.55 318.77 301.06 <
-3 -3 9 198.79 0.00 194.80 <
-2 -3 9 3118.47 2585.59 247.93 o
-1 -3 9 114.17 159.38 106.26 <
0 -3 9 523.52 619.83 141.68 o
1 -3 9 6097.28 6003.52 265.64 o
2 -3 9 486.91 690.67 141.68 o
3 -3 9 227.84 194.80 106.26 <
4 -3 9 790.40 566.70 123.97 o
5 -3 9 10.28 0.00 123.97 <
6 -3 9 74.38 70.84 123.97 <
7 -3 9 799.14 1097.99 442.74 <
8 -3 9 37.11 460.45 389.61 <
-4 -2 9 2252.62 1841.79 354.19 o
-3 -2 9 308.80 495.87 177.10 <
-2 -2 9 13.73 -141.68 123.97 <
-1 -2 9 1756.61 1558.44 159.38 o
0 -2 9 1517.13 1558.44 159.38 o
1 -2 9 14.55 -88.55 88.55 <
2 -2 9 115.65 159.38 106.26 <
3 -2 9 815.53 743.80 123.97 o
4 -2 9 237.56 230.22 106.26 <
5 -2 9 3066.36 3240.84 230.22 o
6 -2 9 145.55 123.97 141.68 <
7 -2 9 246.63 283.35 194.80 <
8 -2 9 1728.46 1859.50 531.28 o
-4 -1 9 108.01 53.13 141.68 <
-3 -1 9 1232.48 814.64 194.80 o
-2 -1 9 754.12 690.67 177.10 o
-1 -1 9 473.49 247.93 88.55 <
0 -1 9 57.59 88.55 88.55 <
1 -1 9 746.56 602.12 106.26 o
2 -1 9 3464.00 3648.16 212.51 o
3 -1 9 1961.73 1930.33 159.38 o
4 -1 9 11.88 -17.71 88.55 <
5 -1 9 1540.95 1328.21 159.38 o
6 -1 9 959.70 779.22 141.68 o
7 -1 9 180.99 159.38 212.51 <
8 -1 9 54.20 17.71 318.77 <
-4 0 9 15.09 -212.51 141.68 <
-3 0 9 3807.82 3276.26 283.35 o
-2 0 9 241.53 265.64 141.68 <
-1 0 9 38.03 106.26 88.55 <
0 0 9 9813.58 9793.35 301.06 o
1 0 9 599.85 655.25 106.26 o
2 0 9 307.75 407.32 106.26 o
3 0 9 2409.87 2532.46 177.10 o
4 0 9 1374.72 1434.47 159.38 o
5 0 9 1188.26 1381.34 159.38 o
6 0 9 188.84 230.22 123.97 <
7 0 9 247.12 265.64 212.51 <
8 0 9 459.22 478.16 336.48 <
-4 1 9 1.62 0.00 159.38 <
-3 1 9 221.99 247.93 141.68 <
-2 1 9 4149.24 4250.28 318.77 o
-1 1 9 2040.93 2249.11 177.10 o
0 1 9 19.88 35.42 88.55 <
1 1 9 445.53 318.77 106.26 <
2 1 9 4754.17 4515.92 212.51 o
3 1 9 691.83 283.35 106.26 <
4 1 9 2232.42 1824.08 177.10 o
5 1 9 2442.67 2249.11 194.80 o
6 1 9 473.23 513.58 141.68 o
7 1 9 3631.76 3258.55 354.19 o
8 1 9 207.02 265.64 230.22 <
-4 2 9 1757.84 1646.98 247.93 o
-3 2 9 1769.56 1930.33 247.93 o
-2 2 9 170.31 106.26 141.68 <
-1 2 9 949.38 974.02 123.97 o
0 2 9 3808.63 3736.70 194.80 o
1 2 9 3565.37 3347.09 247.93 o
2 2 9 386.10 460.45 106.26 o
3 2 9 1219.54 1221.95 123.97 o
4 2 9 2739.41 2815.81 194.80 o
5 2 9 2949.82 3170.00 212.51 o
6 2 9 228.10 283.35 123.97 <
7 2 9 28.17 -17.71 194.80 <
8 2 9 1371.79 1133.41 283.35 o
-4 3 9 1582.31 1930.33 265.64 o
-3 3 9 2709.37 2798.10 283.35 o
-2 3 9 752.06 850.06 177.10 o
-1 3 9 8003.41 7561.95 265.64 o
0 3 9 46.58 53.13 88.55 <
1 3 9 167.81 88.55 88.55 <
2 3 9 8564.38 8518.27 247.93 o
3 3 9 2397.60 2744.97 194.80 o
4 3 9 2743.51 2231.40 177.10 o
5 3 9 1024.98 903.18 141.68 o
6 3 9 1891.57 1505.31 159.38 o
7 3 9 1381.60 1168.83 230.22 o
8 3 9 197.76 318.77 230.22 <
-4 4 9 578.78 672.96 141.68 o
-3 4 9 3162.94 3541.90 212.51 o
-2 4 9 355.92 389.61 106.26 o
-1 4 9 3.06 53.13 70.84 <
0 4 9 3563.23 3860.67 177.10 o
1 4 9 5743.19 6499.38 212.51 o
2 4 9 1172.73 1151.12 106.26 o
3 4 9 82.48 70.84 70.84 <
4 4 9 5361.86 5543.07 212.51 o
5 4 9 1203.49 1009.44 123.97 o
6 4 9 1724.71 1611.56 159.38 o
7 4 9 623.21 389.61 159.38 <
8 4 9 25.35 141.68 141.68 <
-4 5 9 754.00 903.18 159.38 o
-3 5 9 0.77 141.68 106.26 <
-2 5 9 2892.30 2780.39 194.80 o
-1 5 9 5940.41 5914.97 194.80 o
0 5 9 843.30 743.80 106.26 o
1 5 9 719.59 619.83 106.26 o
2 5 9 3693.87 3984.64 177.10 o
3 5 9 2413.83 2390.78 159.38 o
4 5 9 1444.62 1664.69 141.68 o
5 5 9 39.69 106.26 88.55 <
6 5 9 1102.25 1133.41 141.68 o
7 5 9 3101.12 4073.18 301.06 o
8 5 9 925.63 743.80 212.51 o
-4 6 9 4581.33 4108.60 283.35 o
-3 6 9 852.91 867.77 141.68 o
-2 6 9 2531.09 2656.42 194.80 o
-1 6 9 1937.82 2142.85 159.38 o
0 6 9 35.05 -17.71 88.55 <
1 6 9 7727.14 7473.41 247.93 o
2 6 9 1308.79 1257.37 123.97 o
3 6 9 1369.93 1558.44 141.68 o
4 6 9 5859.86 5737.88 265.64 o
5 6 9 2900.22 3116.87 194.80 o
6 6 9 1616.05 1416.76 141.68 o
7 6 9 386.15 672.96 177.10 o
8 6 9 269.95 637.54 247.93 <
-4 7 9 932.82 885.47 194.80 o
-3 7 9 360.93 513.58 141.68 o
-2 7 9 17.06 17.71 123.97 <
-1 7 9 3597.46 3807.54 212.51 o
0 7 9 3430.00 3471.06 212.51 o
1 7 9 212.51 194.80 88.55 <
2 7 9 2706.53 2939.78 159.38 o
3 7 9 7470.71 7809.89 283.35 o
4 7 9 81.24 159.38 106.26 <
5 7 9 88.76 301.06 106.26 <
6 7 9 1375.83 920.89 141.68 o
7 7 9 57.07 35.42 212.51 <
-3 8 9 2154.98 2231.40 212.51 o
-2 8 9 3523.78 4214.86 318.77 o
-1 8 9 6.68 -35.42 88.55 <
0 8 9 3078.10 3223.13 194.80 o
1 8 9 4569.01 5082.62 247.93 o
2 8 9 34.64 53.13 88.55 <
3 8 9 116.04 159.38 106.26 <
4 8 9 208.65 17.71 88.55 <
5 8 9 921.98 1009.44 159.38 o
6 8 9 4261.36 3878.38 283.35 o
7 8 9 159.81 460.45 212.51 <
-2 9 9 3380.68 3807.54 318.77 o
-1 9 9 128.73 212.51 106.26 <
0 9 9 2466.01 1983.46 194.80 o
1 9 9 5.27 70.84 106.26 <
2 9 9 339.73 318.77 123.97 <
3 9 9 5747.07 5737.88 283.35 o
4 9 9 2552.36 2638.71 212.51 o
5 9 9 469.30 566.70 141.68 o
6 9 9 2401.20 2479.33 247.93 o
-1 10 9 512.21 425.03 141.68 o
0 10 9 2.34 -194.80 123.97 <
1 10 9 3611.06 3223.13 283.35 o
2 10 9 3596.75 3471.06 265.64 o
3 10 9 86.12 17.71 141.68 <
4 10 9 540.92 265.64 141.68 <
5 10 9 1647.17 1345.92 212.51 o
1 11 9 393.93 230.22 159.38 <
2 11 9 115.47 425.03 159.38 <
3 11 9 331.34 336.48 141.68 <
2 -6 10 1038.12 602.12 247.93 <
3 -6 10 479.23 354.19 212.51 <
0 -5 10 3616.07 3400.22 301.06 o
1 -5 10 10.51 70.84 141.68 <
2 -5 10 267.84 354.19 177.10 <
3 -5 10 3622.78 3807.54 283.35 o
4 -5 10 193.13 194.80 177.10 <
5 -5 10 1030.70 1080.28 247.93 o
-1 -4 10 988.74 885.47 177.10 o
0 -4 10 18.83 -141.68 141.68 <
1 -4 10 4004.42 4285.70 318.77 o
2 -4 10 799.04 619.83 159.38 o
3 -4 10 3181.66 3329.38 247.93 o
4 -4 10 357.68 425.03 141.68 o
5 -4 10 26.66 -53.13 141.68 <
6 -4 10 5236.50 5224.30 389.61 o
-2 -3 10 443.27 566.70 194.80 <
-1 -3 10 49.11 -123.97 141.68 <
0 -3 10 521.38 247.93 141.68 <
1 -3 10 952.89 761.51 177.10 o
2 -3 10 385.54 389.61 123.97 o
3 -3 10 3454.08 3329.38 230.22 o
4 -3 10 3422.42 3417.93 247.93 o
5 -3 10 212.43 17.71 123.97 <
6 -3 10 1940.05 1753.24 265.64 o
7 -3 10 179.43 655.25 389.61 <
-2 -2 10 1126.73 1097.99 230.22 o
-1 -2 10 2037.85 2142.85 194.80 o
0 -2 10 62.69 17.71 123.97 <
1 -2 10 1983.69 1912.63 230.22 o
2 -2 10 5633.62 5684.75 283.35 o
3 -2 10 775.71 602.12 123.97 o
4 -2 10 49.34 -35.42 106.26 <
5 -2 10 1285.04 1009.44 177.10 o
6 -2 10 386.21 247.93 141.68 <
7 -2 10 4085.64 4108.60 371.90 o
-3 -1 10 3761.43 3665.86 336.48 o
-2 -1 10 2050.23 1877.21 247.93 o
-1 -1 10 163.30 265.64 106.26 <
0 -1 10 4659.19 4480.50 301.06 o
1 -1 10 2347.53 2213.69 212.51 o
2 -1 10 2165.94 2585.59 194.80 o
3 -1 10 1783.66 1399.05 159.38 o
4 -1 10 80.25 17.71 106.26 <
5 -1 10 7017.53 7473.41 336.48 o
6 -1 10 328.96 531.28 159.38 o
7 -1 10 664.91 850.06 212.51 o
8 -1 10 2640.65 2195.98 495.87 o
-3 0 10 1049.00 743.80 212.51 o
-2 0 10 47.86 283.35 159.38 <
-1 0 10 55.61 106.26 88.55 <
0 0 10 333.09 17.71 106.26 <
1 0 10 358.35 194.80 141.68 <
2 0 10 5744.45 5436.81 265.64 o
3 0 10 2445.59 2337.65 194.80 o
4 0 10 11.00 88.55 106.26 <
5 0 10 5057.79 5401.40 283.35 o
6 0 10 341.60 513.58 159.38 o
7 0 10 26.37 53.13 141.68 <
8 0 10 37.65 159.38 336.48 <
-3 1 10 434.38 566.70 194.80 <
-2 1 10 839.77 761.51 177.10 o
-1 1 10 3.96 -35.42 88.55 <
0 1 10 4842.49 4693.02 301.06 o
1 1 10 2934.92 2691.84 247.93 o
2 1 10 2533.23 2815.81 194.80 o
3 1 10 398.10 478.16 106.26 o
4 1 10 655.66 850.06 141.68 o
5 1 10 1000.65 1239.66 159.38 o
6 1 10 4081.08 3772.12 247.93 o
7 1 10 384.70 230.22 159.38 <
8 1 10 115.07 407.32 354.19 <
-3 2 10 1836.08 1859.50 247.93 o
-2 2 10 318.82 265.64 159.38 <
-1 2 10 4400.87 4675.31 247.93 o
0 2 10 6921.03 7278.60 265.64 o
1 2 10 840.37 1434.47 318.77 o
2 2 10 883.81 938.60 141.68 o
3 2 10 1365.57 1469.89 159.38 o
4 2 10 8187.97 8288.04 301.06 o
5 2 10 984.31 1151.12 159.38 o
6 2 10 1109.18 1027.15 159.38 o
7 2 10 3249.58 3099.16 247.93 o
8 2 10 1707.10 1788.66 495.87 o
-3 3 10 23.77 -159.38 177.10 <
-2 3 10 532.51 655.25 212.51 o
-1 3 10 143.59 88.55 106.26 <
0 3 10 524.34 548.99 123.97 o
1 3 10 1501.38 1788.66 212.51 o
2 3 10 2223.57 2497.04 230.22 o
3 3 10 123.23 106.26 123.97 <
4 3 10 7178.37 7473.41 301.06 o
5 3 10 164.81 141.68 106.26 <
6 3 10 1136.02 832.35 141.68 o
7 3 10 408.88 265.64 159.38 <
8 3 10 414.11 -495.87 371.90 <
-3 4 10 149.49 70.84 177.10 <
-2 4 10 27.28 -35.42 159.38 <
-1 4 10 1622.29 1806.37 177.10 o
0 4 10 1072.53 991.73 123.97 o
1 4 10 2352.35 2302.23 230.22 o
2 4 10 506.46 389.61 141.68 <
3 4 10 512.27 371.90 123.97 <
4 4 10 3070.60 3134.58 212.51 o
5 4 10 1808.38 1523.02 177.10 o
6 4 10 109.02 265.64 141.68 <
7 4 10 11.15 106.26 141.68 <
-3 5 10 98.77 35.42 212.51 <
-2 5 10 1265.60 1434.47 177.10 o
-1 5 10 5764.21 6021.23 247.93 o
0 5 10 1144.69 1186.54 123.97 o
1 5 10 497.21 371.90 123.97 <
2 5 10 3107.65 3541.90 230.22 o
3 5 10 5822.87 5755.58 230.22 o
4 5 10 1081.23 938.60 123.97 o
5 5 10 22.90 17.71 106.26 <
6 5 10 2498.37 2355.36 194.80 o
-3 6 10 609.19 655.25 159.38 o
-2 6 10 384.73 194.80 123.97 <
-1 6 10 1163.10 1044.86 141.68 o
0 6 10 539.99 495.87 106.26 o
1 6 10 1083.99 1328.21 141.68 o
2 6 10 214.82 123.97 106.26 <
3 6 10 2522.27 3134.58 212.51 o
4 6 10 34.62 35.42 88.55 <
5 6 10 1449.19 1292.79 141.68 o
6 6 10 174.53 230.22 106.26 <
7 6 10 435.96 301.06 177.10 <
-2 7 10 930.29 1080.28 194.80 o
-1 7 10 230.68 318.77 106.26 <
0 7 10 704.34 726.09 123.97 o
1 7 10 445.31 318.77 106.26 <
2 7 10 148.77 106.26 106.26 <
3 7 10 2318.97 2780.39 212.51 o
4 7 10 1398.54 1151.12 141.68 o
5 7 10 15.74 -35.42 123.97 <
6 7 10 84.41 88.55 106.26 <
7 7 10 1769.10 2142.85 354.19 o
-2 8 10 1950.43 2532.46 283.35 o
-1 8 10 473.70 442.74 123.97 o
0 8 10 11.27 0.00 106.26 <
1 8 10 2134.57 2072.01 177.10 o
2 8 10 3861.22 3524.19 265.64 o
3 8 10 45.78 -70.84 106.26 <
4 8 10 22.32 106.26 106.26 <
5 8 10 1423.29 1611.56 177.10 o
6 8 10 1865.71 2125.14 230.22 o
-1 9 10 13.90 35.42 123.97 <
0 9 10 742.66 796.93 141.68 o
1 9 10 84.14 159.38 106.26 <
2 9 10 414.99 354.19 123.97 <
3 9 10 21.26 -212.51 123.97 <
4 9 10 510.11 602.12 159.38 o
5 9 10 21.81 -35.42 106.26 <
0 10 10 0.77 -123.97 123.97 <
1 10 10 82.02 17.71 141.68 <
2 10 10 478.93 336.48 159.38 <
3 10 10 703.99 672.96 159.38 o
4 10 10 187.04 336.48 141.68 <
1 -4 11 115.76 106.26 141.68 <
2 -4 11 1480.26 743.80 177.10 o
3 -4 11 625.13 796.93 194.80 o
4 -4 11 9.42 17.71 141.68 <
0 -3 11 2394.05 1965.75 230.22 o
1 -3 11 113.31 88.55 123.97 <
2 -3 11 625.80 354.19 141.68 <
3 -3 11 132.43 88.55 141.68 <
4 -3 11 581.92 513.58 159.38 o
5 -3 11 1539.89 1434.47 247.93 o
-1 -2 11 11.81 17.71 141.68 <
0 -2 11 2199.52 2213.69 230.22 o
1 -2 11 0.12 35.42 106.26 <
2 -2 11 586.44 371.90 141.68 <
3 -2 11 4100.67 4374.24 265.64 o
4 -2 11 770.79 619.83 159.38 o
5 -2 11 433.97 389.61 141.68 <
6 -2 11 1259.70 1027.15 212.51 o
-2 -1 11 1563.04 1097.99 212.51 o
-1 -1 11 336.12 159.38 141.68 <
0 -1 11 38.66 -35.42 106.26 <
1 -1 11 2315.02 2036.59 212.51 o
2 -1 11 1578.55 1168.83 177.10 o
3 -1 11 46.44 123.97 123.97 <
4 -1 11 152.22 -53.13 123.97 <
5 -1 11 679.60 407.32 159.38 <
6 -1 11 295.37 194.80 159.38 <
7 -1 11 755.61 885.47 212.51 o
-2 0 11 2.22 106.26 177.10 <
-1 0 11 3926.74 3984.64 301.06 o
0 0 11 499.58 354.19 141.68 <
1 0 11 1007.95 1044.86 177.10 o
2 0 11 937.25 672.96 159.38 o
3 0 11 73.28 177.10 123.97 <
4 0 11 3708.22 4126.31 265.64 o
5 0 11 174.85 123.97 123.97 <
6 0 11 278.76 70.84 159.38 <
7 0 11 2220.20 2461.62 301.06 o
-2 1 11 38.69 123.97 177.10 <
-1 1 11 2834.52 2815.81 212.51 o
0 1 11 780.39 867.77 194.80 o
1 1 11 9.94 0.00 141.68 <
2 1 11 7351.81 7136.93 354.19 o
3 1 11 294.24 159.38 123.97 <
4 1 11 115.27 88.55 106.26 <
5 1 11 2492.73 2957.49 247.93 o
6 1 11 746.45 425.03 159.38 <
7 1 11 409.70 318.77 177.10 <
-2 2 11 21.86 -301.06 177.10 <
-1 2 11 716.02 548.99 123.97 o
0 2 11 2762.81 2833.52 265.64 o
1 2 11 1391.50 1487.60 194.80 o
2 2 11 11.51 -35.42 123.97 <
3 2 11 879.12 708.38 141.68 o
4 2 11 3231.42 3028.32 247.93 o
5 2 11 445.57 336.48 141.68 <
6 2 11 223.12 123.97 141.68 <
7 2 11 1190.73 991.73 212.51 o
-2 3 11 3014.00 3364.80 336.48 o
-1 3 11 563.63 637.54 141.68 o
0 3 11 439.08 301.06 159.38 <
1 3 11 3426.96 3718.99 318.77 o
2 3 11 1252.86 1345.92 194.80 o
3 3 11 4084.89 4020.05 247.93 o
4 3 11 285.27 425.03 141.68 o
5 3 11 97.69 194.80 141.68 <
6 3 11 3175.89 3630.45 265.64 o
7 3 11 223.73 531.28 194.80 <
-2 4 11 1551.04 1593.85 265.64 o
-1 4 11 3526.09 3382.51 230.22 o
0 4 11 739.10 619.83 177.10 o
1 4 11 5855.48 6056.65 371.90 o
2 4 11 481.35 336.48 123.97 <
3 4 11 2.48 -88.55 141.68 <
4 4 11 4064.88 3949.22 265.64 o
5 4 11 684.97 602.12 177.10 o
6 4 11 839.92 814.64 177.10 o
7 4 11 472.15 336.48 212.51 <
-2 5 11 1556.16 1558.44 283.35 o
-1 5 11 1091.65 974.02 159.38 o
0 5 11 115.84 141.68 141.68 <
1 5 11 216.62 53.13 141.68 <
2 5 11 1694.08 1576.14 212.51 o
3 5 11 3470.50 4020.05 318.77 o
4 5 11 326.00 301.06 141.68 <
5 5 11 414.49 495.87 159.38 o
6 5 11 2902.34 3170.00 283.35 o
7 5 11 482.42 194.80 106.26 <
-2 6 11 23.38 35.42 194.80 <
-1 6 11 73.67 106.26 141.68 <
0 6 11 4102.08 4197.15 247.93 o
1 6 11 1853.57 1664.69 230.22 o
2 6 11 1650.71 1682.40 212.51 o
3 6 11 3032.76 2709.55 301.06 o
4 6 11 832.93 407.32 159.38 <
5 6 11 2437.33 1806.37 230.22 o
6 6 11 33.41 70.84 88.55 <
-1 7 11 660.74 247.93 123.97 <
0 7 11 1894.34 2036.59 194.80 o
1 7 11 3443.56 3842.96 283.35 o
2 7 11 79.85 70.84 106.26 <
3 7 11 2520.14 3205.42 265.64 o
4 7 11 117.19 35.42 141.68 <
5 7 11 581.80 690.67 141.68 o
6 7 11 2140.05 2355.36 230.22 o
0 8 11 212.87 318.77 123.97 <
1 8 11 847.37 832.35 159.38 o
2 8 11 1574.31 1345.92 194.80 o
3 8 11 35.33 53.13 123.97 <
4 8 11 1705.71 2072.01 212.51 o
5 8 11 3589.17 3665.86 301.06 o
1 9 11 246.02 -159.38 141.68 <
2 9 11 4464.29 5082.62 371.90 o
3 9 11 1203.17 920.89 177.10 o
4 9 11 300.72 318.77 141.68 <
1 -2 12 8.05 -88.55 141.68 <
2 -2 12 50.90 159.38 159.38 <
3 -2 12 34.79 88.55 159.38 <
4 -2 12 497.40 283.35 177.10 <
0 -1 12 13.19 -17.71 106.26 <
1 -1 12 1837.90 1523.02 212.51 o
2 -1 12 7.78 35.42 159.38 <
3 -1 12 293.63 123.97 159.38 <
4 -1 12 4268.01 3825.25 283.35 o
5 -1 12 812.44 584.41 194.80 <
0 0 12 78.51 -17.71 123.97 <
1 0 12 1521.22 1558.44 212.51 o
2 0 12 944.89 779.22 177.10 o
3 0 12 1015.57 1257.37 212.51 o
4 0 12 22.81 -106.26 141.68 <
5 0 12 9.14 -141.68 141.68 <
6 0 12 48.87 141.68 159.38 <
-1 1 12 2848.53 1930.33 407.32 o
0 1 12 416.70 371.90 177.10 <
1 1 12 49.42 106.26 141.68 <
2 1 12 25.29 283.35 159.38 <
3 1 12 1331.26 1009.44 212.51 o
4 1 12 1179.92 779.22 159.38 o
5 1 12 1405.85 1700.11 212.51 o
6 1 12 2.10 17.71 177.10 <
-1 2 12 215.66 106.26 283.35 <
0 2 12 993.78 903.18 194.80 o
1 2 12 211.75 283.35 141.68 <
2 2 12 929.75 672.96 177.10 o
3 2 12 3079.77 3081.45 301.06 o
4 2 12 1522.31 1416.76 194.80 o
5 2 12 541.66 531.28 159.38 o
6 2 12 179.72 -35.42 159.38 <
-1 3 12 14.74 17.71 301.06 <
0 3 12 847.05 743.80 194.80 o
1 3 12 907.89 1027.15 212.51 o
2 3 12 2034.69 2851.23 301.06 o
3 3 12 129.80 70.84 123.97 <
4 3 12 160.55 283.35 159.38 <
5 3 12 775.04 584.41 177.10 o
6 3 12 1226.44 672.96 212.51 o
-1 4 12 458.19 336.48 177.10 <
0 4 12 247.20 283.35 159.38 <
1 4 12 37.96 -88.55 123.97 <
2 4 12 1632.95 1965.75 247.93 o
3 4 12 160.80 141.68 159.38 <
4 4 12 762.11 672.96 177.10 o
5 4 12 88.29 141.68 141.68 <
6 4 12 1983.46 2142.85 283.35 o
0 5 12 292.82 265.64 177.10 <
1 5 12 271.45 371.90 159.38 <
2 5 12 1264.54 1133.41 212.51 o
3 5 12 1039.55 1381.34 230.22 o
4 5 12 88.18 -123.97 177.10 <
5 5 12 71.91 177.10 159.38 <
6 5 12 2231.76 2001.17 265.64 o
0 6 12 293.10 265.64 177.10 <
1 6 12 1543.26 1930.33 247.93 o
2 6 12 96.61 106.26 159.38 <
3 6 12 197.33 194.80 123.97 <
4 6 12 1104.67 1133.41 194.80 o
5 6 12 1268.77 1062.57 194.80 o
1 7 12 2448.96 2461.62 283.35 o
2 7 12 85.54 -106.26 88.55 <
3 7 12 591.86 354.19 159.38 <
4 7 12 149.21 -70.84 88.55 <
3 1 13 1083.27 1062.57 212.51 o
2 2 13 443.79 407.32 177.10 <
3 2 13 279.78 177.10 194.80 <
4 2 13 2153.56 2319.94 283.35 o
2 3 13 1653.89 1275.08 212.51 o
3 3 13 229.98 230.22 159.38 <
4 3 13 9.86 -35.42 177.10 <
2 4 13 566.05 389.61 177.10 <
3 4 13 3243.21 3577.32 336.48 o
4 4 13 290.38 35.42 194.80 <
3 5 13 1547.37 1576.14 247.93 o
