#------------------------------------------------------------------------------
#$Date: 2021-03-03 12:33:02 +0200 (Wed, 03 Mar 2021) $
#$Revision: 262395 $
#$URL: file:///home/coder/svn-repositories/cod/cif/1/56/07/1560794.cif $
#------------------------------------------------------------------------------
#
# This file is available in the Crystallography Open Database (COD),
# http://www.crystallography.net/
#
# All data on this site have been placed in the public domain by the
# contributors.
#
data_1560794
loop_
_publ_author_name
'Zhuravlev, V.D.'
'Kellerman, D.G.'
'Tyutyunnik, A.P.'
'Chufarov, A.Yu.'
'Samigullina, R.F.'
_publ_section_title
;
 Synthesis, structure and magnetic properties of new \g-Ba(CoV1-xPxO4)2
 x&#x202F;=&#x202F;0.4--0.5
;
_journal_name_full               'Journal of Solid State Chemistry'
_journal_page_first              174
_journal_page_last               180
_journal_paper_doi               10.1016/j.jssc.2018.07.017
_journal_volume                  266
_journal_year                    2018
_chemical_formula_structural     'Ba Co2 (P O4)2'
_chemical_formula_sum            'Ba Co2 O8 P2'
_chemical_formula_weight         445.14
_chemical_name_common            'Barium cobalt phosphate'
_space_group_IT_number           14
_space_group_name_Hall           '-P 2yab'
_space_group_name_H-M_alt        'P 1 21/a 1'
_symmetry_cell_setting           monoclinic
_symmetry_space_group_name_Hall  '-P 2yab'
_symmetry_space_group_name_H-M   'P 1 21/a 1'
_cell_angle_alpha                90.0
_cell_angle_beta                 92.8146(14)
_cell_angle_gamma                90.0
_cell_formula_units_Z            2
_cell_length_a                   9.23614(22)
_cell_length_b                   5.00555(13)
_cell_length_c                   8.08948(24)
_cell_measurement_temperature    298(2)
_cell_volume                     373.541(17)
_computing_data_collection
'STOE Powder Software Package (STOE, Germany)'
_computing_data_reduction
'STOE Powder Software Package (STOE, Germany)'
_computing_structure_refinement  GSAS
_computing_structure_solution
'GSAS (A.C. Larson and R.B. Von Dreele, 2004), EXPGUI (Toby, B.H., 2001)'
_diffrn_ambient_temperature      298
_diffrn_detector                 'position sensitive detector'
_diffrn_detector_type            'linear mini-PSD (STOE)'
_diffrn_measurement_device_type  'transmission diffractometer Stadi-P (STOE)'
_diffrn_radiation_monochromator  'Primary, curved Ge 111'
_diffrn_radiation_polarisn_ratio 0.8
_diffrn_radiation_probe          x-ray
_diffrn_radiation_type           'Cu K\a~1~'
_diffrn_radiation_wavelength     1.54056
_diffrn_source                   'sealed X-ray tube'
_diffrn_source_target            Cu
_diffrn_source_type              'PHILIPS PW 2283/20'
_exptl_absorpt_correction_T_max  0.49703
_exptl_absorpt_correction_T_min  0.23703
_exptl_absorpt_process_details
;   GSAS Absorption/surface roughness correction: function number 4
 Flat plate transmission absorption correction
Terms =     0.45178         0.0000    
Correction is not refined.
;
_exptl_crystal_density_diffrn    3.958
_exptl_crystal_density_method    'not measured'
_pd_calc_method                  'Rietveld Refinement'
_pd_char_colour                  white
_pd_instr_dist_mono/spec         130
_pd_instr_dist_spec/detc         220
_pd_instr_dist_src/mono          260
_pd_instr_location               ' ?'
_pd_meas_2theta_range_inc        0.02
_pd_meas_2theta_range_max        119.98
_pd_meas_2theta_range_min        5.0
_pd_meas_number_of_points        5750
_pd_meas_scan_method             step
_pd_phase_name
'from C:/GSAS/MyWork/Zhuravlev/BaCo2V2-2xP2xO8/2018-01-09/BaCo2P2O8'
_pd_proc_2theta_range_inc        0.02
_pd_proc_2theta_range_max        119.92822
_pd_proc_2theta_range_min        4.94822
_pd_proc_info_datetime           2018-05-04T20:05:00
_pd_proc_info_excluded_regions   ' ?'
_pd_proc_ls_background_function
;   GSAS Background function number 1 with 36 terms.
 Shifted Chebyshev function of 1st kind
      1:    16183.9     2:   -8123.72     3:   -118.971     4:   -819.215    
      5:    169.472     6:    23.7643     7:   -28.5347     8:    32.2873    
      9:    1.84790    10:   -1.14913    11:    49.2438    12:   -17.6743    
     13:   -26.6308    14:    27.3433    15:   -31.7682    16:    31.5744    
     17:    15.1041    18:   -16.8750    19:   -2.10919    20:    36.5212    
     21:   -8.81002    22:   -4.95211    23:    15.6528    24:   -10.7458    
     25:    3.27770    26:    3.61310    27:   -9.27043    28:    25.7365    
     29:   -18.9979    30:   -4.31126    31:    15.8033    32:   -2.68959    
     33:    8.54520    34:    9.35682    35:   -4.89226    36:    8.51164    
;
_pd_proc_ls_peak_cutoff          0.00100
_pd_proc_ls_profile_function
;
 CW Profile function number 4 with  21 terms
 Pseudovoigt profile coefficients as parameterized in
 P. Thompson, D.E. Cox & J.B. Hastings (1987). J. Appl. Cryst.,20,79-83.
 Asymmetry correction of L.W. Finger, D.E. Cox & A. P. Jephcoat (1994).
 J. Appl. Cryst.,27,892-900.
 Microstrain broadening by P.W. Stephens,  (1999). J. Appl. Cryst.,32,281-289.
 #1(GU)   =    0.942 #2(GV)   =    0.000 #3(GW)   =   18.373
 #4(GP)   =    0.000 #5(LX)   =    0.114 #6(ptec) =    -0.11
 #7(trns) =     0.00 #8(shft) =   0.0000 #9(sfec) =     0.00
 #10(S/L) =   0.0279 #11(H/L) =   0.0298 #12(eta) =   1.0000
 #13(S400 ) =  2.1E-02 #14(S040 ) =  2.4E-01 #15(S004 ) =  3.1E-01
 #16(S220 ) =  1.0E-01 #17(S202 ) = -3.4E-02 #18(S022 ) = -2.7E-02
 #19(S301 ) = -2.1E-02 #20(S103 ) =  2.4E-02 #21(S121 ) =  3.1E-02
 Peak tails are ignored  where the intensity is below 0.0010 times the peak
   Aniso. broadening axis   0.0   0.0   1.0
;
_pd_proc_ls_prof_R_factor        0.0097
_pd_proc_ls_prof_wR_expected     0.0077
_pd_proc_ls_prof_wR_factor       0.0140
_pd_proc_number_of_points        5750
_pd_spec_mounting                'powder on Mylar film'
_pd_spec_mount_mode              transmission
_pd_spec_shape                   flat_sheet
_pd_spec_size_axial              7
_pd_spec_size_equat              0.1
_refine_ls_goodness_of_fit_all   1.82
_refine_ls_matrix_type           full
_refine_ls_number_parameters     29
_refine_ls_number_restraints     0
_refine_ls_R_Fsqd_factor         0.11852
_refine_ls_shift/su_max          0.05
_refine_ls_shift/su_mean         0.01
_reflns_d_resolution_high        0.890
_reflns_d_resolution_low         8.157
_reflns_limit_h_max              10
_reflns_limit_h_min              0
_reflns_limit_k_max              5
_reflns_limit_k_min              0
_reflns_limit_l_max              9
_reflns_limit_l_min              -8
_reflns_number_total             558
_cod_data_source_file            mmc1.cif
_cod_data_source_block           BACO2P2O8_00738_publ
_cod_depositor_comments
;
The following automatic conversions were performed:

data item '_geom_angle_publ_flag' value 'N' was changed to 'n' in
accordance with the built-in table derived from the CIF Core
dictionary named 'cif_core.dic' version 2.4.5 last updated on
2014-11-21 (17 times).

data item '_geom_bond_publ_flag' value 'N' was changed to 'n' in
accordance with the built-in table derived from the CIF Core
dictionary named 'cif_core.dic' version 2.4.5 last updated on
2014-11-21 (19 times).

Automatic conversion script
Id: cif_fix_values 8369 2020-08-20 11:38:08Z andrius 
;
_cod_original_cell_volume        373.541(23)
_cod_database_code               1560794
_gsas_exptl_extinct_corr_t_min   1.00000
_gsas_exptl_extinct_corr_t_max   1.00000
loop_
_symmetry_equiv_pos_site_id
_symmetry_equiv_pos_as_xyz
1 +x,+y,+z
2 -x+1/2,+y+1/2,-z
-1 -x,-y,-z
-2 +x+1/2,-y+1/2,+z
loop_
_atom_site_type_symbol
_atom_site_label
_atom_site_fract_x
_atom_site_fract_y
_atom_site_fract_z
_atom_site_occupancy
_atom_site_thermal_displace_type
_atom_site_U_iso_or_equiv
_atom_site_symmetry_multiplicity
Ba Ba 0.0 0.0 0.0 1.0 Uiso 0.0326(8) 2
Co Co -0.7055(4) -0.0602(9) -0.3517(5) 1.0 Uiso 0.0442(18) 4
P P -0.3608(7) -0.0068(18) -0.2680(7) 1.0 Uiso 0.0240(21) 4
O O1 0.2645(12) -0.3783(22) -0.1378(17) 1.0 Uiso 0.0394(29) 4
O O2 -0.5133(15) -0.0644(30) -0.2341(13) 1.0 Uiso 0.0394(29) 4
O O3 -0.3474(13) -0.0954(25) -0.4352(18) 1.0 Uiso 0.0394(29) 4
O O4 0.1629(17) -0.7766(25) -0.2363(15) 1.0 Uiso 0.0394(29) 4
loop_
_atom_type_symbol
_atom_type_number_in_cell
_atom_type_scat_dispersion_real
_atom_type_scat_dispersion_imag
_atom_type_scat_Cromer_Mann_a1
_atom_type_scat_Cromer_Mann_a2
_atom_type_scat_Cromer_Mann_a3
_atom_type_scat_Cromer_Mann_a4
_atom_type_scat_Cromer_Mann_b1
_atom_type_scat_Cromer_Mann_b2
_atom_type_scat_Cromer_Mann_b3
_atom_type_scat_Cromer_Mann_b4
_atom_type_scat_Cromer_Mann_c
_atom_type_scat_source
Ba 2.0 0.000 0.000 20.3361 3.21600 19.2970 0.27560 10.8880 20.2073 2.69590
167.202 2.77310 International_Tables_Vol_C
Co 4.0 0.000 0.000 12.2841 4.27910 7.34090 0.27840 4.00340 13.5359 2.34880
71.1692 1.01180 International_Tables_Vol_C
P 4.0 0.000 0.000 6.43450 1.90670 4.17910 27.1570 1.78000 0.52600 1.49080
68.1645 1.11490 International_Tables_Vol_C
O 16.0 0.000 0.000 3.04850 13.2771 2.28680 5.70110 1.54630 0.32390 0.86700
32.9089 0.25080 International_Tables_Vol_C
loop_
_geom_angle_atom_site_label_1
_geom_angle_atom_site_label_2
_geom_angle_atom_site_label_3
_geom_angle
_geom_angle_site_symmetry_1
_geom_angle_site_symmetry_2
_geom_angle_site_symmetry_3
_geom_angle_publ_flag
O1 Ba O1 180.0 2_555 . -2_445 n
O1 Co O2 77.1(5) 1_455 . 1_555 n
O1 Co O3 160.4(5) 1_455 . -1_454 n
O1 Co O3 67.6(5) 1_455 . -2_445 n
O1 Co O4 92.2(4) 1_455 . 1_465 n
O2 Co O3 99.8(5) 1_555 . -1_454 n
O2 Co O3 129.3(6) 1_555 . -2_445 n
O2 Co O4 108.5(6) 1_555 . 1_465 n
O3 Co O3 101.9(4) -1_454 . -2_445 n
O3 Co O4 107.0(5) -1_454 . 1_465 n
O3 Co O4 107.9(6) -2_445 . 1_465 n
O1 P O2 117.7(8) -2_445 . 1_555 n
O1 P O3 114.1(9) -2_445 . 1_555 n
O1 P O4 97.7(9) -2_445 . -2_445 n
O2 P O3 104.0(7) 1_555 . 1_555 n
O2 P O4 107.1(11) 1_555 . -2_445 n
O3 P O4 116.6(9) 1_555 . -2_445 n
loop_
_geom_bond_atom_site_label_1
_geom_bond_atom_site_label_2
_geom_bond_distance
_geom_bond_site_symmetry_1
_geom_bond_site_symmetry_2
_geom_bond_publ_flag
Ba O1 3.326(10) . 1_555 n
Ba O1 2.471(11) . 2_555 n
Ba O1 3.326(10) . -1_555 n
Ba O1 2.471(11) . -2_445 n
Ba O2 3.400(14) . 2_445 n
Ba O2 2.887(13) . 2_455 n
Ba O2 2.887(13) . -2_545 n
Ba O2 3.400(14) . -2_555 n
Ba O4 2.729(12) . 1_565 n
Ba O4 2.729(12) . -1_545 n
Co O1 2.378(14) . 1_455 n
Co O2 1.972(12) . 1_555 n
Co O3 1.975(12) . -1_454 n
Co O3 2.250(12) . -2_445 n
Co O4 2.115(13) . 1_465 n
P O1 1.631(12) . -2_445 n
P O2 1.476(12) . 1_555 n
P O3 1.434(12) . 1_555 n
P O4 1.456(14) . -2_445 n
loop_
_pd_meas_counts_total
_pd_proc_ls_weight
_pd_proc_intensity_bkg_calc
_pd_calc_intensity_total
25070.0 0.0000399 25015.48633 25015.48633
24960.0 0.0000401 25025.47656 25025.47656
24901.0 0.0000402 25034.22656 25034.22656
24980.0 0.0000400 25041.81641 25041.81641
25453.0 0.0000393 25048.32227 25048.32227
25030.0 0.0000400 25053.81250 25053.81250
24929.0 0.0000401 25058.35352 25058.35352
25417.0 0.0000393 25062.01172 25062.01172
24887.0 0.0000402 25064.84766 25064.84766
25240.0 0.0000396 25066.91406 25066.91406
24815.0 0.0000403 25068.26758 25068.26758
24862.0 0.0000402 25068.95898 25068.95898
24993.0 0.0000400 25069.03320 25069.03320
25113.0 0.0000398 25068.53906 25068.53906
25258.0 0.0000396 25067.51758 25067.51758
25144.0 0.0000398 25066.00586 25066.00586
25070.0 0.0000399 25064.04688 25064.04688
24944.0 0.0000401 25061.67383 25061.67383
24950.0 0.0000401 25058.91797 25058.91797
25087.0 0.0000399 25055.81445 25055.81445
24982.0 0.0000400 25052.38867 25052.38867
25154.0 0.0000398 25048.66992 25048.66992
25112.0 0.0000398 25044.68359 25044.68359
24965.0 0.0000401 25040.45508 25040.45508
25243.0 0.0000396 25036.00391 25036.00391
24906.0 0.0000402 25031.35352 25031.35352
24842.0 0.0000403 25026.52344 25026.52344
25037.0 0.0000399 25021.53125 25021.53125
24812.0 0.0000403 25016.39258 25016.39258
24848.0 0.0000402 25011.12500 25011.12500
25204.0 0.0000397 25005.74414 25005.74414
24845.0 0.0000402 25000.25977 25000.25977
25063.0 0.0000399 24994.68555 24994.68555
25157.0 0.0000398 24989.03516 24989.03516
24938.0 0.0000401 24983.31836 24983.31836
24919.0 0.0000401 24977.54297 24977.54297
25183.0 0.0000397 24971.71875 24971.71875
25119.0 0.0000398 24965.85352 24965.85352
24953.0 0.0000401 24959.95703 24959.95703
24791.0 0.0000403 24954.03320 24954.03320
24885.0 0.0000402 24948.09180 24948.09180
24774.0 0.0000404 24942.13281 24942.13281
24847.0 0.0000402 24936.16406 24936.16406
25163.0 0.0000397 24930.19141 24930.19141
24880.0 0.0000402 24924.21680 24924.21680
25283.0 0.0000396 24918.24414 24918.24414
24676.0 0.0000405 24912.27734 24912.27734
24830.0 0.0000403 24906.31836 24906.31836
24816.0 0.0000403 24900.36914 24900.36914
25078.0 0.0000399 24894.43164 24894.43164
25075.0 0.0000399 24888.50781 24888.50781
24743.0 0.0000404 24882.59961 24882.59961
24766.0 0.0000404 24876.70703 24876.70703
24921.0 0.0000401 24870.83203 24870.83203
24700.0 0.0000405 24864.97266 24864.97266
24993.0 0.0000400 24859.13477 24859.13477
24842.0 0.0000403 24853.31250 24853.31250
24933.0 0.0000401 24847.50977 24847.50977
24981.0 0.0000400 24841.72266 24841.72266
24904.0 0.0000402 24835.95508 24835.95508
25012.0 0.0000400 24830.20508 24830.20508
24854.0 0.0000402 24824.47266 24824.47266
24844.0 0.0000403 24818.75586 24818.75586
24826.0 0.0000403 24813.05469 24813.05469
24842.0 0.0000403 24807.36719 24807.36719
24991.0 0.0000400 24801.69531 24801.69531
24927.0 0.0000401 24796.03516 24796.03516
24643.0 0.0000406 24790.38867 24790.38867
24594.0 0.0000407 24784.75391 24784.75391
24699.0 0.0000405 24779.12891 24779.12891
24902.0 0.0000402 24773.51172 24773.51172
24902.0 0.0000402 24767.90430 24767.90430
24781.0 0.0000404 24762.30273 24762.30273
24865.0 0.0000402 24756.70703 24756.70703
24830.0 0.0000403 24751.11523 24751.11523
24680.0 0.0000405 24745.52930 24745.52930
24682.0 0.0000405 24739.94531 24739.94531
24358.0 0.0000411 24734.36328 24734.36328
24733.0 0.0000404 24728.78125 24728.78125
24658.0 0.0000406 24723.19922 24723.19922
24403.0 0.0000410 24717.61523 24717.61523
24613.0 0.0000406 24712.03125 24712.03125
24617.0 0.0000406 24706.44141 24706.44141
24617.0 0.0000406 24700.84961 24700.84961
24563.0 0.0000407 24695.25195 24695.25195
24673.0 0.0000405 24689.64648 24689.64648
24701.0 0.0000405 24684.03711 24684.03711
24597.0 0.0000407 24678.41797 24678.41797
24603.0 0.0000406 24672.79297 24672.79297
24842.0 0.0000403 24667.15820 24667.15820
24839.0 0.0000403 24661.51367 24661.51367
24574.0 0.0000407 24655.85938 24655.85938
24714.0 0.0000405 24650.19531 24650.19531
24685.0 0.0000405 24644.51953 24644.51953
24862.0 0.0000402 24638.83203 24638.83203
24807.0 0.0000403 24633.13281 24633.13281
24546.0 0.0000407 24627.41992 24627.41992
24445.0 0.0000409 24621.69531 24621.69531
24573.0 0.0000407 24615.95703 24615.95703
24478.0 0.0000409 24610.20508 24610.20508
24482.0 0.0000408 24604.43945 24604.43945
24894.0 0.0000402 24598.66016 24598.66016
24634.0 0.0000406 24592.86719 24592.86719
24811.0 0.0000403 24587.06055 24587.06055
24647.0 0.0000406 24581.23828 24581.23828
24972.0 0.0000400 24575.40234 24575.40234
24524.0 0.0000408 24569.55078 24569.55078
24696.0 0.0000405 24563.68750 24563.68750
24563.0 0.0000407 24557.80664 24557.80664
24707.0 0.0000405 24551.91211 24551.91211
24490.0 0.0000408 24546.00586 24546.00586
24496.0 0.0000408 24540.08203 24540.08203
24790.0 0.0000403 24534.14648 24534.14648
24498.0 0.0000408 24528.19531 24528.19531
24608.0 0.0000406 24522.23242 24522.23242
24464.0 0.0000409 24516.25391 24516.25391
24654.0 0.0000406 24510.26367 24510.26367
24472.0 0.0000409 24504.26172 24504.26172
24414.0 0.0000410 24498.24414 24498.24414
24493.0 0.0000408 24492.21484 24492.21484
24563.0 0.0000407 24486.17578 24486.17578
24502.0 0.0000408 24480.12305 24480.12305
24445.0 0.0000409 24474.05859 24474.05859
24415.0 0.0000410 24467.98438 24467.98438
24260.0 0.0000412 24461.89844 24461.89844
24196.0 0.0000413 24455.80273 24455.80273
24409.0 0.0000410 24449.69531 24449.69531
24268.0 0.0000412 24443.58008 24443.58008
24169.0 0.0000414 24437.45508 24437.45508
24127.0 0.0000414 24431.32227 24431.32227
24391.0 0.0000410 24425.18164 24425.18164
24058.0 0.0000416 24419.03125 24419.03125
24156.0 0.0000414 24412.87500 24412.87500
24290.0 0.0000412 24406.70898 24406.70898
24339.0 0.0000411 24400.53906 24400.53906
24446.0 0.0000409 24394.36328 24394.36328
24424.0 0.0000409 24388.17969 24388.17969
24583.0 0.0000407 24381.99219 24381.99219
24301.0 0.0000412 24375.79883 24375.79883
24253.0 0.0000412 24369.60352 24369.60352
24333.0 0.0000411 24363.40234 24363.40234
24330.0 0.0000411 24357.19922 24357.19922
24490.0 0.0000408 24350.99023 24350.99023
24333.0 0.0000411 24344.78125 24344.78125
24148.0 0.0000414 24338.56836 24338.56836
24165.0 0.0000414 24332.35352 24332.35352
24468.0 0.0000409 24326.13867 24326.13867
24476.0 0.0000409 24319.92383 24319.92383
24490.0 0.0000408 24313.70703 24313.70703
24470.0 0.0000409 24307.49023 24307.49023
24477.0 0.0000409 24301.27344 24301.27344
24138.0 0.0000414 24295.05664 24295.05664
24618.0 0.0000406 24288.84180 24288.84180
24224.0 0.0000413 24282.62891 24282.62891
24043.0 0.0000416 24276.41797 24276.41797
24284.0 0.0000412 24270.20703 24270.20703
24072.0 0.0000415 24264.00195 24264.00195
24217.0 0.0000413 24257.79688 24257.79688
24143.0 0.0000414 24251.59570 24251.59570
24216.0 0.0000413 24245.39844 24245.39844
24174.0 0.0000414 24239.20508 24239.20508
24016.0 0.0000416 24233.01563 24233.01563
24298.0 0.0000412 24226.83008 24226.83008
24303.0 0.0000411 24220.65039 24220.65039
24293.0 0.0000412 24214.47461 24214.47461
24383.0 0.0000410 24208.30469 24208.30469
24127.0 0.0000414 24202.14063 24202.14063
24370.0 0.0000410 24195.98047 24195.98047
24220.0 0.0000413 24189.82813 24189.82813
24306.0 0.0000411 24183.68164 24183.68164
24247.0 0.0000412 24177.54102 24177.54102
24304.0 0.0000411 24171.40820 24171.40820
24451.0 0.0000409 24165.28125 24165.28125
24171.0 0.0000414 24159.16211 24159.16211
23847.0 0.0000419 24153.04883 24153.04883
24259.0 0.0000412 24146.94336 24146.94336
24100.0 0.0000415 24140.84570 24140.84570
24195.0 0.0000413 24134.75781 24134.75781
24276.0 0.0000412 24128.67578 24128.67578
23965.0 0.0000417 24122.60156 24122.60156
24068.0 0.0000415 24116.53516 24116.53516
24039.0 0.0000416 24110.47852 24110.47852
24107.0 0.0000415 24104.42969 24104.42969
24475.0 0.0000409 24098.39063 24098.39063
24489.0 0.0000408 24092.35742 24092.35742
24294.0 0.0000412 24086.33594 24086.33594
24088.0 0.0000415 24080.32031 24080.32031
24164.0 0.0000414 24074.31641 24074.31641
24285.0 0.0000412 24068.32031 24068.32031
24050.0 0.0000416 24062.33398 24062.33398
24183.0 0.0000414 24056.35547 24056.35547
23885.0 0.0000419 24050.38672 24050.38672
24053.0 0.0000416 24044.42773 24044.42773
24165.0 0.0000414 24038.47656 24038.47656
24169.0 0.0000414 24032.53516 24032.53516
24008.0 0.0000417 24026.60352 24026.60352
23930.0 0.0000418 24020.68164 24020.68164
24023.0 0.0000416 24014.76953 24014.76953
23868.0 0.0000419 24008.86523 24008.86523
23815.0 0.0000420 24002.97266 24002.97266
24124.0 0.0000415 23997.08789 23997.08789
23947.0 0.0000418 23991.21289 23991.21289
24028.0 0.0000416 23985.34766 23985.34766
24017.0 0.0000416 23979.49219 23979.49219
23944.0 0.0000418 23973.64648 23973.64648
23520.0 0.0000425 23967.81055 23967.81055
23872.0 0.0000419 23961.98438 23961.98438
24072.0 0.0000415 23956.16602 23956.16602
23920.0 0.0000418 23950.35938 23950.35938
24041.0 0.0000416 23944.56055 23944.56055
23896.0 0.0000418 23938.77148 23938.77148
23857.0 0.0000419 23932.99414 23932.99414
23835.0 0.0000420 23927.22461 23927.22461
23864.0 0.0000419 23921.46484 23921.46484
23760.0 0.0000421 23915.71484 23915.71484
24029.0 0.0000416 23909.97266 23909.97266
23910.0 0.0000418 23904.24219 23904.24219
24220.0 0.0000413 23898.52148 23898.52148
23978.0 0.0000417 23892.81055 23892.81055
24047.0 0.0000416 23887.10742 23887.10742
23390.0 0.0000428 23881.41406 23881.41406
24163.0 0.0000414 23875.73047 23875.73047
23976.0 0.0000417 23870.05664 23870.05664
23978.0 0.0000417 23864.39453 23864.39453
23845.0 0.0000419 23858.74023 23858.74023
24114.0 0.0000415 23853.09570 23853.09570
23899.0 0.0000418 23847.45898 23847.45898
23834.0 0.0000420 23841.83398 23841.83398
23859.0 0.0000419 23836.21875 23836.21875
23823.0 0.0000420 23830.61133 23836.03906
23834.0 0.0000420 23825.01563 23830.61328
23706.0 0.0000422 23819.42773 23825.20508
23916.0 0.0000418 23813.84961 23819.81445
23738.0 0.0000421 23808.28320 23814.44531
24001.0 0.0000417 23802.72461 23809.09375
23923.0 0.0000418 23797.17773 23803.76563
23604.0 0.0000424 23791.63867 23798.45508
23628.0 0.0000423 23786.11133 23793.33789
23950.0 0.0000418 23780.59375 23788.08203
23783.0 0.0000420 23775.08594 23782.84961
23779.0 0.0000421 23769.58594 23777.64258
23849.0 0.0000419 23764.09766 23772.46094
23734.0 0.0000421 23758.62109 23767.31250
23726.0 0.0000421 23753.15234 23762.18945
24005.0 0.0000417 23747.69336 23757.10156
23847.0 0.0000419 23742.24609 23752.04492
23679.0 0.0000422 23736.80859 23747.02344
23958.0 0.0000417 23731.38281 23742.04297
23914.0 0.0000418 23725.96680 23737.10352
23505.0 0.0000425 23720.56055 23732.20508
23538.0 0.0000425 23715.16602 23727.35547
23817.0 0.0000420 23709.78125 23722.55664
23650.0 0.0000423 23704.40820 23717.81250
23542.0 0.0000425 23699.04492 23713.12891
23562.0 0.0000424 23693.69336 23708.51367
23370.0 0.0000428 23688.35156 23703.96680
23672.0 0.0000422 23683.02344 23699.50195
23499.0 0.0000426 23677.70508 23695.12109
23709.0 0.0000422 23672.39844 23690.84180
23741.0 0.0000421 23667.10156 23686.66797
23507.0 0.0000425 23661.81836 23682.62305
23425.0 0.0000427 23656.54688 23678.71680
23635.0 0.0000423 23651.28711 23674.97070
23375.0 0.0000428 23646.03711 23671.40625
23661.0 0.0000423 23640.80273 23668.05664
23641.0 0.0000423 23635.57813 23664.96289
24152.0 0.0000414 23630.36523 23662.17578
23510.0 0.0000425 23625.16602 23659.77734
23776.0 0.0000421 23619.98047 23657.91211
23506.0 0.0000425 23614.80664 23656.85938
23445.0 0.0000427 23609.64453 23657.13672
23613.0 0.0000423 23604.49609 23659.65625
23348.0 0.0000428 23599.36133 23665.81641
23562.0 0.0000424 23594.23828 23677.45703
23792.0 0.0000420 23589.13086 23696.58789
23545.0 0.0000425 23584.03516 23724.81250
23766.0 0.0000421 23578.95313 23762.86133
23659.0 0.0000423 23573.88477 23810.51172
23558.0 0.0000424 23568.83203 23866.97070
23676.0 0.0000422 23563.79102 23931.42969
23627.0 0.0000423 23558.76563 24003.44922
23768.0 0.0000421 23553.75586 24083.06836
23648.0 0.0000423 23548.75781 24170.84180
24006.0 0.0000417 23543.77539 24267.81836
24002.0 0.0000417 23538.80859 24375.56055
24251.0 0.0000412 23533.85742 24496.35938
24475.0 0.0000409 23528.91992 24633.51563
24752.0 0.0000404 23523.99609 24791.65625
25029.0 0.0000400 23519.08984 24976.92969
25293.0 0.0000395 23514.19922 25196.89648
25953.0 0.0000385 23509.32422 25460.31250
26452.0 0.0000378 23504.46289 25777.30664
27000.0 0.0000370 23499.61914 26160.58008
27461.0 0.0000364 23494.79102 26626.24414
28078.0 0.0000356 23489.98047 27188.81641
28631.0 0.0000349 23485.18555 27844.80078
28896.0 0.0000346 23480.40625 28542.04688
29421.0 0.0000340 23475.64453 29147.44336
29422.0 0.0000340 23470.89844 29451.17578
29624.0 0.0000338 23466.16992 29237.89844
28792.0 0.0000347 23461.45703 28441.88281
27379.0 0.0000365 23456.76367 27275.94922
26234.0 0.0000381 23452.08594 26085.03711
24782.0 0.0000404 23447.42578 25110.64063
24179.0 0.0000414 23442.78516 24434.82813
23360.0 0.0000428 23438.16016 24025.42383
23553.0 0.0000425 23433.55273 23801.13086
23251.0 0.0000430 23428.96289 23683.22266
23594.0 0.0000424 23424.39063 23618.24023
23610.0 0.0000424 23419.83789 23577.56250
23489.0 0.0000426 23415.30273 23548.27539
23801.0 0.0000420 23410.78516 23525.09180
23498.0 0.0000426 23406.28711 23505.78125
23595.0 0.0000424 23401.80664 23489.24414
23427.0 0.0000427 23397.34570 23474.81055
23423.0 0.0000427 23392.90234 23462.02344
23267.0 0.0000430 23388.47852 23450.54688
23353.0 0.0000428 23384.07227 23440.12109
23484.0 0.0000426 23379.68555 23430.55859
23634.0 0.0000423 23375.31641 23421.70313
23459.0 0.0000426 23370.96680 23413.44141
23393.0 0.0000427 23366.63867 23405.67969
23529.0 0.0000425 23362.32617 23398.33594
23389.0 0.0000428 23358.03320 23391.35742
23443.0 0.0000427 23353.76172 23384.68945
23198.0 0.0000431 23349.50586 23378.28906
23423.0 0.0000427 23345.27148 23372.12891
23609.0 0.0000424 23341.05664 23366.17578
23505.0 0.0000425 23336.85938 23360.40430
23400.0 0.0000427 23332.68359 23354.79883
23241.0 0.0000430 23328.52539 23349.33789
23303.0 0.0000429 23324.38672 23344.00781
23466.0 0.0000426 23320.26563 23338.79688
23048.0 0.0000434 23316.16602 23333.69727
23372.0 0.0000428 23312.08398 23328.69531
23343.0 0.0000428 23308.02344 23323.78320
23171.0 0.0000432 23303.98047 23318.95313
23151.0 0.0000432 23299.95703 23314.20117
23350.0 0.0000428 23295.95117 23309.51953
23364.0 0.0000428 23291.96680 23304.90625
23504.0 0.0000425 23288.00000 23300.35156
23195.0 0.0000431 23284.05273 23295.85938
23335.0 0.0000429 23280.12305 23291.41797
23444.0 0.0000427 23276.21289 23287.02734
23422.0 0.0000427 23272.32227 23282.68945
23084.0 0.0000433 23268.44922 23278.39453
23534.0 0.0000425 23264.59570 23274.14648
23389.0 0.0000428 23260.75977 23269.93750
23309.0 0.0000429 23256.94336 23265.76953
23214.0 0.0000431 23253.14453 23261.63867
23080.0 0.0000433 23249.36328 23257.54492
23066.0 0.0000434 23245.60156 23253.48633
22883.0 0.0000437 23241.85547 23249.46094
23353.0 0.0000428 23238.13086 23245.47070
23093.0 0.0000433 23234.41992 23241.50781
23323.0 0.0000429 23230.72852 23237.57813
23415.0 0.0000427 23227.05469 23233.67773
22980.0 0.0000435 23223.39844 23229.80469
23240.0 0.0000430 23219.75781 23225.95898
23298.0 0.0000429 23216.13477 23222.14063
23139.0 0.0000432 23212.52930 23218.34766
23091.0 0.0000433 23208.93945 23214.58008
23142.0 0.0000432 23205.36719 23210.83984
23250.0 0.0000430 23201.81055 23207.11914
23184.0 0.0000431 23198.26953 23203.42188
23246.0 0.0000430 23194.74414 23199.75000
22892.0 0.0000437 23191.23438 23196.09766
23030.0 0.0000434 23187.74219 23192.46875
23295.0 0.0000429 23184.26172 23184.26172
23218.0 0.0000431 23180.79883 23180.79883
23187.0 0.0000431 23177.34961 23177.34961
23213.0 0.0000431 23173.91602 23173.91602
23202.0 0.0000431 23170.49609 23170.49609
23060.0 0.0000434 23167.08984 23167.08984
23380.0 0.0000428 23163.69727 23163.69727
23266.0 0.0000430 23160.31836 23160.31836
23022.0 0.0000434 23156.95313 23156.95313
23241.0 0.0000430 23153.60156 23153.60156
23226.0 0.0000431 23150.26172 23150.26172
23312.0 0.0000429 23146.93359 23146.93359
23146.0 0.0000432 23143.61914 23143.61914
23104.0 0.0000433 23140.31641 23140.31641
22917.0 0.0000436 23137.02539 23137.02539
23052.0 0.0000434 23133.74414 23133.74414
23119.0 0.0000433 23130.47656 23130.47656
23091.0 0.0000433 23127.21875 23127.21875
23162.0 0.0000432 23123.97070 23123.97070
23294.0 0.0000429 23120.73242 23120.73242
23213.0 0.0000431 23117.50586 23117.50586
22989.0 0.0000435 23114.28711 23114.28711
23254.0 0.0000430 23111.07813 23111.07813
23282.0 0.0000430 23107.87891 23107.87891
23261.0 0.0000430 23104.68750 23104.68750
23220.0 0.0000431 23101.50391 23101.50391
23224.0 0.0000431 23098.33008 23098.33008
23212.0 0.0000431 23095.16211 23095.16211
23055.0 0.0000434 23092.00195 23092.00195
23052.0 0.0000434 23088.84766 23088.84766
23240.0 0.0000430 23085.70117 23085.70117
23014.0 0.0000435 23082.56055 23082.56055
23107.0 0.0000433 23079.42578 23079.42578
23084.0 0.0000433 23076.29688 23076.29688
23151.0 0.0000432 23073.17383 23073.17383
23030.0 0.0000434 23070.05469 23070.05469
22970.0 0.0000435 23066.93945 23066.93945
22927.0 0.0000436 23063.82813 23063.82813
23295.0 0.0000429 23060.72266 23060.72266
23156.0 0.0000432 23057.61914 23057.61914
22800.0 0.0000439 23054.51758 23054.51758
23063.0 0.0000434 23051.41992 23051.41992
23095.0 0.0000433 23048.32617 23048.32617
23190.0 0.0000431 23045.23242 23045.23242
22830.0 0.0000438 23042.13867 23042.13867
22951.0 0.0000436 23039.04883 23039.04883
23256.0 0.0000430 23035.95898 23035.95898
23151.0 0.0000432 23032.86914 23032.86914
23070.0 0.0000433 23029.77930 23029.77930
23168.0 0.0000432 23026.68945 23026.68945
23227.0 0.0000431 23023.59961 23023.59961
23194.0 0.0000431 23020.50781 23020.50781
23103.0 0.0000433 23017.41602 23017.41602
22889.0 0.0000437 23014.32031 23014.32031
23019.0 0.0000434 23011.22461 23011.22461
22761.0 0.0000439 23008.12500 23008.12500
22855.0 0.0000438 23005.02148 23005.02148
23090.0 0.0000433 23001.91602 23001.91602
23040.0 0.0000434 22998.80664 22998.80664
23114.0 0.0000433 22995.69531 22995.69531
23043.0 0.0000434 22992.57617 22992.57617
23106.0 0.0000433 22989.45508 22989.45508
23053.0 0.0000434 22986.32617 22986.32617
22998.0 0.0000435 22983.19336 22983.19336
23137.0 0.0000432 22980.05664 22980.05664
22970.0 0.0000435 22976.91016 22976.91016
22963.0 0.0000435 22973.75977 22973.75977
22738.0 0.0000440 22970.60156 22970.60156
23125.0 0.0000432 22967.43555 22967.43555
22914.0 0.0000436 22964.26367 22964.26367
22942.0 0.0000436 22961.08203 22961.08203
22850.0 0.0000438 22957.89258 22957.89258
22740.0 0.0000440 22954.69531 22954.69531
22716.0 0.0000440 22951.48828 22951.48828
23115.0 0.0000433 22948.27148 22948.27148
23008.0 0.0000435 22945.04492 22945.04492
23008.0 0.0000435 22941.81055 22941.81055
22826.0 0.0000438 22938.56445 22938.56445
23074.0 0.0000433 22935.30664 22935.30664
22708.0 0.0000440 22932.03906 22932.03906
22781.0 0.0000439 22928.75977 22928.75977
22805.0 0.0000439 22925.47070 22925.47070
22783.0 0.0000439 22922.16797 22922.16797
22872.0 0.0000437 22918.85352 22918.85352
22826.0 0.0000438 22915.52539 22915.52539
22979.0 0.0000435 22912.18555 22912.18555
22780.0 0.0000439 22908.83398 22908.83398
22874.0 0.0000437 22905.46680 22905.46680
22989.0 0.0000435 22902.08789 22902.08789
22842.0 0.0000438 22898.69336 22898.69336
23018.0 0.0000434 22895.28516 22895.28516
22911.0 0.0000436 22891.86328 22891.86328
23047.0 0.0000434 22888.42578 22888.42578
23021.0 0.0000434 22884.97266 22884.97266
22818.0 0.0000438 22881.50391 22881.50391
23005.0 0.0000435 22878.02148 22878.02148
22888.0 0.0000437 22874.52344 22874.52344
22884.0 0.0000437 22871.00781 22871.00781
23046.0 0.0000434 22867.47656 22867.47656
22714.0 0.0000440 22863.92773 22863.92773
22726.0 0.0000440 22860.36328 22860.36328
22778.0 0.0000439 22856.78320 22856.78320
22742.0 0.0000440 22853.18359 22853.18359
22837.0 0.0000438 22849.56836 22849.56836
22844.0 0.0000438 22845.93555 22845.93555
23068.0 0.0000434 22842.28320 22842.28320
22987.0 0.0000435 22838.61328 22838.61328
22681.0 0.0000441 22834.92578 22834.92578
22983.0 0.0000435 22831.22070 22831.22070
22539.0 0.0000444 22827.49609 22827.49609
22676.0 0.0000441 22823.75391 22823.75391
22773.0 0.0000439 22819.99023 22819.99023
22807.0 0.0000438 22816.21094 22816.21094
23039.0 0.0000434 22812.41016 22812.41016
22664.0 0.0000441 22808.58984 22808.58984
22660.0 0.0000441 22804.75195 22804.75195
22938.0 0.0000436 22800.89453 22800.89453
23068.0 0.0000434 22797.01563 22797.01563
22972.0 0.0000435 22793.11914 22793.11914
22905.0 0.0000437 22789.20117 22789.20117
22943.0 0.0000436 22785.26367 22785.26367
22651.0 0.0000441 22781.30469 22781.30469
22623.0 0.0000442 22777.32617 22777.32617
22718.0 0.0000440 22773.32813 22773.32813
22680.0 0.0000441 22769.31055 22769.31055
22835.0 0.0000438 22765.26953 22765.26953
23002.0 0.0000435 22761.21094 22761.21094
22933.0 0.0000436 22757.12891 22757.12891
22787.0 0.0000439 22753.02734 22753.02734
22287.0 0.0000449 22748.90625 22748.90625
22408.0 0.0000446 22744.76367 22744.76367
22613.0 0.0000442 22740.60156 22740.60156
22890.0 0.0000437 22736.41602 22736.41602
22862.0 0.0000437 22732.21094 22732.21094
22984.0 0.0000435 22727.98438 22727.98438
22721.0 0.0000440 22723.73828 22723.73828
22617.0 0.0000442 22719.47070 22719.47070
22637.0 0.0000442 22715.18164 22715.18164
23000.0 0.0000435 22710.87305 22710.87305
22863.0 0.0000437 22706.54297 22706.54297
22663.0 0.0000441 22702.19141 22702.19141
22531.0 0.0000444 22697.81836 22697.81836
22591.0 0.0000443 22693.42578 22693.42578
22930.0 0.0000436 22689.01367 22689.01367
22540.0 0.0000444 22684.57813 22684.57813
22843.0 0.0000438 22680.12305 22680.12305
22827.0 0.0000438 22675.64844 22675.64844
22653.0 0.0000441 22671.15234 22671.15234
22556.0 0.0000443 22666.63672 22666.63672
22653.0 0.0000441 22662.09961 22662.09961
22611.0 0.0000442 22657.54297 22657.54297
22396.0 0.0000447 22652.96680 22652.96680
22550.0 0.0000443 22648.36914 22648.36914
22741.0 0.0000440 22643.75195 22643.75195
22432.0 0.0000446 22639.11523 22639.11523
22656.0 0.0000441 22634.45898 22634.45898
22600.0 0.0000442 22629.78320 22629.78320
22759.0 0.0000439 22625.08594 22625.08594
22614.0 0.0000442 22620.37109 22620.37109
22336.0 0.0000448 22615.63672 22615.63672
22562.0 0.0000443 22610.88477 22610.88477
22252.0 0.0000449 22606.11133 22606.11133
22595.0 0.0000443 22601.32031 22601.32031
22490.0 0.0000445 22596.51172 22596.51172
22718.0 0.0000440 22591.68359 22591.68359
22323.0 0.0000448 22586.83789 22586.83789
22484.0 0.0000445 22581.97266 22581.97266
22433.0 0.0000446 22577.09180 22577.09180
22690.0 0.0000441 22572.19141 22572.19141
22503.0 0.0000444 22567.27344 22567.27344
22412.0 0.0000446 22562.33984 22562.33984
22455.0 0.0000445 22557.38672 22557.38672
22320.0 0.0000448 22552.41797 22552.41797
22736.0 0.0000440 22547.43359 22547.43359
22356.0 0.0000447 22542.43164 22542.43164
22453.0 0.0000445 22537.41406 22537.41406
22592.0 0.0000443 22532.37891 22532.37891
22486.0 0.0000445 22527.33008 22527.33008
22525.0 0.0000444 22522.26367 22522.26367
22500.0 0.0000444 22517.18359 22517.18359
22684.0 0.0000441 22512.08789 22512.08789
22194.0 0.0000451 22506.97852 22506.97852
22336.0 0.0000448 22501.85352 22501.85352
22554.0 0.0000443 22496.71289 22496.71289
22514.0 0.0000444 22491.56055 22491.56055
22463.0 0.0000445 22486.39453 22486.39453
22596.0 0.0000443 22481.21289 22481.21289
22651.0 0.0000441 22476.01953 22476.01953
22269.0 0.0000449 22470.81250 22470.81250
22293.0 0.0000449 22465.59375 22465.59375
22394.0 0.0000447 22460.36328 22460.36328
22428.0 0.0000446 22455.11914 22455.11914
22460.0 0.0000445 22449.86328 22449.86328
22383.0 0.0000447 22444.59766 22444.59766
22598.0 0.0000443 22439.32031 22439.32031
22546.0 0.0000444 22434.03125 22434.03125
22524.0 0.0000444 22428.73047 22428.73047
22360.0 0.0000447 22423.42188 22423.42188
22672.0 0.0000441 22418.10352 22418.10352
22444.0 0.0000446 22412.77344 22412.77344
22241.0 0.0000450 22407.43555 22407.43555
22303.0 0.0000448 22402.08789 22402.08789
22396.0 0.0000447 22396.73242 22396.73242
22414.0 0.0000446 22391.36914 22391.36914
22223.0 0.0000450 22385.99609 22385.99609
22277.0 0.0000449 22380.61719 22380.61719
22451.0 0.0000445 22375.22852 22375.22852
22420.0 0.0000446 22369.83398 22369.83398
22118.0 0.0000452 22364.43359 22364.43359
22332.0 0.0000448 22359.02539 22359.02539
22261.0 0.0000449 22353.61328 22353.61328
22306.0 0.0000448 22348.19336 22348.19336
22240.0 0.0000450 22342.76953 22342.76953
22597.0 0.0000443 22337.33984 22337.33984
22230.0 0.0000450 22331.90625 22331.90625
22542.0 0.0000444 22326.46680 22326.46680
22494.0 0.0000445 22321.02539 22321.02539
22119.0 0.0000452 22315.57813 22315.57813
22531.0 0.0000444 22310.13086 22310.13086
22270.0 0.0000449 22304.67773 22304.67773
22410.0 0.0000446 22299.22266 22299.22266
22277.0 0.0000449 22293.76563 22293.76563
22278.0 0.0000449 22288.30664 22288.30664
22128.0 0.0000452 22282.84766 22282.84766
22383.0 0.0000447 22277.38477 22277.38477
22209.0 0.0000450 22271.92188 22271.92188
22186.0 0.0000451 22266.45898 22266.45898
21997.0 0.0000455 22260.99609 22260.99609
22239.0 0.0000450 22255.53320 22255.53320
21888.0 0.0000457 22250.07031 22250.07031
22238.0 0.0000450 22244.60938 22244.60938
22279.0 0.0000449 22239.15039 22239.15039
22219.0 0.0000450 22233.69141 22233.69141
22331.0 0.0000448 22228.23438 22228.23438
22404.0 0.0000446 22222.77930 22222.77930
22196.0 0.0000451 22217.32813 22217.32813
22387.0 0.0000447 22211.87891 22211.87891
22142.0 0.0000452 22206.43359 22206.43359
22189.0 0.0000451 22200.99219 22200.99219
22568.0 0.0000443 22195.55469 22195.55469
22233.0 0.0000450 22190.12109 22190.12109
22280.0 0.0000449 22184.69141 22184.69141
22253.0 0.0000449 22179.26758 22179.26758
22278.0 0.0000449 22173.84961 22173.84961
22093.0 0.0000453 22168.43555 22168.43555
22273.0 0.0000449 22163.02930 22163.02930
22240.0 0.0000450 22157.62891 22157.62891
22148.0 0.0000452 22152.23438 22152.23438
22106.0 0.0000452 22146.84766 22146.84766
22360.0 0.0000447 22141.46680 22141.46680
22189.0 0.0000451 22136.09570 22136.09570
22137.0 0.0000452 22130.73047 22130.73047
22109.0 0.0000452 22125.37500 22125.37500
22205.0 0.0000450 22120.02734 22120.02734
22343.0 0.0000448 22114.68750 22114.68750
22110.0 0.0000452 22109.35938 22109.35938
22321.0 0.0000448 22104.03906 22104.03906
22223.0 0.0000450 22098.72852 22098.72852
22123.0 0.0000452 22093.42773 22093.42773
22221.0 0.0000450 22088.13867 22088.13867
22181.0 0.0000451 22082.85938 22082.85938
22308.0 0.0000448 22077.58984 22077.58984
21821.0 0.0000458 22072.33203 22072.33203
22131.0 0.0000452 22067.08789 22067.08789
22035.0 0.0000454 22061.85352 22061.85352
22003.0 0.0000454 22056.63086 22056.63086
21959.0 0.0000455 22051.42188 22051.42188
22151.0 0.0000451 22046.22461 22046.22461
22124.0 0.0000452 22041.04102 22041.04102
22010.0 0.0000454 22035.86914 22035.86914
22099.0 0.0000453 22030.71289 22030.71289
22118.0 0.0000452 22025.56836 22025.56836
22088.0 0.0000453 22020.43945 22020.43945
21900.0 0.0000457 22015.32227 22015.32227
21983.0 0.0000455 22010.22070 22010.22070
22143.0 0.0000452 22005.13281 22005.13281
22170.0 0.0000451 22000.06055 22000.06055
22033.0 0.0000454 21995.00391 21995.00391
21926.0 0.0000456 21989.96289 21989.96289
21904.0 0.0000457 21984.93555 21984.93555
21904.0 0.0000457 21979.92578 21979.92578
22219.0 0.0000450 21974.93164 21974.93164
22203.0 0.0000450 21969.95117 21969.95117
21928.0 0.0000456 21964.99023 21964.99023
22150.0 0.0000451 21960.04492 21960.04492
21927.0 0.0000456 21955.11523 21955.11523
21982.0 0.0000455 21950.20313 21950.20313
22352.0 0.0000447 21945.30859 21945.30859
22118.0 0.0000452 21940.43164 21940.46875
21893.0 0.0000457 21935.57227 21935.60938
22130.0 0.0000452 21930.72852 21930.76758
22110.0 0.0000452 21925.90430 21925.94531
21827.0 0.0000458 21921.09766 21921.14063
22000.0 0.0000455 21916.31055 21916.35352
22045.0 0.0000454 21911.54102 21911.58594
21857.0 0.0000458 21906.78906 21906.83594
22135.0 0.0000452 21902.05469 21902.10352
22036.0 0.0000454 21897.34180 21897.39258
22168.0 0.0000451 21892.64453 21892.69922
21890.0 0.0000457 21887.96875 21888.02539
21862.0 0.0000457 21883.31250 21883.37109
21935.0 0.0000456 21878.67383 21878.73633
22321.0 0.0000448 21874.05469 21874.11914
21871.0 0.0000457 21869.45508 21869.52344
22036.0 0.0000454 21864.87500 21864.94727
21615.0 0.0000463 21860.31641 21860.39258
21772.0 0.0000459 21855.77539 21855.85547
22078.0 0.0000453 21851.25391 21851.33789
22074.0 0.0000453 21846.75391 21846.84375
21673.0 0.0000461 21842.27344 21842.36719
21742.0 0.0000460 21837.81250 21837.91211
22066.0 0.0000453 21833.37305 21833.48047
21793.0 0.0000459 21828.95313 21829.09375
21770.0 0.0000459 21824.55273 21824.70117
22000.0 0.0000455 21820.17383 21820.33398
21888.0 0.0000457 21815.81445 21815.98242
21769.0 0.0000459 21811.47461 21811.65625
21875.0 0.0000457 21807.15625 21807.34961
21759.0 0.0000460 21802.85938 21803.06836
21505.0 0.0000465 21798.58203 21798.80859
21700.0 0.0000461 21794.32422 21794.56641
21770.0 0.0000459 21790.08789 21790.35352
21563.0 0.0000464 21785.87109 21786.16016
21930.0 0.0000456 21781.67773 21781.99609
21734.0 0.0000460 21777.50195 21777.85352
21791.0 0.0000459 21773.34766 21773.73828
22074.0 0.0000453 21769.21484 21769.65625
21806.0 0.0000459 21765.10156 21765.60938
21958.0 0.0000455 21761.00781 21761.61719
21884.0 0.0000457 21756.93555 21757.70898
21739.0 0.0000460 21752.88477 21753.92969
21897.0 0.0000457 21748.85352 21750.34766
21672.0 0.0000461 21744.84180 21747.03125
21583.0 0.0000463 21740.85156 21744.04688
21732.0 0.0000460 21736.88086 21741.43359
21428.0 0.0000467 21732.93164 21739.61328
21449.0 0.0000466 21729.00195 21737.84961
21976.0 0.0000455 21725.09180 21736.60547
21569.0 0.0000464 21721.20117 21736.04883
21892.0 0.0000457 21717.33203 21736.46094
21615.0 0.0000463 21713.48242 21738.21680
21641.0 0.0000462 21709.65234 21741.60352
21927.0 0.0000456 21705.84180 21746.41211
21948.0 0.0000456 21702.05078 21751.41602
21951.0 0.0000456 21698.27930 21754.18555
21725.0 0.0000460 21694.52930 21751.79102
21708.0 0.0000461 21690.79688 21742.51758
21692.0 0.0000461 21687.08398 21727.79492
21635.0 0.0000462 21683.38867 21711.51953
21689.0 0.0000461 21679.71289 21697.11719
21702.0 0.0000461 21676.05664 21686.07422
21746.0 0.0000460 21672.41992 21678.19727
21573.0 0.0000464 21668.80078 21672.50195
21519.0 0.0000465 21665.20117 21668.00586
21648.0 0.0000462 21661.61719 21664.06445
21417.0 0.0000467 21658.05469 21660.37109
21722.0 0.0000460 21654.50781 21656.80078
21679.0 0.0000461 21650.98047 21653.31641
21373.0 0.0000468 21647.46875 21649.91992
21529.0 0.0000464 21643.97656 21646.64648
21548.0 0.0000464 21640.50195 21643.59180
21546.0 0.0000464 21637.04297 21640.93164
21383.0 0.0000468 21633.60156 21638.95508
21372.0 0.0000468 21630.17773 21638.04102
21727.0 0.0000460 21626.76953 21638.49609
21571.0 0.0000464 21623.37891 21640.33594
21732.0 0.0000460 21620.00391 21643.01367
21494.0 0.0000465 21616.64453 21645.29102
21482.0 0.0000466 21613.30078 21645.44531
21377.0 0.0000468 21609.97461 21643.57422
21422.0 0.0000467 21606.66211 21636.84180
21449.0 0.0000466 21603.36719 21628.25000
21450.0 0.0000466 21600.08594 21619.53320
21496.0 0.0000465 21596.81836 21611.86523
21477.0 0.0000466 21593.56836 21605.74609
21374.0 0.0000468 21590.33008 21601.19336
21405.0 0.0000467 21587.10742 21598.07813
21701.0 0.0000461 21583.89844 21596.36914
21719.0 0.0000460 21580.70313 21596.31836
21332.0 0.0000469 21577.52148 21598.42383
21557.0 0.0000464 21574.35352 21603.28906
21606.0 0.0000463 21571.19727 21611.46680
21639.0 0.0000462 21568.05469 21623.38672
21481.0 0.0000466 21564.92578 21639.48047
21477.0 0.0000466 21561.80859 21660.77148
21562.0 0.0000464 21558.70313 21688.13086
21476.0 0.0000466 21555.60938 21724.15625
21582.0 0.0000463 21552.52734 21771.76367
21937.0 0.0000456 21549.45508 21832.79297
21558.0 0.0000464 21546.39648 21904.59766
21981.0 0.0000455 21543.34766 21976.11719
21845.0 0.0000458 21540.31055 22027.25195
22013.0 0.0000454 21537.28125 22034.11133
22073.0 0.0000453 21534.26367 21983.00391
22020.0 0.0000454 21531.25586 21886.43750
21791.0 0.0000459 21528.25781 21776.90820
21778.0 0.0000459 21525.26953 21682.31641
21671.0 0.0000461 21522.28906 21614.89648
21436.0 0.0000467 21519.31641 21573.61133
21362.0 0.0000468 21516.35352 21550.88477
21228.0 0.0000471 21513.39844 21538.74023
21615.0 0.0000463 21510.45117 21531.69531
21454.0 0.0000466 21507.51172 21526.90039
21406.0 0.0000467 21504.57813 21523.13672
21660.0 0.0000462 21501.65234 21519.95898
21247.0 0.0000471 21498.73438 21517.21875
21688.0 0.0000461 21495.82227 21514.86719
21322.0 0.0000469 21492.91602 21512.92578
21405.0 0.0000467 21490.01563 21511.44727
21787.0 0.0000459 21487.12109 21510.62500
21085.0 0.0000474 21484.23242 21510.87109
21752.0 0.0000460 21481.34766 21519.00977
21508.0 0.0000465 21478.46680 21525.00391
21337.0 0.0000469 21475.59180 21537.13672
21590.0 0.0000463 21472.72070 21558.75391
21559.0 0.0000464 21469.85352 21593.48438
21289.0 0.0000470 21466.99023 21644.56641
21305.0 0.0000469 21464.12891 21714.26953
21454.0 0.0000466 21461.27148 21805.15039
21809.0 0.0000459 21458.41602 21921.49023
21812.0 0.0000458 21455.56250 22071.36914
22084.0 0.0000453 21452.71289 22267.76563
22301.0 0.0000448 21449.86328 22525.71484
22306.0 0.0000448 21447.01563 22851.12891
22669.0 0.0000441 21444.16992 23220.62305
23402.0 0.0000427 21441.32422 23563.35156
23350.0 0.0000428 21438.48047 23766.03906
23429.0 0.0000427 21435.63477 23716.93945
23417.0 0.0000427 21432.79102 23388.59570
22946.0 0.0000436 21429.94531 22890.91406
22485.0 0.0000445 21427.09961 22388.96289
21939.0 0.0000456 21424.25391 21993.94531
21807.0 0.0000459 21421.40625 21737.45898
21608.0 0.0000463 21418.55664 21595.66406
21288.0 0.0000470 21415.70508 21526.09180
21437.0 0.0000466 21412.85352 21493.36914
21286.0 0.0000470 21409.99805 21476.71094
21464.0 0.0000466 21407.14063 21466.59570
21281.0 0.0000470 21404.27930 21459.36133
21417.0 0.0000467 21401.41602 21453.73242
21418.0 0.0000467 21398.54883 21449.21875
21290.0 0.0000470 21395.67773 21445.59570
21470.0 0.0000466 21392.80273 21442.74023
21381.0 0.0000468 21389.92188 21440.58203
21286.0 0.0000470 21387.03906 21439.09766
21622.0 0.0000462 21384.14844 21438.29492
21433.0 0.0000467 21381.25586 21438.21875
21444.0 0.0000466 21378.35547 21438.94141
21555.0 0.0000464 21375.44922 21440.58984
21247.0 0.0000471 21372.53906 21443.00391
21613.0 0.0000463 21369.62109 21447.25781
21467.0 0.0000466 21366.69727 21453.68164
21518.0 0.0000465 21363.76563 21463.79883
21560.0 0.0000464 21360.82813 21480.86523
21831.0 0.0000458 21357.88281 21514.46094
21745.0 0.0000460 21354.92969 21568.15625
21931.0 0.0000456 21351.96875 21659.51953
22048.0 0.0000454 21349.00000 21805.16211
22016.0 0.0000454 21346.02148 22020.86719
22261.0 0.0000449 21343.03516 22319.68555
22676.0 0.0000441 21340.04102 22714.63477
23373.0 0.0000428 21337.03711 23226.33203
23647.0 0.0000423 21334.02344 23892.09766
24078.0 0.0000415 21331.00195 24769.38477
25577.0 0.0000391 21327.96875 25918.12500
26805.0 0.0000373 21324.92578 27362.81836
28392.0 0.0000352 21321.87305 28929.12109
29771.0 0.0000336 21318.80859 30290.98047
30869.0 0.0000324 21315.73438 30953.55078
30467.0 0.0000328 21312.64844 30499.66211
29152.0 0.0000343 21309.55273 28949.55664
27247.0 0.0000367 21306.44336 26863.50977
25727.0 0.0000389 21303.32422 24896.97266
24651.0 0.0000406 21300.19141 23431.03125
24188.0 0.0000413 21297.04883 22523.55078
24098.0 0.0000415 21293.89258 22045.96289
23940.0 0.0000418 21290.72266 21828.07617
24034.0 0.0000416 21287.54102 21742.08789
23796.0 0.0000420 21284.34766 21717.53320
23256.0 0.0000430 21281.13867 21722.33594
23032.0 0.0000434 21277.91797 21739.89453
22844.0 0.0000438 21274.68359 21757.39453
22247.0 0.0000449 21271.43555 21762.93555
22022.0 0.0000454 21268.17383 21745.46484
21966.0 0.0000455 21264.89648 21701.06641
21987.0 0.0000455 21261.60742 21638.31836
21383.0 0.0000468 21258.30078 21572.12500
21478.0 0.0000466 21254.98242 21513.76758
21601.0 0.0000463 21251.64648 21492.50391
21431.0 0.0000467 21248.29688 21461.05664
21195.0 0.0000472 21244.93359 21440.99219
21083.0 0.0000474 21241.55273 21429.55469
21367.0 0.0000468 21238.15820 21424.21680
21327.0 0.0000469 21234.74609 21423.13477
21335.0 0.0000469 21231.32031 21425.25000
21174.0 0.0000472 21227.87695 21430.08203
21427.0 0.0000467 21224.41797 21443.64844
21351.0 0.0000468 21220.94336 21454.80664
21565.0 0.0000464 21217.45117 21469.70898
21366.0 0.0000468 21213.94336 21490.06836
21618.0 0.0000463 21210.41992 21520.35156
21606.0 0.0000463 21206.87891 21572.23828
21646.0 0.0000462 21203.32031 21672.75781
21815.0 0.0000458 21199.74414 21874.59375
21944.0 0.0000456 21196.15234 22261.12891
22569.0 0.0000443 21192.54297 22935.78516
23451.0 0.0000426 21188.91602 23991.87305
24206.0 0.0000413 21185.27344 25475.56055
25510.0 0.0000392 21181.61133 27366.68359
27580.0 0.0000363 21177.93164 29597.74805
30443.0 0.0000328 21174.23438 32125.58008
33406.0 0.0000299 21170.52148 35070.75781
37914.0 0.0000264 21166.78711 38804.44141
43127.0 0.0000232 21163.03711 43655.30859
48915.0 0.0000204 21159.26953 49271.46875
54739.0 0.0000183 21155.48242 54274.09375
57513.0 0.0000174 21151.67773 56865.89844
57762.0 0.0000173 21147.85547 56271.17578
55544.0 0.0000180 21144.01367 53672.44141
52979.0 0.0000189 21140.15430 51351.83203
51575.0 0.0000194 21136.27539 50717.17578
51804.0 0.0000193 21132.37891 51182.48047
51319.0 0.0000195 21128.46484 50766.26172
48375.0 0.0000207 21124.53125 47748.69141
42780.0 0.0000234 21120.57813 42202.58594
36189.0 0.0000276 21116.60742 35815.95703
30667.0 0.0000326 21112.61914 30276.11523
26832.0 0.0000373 21108.61133 26382.96484
24409.0 0.0000410 21104.58398 24098.07813
23302.0 0.0000429 21100.53711 22957.08984
22779.0 0.0000439 21096.47461 22471.21875
22383.0 0.0000447 21092.39063 22321.12305
22664.0 0.0000441 21088.28906 22366.08984
22763.0 0.0000439 21084.16797 22582.39063
22996.0 0.0000435 21080.02930 23005.53516
23794.0 0.0000420 21075.87109 23693.44141
24833.0 0.0000403 21071.69336 24707.58008
26370.0 0.0000379 21067.49805 26114.11914
28458.0 0.0000351 21063.28320 28004.11523
31176.0 0.0000321 21059.05078 30517.43750
34627.0 0.0000289 21054.79883 33829.92188
38733.0 0.0000258 21050.52930 38049.33984
43509.0 0.0000230 21046.24023 42995.03906
48303.0 0.0000207 21041.93359 47949.32031
51575.0 0.0000194 21037.60742 51600.59766
52354.0 0.0000191 21033.26172 52397.73828
49455.0 0.0000202 21028.89844 49439.57813
44071.0 0.0000227 21024.51758 43518.24609
36900.0 0.0000271 21020.11719 36719.68750
30470.0 0.0000328 21015.69922 30838.00781
26182.0 0.0000382 21011.26367 26668.53320
23592.0 0.0000424 21006.80859 24158.96289
22359.0 0.0000447 21002.33594 22834.94141
21666.0 0.0000462 20997.84570 22189.21484
21240.0 0.0000471 20993.33594 21870.16797
21330.0 0.0000469 20988.81055 21692.07227
21096.0 0.0000474 20984.26758 21574.50586
21205.0 0.0000472 20979.70508 21486.65625
21207.0 0.0000472 20975.12500 21416.67969
21081.0 0.0000474 20970.52734 21359.15820
21103.0 0.0000474 20965.91211 21310.96484
21145.0 0.0000473 20961.28125 21269.97656
21051.0 0.0000475 20956.63086 21234.66016
20966.0 0.0000477 20951.96484 21203.87695
20854.0 0.0000480 20947.28125 21176.74219
20812.0 0.0000480 20942.58203 21152.60547
20971.0 0.0000477 20937.86523 21130.92773
20817.0 0.0000480 20933.13086 21111.30469
20926.0 0.0000478 20928.38086 21093.40039
20894.0 0.0000479 20923.61328 21076.94922
20782.0 0.0000481 20918.83008 21061.74414
20964.0 0.0000477 20914.03125 21047.59570
21008.0 0.0000476 20909.21484 21034.36133
20877.0 0.0000479 20904.38477 21021.92188
20890.0 0.0000479 20899.53711 21010.16797
20967.0 0.0000477 20894.67383 20999.01758
20914.0 0.0000478 20889.79688 20988.40234
20863.0 0.0000479 20884.90234 20978.25000
20924.0 0.0000478 20879.99414 20968.51172
20948.0 0.0000477 20875.07031 20959.13672
20881.0 0.0000479 20870.13281 20929.34766
20819.0 0.0000480 20865.17969 20921.24219
21009.0 0.0000476 20860.21094 20913.36719
20557.0 0.0000486 20855.23047 20905.70117
20535.0 0.0000487 20850.23242 20898.21680
20740.0 0.0000482 20845.22266 20890.90039
20837.0 0.0000480 20840.19922 20883.73438
20815.0 0.0000480 20835.16016 20876.69727
20681.0 0.0000484 20830.10938 20869.78711
20675.0 0.0000484 20825.04492 20862.98047
20820.0 0.0000480 20819.96875 20856.27930
20916.0 0.0000478 20814.87695 20849.66211
20758.0 0.0000482 20809.77344 20843.13086
20843.0 0.0000480 20804.65820 20836.66992
20850.0 0.0000480 20799.52930 20830.27734
20854.0 0.0000480 20794.38867 20823.94727
20744.0 0.0000482 20789.23633 20817.67188
20947.0 0.0000477 20784.07227 20811.44922
20889.0 0.0000479 20778.89648 20805.27148
20621.0 0.0000485 20773.70898 20799.13672
20890.0 0.0000479 20768.51172 20793.04297
20936.0 0.0000478 20763.30273 20786.98242
20682.0 0.0000484 20758.08203 20758.08203
20741.0 0.0000482 20752.85156 20752.85156
20647.0 0.0000484 20747.61133 20747.61133
20503.0 0.0000488 20742.35938 20742.35938
20578.0 0.0000486 20737.09961 20737.09961
20505.0 0.0000488 20731.83008 20731.83008
20947.0 0.0000477 20726.54883 20726.54883
20754.0 0.0000482 20721.25977 20721.25977
20811.0 0.0000481 20715.96289 20715.96289
20579.0 0.0000486 20710.65625 20710.65625
20740.0 0.0000482 20705.34180 20705.34180
20631.0 0.0000485 20700.01758 20700.01758
20633.0 0.0000485 20694.68555 20694.68555
20800.0 0.0000481 20689.34570 20689.34570
20426.0 0.0000490 20684.00000 20684.00000
20865.0 0.0000479 20678.64648 20678.64648
20584.0 0.0000486 20673.28320 20673.28320
20712.0 0.0000483 20667.91602 20667.91602
20756.0 0.0000482 20662.54102 20662.54102
20671.0 0.0000484 20657.16016 20657.16016
20724.0 0.0000483 20651.77344 20651.77344
20681.0 0.0000484 20646.37891 20646.37891
20411.0 0.0000490 20640.98047 20640.98047
20664.0 0.0000484 20635.57617 20635.57617
20559.0 0.0000486 20630.16797 20630.16797
20667.0 0.0000484 20624.75195 20625.46484
20767.0 0.0000482 20619.33398 20620.06836
20564.0 0.0000486 20613.91016 20614.66602
20399.0 0.0000490 20608.48438 20609.26367
20300.0 0.0000493 20603.05078 20603.85547
20375.0 0.0000491 20597.61719 20598.44727
20382.0 0.0000491 20592.17773 20593.03516
20475.0 0.0000488 20586.73633 20587.62109
20726.0 0.0000482 20581.29297 20582.20703
20439.0 0.0000489 20575.84570 20576.79102
20575.0 0.0000486 20570.39453 20571.37305
20592.0 0.0000486 20564.94336 20565.95508
20512.0 0.0000488 20559.49023 20560.53906
20525.0 0.0000487 20554.03516 20555.12305
20613.0 0.0000485 20548.57813 20549.70508
20703.0 0.0000483 20543.12109 20544.29102
20613.0 0.0000485 20537.66211 20538.87695
20614.0 0.0000485 20532.20313 20533.46680
20748.0 0.0000482 20526.74414 20528.05859
20523.0 0.0000487 20521.28320 20522.65039
20322.0 0.0000492 20515.82617 20517.25000
20326.0 0.0000492 20510.36523 20511.85156
20448.0 0.0000489 20504.90820 20506.45898
20699.0 0.0000483 20499.44922 20501.06836
20498.0 0.0000488 20493.99414 20495.68750
20606.0 0.0000485 20488.54102 20490.31250
20507.0 0.0000488 20483.08789 20484.94531
20247.0 0.0000494 20477.63672 20479.58398
20617.0 0.0000485 20472.18750 20474.23242
20806.0 0.0000481 20466.74219 20468.89258
20475.0 0.0000488 20461.29883 20463.56445
20423.0 0.0000490 20455.85742 20458.24609
20557.0 0.0000486 20450.42188 20452.94336
20582.0 0.0000486 20444.98828 20447.65430
20349.0 0.0000491 20439.55859 20442.38281
20692.0 0.0000483 20434.13281 20437.12891
20534.0 0.0000487 20428.71094 20431.89453
20555.0 0.0000486 20423.29492 20426.68555
20230.0 0.0000494 20417.88281 20421.50195
20831.0 0.0000480 20412.47461 20416.34570
20623.0 0.0000485 20407.07227 20411.22070
20600.0 0.0000485 20401.67773 20406.13672
20545.0 0.0000487 20396.28711 20401.09180
20535.0 0.0000487 20390.90234 20396.09570
20418.0 0.0000490 20385.52344 20391.15430
20629.0 0.0000485 20380.15234 20386.27930
20621.0 0.0000485 20374.78711 20381.47852
20645.0 0.0000484 20369.42969 20376.76758
20501.0 0.0000488 20364.07813 20372.16211
20612.0 0.0000485 20358.73633 20367.68750
20662.0 0.0000484 20353.40039 20363.36719
20729.0 0.0000482 20348.07227 20359.24219
20608.0 0.0000485 20342.75391 20355.36914
20564.0 0.0000486 20337.44336 20351.83594
20695.0 0.0000483 20332.14258 20348.81250
20348.0 0.0000491 20326.84766 20346.61523
20477.0 0.0000488 20321.56445 20345.85547
20331.0 0.0000492 20316.28906 20347.59961
20445.0 0.0000489 20311.02539 20353.55273
20107.0 0.0000497 20305.77148 20366.13086
20379.0 0.0000491 20300.52539 20388.43750
20542.0 0.0000487 20295.29102 20424.07813
20489.0 0.0000488 20290.06641 20477.16602
20817.0 0.0000480 20284.85352 20552.47070
20408.0 0.0000490 20279.65039 20654.75391
20713.0 0.0000483 20274.46094 20786.36914
20659.0 0.0000484 20269.28125 20941.67578
20726.0 0.0000482 20264.11328 21100.82227
20932.0 0.0000478 20258.95508 21227.26758
20835.0 0.0000480 20253.81250 21274.63086
20784.0 0.0000481 20248.67969 21208.15234
20725.0 0.0000483 20243.56055 21038.53516
20677.0 0.0000484 20238.45313 20823.81445
20405.0 0.0000490 20233.35938 20623.24219
20273.0 0.0000493 20228.27930 20468.50391
20435.0 0.0000489 20223.21289 20365.13867
20566.0 0.0000486 20218.15820 20303.11133
20197.0 0.0000495 20213.11914 20267.79688
20141.0 0.0000496 20208.09180 20247.04688
20191.0 0.0000495 20203.08008 20233.34180
20122.0 0.0000497 20198.08203 20222.89258
20180.0 0.0000496 20193.09961 20214.04297
20257.0 0.0000494 20188.12891 20206.10938
20374.0 0.0000491 20183.17578 20198.79297
20154.0 0.0000496 20178.23828 20191.92969
20167.0 0.0000496 20173.31445 20185.41406
20239.0 0.0000494 20168.40625 20179.17383
20025.0 0.0000499 20163.51367 20173.15820
20142.0 0.0000496 20158.63672 20167.32422
20215.0 0.0000495 20153.77539 20161.64258
20377.0 0.0000491 20148.92969 20156.08594
20026.0 0.0000499 20144.10352 20150.64063
20123.0 0.0000497 20139.29102 20145.73828
20341.0 0.0000492 20134.49609 20140.47656
20199.0 0.0000495 20129.71680 20135.28711
20362.0 0.0000491 20124.95508 20130.16016
20121.0 0.0000497 20120.21094 20125.09375
20177.0 0.0000496 20115.48242 20120.07617
20160.0 0.0000496 20110.77344 20115.10938
20147.0 0.0000496 20106.08008 20110.18555
20316.0 0.0000492 20101.40625 20105.30469
20178.0 0.0000496 20096.75000 20100.46289
19946.0 0.0000501 20092.10938 20095.65234
20288.0 0.0000493 20087.49023 20090.88086
20161.0 0.0000496 20082.88672 20086.14063
20205.0 0.0000495 20078.30273 20081.43164
20022.0 0.0000499 20073.73828 20076.75586
20110.0 0.0000497 20069.19141 20072.63867
20075.0 0.0000498 20064.66211 20068.03906
20051.0 0.0000499 20060.15430 20063.46875
20003.0 0.0000500 20055.66406 20058.92578
20052.0 0.0000499 20051.19336 20054.41211
19993.0 0.0000500 20046.74219 20049.92773
20033.0 0.0000499 20042.30859 20045.46680
20086.0 0.0000498 20037.89648 20041.03711
19926.0 0.0000502 20033.50391 20036.63477
19904.0 0.0000502 20029.13086 20032.25781
19954.0 0.0000501 20024.77734 20027.91016
20109.0 0.0000497 20020.44336 20027.82617
20018.0 0.0000500 20016.13086 20023.65820
20051.0 0.0000499 20011.83789 20019.52344
20007.0 0.0000500 20007.56445 20015.42383
19883.0 0.0000503 20003.31250 20011.35742
19996.0 0.0000500 19999.08008 20007.32813
20300.0 0.0000493 19994.86914 20003.33398
20061.0 0.0000498 19990.67773 19999.37500
20084.0 0.0000498 19986.50781 19995.46094
20014.0 0.0000500 19982.35742 19991.58203
20077.0 0.0000498 19978.23047 19987.75000
20209.0 0.0000495 19974.12305 19983.95898
19992.0 0.0000500 19970.03516 19980.20898
20084.0 0.0000498 19965.96875 19976.50586
19858.0 0.0000504 19961.92578 19972.85938
19849.0 0.0000504 19957.90234 19969.25781
19795.0 0.0000505 19953.90039 19965.71680
19798.0 0.0000505 19949.91992 19962.23438
19805.0 0.0000505 19945.95898 19958.81055
19996.0 0.0000500 19942.02148 19955.45898
20077.0 0.0000498 19938.10547 19951.49219
20120.0 0.0000497 19934.21094 19948.31250
19930.0 0.0000502 19930.33789 19945.21875
19951.0 0.0000501 19926.48633 19942.22461
19874.0 0.0000503 19922.65625 19939.33594
20031.0 0.0000499 19918.84766 19936.56836
19839.0 0.0000504 19915.06250 19934.00586
19881.0 0.0000503 19911.29688 19931.53906
20053.0 0.0000499 19907.55469 19929.26172
19845.0 0.0000504 19903.83398 19927.20703
19948.0 0.0000501 19900.13477 19925.43945
20118.0 0.0000497 19896.45703 19924.05078
19925.0 0.0000502 19892.80273 19923.25000
19826.0 0.0000504 19889.16797 19923.41016
20057.0 0.0000499 19885.55664 19925.22656
19861.0 0.0000503 19881.96680 19929.85352
20044.0 0.0000499 19878.40039 19939.00195
20088.0 0.0000498 19874.85352 19954.96094
20131.0 0.0000497 19871.33008 19980.54883
19849.0 0.0000504 19867.82813 20019.03711
20262.0 0.0000494 19864.34961 20074.00977
20194.0 0.0000495 19860.89063 20148.33398
20455.0 0.0000489 19857.45508 20241.53516
20274.0 0.0000493 19854.04297 20345.56055
20300.0 0.0000493 19850.65039 20441.71094
20451.0 0.0000489 19847.28125 20502.53906
20335.0 0.0000492 19843.93164 20502.08594
20360.0 0.0000491 19840.60547 20436.14648
20282.0 0.0000493 19837.30273 20334.75781
20226.0 0.0000494 19834.02148 20240.54492
20237.0 0.0000494 19830.75977 20182.79102
20201.0 0.0000495 19827.52148 20209.81250
20368.0 0.0000491 19824.30469 20246.11914
20210.0 0.0000495 19821.10938 20317.23047
20297.0 0.0000493 19817.93750 20408.17383
20285.0 0.0000493 19814.78516 20500.75977
20204.0 0.0000495 19811.65625 20572.96484
20371.0 0.0000491 19808.54688 20604.04102
20527.0 0.0000487 19805.46094 20589.46289
20485.0 0.0000488 19802.39648 20546.33203
20292.0 0.0000493 19799.35156 20520.99805
20501.0 0.0000488 19796.33008 20556.69727
20737.0 0.0000482 19793.32813 20687.46680
20936.0 0.0000478 19790.34961 20939.72266
20846.0 0.0000480 19787.39063 21334.73828
21535.0 0.0000464 19784.45313 21884.91797
22232.0 0.0000450 19781.53906 22577.89258
22847.0 0.0000438 19778.64258 23357.85352
24031.0 0.0000416 19775.76953 24103.35938
24353.0 0.0000411 19772.91797 24630.47070
24745.0 0.0000404 19770.08594 24734.59961
24733.0 0.0000404 19767.27344 24306.80664
24006.0 0.0000417 19764.48438 23469.40039
23186.0 0.0000431 19761.71484 22514.53906
21902.0 0.0000457 19758.96484 21655.57227
21188.0 0.0000472 19756.23633 21009.21875
20732.0 0.0000482 19753.52930 20583.92188
20422.0 0.0000490 19750.84180 20334.23047
20161.0 0.0000496 19748.17383 20200.72656
20461.0 0.0000489 19745.52734 20134.38477
20314.0 0.0000492 19742.89844 20103.42969
20590.0 0.0000486 19740.29297 20089.60938
20323.0 0.0000492 19737.70508 20082.05078
20544.0 0.0000487 19735.13867 20073.45508
20559.0 0.0000486 19732.58984 20059.59375
20132.0 0.0000497 19730.06250 20040.94727
20403.0 0.0000490 19727.55469 20021.96094
20098.0 0.0000498 19725.06445 20006.95508
20382.0 0.0000491 19722.59570 19998.05859
20107.0 0.0000497 19720.14453 19995.36523
19982.0 0.0000500 19717.71289 19997.86328
20010.0 0.0000500 19715.30078 20004.37109
20019.0 0.0000500 19712.90820 20014.06055
20065.0 0.0000498 19710.53320 20026.55469
20117.0 0.0000497 19708.17773 20041.83203
20006.0 0.0000500 19705.83984 20060.09570
19900.0 0.0000503 19703.52148 20081.68164
20107.0 0.0000497 19701.22070 20107.07031
19783.0 0.0000505 19698.93945 20136.87500
20164.0 0.0000496 19696.67383 20171.86719
20317.0 0.0000492 19694.42773 20213.05664
20398.0 0.0000490 19692.19922 20261.74805
20609.0 0.0000485 19689.99023 20319.68164
20692.0 0.0000483 19687.79688 20389.33203
20294.0 0.0000493 19685.62109 20474.57422
20781.0 0.0000481 19683.46289 20582.21680
20846.0 0.0000480 19681.32227 20725.15234
20908.0 0.0000478 19679.19922 20927.88281
21421.0 0.0000467 19677.09180 21234.16211
22295.0 0.0000449 19675.00195 21714.27734
23226.0 0.0000431 19672.92969 22467.25391
24865.0 0.0000402 19670.87109 23614.36914
27027.0 0.0000370 19668.83203 25285.21680
29175.0 0.0000343 19666.80859 27600.49414
32829.0 0.0000305 19664.80078 30651.26367
36955.0 0.0000271 19662.80859 34496.21875
41081.0 0.0000243 19660.83203 39196.19531
45312.0 0.0000221 19658.87305 44716.04688
49540.0 0.0000202 19656.92773 50691.98047
53679.0 0.0000186 19655.00000 56250.28125
58004.0 0.0000172 19653.08594 59942.17969
59430.0 0.0000168 19651.18750 60176.33203
57224.0 0.0000175 19649.30469 56200.96484
50215.0 0.0000199 19647.43555 49142.70313
40929.0 0.0000244 19645.58203 41267.78125
32683.0 0.0000306 19643.74219 34342.96094
27154.0 0.0000368 19641.91797 29142.33984
23737.0 0.0000421 19640.10742 25692.64648
22524.0 0.0000444 19638.31055 23621.78320
21429.0 0.0000467 19636.52734 22459.97070
21124.0 0.0000473 19634.75977 21823.54883
20902.0 0.0000478 19633.00391 21470.64844
21071.0 0.0000475 19631.26367 21278.70703
21176.0 0.0000472 19629.53516 21201.28906
21471.0 0.0000466 19627.82031 21234.57813
21788.0 0.0000459 19626.11914 21398.57813
22138.0 0.0000452 19624.42969 21726.45508
22883.0 0.0000437 19622.75391 22255.38477
23715.0 0.0000422 19621.08984 23016.65234
24608.0 0.0000406 19619.43945 24007.66797
25516.0 0.0000392 19617.80078 25145.96289
26061.0 0.0000384 19616.17383 26270.12500
26684.0 0.0000375 19614.55859 27101.07813
26834.0 0.0000373 19612.95703 27327.14453
26395.0 0.0000379 19611.36523 26766.32813
25165.0 0.0000397 19609.78516 25579.05859
24095.0 0.0000415 19608.21680 24192.92188
23052.0 0.0000434 19606.66016 22985.11328
22157.0 0.0000451 19605.11523 22150.58789
22067.0 0.0000453 19603.57813 21736.16406
22004.0 0.0000454 19602.05469 21704.51367
22078.0 0.0000453 19600.54102 21989.16016
22346.0 0.0000448 19599.03711 22527.40625
22846.0 0.0000438 19597.54297 23251.70117
23104.0 0.0000433 19596.06055 24048.49805
23845.0 0.0000419 19594.58594 24755.83594
24235.0 0.0000413 19593.12305 25172.49219
24391.0 0.0000410 19591.66797 25096.83984
24039.0 0.0000416 19590.22461 24479.81445
23121.0 0.0000433 19588.78906 23514.79102
21857.0 0.0000458 19587.36133 22492.49609
21132.0 0.0000473 19585.94531 21613.95703
20685.0 0.0000483 19584.53516 20957.79688
20095.0 0.0000498 19583.13477 20518.04883
19658.0 0.0000509 19581.74414 20246.11914
19943.0 0.0000501 19580.36133 20084.68945
19687.0 0.0000508 19578.98438 19987.47070
19636.0 0.0000509 19577.61719 19924.69922
19853.0 0.0000504 19576.25781 19880.10352
19748.0 0.0000506 19574.90625 19845.70117
19488.0 0.0000513 19573.56250 19817.70898
19449.0 0.0000514 19572.22461 19794.22266
19699.0 0.0000508 19570.89453 19774.13477
19625.0 0.0000510 19569.57227 19756.73047
19693.0 0.0000508 19568.25781 19741.47461
19395.0 0.0000516 19566.94727 19727.97461
19491.0 0.0000513 19565.64453 19715.92773
19776.0 0.0000506 19564.34766 19705.09180
19684.0 0.0000508 19563.05859 19695.28516
19628.0 0.0000509 19561.77539 19686.34961
19737.0 0.0000507 19560.49609 19678.16016
19600.0 0.0000510 19559.22461 19670.61523
19600.0 0.0000510 19557.95703 19663.63281
19642.0 0.0000509 19556.69531 19657.14453
19642.0 0.0000509 19555.43945 19651.08984
19639.0 0.0000509 19554.18945 19645.41797
19654.0 0.0000509 19552.94336 19645.28516
19706.0 0.0000507 19551.70117 19640.35352
19493.0 0.0000513 19550.46484 19635.69336
19427.0 0.0000515 19549.23438 19631.28516
19438.0 0.0000514 19548.00586 19589.06250
19376.0 0.0000516 19546.78320 19586.14844
19330.0 0.0000517 19545.56445 19583.37305
19414.0 0.0000515 19544.34961 19580.73047
19412.0 0.0000515 19543.13672 19578.20117
19200.0 0.0000521 19541.92969 19575.77930
19533.0 0.0000512 19540.72656 19573.45898
19519.0 0.0000512 19539.52539 19571.22656
19631.0 0.0000509 19538.32813 19569.07227
19784.0 0.0000505 19537.13281 19566.99805
19617.0 0.0000510 19535.94141 19564.99023
19748.0 0.0000506 19534.75195 19563.04688
19556.0 0.0000511 19533.56641 19561.16602
19702.0 0.0000508 19532.38281 19559.33984
19480.0 0.0000513 19531.20117 19557.56641
20021.0 0.0000499 19530.02148 19555.83984
19545.0 0.0000512 19528.84570 19554.16211
19654.0 0.0000509 19527.66992 19552.52539
19685.0 0.0000508 19526.49609 19550.92969
19828.0 0.0000504 19525.32422 19549.36719
19457.0 0.0000514 19524.15430 19547.84766
19434.0 0.0000515 19522.98633 19546.36133
19687.0 0.0000508 19521.81836 19544.90625
19498.0 0.0000513 19520.65234 19543.48438
19601.0 0.0000510 19519.48828 19542.09180
19702.0 0.0000508 19518.32422 19540.72656
19739.0 0.0000507 19517.16016 19539.39063
19568.0 0.0000511 19515.99609 19538.08203
19639.0 0.0000509 19514.83594 19536.79883
19664.0 0.0000509 19513.67188 19535.54102
19560.0 0.0000511 19512.51172 19534.30859
19634.0 0.0000509 19511.34961 19533.09961
19576.0 0.0000511 19510.18750 19531.91406
19444.0 0.0000514 19509.02734 19530.75391
19526.0 0.0000512 19507.86523 19529.61523
19335.0 0.0000517 19506.70313 19528.50195
19782.0 0.0000506 19505.53906 19527.40625
19570.0 0.0000511 19504.37695 19526.33984
19496.0 0.0000513 19503.21289 19525.58203
19510.0 0.0000513 19502.04883 19524.57031
19762.0 0.0000506 19500.88281 19523.58398
19446.0 0.0000514 19499.71484 19522.61914
19519.0 0.0000512 19498.54883 19521.68359
19458.0 0.0000514 19497.37891 19520.77148
19471.0 0.0000514 19496.20898 19519.88672
19600.0 0.0000510 19495.03711 19519.02930
19522.0 0.0000512 19493.86328 19518.20117
19469.0 0.0000514 19492.68750 19517.40430
19853.0 0.0000504 19491.51172 19516.63477
19472.0 0.0000514 19490.33203 19515.90039
19637.0 0.0000509 19489.15234 19508.43945
19340.0 0.0000517 19487.96875 19507.92188
19622.0 0.0000510 19486.78320 19507.43750
19520.0 0.0000512 19485.59766 19506.99023
19493.0 0.0000513 19484.40820 19506.57813
19654.0 0.0000509 19483.21484 19506.20898
19580.0 0.0000511 19482.02148 19505.88477
19596.0 0.0000510 19480.82422 19505.60742
19535.0 0.0000512 19479.62305 19505.38086
19331.0 0.0000517 19478.41992 19505.21094
19641.0 0.0000509 19477.21484 19505.09961
19433.0 0.0000515 19476.00586 19505.05664
19533.0 0.0000512 19474.79492 19505.08594
19653.0 0.0000509 19473.58008 19505.19336
19394.0 0.0000516 19472.36133 19505.38477
19473.0 0.0000514 19471.13867 19505.66992
19606.0 0.0000510 19469.91406 19506.05859
19688.0 0.0000508 19468.68555 19506.55859
19353.0 0.0000517 19467.45313 19507.18555
19689.0 0.0000508 19466.21875 19507.94922
19466.0 0.0000514 19464.97852 19508.86328
19475.0 0.0000513 19463.73633 19509.94727
19445.0 0.0000514 19462.48828 19512.54688
19648.0 0.0000509 19461.23828 19514.06836
19759.0 0.0000506 19459.98242 19515.82617
19659.0 0.0000509 19458.72266 19517.84961
19302.0 0.0000518 19457.45898 19520.17383
19720.0 0.0000507 19456.19336 19522.83984
19507.0 0.0000513 19454.91992 19525.89063
19568.0 0.0000511 19453.64453 19529.38867
19428.0 0.0000515 19452.36523 19533.39648
19795.0 0.0000505 19451.08008 19537.99609
19583.0 0.0000511 19449.78906 19543.29883
19621.0 0.0000510 19448.49609 19549.45898
20020.0 0.0000500 19447.19727 19556.73633
19887.0 0.0000503 19445.89258 19565.60938
19931.0 0.0000502 19444.58594 19576.99609
19982.0 0.0000500 19443.27344 19592.54492
19968.0 0.0000501 19441.95508 19614.90430
20094.0 0.0000498 19440.63086 19663.08594
20360.0 0.0000491 19439.30469 19710.09961
20441.0 0.0000489 19437.97070 19772.76758
20562.0 0.0000486 19436.63281 19848.97852
20688.0 0.0000483 19435.29102 19931.24805
21087.0 0.0000474 19433.94336 20006.87305
20924.0 0.0000478 19432.58984 20061.81836
20922.0 0.0000478 19431.23047 20090.82227
20928.0 0.0000478 19429.86719 20105.34180
20739.0 0.0000482 19428.50000 20127.72266
20366.0 0.0000491 19427.12500 20181.85547
20424.0 0.0000490 19425.74414 20289.79883
20219.0 0.0000495 19424.35938 20471.74219
20647.0 0.0000484 19422.97070 20746.47656
20693.0 0.0000483 19421.57422 21130.52930
20765.0 0.0000482 19420.17188 21633.20508
21447.0 0.0000466 19418.76563 22245.78711
22026.0 0.0000454 19417.35352 22930.37891
22727.0 0.0000440 19415.93555 23625.63867
23618.0 0.0000423 19414.51172 24266.67188
24328.0 0.0000411 19413.08203 24768.89844
25315.0 0.0000395 19411.64648 24991.16211
25370.0 0.0000394 19410.20703 24801.14063
25386.0 0.0000394 19408.75977 24221.04688
24519.0 0.0000408 19407.30859 23428.07617
22905.0 0.0000437 19405.84961 22609.43164
21701.0 0.0000461 19404.38672 21879.95508
20821.0 0.0000480 19402.91602 21281.96484
19704.0 0.0000508 19401.44141 20822.78516
19866.0 0.0000503 19399.96094 20486.98047
19490.0 0.0000513 19398.47461 20249.93555
19717.0 0.0000507 19396.98047 20085.77930
19302.0 0.0000518 19395.48242 19972.14063
19537.0 0.0000512 19393.97852 19892.09180
19506.0 0.0000513 19392.46875 19834.08594
19499.0 0.0000513 19390.95313 19790.80859
19555.0 0.0000511 19389.42969 19757.87305
19517.0 0.0000512 19387.90234 19732.71289
19605.0 0.0000510 19386.36914 19713.84766
19419.0 0.0000515 19384.83008 19700.52930
19615.0 0.0000510 19383.28320 19692.63086
19526.0 0.0000512 19381.73242 19690.82422
19565.0 0.0000511 19380.17578 19696.97656
19731.0 0.0000507 19378.61133 19714.80664
19695.0 0.0000508 19377.04297 19750.65234
19542.0 0.0000512 19375.46680 19814.06445
19511.0 0.0000513 19373.88672 19917.85352
20071.0 0.0000498 19372.30078 20074.97852
20221.0 0.0000495 19370.70703 20294.86328
20093.0 0.0000498 19369.10938 20574.57227
20535.0 0.0000487 19367.50586 20888.14063
20895.0 0.0000479 19365.89453 21182.06250
20974.0 0.0000477 19364.27930 21380.05273
20907.0 0.0000478 19362.65625 21407.69727
21010.0 0.0000476 19361.02930 21246.06445
20587.0 0.0000486 19359.39648 20968.36914
20293.0 0.0000493 19357.75781 20685.80859
20223.0 0.0000494 19356.11133 20479.86719
20456.0 0.0000489 19354.46094 20393.87891
19872.0 0.0000503 19352.80469 20452.39844
20426.0 0.0000490 19351.14258 20685.80664
20620.0 0.0000485 19349.47461 21151.95898
21695.0 0.0000461 19347.80078 21947.67969
22884.0 0.0000437 19346.12109 23201.07617
24662.0 0.0000405 19344.43750 25032.97070
26986.0 0.0000371 19342.74609 27493.43750
30333.0 0.0000330 19341.05078 30482.26563
33336.0 0.0000300 19339.34766 33628.40234
36576.0 0.0000273 19337.64063 36262.92578
38321.0 0.0000261 19335.92773 37572.75000
36891.0 0.0000271 19334.21094 36889.26953
33814.0 0.0000296 19332.48633 34306.00781
29743.0 0.0000336 19330.75781 30771.79102
25955.0 0.0000385 19329.02344 27327.68555
23633.0 0.0000423 19327.28320 24576.21680
22449.0 0.0000445 19325.53711 22691.21289
22081.0 0.0000453 19323.78711 21579.37109
21989.0 0.0000455 19322.03125 21041.93164
22056.0 0.0000453 19320.26953 20886.60352
22307.0 0.0000448 19318.50391 20967.75195
23122.0 0.0000432 19316.73242 21174.69727
23427.0 0.0000427 19314.95508 21405.14648
23746.0 0.0000421 19313.17188 21551.63086
23554.0 0.0000425 19311.38477 21532.41797
23130.0 0.0000432 19309.59375 21313.41797
22342.0 0.0000448 19307.79688 20968.59375
21575.0 0.0000463 19305.99414 20589.14063
20789.0 0.0000481 19304.18750 20245.42969
20466.0 0.0000489 19302.37500 19974.64453
20168.0 0.0000496 19300.55859 19783.87891
19951.0 0.0000501 19298.73633 19660.59766
19436.0 0.0000515 19296.91016 19584.91211
19315.0 0.0000518 19295.07813 19538.51563
19542.0 0.0000512 19293.24219 19508.44141
19536.0 0.0000512 19291.40039 19487.05078
19417.0 0.0000515 19289.55469 19470.39063
19539.0 0.0000512 19287.70508 19456.59180
19698.0 0.0000508 19285.85156 19444.77734
19847.0 0.0000504 19283.99219 19434.50000
19659.0 0.0000509 19282.12891 19425.50000
19826.0 0.0000504 19280.25977 19417.60742
19937.0 0.0000502 19278.38867 19410.71680
19646.0 0.0000509 19276.51172 19404.73828
19732.0 0.0000507 19274.63086 19399.67773
19809.0 0.0000505 19272.74414 19395.59961
19521.0 0.0000512 19270.85547 19392.72852
19513.0 0.0000512 19268.96094 19391.50586
19348.0 0.0000517 19267.06445 19392.73438
19501.0 0.0000513 19265.16211 19397.66406
19678.0 0.0000508 19263.25586 19408.02734
19390.0 0.0000516 19261.34570 19425.78906
19464.0 0.0000514 19259.43164 19452.43945
19612.0 0.0000510 19257.51563 19487.99023
19529.0 0.0000512 19255.59375 19529.72656
19720.0 0.0000507 19253.66797 19570.86914
19715.0 0.0000507 19251.73828 19601.03711
19813.0 0.0000505 19249.80664 19609.25586
19852.0 0.0000504 19247.86914 19589.92188
19518.0 0.0000512 19245.92969 19550.09961
19808.0 0.0000505 19243.98633 19504.75586
19707.0 0.0000507 19242.03906 19465.92773
19400.0 0.0000515 19240.08984 19439.24414
19482.0 0.0000513 19238.13477 19425.47266
19325.0 0.0000517 19236.17773 19422.89453
19514.0 0.0000512 19234.21680 19429.56445
19001.0 0.0000526 19232.25391 19445.03906
19587.0 0.0000511 19230.28711 19471.74609
19375.0 0.0000516 19228.31641 19516.05664
19447.0 0.0000514 19226.34375 19590.30859
19842.0 0.0000504 19224.36719 19714.31055
19870.0 0.0000503 19222.38672 19916.09375
20195.0 0.0000495 19220.40625 20228.71094
20778.0 0.0000481 19218.41992 20679.26953
21173.0 0.0000472 19216.43164 21271.77344
22009.0 0.0000454 19214.44141 21965.98438
22553.0 0.0000443 19212.44727 22646.93945
23005.0 0.0000435 19210.45117 23159.34180
23287.0 0.0000429 19208.45313 23313.65820
22762.0 0.0000439 19206.45117 22997.47070
22103.0 0.0000452 19204.44727 22350.39648
21294.0 0.0000470 19202.44141 21607.04492
20807.0 0.0000481 19200.43164 20969.67578
20293.0 0.0000493 19198.41992 20545.57031
20635.0 0.0000485 19196.40625 20372.30273
20680.0 0.0000484 19194.39063 20463.74023
21409.0 0.0000467 19192.37305 20849.90039
22162.0 0.0000451 19190.35352 21594.25000
23509.0 0.0000425 19188.33008 22774.98242
24739.0 0.0000404 19186.30469 24430.17188
26492.0 0.0000377 19184.27930 26477.44727
28073.0 0.0000356 19182.25000 28633.23242
29447.0 0.0000340 19180.21875 30404.11328
30358.0 0.0000329 19178.18750 31183.73047
30118.0 0.0000332 19176.15234 30535.13867
28272.0 0.0000354 19174.11719 28623.13867
25984.0 0.0000385 19172.07813 26170.27539
23615.0 0.0000423 19170.03906 23877.62891
21716.0 0.0000460 19167.99805 22112.67773
20548.0 0.0000487 19165.95508 20941.50391
20124.0 0.0000497 19163.91016 20252.00195
19550.0 0.0000512 19161.86523 19877.80664
19201.0 0.0000521 19159.81641 19678.80469
19216.0 0.0000520 19157.76758 19566.68164
19186.0 0.0000521 19155.71875 19496.21680
19129.0 0.0000523 19153.66602 19447.62500
19162.0 0.0000522 19151.61328 19413.13477
19452.0 0.0000514 19149.56055 19389.64063
19039.0 0.0000525 19147.50391 19375.30469
19220.0 0.0000520 19145.44727 19367.95508
19315.0 0.0000518 19143.39063 19364.34961
19195.0 0.0000521 19141.33203 19360.09961
19146.0 0.0000522 19139.27344 19350.59766
19244.0 0.0000520 19137.21289 19333.48438
19182.0 0.0000521 19135.15039 19310.46875
19275.0 0.0000519 19133.08789 19285.63867
19100.0 0.0000524 19131.02539 19262.91406
19120.0 0.0000523 19128.96289 19245.01563
18958.0 0.0000527 19126.89648 19233.33594
19095.0 0.0000524 19124.83203 19228.08984
19087.0 0.0000524 19122.76563 19228.46094
19382.0 0.0000516 19120.69922 19232.58398
18743.0 0.0000534 19118.63281 19237.51172
18883.0 0.0000530 19116.56445 19240.64063
18939.0 0.0000528 19114.49609 19236.09375
19064.0 0.0000525 19112.42773 19223.78711
18980.0 0.0000527 19110.35938 19206.23242
18909.0 0.0000529 19108.28906 19188.26563
18852.0 0.0000530 19106.22070 19172.75195
19065.0 0.0000525 19104.15039 19160.82617
18893.0 0.0000529 19102.08008 19152.20117
18840.0 0.0000531 19100.00977 19145.95898
19097.0 0.0000524 19097.93750 19141.16211
19153.0 0.0000522 19095.86719 19137.16406
19176.0 0.0000521 19093.79688 19133.60156
19034.0 0.0000525 19091.72461 19130.29688
18891.0 0.0000529 19089.65430 19127.17969
19026.0 0.0000526 19087.58398 19124.21484
18911.0 0.0000529 19085.51172 19121.37891
19287.0 0.0000518 19083.44141 19118.66602
19274.0 0.0000519 19081.37109 19116.74805
19050.0 0.0000525 19079.29883 19114.26953
19118.0 0.0000523 19077.22852 19111.89258
19123.0 0.0000523 19075.15820 19109.62109
19306.0 0.0000518 19073.08789 19107.45313
19118.0 0.0000523 19071.01758 19105.39063
19050.0 0.0000525 19068.94922 19103.43750
18877.0 0.0000530 19066.87891 19098.53516
18953.0 0.0000528 19064.81055 19096.92773
19160.0 0.0000522 19062.74219 19095.49609
19248.0 0.0000520 19060.67383 19094.30469
19037.0 0.0000525 19058.60547 19093.48438
18841.0 0.0000531 19056.53711 19093.24023
18742.0 0.0000534 19054.47070 19093.90039
18901.0 0.0000529 19052.40430 19095.88477
19080.0 0.0000524 19050.33789 19099.62891
18559.0 0.0000539 19048.27344 19105.36133
18861.0 0.0000530 19046.20898 19112.84570
19099.0 0.0000524 19044.14453 19121.07227
18903.0 0.0000529 19042.08008 19128.18750
19177.0 0.0000521 19040.01758 19131.85352
19228.0 0.0000520 19037.95508 19130.27344
18661.0 0.0000536 19035.89453 19115.48633
18903.0 0.0000529 19033.83398 19107.17578
18818.0 0.0000531 19031.77344 19099.88477
18978.0 0.0000527 19029.71484 19094.85156
18963.0 0.0000527 19027.65625 19092.84570
19046.0 0.0000525 19025.59766 19096.58984
18972.0 0.0000527 19023.54102 19101.73828
19018.0 0.0000526 19021.48438 19108.20898
18998.0 0.0000526 19019.42969 19118.73047
18976.0 0.0000527 19017.37500 19135.83594
19159.0 0.0000522 19015.32227 19164.45117
19149.0 0.0000522 19013.26953 19212.57617
19213.0 0.0000520 19011.21680 19291.41016
19359.0 0.0000517 19009.16602 19413.41211
19282.0 0.0000519 19007.11719 19586.95117
19841.0 0.0000504 19005.06836 19808.08789
19786.0 0.0000505 19003.01953 20051.85742
20338.0 0.0000492 19000.97266 20270.02734
20541.0 0.0000487 18998.92773 20400.75000
20602.0 0.0000485 18996.88281 20397.92578
20573.0 0.0000486 18994.83789 20277.93555
20328.0 0.0000492 18992.79492 20120.65820
20344.0 0.0000492 18990.75391 20015.18945
20084.0 0.0000498 18988.71289 20015.77734
20127.0 0.0000497 18986.67188 20138.88867
20237.0 0.0000494 18984.63477 20368.57813
20135.0 0.0000497 18982.59766 20664.42578
20626.0 0.0000485 18980.56055 20975.79297
21129.0 0.0000473 18978.52539 21249.57813
21098.0 0.0000474 18976.49023 21416.92383
21221.0 0.0000471 18974.45703 21413.20898
20883.0 0.0000479 18972.42383 21244.85156
20773.0 0.0000481 18970.39258 20985.39453
20435.0 0.0000489 18968.36328 20700.75977
20388.0 0.0000490 18966.33398 20416.34961
19821.0 0.0000505 18964.30664 20140.04102
19863.0 0.0000503 18962.27930 19886.74023
19687.0 0.0000508 18960.25391 19672.46680
19305.0 0.0000518 18958.22852 19502.90234
19289.0 0.0000518 18956.20508 19374.65820
19064.0 0.0000525 18954.18359 19280.55273
19051.0 0.0000525 18952.16211 19212.86133
19014.0 0.0000526 18950.14258 19164.58008
19096.0 0.0000524 18948.12305 19129.93164
18778.0 0.0000533 18946.10547 19104.54688
18976.0 0.0000527 18944.08789 19085.34570
18990.0 0.0000527 18942.07227 19070.32422
18893.0 0.0000529 18940.05859 19058.23047
19082.0 0.0000524 18938.04492 19048.29883
18976.0 0.0000527 18936.03125 19040.06250
19139.0 0.0000522 18934.02148 19033.21875
18926.0 0.0000528 18932.00977 19027.56055
18868.0 0.0000530 18930.00195 19022.96875
18983.0 0.0000527 18927.99219 19019.34375
18769.0 0.0000533 18925.98633 19016.64258
19045.0 0.0000525 18923.97852 19014.84766
18963.0 0.0000527 18921.97461 19013.99023
19123.0 0.0000523 18919.97070 19014.11914
19007.0 0.0000526 18917.96680 19015.34766
18839.0 0.0000531 18915.96484 19017.86523
19116.0 0.0000523 18913.96289 19021.99414
18984.0 0.0000527 18911.96289 19028.33398
19311.0 0.0000518 18909.96484 19037.99609
19048.0 0.0000525 18907.96680 19053.05664
19200.0 0.0000521 18905.96875 19077.13867
19235.0 0.0000520 18903.97266 19116.06250
19152.0 0.0000522 18901.97656 19178.34766
19198.0 0.0000521 18899.98242 19275.39648
19477.0 0.0000513 18897.98828 19421.16797
19211.0 0.0000521 18895.99609 19631.41406
19713.0 0.0000507 18894.00391 19920.26367
19989.0 0.0000500 18892.01367 20293.55664
20289.0 0.0000493 18890.02148 20738.75000
20614.0 0.0000485 18888.03320 21217.35938
21048.0 0.0000475 18886.04492 21655.61133
21410.0 0.0000467 18884.05664 21941.17773
22105.0 0.0000452 18882.06836 21958.76563
22260.0 0.0000449 18880.08203 21660.23047
22058.0 0.0000453 18878.09766 21140.00586
21178.0 0.0000472 18876.11133 20568.32031
20628.0 0.0000485 18874.12695 20075.06641
19728.0 0.0000507 18872.14453 19717.73438
19837.0 0.0000504 18870.16016 19501.25977
19817.0 0.0000505 18868.17773 19407.22266
19773.0 0.0000506 18866.19727 19415.61328
19951.0 0.0000501 18864.21484 19512.36914
20149.0 0.0000496 18862.23438 19683.75391
20940.0 0.0000478 18860.25391 19905.32227
21023.0 0.0000476 18858.27539 20131.82422
21160.0 0.0000473 18856.29492 20297.12891
20938.0 0.0000478 18854.31641 20331.96875
20851.0 0.0000480 18852.33789 20203.79102
19998.0 0.0000500 18850.36133 19956.58789
19574.0 0.0000511 18848.38281 19677.43555
19315.0 0.0000518 18846.40625 19433.25391
19257.0 0.0000519 18844.42969 19253.09180
19083.0 0.0000524 18842.45313 19137.26953
19107.0 0.0000523 18840.47656 19071.10938
18774.0 0.0000533 18838.50000 19036.95508
19149.0 0.0000522 18836.52539 19021.03906
19212.0 0.0000521 18834.55078 19015.11328
19364.0 0.0000516 18832.57422 19015.13672
19641.0 0.0000509 18830.59961 19019.54883
19619.0 0.0000510 18828.62500 19028.03320
19706.0 0.0000507 18826.65039 19041.01563
19716.0 0.0000507 18824.67578 19060.51563
20022.0 0.0000499 18822.70117 19086.62695
19895.0 0.0000503 18820.72656 19123.76953
19732.0 0.0000507 18818.75195 19177.70313
19856.0 0.0000504 18816.77734 19257.43164
19760.0 0.0000506 18814.80273 19375.88086
19920.0 0.0000502 18812.82813 19549.87695
20210.0 0.0000495 18810.85352 19798.40039
20217.0 0.0000495 18808.87695 20138.19531
20348.0 0.0000491 18806.90234 20575.29102
20690.0 0.0000483 18804.92578 21092.22852
21087.0 0.0000474 18802.95117 21638.79297
21876.0 0.0000457 18800.97461 22139.86523
22185.0 0.0000451 18799.00000 22504.39258
22462.0 0.0000445 18797.02344 22619.12305
22559.0 0.0000443 18795.04492 22405.75000
22118.0 0.0000452 18793.06836 21921.24609
21227.0 0.0000471 18791.08984 21320.12891
20563.0 0.0000486 18789.11328 20735.75977
19948.0 0.0000501 18787.13477 20238.22656
19473.0 0.0000514 18785.15430 19850.21094
19352.0 0.0000517 18783.17578 19567.34766
18980.0 0.0000527 18781.19531 19371.44727
18913.0 0.0000529 18779.21484 19240.57227
18839.0 0.0000531 18777.23242 19154.71680
18788.0 0.0000532 18775.25195 19098.97461
19045.0 0.0000525 18773.26758 19064.07031
18990.0 0.0000527 18771.28516 19045.54102
19066.0 0.0000524 18769.30078 19042.51953
18896.0 0.0000529 18767.31641 19056.70703
18860.0 0.0000530 18765.33008 19091.73047
18936.0 0.0000528 18763.34375 19152.99805
19463.0 0.0000514 18761.35547 19247.53320
19400.0 0.0000515 18759.36719 19382.55664
19760.0 0.0000506 18757.37695 19562.15430
19990.0 0.0000500 18755.38672 19782.08008
20507.0 0.0000488 18753.39648 20021.65039
20591.0 0.0000486 18751.40430 20234.55859
20594.0 0.0000486 18749.41016 20353.70508
20402.0 0.0000490 18747.41602 20315.47852
19967.0 0.0000501 18745.41992 20114.00195
19840.0 0.0000504 18743.42188 19820.23047
19724.0 0.0000507 18741.42383 19523.04883
19554.0 0.0000511 18739.42578 19275.63672
19093.0 0.0000524 18737.42383 19098.08984
19067.0 0.0000524 18735.42188 18982.05078
19069.0 0.0000524 18733.41992 18910.82617
19081.0 0.0000524 18731.41406 18867.82617
19082.0 0.0000524 18729.40820 18842.60352
18985.0 0.0000527 18727.40039 18824.54492
19071.0 0.0000524 18725.39258 18811.43164
18802.0 0.0000532 18723.38281 18801.25781
18966.0 0.0000527 18721.36914 18792.99414
18720.0 0.0000534 18719.35742 18786.03906
18823.0 0.0000531 18717.34180 18780.04688
18821.0 0.0000531 18715.32422 18774.80078
18839.0 0.0000531 18713.30664 18775.46484
18872.0 0.0000530 18711.28711 18771.50586
19031.0 0.0000525 18709.26563 18768.00586
18794.0 0.0000532 18707.24023 18764.93359
19036.0 0.0000525 18705.21680 18762.24609
19106.0 0.0000523 18703.18945 18759.93555
19112.0 0.0000523 18701.16016 18758.00000
18994.0 0.0000526 18699.12891 18756.45313
18855.0 0.0000530 18697.09766 18755.32617
19002.0 0.0000526 18695.06250 18754.63867
18871.0 0.0000530 18693.02539 18754.46094
18900.0 0.0000529 18690.98633 18754.87891
18937.0 0.0000528 18688.94727 18755.99805
18629.0 0.0000537 18686.90430 18757.20508
18551.0 0.0000539 18684.85938 18760.36523
18691.0 0.0000535 18682.81250 18765.16406
18839.0 0.0000531 18680.76367 18772.50195
18938.0 0.0000528 18678.71289 18784.15430
18566.0 0.0000539 18676.66016 18803.38281
18787.0 0.0000532 18674.60352 18835.81836
18893.0 0.0000529 18672.54688 18890.15234
18934.0 0.0000528 18670.48633 18977.88281
18945.0 0.0000528 18668.42383 19110.97266
19168.0 0.0000522 18666.35938 19301.06836
19366.0 0.0000516 18664.29297 19530.93359
19820.0 0.0000505 18662.22461 19779.53516
20103.0 0.0000497 18660.15234 19999.79492
20529.0 0.0000487 18658.07813 20127.43164
20159.0 0.0000496 18656.00195 20112.98047
20363.0 0.0000491 18653.92188 19967.63477
20305.0 0.0000492 18651.83984 19771.01172
20082.0 0.0000498 18649.75586 19618.10547
19987.0 0.0000500 18647.66992 19577.00586
19892.0 0.0000503 18645.58008 19686.91602
20244.0 0.0000494 18643.48828 19950.55273
20413.0 0.0000490 18641.39453 20322.00977
20441.0 0.0000489 18639.29688 20699.64648
20561.0 0.0000486 18637.19727 20940.83789
20152.0 0.0000496 18635.09375 20914.82617
20030.0 0.0000499 18632.98828 20595.68750
19575.0 0.0000511 18630.88086 20106.56055
19155.0 0.0000522 18628.76953 19617.65820
18701.0 0.0000535 18626.65625 19238.58984
18670.0 0.0000536 18624.53906 18997.71875
18652.0 0.0000536 18622.41992 18869.15625
18660.0 0.0000536 18620.29688 18810.96094
18619.0 0.0000537 18618.17188 18790.41797
18724.0 0.0000534 18616.04492 18790.90234
19142.0 0.0000522 18613.91406 18808.44727
18834.0 0.0000531 18611.77930 18851.93359
18653.0 0.0000536 18609.64258 18917.32031
18712.0 0.0000534 18607.50195 19015.16406
18889.0 0.0000529 18605.35938 19145.17578
18918.0 0.0000529 18603.21289 19296.36523
19228.0 0.0000520 18601.06445 19446.40430
19100.0 0.0000524 18598.91211 19562.46094
18885.0 0.0000530 18596.75781 19611.66016
19060.0 0.0000525 18594.59961 19582.57227
19194.0 0.0000521 18592.43750 19497.10156
19052.0 0.0000525 18590.27344 19396.28125
19224.0 0.0000520 18588.10547 19323.91602
19586.0 0.0000511 18585.93359 19324.59375
19594.0 0.0000510 18583.75977 19449.16992
20170.0 0.0000496 18581.58398 19763.40820
20610.0 0.0000485 18579.40234 20345.80469
21727.0 0.0000460 18577.21875 21263.51367
22757.0 0.0000439 18575.03125 22518.64258
23801.0 0.0000420 18572.84180 23987.13281
25027.0 0.0000400 18570.64844 25382.73633
25970.0 0.0000385 18568.45117 26288.52344
26100.0 0.0000383 18566.25195 26317.08984
25403.0 0.0000394 18564.04688 25397.08203
24116.0 0.0000415 18561.84180 23911.62891
22762.0 0.0000439 18559.63086 22389.28711
21594.0 0.0000463 18557.41797 21162.50977
20785.0 0.0000481 18555.20117 20345.60352
20268.0 0.0000493 18552.98047 19897.50391
20208.0 0.0000495 18550.75781 19704.77344
20227.0 0.0000494 18548.52930 19649.27539
19981.0 0.0000500 18546.29883 19640.45703
20175.0 0.0000496 18544.06641 19617.50391
20291.0 0.0000493 18541.83008 19555.65430
19905.0 0.0000502 18539.58789 19473.83203
19738.0 0.0000507 18537.34375 19413.78125
19745.0 0.0000506 18535.09766 19419.51172
19736.0 0.0000507 18532.84570 19537.17578
19410.0 0.0000515 18530.59180 19818.95508
20076.0 0.0000498 18528.33398 20316.65820
20908.0 0.0000478 18526.07227 21057.96289
21266.0 0.0000470 18523.80859 22008.27344
22396.0 0.0000447 18521.53906 23043.57031
23539.0 0.0000425 18519.26758 23942.53906
24391.0 0.0000410 18516.99219 24410.92773
24597.0 0.0000407 18514.71484 24229.43555
24195.0 0.0000413 18512.43164 23452.46484
23431.0 0.0000427 18510.14648 22403.29102
22054.0 0.0000453 18507.85742 21412.47852
20931.0 0.0000478 18505.56445 20658.62109
20138.0 0.0000497 18503.26758 20176.31641
20008.0 0.0000500 18500.96875 19905.43750
19659.0 0.0000509 18498.66602 19743.36523
19351.0 0.0000517 18496.35938 19599.00195
19177.0 0.0000521 18494.04883 19433.96484
18971.0 0.0000527 18491.73438 19260.65430
18754.0 0.0000533 18489.41797 19107.57227
18639.0 0.0000537 18487.09766 18992.00000
18773.0 0.0000533 18484.77344 18918.36719
18692.0 0.0000535 18482.44531 18883.28320
18897.0 0.0000529 18480.11523 18882.25781
18618.0 0.0000537 18477.77930 18916.15234
18927.0 0.0000528 18475.44141 18995.25000
19205.0 0.0000521 18473.10156 19147.30469
19195.0 0.0000521 18470.75586 19412.09961
19591.0 0.0000510 18468.40625 19840.54297
20158.0 0.0000496 18466.05469 20476.01172
20840.0 0.0000480 18463.70117 21321.56250
22132.0 0.0000452 18461.34180 22304.88477
22739.0 0.0000440 18458.97852 23263.61133
23697.0 0.0000422 18456.61328 23945.90625
24254.0 0.0000412 18454.24414 24085.01953
23925.0 0.0000418 18451.87109 23575.24609
23282.0 0.0000430 18449.49609 22612.55664
21812.0 0.0000458 18447.11719 21530.74609
20621.0 0.0000485 18444.73438 20574.46680
19756.0 0.0000506 18442.34766 19849.51172
18982.0 0.0000527 18439.95898 19361.75000
18812.0 0.0000532 18437.56641 19063.84766
18702.0 0.0000535 18435.16992 18894.83984
18676.0 0.0000535 18432.76953 18804.64844
18445.0 0.0000542 18430.36719 18761.56250
18347.0 0.0000545 18427.96094 18749.59375
18673.0 0.0000536 18425.55273 18761.09180
18389.0 0.0000544 18423.13867 18790.08594
18364.0 0.0000545 18420.72266 18827.96484
18521.0 0.0000540 18418.30469 18861.82422
18615.0 0.0000537 18415.88086 18874.95313
18604.0 0.0000538 18413.45508 18854.00195
18480.0 0.0000541 18411.02734 18800.05273
18323.0 0.0000546 18408.59570 18729.41602
18423.0 0.0000543 18406.16016 18660.07813
18478.0 0.0000541 18403.72070 18602.56836
18375.0 0.0000544 18401.27930 18560.30273
18419.0 0.0000543 18398.83594 18532.08008
18325.0 0.0000546 18396.38672 18514.45117
18438.0 0.0000542 18393.93555 18503.57422
18581.0 0.0000538 18391.48242 18496.19727
18356.0 0.0000545 18389.02539 18490.03516
18468.0 0.0000541 18386.56445 18484.06641
18488.0 0.0000541 18384.10156 18478.60547
18313.0 0.0000546 18381.63672 18474.78320
18247.0 0.0000548 18379.16602 18473.88086
18132.0 0.0000552 18376.69531 18477.14453
18390.0 0.0000544 18374.21875 18485.81445
18299.0 0.0000546 18371.74219 18500.92969
18440.0 0.0000542 18369.26172 18522.93750
18296.0 0.0000547 18366.77734 18550.90820
18249.0 0.0000548 18364.29102 18581.71289
18288.0 0.0000547 18361.80078 18610.07031
18436.0 0.0000542 18359.30859 18629.36914
18219.0 0.0000549 18356.81445 18632.44727
18374.0 0.0000544 18354.31641 18615.98242
18301.0 0.0000546 18351.81641 18585.64258
18329.0 0.0000546 18349.31250 18551.89844
18187.0 0.0000550 18346.80664 18523.27148
18305.0 0.0000546 18344.29883 18505.22266
18371.0 0.0000544 18341.78711 18501.50781
18427.0 0.0000543 18339.27344 18515.37500
18377.0 0.0000544 18336.75781 18548.25391
18195.0 0.0000550 18334.23828 18599.60352
18491.0 0.0000541 18331.71680 18663.69531
18753.0 0.0000533 18329.19336 18728.76563
18694.0 0.0000535 18326.66602 18777.17969
18792.0 0.0000532 18324.13867 18790.12891
18681.0 0.0000535 18321.60742 18760.43164
18620.0 0.0000537 18319.07227 18701.51953
18616.0 0.0000537 18316.53711 18637.08594
18365.0 0.0000545 18313.99805 18585.46289
18353.0 0.0000545 18311.45703 18556.58398
18521.0 0.0000540 18308.91406 18548.64648
18718.0 0.0000534 18306.36914 18579.89648
18896.0 0.0000529 18303.82227 18651.69336
18966.0 0.0000527 18301.27344 18779.27734
19176.0 0.0000521 18298.72070 18985.52539
19411.0 0.0000515 18296.16797 19297.39648
19982.0 0.0000500 18293.61133 19733.93555
20781.0 0.0000481 18291.05273 20285.39063
21890.0 0.0000457 18288.49414 20895.36133
21979.0 0.0000455 18285.93164 21456.59961
22060.0 0.0000453 18283.36719 21805.33203
22045.0 0.0000454 18280.80273 21792.15625
21236.0 0.0000471 18278.23438 21377.91016
20355.0 0.0000491 18275.66406 20718.78516
19862.0 0.0000503 18273.09375 20032.48047
19445.0 0.0000514 18270.51953 19461.83984
19087.0 0.0000524 18267.94531 19057.94141
19016.0 0.0000526 18265.36719 18808.27539
18777.0 0.0000533 18262.78906 18669.71094
18585.0 0.0000538 18260.20898 18595.36914
18740.0 0.0000534 18257.62891 18549.74609
18569.0 0.0000539 18255.04492 18513.25000
18568.0 0.0000539 18252.45898 18479.32031
18728.0 0.0000534 18249.87305 18448.07422
18659.0 0.0000536 18247.28516 18421.42188
19006.0 0.0000526 18244.69531 18400.97070
19095.0 0.0000524 18242.10547 18387.41797
19139.0 0.0000522 18239.51367 18380.74414
19018.0 0.0000526 18236.91992 18380.67578
19316.0 0.0000518 18234.32617 18387.18750
19409.0 0.0000515 18231.73047 18400.99023
18927.0 0.0000528 18229.13281 18422.95898
18863.0 0.0000530 18226.53320 18455.00977
18811.0 0.0000532 18223.93359 18499.10742
18853.0 0.0000530 18221.33398 18557.05664
18649.0 0.0000536 18218.73242 18629.81250
18691.0 0.0000535 18216.12891 18716.50391
18523.0 0.0000540 18213.52539 18812.79297
18780.0 0.0000532 18210.92188 18908.32031
18988.0 0.0000527 18208.31641 18985.09375
18891.0 0.0000529 18205.70898 19021.01367
19162.0 0.0000522 18203.10156 19002.97070
19251.0 0.0000519 18200.49414 18936.00586
19244.0 0.0000520 18197.88477 18839.90039
19183.0 0.0000521 18195.27539 18735.50586
18888.0 0.0000529 18192.66406 18636.76367
18546.0 0.0000539 18190.05469 18550.56836
18649.0 0.0000536 18187.44141 18479.29297
18675.0 0.0000535 18184.83008 18423.00391
18524.0 0.0000540 18182.21680 18380.88477
18478.0 0.0000541 18179.60352 18352.29297
18569.0 0.0000539 18176.99023 18337.45117
18598.0 0.0000538 18174.37695 18337.68945
18588.0 0.0000538 18171.76172 18354.76367
18621.0 0.0000537 18169.14844 18388.90234
18567.0 0.0000539 18166.53320 18436.06836
18498.0 0.0000541 18163.91797 18487.52539
18866.0 0.0000530 18161.30078 18524.06641
18889.0 0.0000529 18158.68555 18529.24805
18598.0 0.0000538 18156.07031 18494.90625
18634.0 0.0000537 18153.45313 18431.94336
18609.0 0.0000537 18150.83789 18361.32813
18301.0 0.0000546 18148.22266 18298.91211
18454.0 0.0000542 18145.60742 18251.54688
18280.0 0.0000547 18142.99023 18219.29492
18043.0 0.0000554 18140.37500 18198.70117
18195.0 0.0000550 18137.75977 18185.56836
18224.0 0.0000549 18135.14453 18176.60156
18361.0 0.0000545 18132.52930 18169.78906
18130.0 0.0000552 18129.91406 18164.08594
18237.0 0.0000548 18127.30078 18159.02344
18168.0 0.0000550 18124.68555 18154.38086
18192.0 0.0000550 18122.07227 18150.06055
18339.0 0.0000545 18119.45898 18145.98828
18037.0 0.0000554 18116.84570 18142.12500
18082.0 0.0000553 18114.23438 18138.44141
18010.0 0.0000555 18111.62109 18134.90820
18299.0 0.0000546 18109.00977 18131.51563
18294.0 0.0000547 18106.40039 18128.24609
18220.0 0.0000549 18103.79102 18127.31445
18216.0 0.0000549 18101.18164 18124.31055
18201.0 0.0000549 18098.57422 18121.41016
17798.0 0.0000562 18095.96680 18118.61914
18168.0 0.0000550 18093.35938 18115.93945
18264.0 0.0000548 18090.75391 18118.46875
18170.0 0.0000550 18088.14844 18116.16602
18080.0 0.0000553 18085.54492 18114.02734
17871.0 0.0000560 18082.94336 18112.13477
18027.0 0.0000555 18080.33984 18110.62695
17983.0 0.0000556 18077.74023 18109.83008
17769.0 0.0000563 18075.14063 18110.33789
17969.0 0.0000557 18072.54297 18114.91406
18259.0 0.0000548 18069.94531 18121.71289
18049.0 0.0000554 18067.34961 18134.30859
18141.0 0.0000551 18064.75586 18154.45898
18147.0 0.0000551 18062.16211 18182.87500
18167.0 0.0000550 18059.57031 18218.20898
18008.0 0.0000555 18056.98047 18256.29883
18090.0 0.0000553 18054.39063 18290.05273
18074.0 0.0000553 18051.80273 18310.71094
18137.0 0.0000551 18049.21680 18310.67773
17747.0 0.0000563 18046.63281 18289.61328
17937.0 0.0000558 18044.05078 18254.28125
18135.0 0.0000551 18041.46875 18214.08008
18130.0 0.0000552 18038.89063 18177.56641
17901.0 0.0000559 18036.31250 18152.21484
18074.0 0.0000553 18033.73633 18145.88477
18315.0 0.0000546 18031.16211 18169.15039
18124.0 0.0000552 18028.58984 18230.27148
17955.0 0.0000557 18026.01953 18331.94141
18169.0 0.0000550 18023.45313 18455.04688
17989.0 0.0000556 18020.88672 18555.60547
18276.0 0.0000547 18018.32227 18585.05664
18187.0 0.0000550 18015.75977 18526.43164
18346.0 0.0000545 18013.19922 18411.59961
18164.0 0.0000551 18010.64063 18297.40625
18436.0 0.0000542 18008.08594 18227.46289
18208.0 0.0000549 18005.53125 18217.80664
18272.0 0.0000547 18002.98047 18269.80078
18357.0 0.0000545 18000.43164 18387.30078
18586.0 0.0000538 17997.88477 18580.10938
18630.0 0.0000537 17995.33984 18852.76172
18995.0 0.0000526 17992.79883 19186.76563
19520.0 0.0000512 17990.25781 19528.63477
19724.0 0.0000507 17987.72070 19790.72461
19634.0 0.0000509 17985.18555 19872.23242
19720.0 0.0000507 17982.65430 19725.09375
19485.0 0.0000513 17980.12500 19408.57422
18953.0 0.0000528 17977.59766 19040.81445
18696.0 0.0000535 17975.07422 18712.90234
18692.0 0.0000535 17972.55273 18466.24219
18159.0 0.0000551 17970.03320 18304.59375
18454.0 0.0000542 17967.51563 18211.40820
18280.0 0.0000547 17965.00391 18164.54883
18134.0 0.0000551 17962.49219 18145.21875
18191.0 0.0000550 17959.98438 18140.28711
18133.0 0.0000551 17957.48047 18140.96484
18051.0 0.0000554 17954.97852 18141.13477
17913.0 0.0000558 17952.47852 18136.26953
18165.0 0.0000551 17949.98242 18124.69141
17780.0 0.0000562 17947.49023 18109.00586
17808.0 0.0000562 17945.00000 18093.33203
17903.0 0.0000559 17942.51367 18080.43359
18095.0 0.0000553 17940.02930 18071.48242
17830.0 0.0000561 17937.54883 18066.54492
17796.0 0.0000562 17935.07227 18065.18750
17677.0 0.0000566 17932.59766 18066.80273
17975.0 0.0000556 17930.12695 18070.91016
18192.0 0.0000550 17927.65820 18077.26172
18036.0 0.0000554 17925.19336 18085.86914
17976.0 0.0000556 17922.73242 18097.62695
18063.0 0.0000554 17920.27539 18111.65039
18106.0 0.0000552 17917.82031 18129.27148
17924.0 0.0000558 17915.37109 18151.49023
18088.0 0.0000553 17912.92383 18180.01367
18417.0 0.0000543 17910.47852 18217.82813
18112.0 0.0000552 17908.03906 18270.54688
18176.0 0.0000550 17905.60156 18348.47266
18161.0 0.0000551 17903.16797 18469.49023
18325.0 0.0000546 17900.73828 18661.67383
18552.0 0.0000539 17898.31250 18963.37305
19138.0 0.0000523 17895.89063 19417.58398
19377.0 0.0000516 17893.47266 20057.54297
20364.0 0.0000491 17891.05859 20881.92969
21060.0 0.0000475 17888.64648 21824.00781
22000.0 0.0000455 17886.23828 22737.63281
23082.0 0.0000433 17883.83594 23424.32227
24129.0 0.0000414 17881.43555 23679.34961
23855.0 0.0000419 17879.03906 23420.87695
23541.0 0.0000425 17876.64844 22831.69336
22806.0 0.0000438 17874.25977 22206.75977
22270.0 0.0000449 17871.87500 21728.60938
21509.0 0.0000465 17869.49609 21424.01563
21632.0 0.0000462 17867.11914 21207.19922
21178.0 0.0000472 17864.74609 20946.94727
20661.0 0.0000484 17862.37891 20543.09375
20069.0 0.0000498 17860.01367 20030.97656
19560.0 0.0000511 17857.65430 19516.45508
19011.0 0.0000526 17855.29883 19077.77930
18646.0 0.0000536 17852.94727 18746.86133
18485.0 0.0000541 17850.59961 18522.80469
18097.0 0.0000553 17848.25586 18387.61914
18335.0 0.0000545 17845.91602 18319.34180
18352.0 0.0000545 17843.58008 18302.92578
18375.0 0.0000544 17841.25000 18332.19727
18342.0 0.0000545 17838.92383 18407.42188
18314.0 0.0000546 17836.60156 18532.17578
18605.0 0.0000537 17834.28320 18691.93945
18838.0 0.0000531 17831.96875 18865.87891
19030.0 0.0000525 17829.66016 19014.34375
19013.0 0.0000526 17827.35547 19090.24023
19076.0 0.0000524 17825.05469 19053.62695
19104.0 0.0000523 17822.75781 18919.91406
19049.0 0.0000525 17820.46484 18733.58789
18412.0 0.0000543 17818.17773 18554.60547
18731.0 0.0000534 17815.89648 18413.23438
18308.0 0.0000546 17813.61719 18318.75000
18643.0 0.0000536 17811.34375 18267.24609
18537.0 0.0000539 17809.07422 18248.89258
18902.0 0.0000529 17806.80859 18253.82227
18857.0 0.0000530 17804.54688 18276.49219
18970.0 0.0000527 17802.29102 18318.38477
19138.0 0.0000523 17800.04102 18386.60547
18794.0 0.0000532 17797.79297 18490.79688
18905.0 0.0000529 17795.55273 18641.21484
19053.0 0.0000525 17793.31445 18847.14844
18993.0 0.0000527 17791.08203 19114.56641
19270.0 0.0000519 17788.85352 19442.62305
19260.0 0.0000519 17786.62891 19817.61328
19877.0 0.0000503 17784.41016 20203.10352
20468.0 0.0000489 17782.19531 20530.58398
21052.0 0.0000475 17779.98633 20711.41602
21651.0 0.0000462 17777.78125 20689.74414
21559.0 0.0000464 17775.58203 20494.02734
21437.0 0.0000466 17773.38672 20215.41211
20421.0 0.0000490 17771.19531 19941.81055
19590.0 0.0000510 17769.00977 19721.58008
18907.0 0.0000529 17766.82813 19563.54297
18624.0 0.0000537 17764.65234 19448.24805
18261.0 0.0000548 17762.48047 19340.18359
18051.0 0.0000554 17760.31445 19205.07422
18011.0 0.0000555 17758.15234 19030.24414
17936.0 0.0000558 17755.99414 18829.67773
17851.0 0.0000560 17753.84180 18627.23828
17758.0 0.0000563 17751.69336 18443.80664
17947.0 0.0000557 17749.55078 18291.85352
17954.0 0.0000557 17747.41406 18174.86523
17903.0 0.0000559 17745.28125 18089.30664
17730.0 0.0000564 17743.15234 18028.44727
17978.0 0.0000556 17741.02930 17985.52539
17743.0 0.0000564 17738.91016 17954.99023
17817.0 0.0000561 17736.79688 17932.69922
17984.0 0.0000556 17734.68945 17915.87500
17865.0 0.0000560 17732.58594 17902.78516
17793.0 0.0000562 17730.48633 17892.36914
18012.0 0.0000555 17728.39258 17883.96484
17945.0 0.0000557 17726.30469 17877.19336
17956.0 0.0000557 17724.22070 17872.11133
17742.0 0.0000564 17722.14063 17868.25000
17954.0 0.0000557 17720.06641 17866.13086
17808.0 0.0000562 17717.99609 17866.41016
17919.0 0.0000558 17715.93164 17870.30469
17962.0 0.0000557 17713.87305 17879.66211
17858.0 0.0000560 17711.81836 17896.85938
18033.0 0.0000555 17709.76953 17924.24414
18209.0 0.0000549 17707.72461 17963.18945
18071.0 0.0000553 17705.68555 18012.89844
18131.0 0.0000552 17703.65039 18069.41797
17858.0 0.0000560 17701.62109 18125.34766
17825.0 0.0000561 17699.59570 18170.51367
17774.0 0.0000563 17697.57617 18195.10742
18153.0 0.0000551 17695.56055 18195.48047
18112.0 0.0000552 17693.55078 18177.14453
18062.0 0.0000554 17691.54688 18150.27344
17715.0 0.0000564 17689.54492 18123.57031
18140.0 0.0000551 17687.55078 18101.65430
18243.0 0.0000548 17685.56055 18083.41406
18056.0 0.0000554 17683.57422 18067.12695
18009.0 0.0000555 17681.59375 18052.93750
18140.0 0.0000551 17679.61914 18043.06055
18043.0 0.0000554 17677.64844 18040.00195
18186.0 0.0000550 17675.68359 18045.68164
18334.0 0.0000545 17673.72266 18061.96094
18396.0 0.0000544 17671.76758 18091.70898
18601.0 0.0000538 17669.81641 18140.36914
18911.0 0.0000529 17667.86914 18218.14258
19113.0 0.0000523 17665.92969 18342.74414
19474.0 0.0000514 17663.99219 18541.61523
20189.0 0.0000495 17662.06055 18851.35938
20465.0 0.0000489 17660.13477 19311.27148
20945.0 0.0000477 17658.21289 19948.68945
21542.0 0.0000464 17656.29688 20755.15234
22235.0 0.0000450 17654.38477 21657.75195
23002.0 0.0000435 17652.47852 22505.58398
23235.0 0.0000430 17650.57617 23095.42383
23419.0 0.0000427 17648.67969 23234.69336
22959.0 0.0000436 17646.78711 22887.15039
22019.0 0.0000454 17644.89844 22267.81836
21513.0 0.0000465 17643.01758 21673.17188
21109.0 0.0000474 17641.13867 21305.86328
20852.0 0.0000480 17639.26563 21246.76953
20960.0 0.0000477 17637.39844 21469.65430
21429.0 0.0000467 17635.53320 21853.33203
21854.0 0.0000458 17633.67578 22208.91016
22123.0 0.0000452 17631.82227 22328.56250
22448.0 0.0000445 17629.97266 22072.29688
21838.0 0.0000458 17628.12891 21486.01758
21639.0 0.0000462 17626.28906 20760.60156
20379.0 0.0000491 17624.45313 20070.77148
19757.0 0.0000506 17622.62305 19511.80664
19280.0 0.0000519 17620.79688 19115.67969
18770.0 0.0000533 17618.97656 18874.07617
19155.0 0.0000522 17617.16016 18754.91797
19060.0 0.0000525 17615.34961 18716.31445
18718.0 0.0000534 17613.54297 18718.67383
18506.0 0.0000540 17611.74023 18738.39648
18619.0 0.0000537 17609.94141 18777.29688
18484.0 0.0000541 17608.14844 18857.49414
18925.0 0.0000528 17606.36133 19000.52344
18787.0 0.0000532 17604.57617 19217.61328
19141.0 0.0000522 17602.79688 19505.95703
19564.0 0.0000511 17601.02344 19844.86719
19925.0 0.0000502 17599.25195 20191.50781
20300.0 0.0000493 17597.48633 20484.09766
21007.0 0.0000476 17595.72656 20662.00586
21343.0 0.0000469 17593.96875 20689.22656
21468.0 0.0000466 17592.21680 20558.59570
21065.0 0.0000475 17590.46875 20291.40625
20662.0 0.0000484 17588.72656 19939.67969
20235.0 0.0000494 17586.98633 19568.09570
19450.0 0.0000514 17585.25195 19228.01172
18841.0 0.0000531 17583.52344 18949.19141
18324.0 0.0000546 17581.79688 18745.34570
18189.0 0.0000550 17580.07617 18620.73633
18168.0 0.0000550 17578.35938 18572.96094
18192.0 0.0000550 17576.64648 18592.03125
18312.0 0.0000546 17574.93750 18657.22070
18699.0 0.0000535 17573.23242 18734.87695
18263.0 0.0000548 17571.53320 18782.27148
18621.0 0.0000537 17569.83789 18758.34180
18606.0 0.0000537 17568.14648 18647.92578
18380.0 0.0000544 17566.45898 18479.53516
18418.0 0.0000543 17564.77734 18298.43359
18009.0 0.0000555 17563.09766 18135.92969
18122.0 0.0000552 17561.42383 18005.61523
17749.0 0.0000563 17559.75195 17909.17383
17783.0 0.0000562 17558.08594 17841.74609
17761.0 0.0000563 17556.42383 17795.96875
17602.0 0.0000568 17554.76563 17764.87891
17816.0 0.0000561 17553.11133 17743.25977
17677.0 0.0000566 17551.46094 17727.97852
17511.0 0.0000571 17549.81445 17717.65625
17760.0 0.0000563 17548.17188 17712.23633
17678.0 0.0000566 17546.53320 17712.63477
17813.0 0.0000561 17544.90039 17720.24414
17814.0 0.0000561 17543.26953 17736.21094
17876.0 0.0000559 17541.64258 17760.36328
18046.0 0.0000554 17540.01953 17789.85742
18088.0 0.0000553 17538.40039 17818.39648
18014.0 0.0000555 17536.78516 17837.12500
17786.0 0.0000562 17535.17383 17837.46680
17972.0 0.0000556 17533.56641 17817.23242
17985.0 0.0000556 17531.96289 17784.89844
17740.0 0.0000564 17530.36328 17748.69922
17904.0 0.0000559 17528.76758 17725.80078
17642.0 0.0000567 17527.17383 17718.18945
17777.0 0.0000563 17525.58594 17730.08789
17714.0 0.0000565 17524.00000 17764.62891
17679.0 0.0000566 17522.41797 17823.45898
17887.0 0.0000559 17520.83984 17905.22461
17909.0 0.0000558 17519.26563 18002.87109
18281.0 0.0000547 17517.69336 18099.73438
18315.0 0.0000546 17516.12695 18166.70703
18557.0 0.0000539 17514.56250 18172.86914
18505.0 0.0000540 17513.00195 18113.00195
18349.0 0.0000545 17511.44336 18013.40625
18259.0 0.0000548 17509.89063 17905.43164
18200.0 0.0000549 17508.33984 17808.62695
18032.0 0.0000555 17506.79297 17731.27734
17787.0 0.0000562 17505.24805 17674.40820
17698.0 0.0000565 17503.70703 17635.35547
17755.0 0.0000563 17502.16992 17609.58984
17841.0 0.0000561 17500.63672 17592.80664
17737.0 0.0000564 17499.10547 17582.13086
17545.0 0.0000570 17497.57813 17574.61523
17582.0 0.0000569 17496.05273 17569.48633
17511.0 0.0000571 17494.53125 17566.23242
17465.0 0.0000573 17493.01172 17564.95898
17628.0 0.0000567 17491.49805 17566.21289
17506.0 0.0000571 17489.98438 17571.57227
17280.0 0.0000579 17488.47656 17583.84961
17613.0 0.0000568 17486.96875 17608.04297
17671.0 0.0000566 17485.46680 17647.99414
17693.0 0.0000565 17483.96484 17708.91602
17536.0 0.0000570 17482.46875 17791.42969
17623.0 0.0000567 17480.97266 17888.07813
17541.0 0.0000570 17479.48047 17980.60156
17823.0 0.0000561 17477.99219 18042.64063
18020.0 0.0000555 17476.50586 18048.29492
18065.0 0.0000554 17475.02344 17990.43945
17614.0 0.0000568 17473.54102 17892.77539
17577.0 0.0000569 17472.06445 17788.10742
17675.0 0.0000566 17470.58789 17697.72070
17363.0 0.0000576 17469.11523 17630.07227
17635.0 0.0000567 17467.64453 17584.97461
17534.0 0.0000570 17466.17773 17557.63867
17672.0 0.0000566 17464.71289 17542.11133
17489.0 0.0000572 17463.25000 17533.16797
17438.0 0.0000573 17461.78906 17526.72852
17385.0 0.0000575 17460.33203 17520.91992
17442.0 0.0000573 17458.87695 17514.57031
17366.0 0.0000576 17457.42383 17507.84180
17568.0 0.0000569 17455.97266 17501.24023
17634.0 0.0000567 17454.52539 17495.15234
17517.0 0.0000571 17453.07813 17489.73242
17576.0 0.0000569 17451.63477 17485.77148
17494.0 0.0000572 17450.19336 17481.69922
17201.0 0.0000581 17448.75391 17478.16992
17390.0 0.0000575 17447.31641 17475.08008
17615.0 0.0000568 17445.88281 17472.33203
17401.0 0.0000575 17444.44922 17469.83789
17372.0 0.0000576 17443.01758 17467.53320
17145.0 0.0000583 17441.58984 17466.24023
17519.0 0.0000571 17440.16406 17464.21680
17441.0 0.0000573 17438.73828 17462.31250
17570.0 0.0000569 17437.31641 17460.47461
17403.0 0.0000575 17435.89453 17460.17188
17360.0 0.0000576 17434.47461 17458.51953
17431.0 0.0000574 17433.05859 17456.94336
17529.0 0.0000570 17431.64258 17455.42969
17395.0 0.0000575 17430.22852 17453.96875
17524.0 0.0000571 17428.81836 17452.57031
17545.0 0.0000570 17427.40820 17451.23828
17595.0 0.0000568 17426.00000 17449.96094
17631.0 0.0000567 17424.59180 17448.74219
17600.0 0.0000568 17423.18750 17447.59961
17360.0 0.0000576 17421.78320 17446.52148
17565.0 0.0000569 17420.38086 17445.52148
17501.0 0.0000571 17418.98047 17444.60352
17410.0 0.0000574 17417.58203 17443.77344
17298.0 0.0000578 17416.18555 17443.04883
17634.0 0.0000567 17414.78906 17442.43750
17284.0 0.0000579 17413.39453 17441.99219
17730.0 0.0000564 17412.00000 17441.67578
17598.0 0.0000568 17410.60938 17441.58203
17300.0 0.0000578 17409.21875 17441.77930
17345.0 0.0000577 17407.82813 17442.40625
17434.0 0.0000574 17406.43945 17443.69727
17439.0 0.0000573 17405.05273 17445.98438
17349.0 0.0000576 17403.66797 17449.70117
17591.0 0.0000568 17402.28320 17455.33984
17332.0 0.0000577 17400.89844 17463.34961
17354.0 0.0000576 17399.51563 17474.01172
17292.0 0.0000578 17398.13477 17487.34766
17476.0 0.0000572 17396.75391 17503.15430
17367.0 0.0000576 17395.37500 17519.70703
17335.0 0.0000577 17393.99609 17540.07031
17463.0 0.0000573 17392.61914 17563.89258
17633.0 0.0000567 17391.24219 17589.48438
17689.0 0.0000565 17389.86523 17630.06445
17708.0 0.0000565 17388.49023 17684.14258
17590.0 0.0000569 17387.11523 17751.97656
17656.0 0.0000566 17385.74219 17829.66602
17581.0 0.0000569 17384.36914 17909.31055
17941.0 0.0000557 17382.99609 17980.20508
17907.0 0.0000558 17381.62500 18026.33984
18104.0 0.0000552 17380.25391 18032.46484
17869.0 0.0000560 17378.88281 17998.69922
18114.0 0.0000552 17377.51367 17951.76367
17839.0 0.0000561 17376.14453 17925.86133
17820.0 0.0000561 17374.77539 17942.40625
17971.0 0.0000556 17373.40625 18004.28711
17889.0 0.0000559 17372.03711 18097.24609
18152.0 0.0000551 17370.66992 18187.91992
18016.0 0.0000555 17369.30273 18234.69727
18073.0 0.0000553 17367.93555 18204.38281
18153.0 0.0000551 17366.56836 18100.01367
18080.0 0.0000553 17365.20117 17958.91992
17807.0 0.0000562 17363.83398 17819.12695
17622.0 0.0000567 17362.46875 17702.15625
17445.0 0.0000573 17361.10156 17615.35156
17369.0 0.0000576 17359.73633 17557.31836
17553.0 0.0000570 17358.37109 17522.35547
17511.0 0.0000571 17357.00391 17503.96289
17418.0 0.0000574 17355.63867 17496.99805
17672.0 0.0000566 17354.27148 17502.07617
17556.0 0.0000570 17352.90625 17512.13477
17305.0 0.0000578 17351.53906 17533.70313
17599.0 0.0000568 17350.17383 17574.55273
17693.0 0.0000565 17348.80664 17648.63086
17661.0 0.0000566 17347.44141 17776.18164
17861.0 0.0000560 17346.07422 17979.95898
17972.0 0.0000556 17344.70703 18275.45898
18421.0 0.0000543 17343.33984 18655.42578
18726.0 0.0000534 17341.97070 19074.13281
19074.0 0.0000524 17340.60352 19445.55078
19200.0 0.0000521 17339.23438 19664.80078
19035.0 0.0000525 17337.86523 19658.56445
18988.0 0.0000527 17336.49609 19439.52344
18639.0 0.0000537 17335.12695 19080.92383
18514.0 0.0000540 17333.75586 18676.54492
18063.0 0.0000554 17332.38477 18308.55078
17621.0 0.0000568 17331.01367 18018.60156
17686.0 0.0000565 17329.64258 17812.32422
17491.0 0.0000572 17328.26953 17675.36914
17411.0 0.0000574 17326.89648 17589.52734
17332.0 0.0000577 17325.52148 17537.87305
17334.0 0.0000577 17324.14648 17507.75586
17327.0 0.0000577 17322.77148 17490.99805
17512.0 0.0000571 17321.39453 17483.07617
17439.0 0.0000573 17320.01758 17482.39258
17572.0 0.0000569 17318.63867 17489.80859
17597.0 0.0000568 17317.25977 17508.72461
17668.0 0.0000566 17315.88086 17545.07227
17409.0 0.0000574 17314.50000 17606.81641
17723.0 0.0000564 17313.11719 17702.25586
17693.0 0.0000565 17311.73438 17836.69141
17947.0 0.0000557 17310.34961 18007.74414
17945.0 0.0000557 17308.96484 18199.38867
18089.0 0.0000553 17307.57813 18375.33789
18515.0 0.0000540 17306.19141 18474.36914
18659.0 0.0000536 17304.80273 18449.33789
18281.0 0.0000547 17303.41406 18312.05273
18371.0 0.0000544 17302.02344 18122.45508
18257.0 0.0000548 17300.63086 17930.11328
18104.0 0.0000552 17299.23633 17765.74805
17783.0 0.0000562 17297.84180 17639.78320
17738.0 0.0000564 17296.44531 17551.25000
17603.0 0.0000568 17295.04688 17493.17578
18013.0 0.0000555 17293.64844 17456.80469
17708.0 0.0000565 17292.24805 17434.33594
17391.0 0.0000575 17290.84570 17420.11328
17621.0 0.0000568 17289.44336 17410.80078
17509.0 0.0000571 17288.03711 17404.95508
17535.0 0.0000570 17286.63086 17402.50195
17534.0 0.0000570 17285.22266 17403.03516
17427.0 0.0000574 17283.81250 17406.86719
17651.0 0.0000567 17282.40039 17413.86133
17712.0 0.0000565 17280.98828 17423.41992
17603.0 0.0000568 17279.57422 17434.25781
17611.0 0.0000568 17278.15625 17444.27148
17511.0 0.0000571 17276.73828 17452.52148
17372.0 0.0000576 17275.31836 17460.19922
17505.0 0.0000571 17273.89648 17471.06250
17482.0 0.0000572 17272.47266 17490.36523
17609.0 0.0000568 17271.04492 17526.08203
17806.0 0.0000562 17269.61719 17592.00000
17883.0 0.0000559 17268.18750 17711.14844
18442.0 0.0000542 17266.75586 17916.82617
18840.0 0.0000531 17265.32227 18248.02148
19613.0 0.0000510 17263.88672 18729.03711
20275.0 0.0000493 17262.44922 19350.33008
21194.0 0.0000472 17261.00977 20034.93164
21636.0 0.0000462 17259.56836 20627.85352
21457.0 0.0000466 17258.12305 20932.00000
20994.0 0.0000476 17256.67773 20807.06641
20135.0 0.0000497 17255.22852 20310.46289
19005.0 0.0000526 17253.77734 19663.83789
18546.0 0.0000539 17252.32422 19065.64453
18391.0 0.0000544 17250.86914 18617.04688
17805.0 0.0000562 17249.41211 18336.66992
17895.0 0.0000559 17247.95313 18187.24609
17906.0 0.0000558 17246.49023 18103.05078
18067.0 0.0000553 17245.02539 18025.11914
17990.0 0.0000556 17243.55859 17934.28320
17741.0 0.0000564 17242.08984 17845.91406
17812.0 0.0000561 17240.61719 17780.86523
17417.0 0.0000574 17239.14258 17751.26367
17675.0 0.0000566 17237.66602 17759.05469
17886.0 0.0000559 17236.18555 17796.82031
17777.0 0.0000563 17234.70313 17849.32813
17803.0 0.0000562 17233.21875 17896.29297
17818.0 0.0000561 17231.73242 17916.68359
17891.0 0.0000559 17230.24219 17896.57813
18219.0 0.0000549 17228.75000 17836.41797
18075.0 0.0000553 17227.25391 17749.08594
17999.0 0.0000556 17225.75586 17651.29492
18043.0 0.0000554 17224.25586 17557.29297
18122.0 0.0000552 17222.75195 17478.80664
18046.0 0.0000554 17221.24609 17415.57031
17875.0 0.0000559 17219.73633 17369.88867
17837.0 0.0000561 17218.22461 17339.08203
17631.0 0.0000567 17216.71094 17319.42773
17458.0 0.0000573 17215.19336 17307.36719
17447.0 0.0000573 17213.67188 17300.12695
17217.0 0.0000581 17212.14844 17295.84766
17130.0 0.0000584 17210.62109 17293.44727
17619.0 0.0000568 17209.09180 17292.35156
17096.0 0.0000585 17207.56055 17292.32422
17424.0 0.0000574 17206.02539 17293.30859
17195.0 0.0000582 17204.48633 17295.34766
17095.0 0.0000585 17202.94531 17299.67578
17211.0 0.0000581 17201.40039 17304.37695
17352.0 0.0000576 17199.85156 17310.88477
17252.0 0.0000580 17198.30078 17319.84180
17032.0 0.0000587 17196.74805 17332.44922
17265.0 0.0000579 17195.18945 17351.00391
17220.0 0.0000581 17193.62891 17379.80664
17452.0 0.0000573 17192.06641 17426.27148
17494.0 0.0000572 17190.50000 17501.57813
17241.0 0.0000580 17188.92969 17619.89258
17747.0 0.0000563 17187.35547 17794.84180
17951.0 0.0000557 17185.77930 18033.91797
18212.0 0.0000549 17184.19922 18326.58984
18247.0 0.0000548 17182.61523 18638.26953
18618.0 0.0000537 17181.02930 18895.53320
18661.0 0.0000536 17179.43945 18998.80078
18667.0 0.0000536 17177.84570 18896.39063
18478.0 0.0000541 17176.24805 18643.06445
18287.0 0.0000547 17174.64844 18339.71094
18044.0 0.0000554 17173.04492 18060.76172
17502.0 0.0000571 17171.43750 17843.41016
17444.0 0.0000573 17169.82617 17698.88867
17602.0 0.0000568 17168.21289 17622.10352
17658.0 0.0000566 17166.59570 17598.66602
17572.0 0.0000569 17164.97461 17609.35547
17678.0 0.0000566 17163.34961 17631.56445
17696.0 0.0000565 17161.72070 17640.97461
17900.0 0.0000559 17160.08789 17622.44141
17871.0 0.0000560 17158.45313 17581.64453
17546.0 0.0000570 17156.81250 17535.49805
17731.0 0.0000564 17155.16992 17498.19922
17792.0 0.0000562 17153.52344 17478.98242
17743.0 0.0000564 17151.87305 17482.97266
17620.0 0.0000568 17150.21875 17517.20703
17666.0 0.0000566 17148.56055 17591.67773
17542.0 0.0000570 17146.90039 17721.19531
17925.0 0.0000558 17145.23438 17923.34180
17862.0 0.0000560 17143.56641 18211.99609
18291.0 0.0000547 17141.89258 18586.51953
18568.0 0.0000539 17140.21680 19018.17578
19044.0 0.0000525 17138.53711 19436.78320
19449.0 0.0000514 17136.85156 19740.04883
19800.0 0.0000505 17135.16406 19818.17578
20007.0 0.0000500 17133.47266 19638.12695
19689.0 0.0000508 17131.77539 19277.16211
19343.0 0.0000517 17130.07617 18853.76953
18740.0 0.0000534 17128.37305 18457.09375
18127.0 0.0000552 17126.66602 18129.99219
17833.0 0.0000561 17124.95508 17881.28711
17670.0 0.0000566 17123.23828 17701.80859
17605.0 0.0000568 17121.51953 17576.34766
17717.0 0.0000564 17119.79688 17490.12695
17542.0 0.0000570 17118.06836 17431.38086
17424.0 0.0000574 17116.33789 17391.72852
17333.0 0.0000577 17114.60156 17367.54883
17681.0 0.0000566 17112.86328 17351.20508
17424.0 0.0000574 17111.11914 17342.54883
17560.0 0.0000569 17109.37305 17340.10352
17141.0 0.0000583 17107.62109 17343.63672
17251.0 0.0000580 17105.86523 17353.75195
17160.0 0.0000583 17104.10742 17372.55664
17235.0 0.0000580 17102.34375 17404.77539
17289.0 0.0000578 17100.57617 17459.66406
17299.0 0.0000578 17098.80273 17552.99609
17443.0 0.0000573 17097.02734 17707.58008
17994.0 0.0000556 17095.24805 17949.53125
18045.0 0.0000554 17093.46484 18299.09375
18395.0 0.0000544 17091.67578 18755.59766
19040.0 0.0000525 17089.88281 19279.66211
19472.0 0.0000514 17088.08594 19772.89453
19751.0 0.0000506 17086.28516 20076.48242
19426.0 0.0000515 17084.48047 20053.99609
19121.0 0.0000523 17082.67188 19733.94727
18751.0 0.0000533 17080.85938 19274.53711
18401.0 0.0000543 17079.04102 18817.73242
17952.0 0.0000557 17077.22070 18441.16211
18068.0 0.0000553 17075.39453 18175.93555
18075.0 0.0000553 17073.56445 18028.01172
18055.0 0.0000554 17071.73047 17992.29297
18116.0 0.0000552 17069.89063 18058.42188
18222.0 0.0000549 17068.04883 18208.40820
18141.0 0.0000551 17066.20117 18408.70898
18421.0 0.0000543 17064.34961 18599.09570
18668.0 0.0000536 17062.49414 18692.06641
18920.0 0.0000529 17060.63477 18624.13281
18649.0 0.0000536 17058.77148 18419.03125
18509.0 0.0000540 17056.90234 18166.50586
18041.0 0.0000554 17055.02930 17942.52930
17828.0 0.0000561 17053.15234 17791.05273
17804.0 0.0000562 17051.27148 17730.25977
17681.0 0.0000566 17049.38672 17758.45117
17909.0 0.0000558 17047.49609 17857.39258
17908.0 0.0000558 17045.60156 17992.44141
18152.0 0.0000551 17043.70313 18109.67773
18355.0 0.0000545 17041.80078 18145.01563
18331.0 0.0000546 17039.89453 18069.16797
18296.0 0.0000547 17037.98242 17914.12695
17989.0 0.0000556 17036.06641 17735.02734
17765.0 0.0000563 17034.14648 17569.38477
17708.0 0.0000565 17032.22266 17434.27539
17452.0 0.0000573 17030.29297 17333.43750
17423.0 0.0000574 17028.36133 17262.74609
17332.0 0.0000577 17026.42383 17214.99023
17040.0 0.0000587 17024.48242 17183.21875
17054.0 0.0000586 17022.53516 17162.34375
16868.0 0.0000593 17020.58594 17149.10742
17128.0 0.0000584 17018.63086 17141.74609
16963.0 0.0000590 17016.67188 17137.66797
17055.0 0.0000586 17014.70898 17135.20313
16943.0 0.0000590 17012.74219 17131.84375
16735.0 0.0000598 17010.76953 17125.60938
16968.0 0.0000589 17008.79297 17116.64063
17047.0 0.0000587 17006.81250 17106.74805
16896.0 0.0000592 17004.82813 17097.54492
16920.0 0.0000591 17002.83789 17089.90820
16814.0 0.0000595 17000.84570 17084.12109
16960.0 0.0000590 16998.84766 17080.11133
16970.0 0.0000589 16996.84375 17077.63281
16781.0 0.0000596 16994.83789 17076.43555
17045.0 0.0000587 16992.82813 17076.34570
16911.0 0.0000591 16990.81250 17077.69531
17062.0 0.0000586 16988.79297 17079.72852
17064.0 0.0000586 16986.76953 17082.98242
17111.0 0.0000584 16984.74023 17087.68164
17014.0 0.0000588 16982.70898 17094.22266
17026.0 0.0000587 16980.67188 17103.20117
17221.0 0.0000581 16978.63086 17115.72070
16989.0 0.0000589 16976.58594 17133.94141
16841.0 0.0000594 16974.53516 17161.99219
16984.0 0.0000589 16972.48242 17207.50000
17163.0 0.0000583 16970.42383 17282.94531
17450.0 0.0000573 16968.36133 17405.83008
17581.0 0.0000569 16966.29492 17595.72656
17518.0 0.0000571 16964.22461 17867.05273
17894.0 0.0000559 16962.14844 18218.27148
18258.0 0.0000548 16960.07031 18618.50977
18658.0 0.0000536 16957.98633 18991.86133
19134.0 0.0000523 16955.89844 19213.21484
19302.0 0.0000518 16953.80664 19175.40039
19212.0 0.0000521 16951.70898 18897.58984
18581.0 0.0000538 16949.60938 18504.34766
18001.0 0.0000556 16947.50586 18109.95703
17880.0 0.0000559 16945.39648 17776.81250
17507.0 0.0000571 16943.28320 17527.39063
17612.0 0.0000568 16941.16602 17355.72852
17277.0 0.0000579 16939.04492 17246.30078
17247.0 0.0000580 16936.91797 17179.66211
17295.0 0.0000578 16934.78906 17139.67578
17292.0 0.0000578 16932.65625 17115.44531
17368.0 0.0000576 16930.51758 17100.72656
17595.0 0.0000568 16928.37500 17092.53906
17770.0 0.0000563 16926.22852 17089.93750
17625.0 0.0000567 16924.07813 17094.01172
17658.0 0.0000566 16921.92383 17105.10547
17583.0 0.0000569 16919.76563 17126.79492
17399.0 0.0000575 16917.60352 17163.23438
17229.0 0.0000580 16915.43750 17219.60156
17462.0 0.0000573 16913.26758 17301.22070
17007.0 0.0000588 16911.09180 17412.00781
17228.0 0.0000580 16908.91406 17552.16797
17514.0 0.0000571 16906.73047 17714.86719
17564.0 0.0000569 16904.54492 17882.55664
17699.0 0.0000565 16902.35352 18025.82031
17598.0 0.0000568 16900.15820 18111.66797
17936.0 0.0000558 16897.96094 18121.12500
17648.0 0.0000567 16895.75781 18059.24414
17679.0 0.0000566 16893.55273 17948.88477
17132.0 0.0000584 16891.34180 17814.70898
17296.0 0.0000578 16889.12695 17678.83984
17291.0 0.0000578 16886.91016 17554.87305
17306.0 0.0000578 16884.68750 17450.60156
17063.0 0.0000586 16882.46094 17372.63477
17086.0 0.0000585 16880.23242 17328.91602
17199.0 0.0000581 16877.99805 17324.84766
17295.0 0.0000578 16875.76172 17356.81055
17346.0 0.0000577 16873.52148 17406.62891
17356.0 0.0000576 16871.27539 17444.20313
17607.0 0.0000568 16869.02734 17437.52148
17318.0 0.0000577 16866.77539 17376.21875
17121.0 0.0000584 16864.51953 17277.82422
17204.0 0.0000581 16862.25977 17175.84180
16972.0 0.0000589 16859.99609 17091.57617
17184.0 0.0000582 16857.72852 17032.74805
16768.0 0.0000596 16855.45898 16997.46680
16910.0 0.0000591 16853.18359 16979.44141
17183.0 0.0000582 16850.90625 16972.25781
16983.0 0.0000589 16848.62500 16971.18945
16760.0 0.0000597 16846.33984 16973.04102
17044.0 0.0000587 16844.05078 16975.45117
17445.0 0.0000573 16841.75781 16976.66211
16922.0 0.0000591 16839.46289 16975.96094
17199.0 0.0000581 16837.16406 16973.33398
17202.0 0.0000581 16834.86133 16970.17578
17142.0 0.0000583 16832.55469 16965.14844
17008.0 0.0000588 16830.24414 16961.41602
17127.0 0.0000584 16827.93164 16961.65820
17011.0 0.0000588 16825.61523 16968.70703
17166.0 0.0000583 16823.29492 16985.97461
17145.0 0.0000583 16820.97266 17018.34180
17056.0 0.0000586 16818.64453 17066.41602
17098.0 0.0000585 16816.31445 17132.26758
17176.0 0.0000582 16813.98242 17212.47266
17183.0 0.0000582 16811.64453 17296.36719
17181.0 0.0000582 16809.30469 17363.08789
17339.0 0.0000577 16806.96289 17386.19922
17364.0 0.0000576 16804.61719 17354.16016
17518.0 0.0000571 16802.26758 17283.13867
17395.0 0.0000575 16799.91406 17199.80273
17284.0 0.0000579 16797.55859 17123.15234
17311.0 0.0000578 16795.20117 17062.46875
17110.0 0.0000584 16792.83789 17020.77539
17315.0 0.0000578 16790.47266 16997.83984
17116.0 0.0000584 16788.10547 16992.66016
16893.0 0.0000592 16785.73438 17005.23047
17194.0 0.0000582 16783.35938 17037.11719
17058.0 0.0000586 16780.98438 17091.03711
16961.0 0.0000590 16778.60352 17168.89063
17160.0 0.0000583 16776.22070 17268.80469
17141.0 0.0000583 16773.83398 17381.60742
17485.0 0.0000572 16771.44531 17490.49609
17410.0 0.0000574 16769.05469 17576.33984
17558.0 0.0000570 16766.66016 17622.22070
17437.0 0.0000573 16764.26367 17622.40625
17596.0 0.0000568 16761.86328 17591.71094
17863.0 0.0000560 16759.46094 17547.04688
18017.0 0.0000555 16757.05469 17491.68164
17995.0 0.0000556 16754.64648 17426.19531
18245.0 0.0000548 16752.23633 17364.39258
18125.0 0.0000552 16749.82227 17325.13867
18009.0 0.0000555 16747.40625 17320.89063
18239.0 0.0000548 16744.98828 17357.00195
18115.0 0.0000552 16742.56641 17433.76563
18608.0 0.0000537 16740.14258 17546.17969
18502.0 0.0000540 16737.71680 17679.72070
18283.0 0.0000547 16735.28906 17804.55078
18242.0 0.0000548 16732.85742 17879.36328
18054.0 0.0000554 16730.42383 17881.73438
18008.0 0.0000555 16727.98828 17833.02734
17778.0 0.0000562 16725.54883 17770.77148
17662.0 0.0000566 16723.10742 17715.28320
17405.0 0.0000575 16720.66602 17669.58594
17434.0 0.0000574 16718.22070 17634.89453
17404.0 0.0000575 16715.77344 17614.99805
17383.0 0.0000575 16713.32227 17609.89258
17105.0 0.0000585 16710.87109 17616.83008
17467.0 0.0000573 16708.41602 17635.55273
17222.0 0.0000581 16705.96094 17667.57227
17415.0 0.0000574 16703.50195 17725.23242
17321.0 0.0000577 16701.04297 17813.37305
17486.0 0.0000572 16698.58008 17937.08398
17527.0 0.0000571 16696.11523 18097.62500
18068.0 0.0000553 16693.64844 18290.54297
18019.0 0.0000555 16691.17969 18503.74023
18736.0 0.0000534 16688.70898 18717.80664
19245.0 0.0000520 16686.23828 18912.67578
19830.0 0.0000504 16683.76367 19083.45898
20310.0 0.0000492 16681.28711 19248.47266
20490.0 0.0000488 16678.81055 19446.63477
20180.0 0.0000496 16676.33008 19703.47070
20225.0 0.0000494 16673.84961 19997.47461
20124.0 0.0000497 16671.36719 20238.11133
20252.0 0.0000494 16668.88086 20297.86719
20386.0 0.0000491 16666.39453 20127.96484
20385.0 0.0000491 16663.90820 19792.40820
19689.0 0.0000508 16661.41797 19362.16602
19013.0 0.0000526 16658.92773 18882.57227
18230.0 0.0000549 16656.43359 18412.57617
17826.0 0.0000561 16653.93945 18006.91406
17584.0 0.0000569 16651.44531 17688.99219
17674.0 0.0000566 16648.94727 17456.29688
17559.0 0.0000570 16646.44922 17295.24023
17442.0 0.0000573 16643.94922 17190.29883
17347.0 0.0000576 16641.44922 17128.76563
17294.0 0.0000578 16638.94727 17103.40234
17497.0 0.0000572 16636.44336 17113.79883
17516.0 0.0000571 16633.93945 17165.98242
17301.0 0.0000578 16631.43164 17269.32227
17776.0 0.0000563 16628.92578 17430.73438
17536.0 0.0000570 16626.41797 17646.54688
17717.0 0.0000564 16623.90820 17893.21289
18003.0 0.0000555 16621.39648 18116.94727
18138.0 0.0000551 16618.88477 18234.75000
18590.0 0.0000538 16616.37305 18184.55664
18395.0 0.0000544 16613.85938 17992.56445
18397.0 0.0000544 16611.34570 17743.55859
18124.0 0.0000552 16608.83008 17508.79883
17821.0 0.0000561 16606.31445 17325.79297
17498.0 0.0000571 16603.79688 17205.96484
17488.0 0.0000572 16601.27930 17144.15820
17437.0 0.0000573 16598.76172 17125.09570
17197.0 0.0000581 16596.24219 17131.57422
16990.0 0.0000589 16593.72266 17147.20703
17097.0 0.0000585 16591.20117 17158.72070
17225.0 0.0000581 16588.68164 17158.47461
17138.0 0.0000583 16586.15820 17146.12500
17321.0 0.0000577 16583.63672 17127.47852
17230.0 0.0000580 16581.11328 17112.83594
17638.0 0.0000567 16578.58984 17112.33789
17355.0 0.0000576 16576.06641 17136.30469
17288.0 0.0000578 16573.54297 17195.69141
17091.0 0.0000585 16571.01758 17294.77734
17354.0 0.0000576 16568.49414 17439.49023
17534.0 0.0000570 16565.96875 17628.99805
17717.0 0.0000564 16563.44141 17853.95898
17827.0 0.0000561 16560.91602 18089.88086
18064.0 0.0000554 16558.39063 18294.37109
18570.0 0.0000539 16555.86328 18420.48242
18713.0 0.0000534 16553.33789 18453.99414
18505.0 0.0000540 16550.81250 18428.92188
18401.0 0.0000543 16548.28516 18394.87500
18123.0 0.0000552 16545.75781 18382.40234
18019.0 0.0000555 16543.23242 18394.44531
18000.0 0.0000556 16540.70508 18411.57813
18269.0 0.0000547 16538.17969 18402.88281
18145.0 0.0000551 16535.65234 18341.88281
18174.0 0.0000550 16533.12695 18220.34375
17948.0 0.0000557 16530.59961 18050.38281
17749.0 0.0000563 16528.07422 17855.34180
17460.0 0.0000573 16525.54883 17657.09570
17297.0 0.0000578 16523.02344 17472.50781
16986.0 0.0000589 16520.49805 17311.66016
16849.0 0.0000594 16517.97266 17179.38867
16729.0 0.0000598 16515.44922 17076.25586
16876.0 0.0000593 16512.92578 16999.04883
16561.0 0.0000604 16510.40234 16941.34961
16585.0 0.0000603 16507.87891 16894.30078
16561.0 0.0000604 16505.35547 16849.92188
16697.0 0.0000599 16502.83398 16805.99023
16523.0 0.0000605 16500.31250 16765.01172
16670.0 0.0000600 16497.79102 16729.64844
16666.0 0.0000600 16495.27148 16700.78125
16597.0 0.0000603 16492.75195 16678.25391
16492.0 0.0000606 16490.23242 16661.02148
16365.0 0.0000611 16487.71484 16647.86914
16481.0 0.0000607 16485.19727 16637.78516
16465.0 0.0000607 16482.68164 16630.18945
16588.0 0.0000603 16480.16602 16624.98633
16693.0 0.0000599 16477.65039 16622.65039
16518.0 0.0000605 16475.13672 16624.40234
16620.0 0.0000602 16472.62305 16632.45703
16553.0 0.0000604 16470.11133 16650.10938
16766.0 0.0000596 16467.60156 16681.32813
16684.0 0.0000599 16465.09180 16730.44336
16788.0 0.0000596 16462.58203 16796.24414
16977.0 0.0000589 16460.07422 16875.32422
16999.0 0.0000588 16457.56836 16955.05664
17181.0 0.0000582 16455.06250 17012.46094
17008.0 0.0000588 16452.55859 17022.96094
16915.0 0.0000591 16450.05664 16983.48047
17097.0 0.0000585 16447.55469 16916.92773
16671.0 0.0000600 16445.05273 16849.34766
16623.0 0.0000602 16442.55469 16796.25586
16736.0 0.0000598 16440.05664 16762.68164
16761.0 0.0000597 16437.56055 16746.32813
16602.0 0.0000602 16435.06641 16740.61328
16675.0 0.0000600 16432.57227 16737.04688
16701.0 0.0000599 16430.08008 16727.27148
16807.0 0.0000595 16427.58984 16707.69336
16661.0 0.0000600 16425.10156 16681.66406
16791.0 0.0000596 16422.61328 16655.30664
16811.0 0.0000595 16420.12891 16633.08398
16736.0 0.0000598 16417.64453 16616.97266
16413.0 0.0000609 16415.16211 16607.11719
16581.0 0.0000603 16412.68164 16602.41211
16573.0 0.0000603 16410.20313 16600.88281
16854.0 0.0000593 16407.72656 16600.18164
16919.0 0.0000591 16405.25000 16598.53125
16918.0 0.0000591 16402.77734 16595.45508
17024.0 0.0000587 16400.30664 16591.73047
16937.0 0.0000590 16397.83594 16588.65625
16947.0 0.0000590 16395.36914 16587.22461
16687.0 0.0000599 16392.90234 16588.07813
16834.0 0.0000594 16390.43945 16591.64648
16543.0 0.0000604 16387.97852 16598.24219
16577.0 0.0000603 16385.51758 16608.89063
16611.0 0.0000602 16383.06055 16625.36523
16655.0 0.0000600 16380.60449 16650.50000
16578.0 0.0000603 16378.15137 16688.62500
16697.0 0.0000599 16375.70020 16745.82031
16676.0 0.0000600 16373.25098 16830.03711
16753.0 0.0000597 16370.80469 16950.46680
16972.0 0.0000589 16368.35938 17115.57617
17018.0 0.0000588 16365.91797 17331.32227
17366.0 0.0000576 16363.47754 17594.95117
17461.0 0.0000573 16361.04004 17889.33594
17808.0 0.0000562 16358.60449 18173.38867
18151.0 0.0000551 16356.17188 18379.47656
18378.0 0.0000544 16353.74121 18442.00195
18175.0 0.0000550 16351.31348 18353.38477
18188.0 0.0000550 16348.88770 18173.33008
18067.0 0.0000553 16346.46484 17980.97852
17563.0 0.0000569 16344.04492 17838.61523
17263.0 0.0000579 16341.62598 17783.72266
17476.0 0.0000572 16339.21094 17829.33398
17163.0 0.0000583 16336.79785 17964.05273
17490.0 0.0000572 16334.38770 18148.21094
17610.0 0.0000568 16331.98047 18307.71289
17755.0 0.0000563 16329.57520 18348.41992
17925.0 0.0000558 16327.17285 18218.89844
17680.0 0.0000566 16324.77344 17957.68555
17283.0 0.0000579 16322.37695 17647.25391
17303.0 0.0000578 16319.98340 17351.45313
17174.0 0.0000582 16317.59180 17102.40625
16865.0 0.0000593 16315.20313 16910.14258
16792.0 0.0000596 16312.81738 16771.88281
16774.0 0.0000596 16310.43457 16678.54102
16754.0 0.0000597 16308.05469 16619.97266
16614.0 0.0000602 16305.67871 16587.76758
16613.0 0.0000602 16303.30469 16577.04102
16538.0 0.0000605 16300.93359 16586.06250
16442.0 0.0000608 16298.56543 16614.78516
16732.0 0.0000598 16296.20020 16662.90039
16606.0 0.0000602 16293.83887 16727.02930
16644.0 0.0000601 16291.47949 16798.41016
16756.0 0.0000597 16289.12402 16858.27930
17013.0 0.0000588 16286.77148 16880.00000
16943.0 0.0000590 16284.42188 16847.77539
16903.0 0.0000592 16282.07520 16774.12305
16824.0 0.0000594 16279.73145 16685.90625
16573.0 0.0000603 16277.39063 16603.97461
16436.0 0.0000608 16275.05371 16539.12695
16453.0 0.0000608 16272.71973 16495.01563
16320.0 0.0000613 16270.38965 16470.77734
16420.0 0.0000609 16268.06250 16462.92383
16426.0 0.0000609 16265.73828 16466.56836
16478.0 0.0000607 16263.41699 16473.95703
16644.0 0.0000601 16261.09961 16481.50000
16387.0 0.0000610 16258.78516 16481.08984
16355.0 0.0000611 16256.47461 16472.10156
16522.0 0.0000605 16254.16699 16460.12109
16369.0 0.0000611 16251.86230 16452.28320
16467.0 0.0000607 16249.56152 16454.91406
16535.0 0.0000605 16247.26465 16474.08789
16608.0 0.0000602 16244.96973 16516.49609
16589.0 0.0000603 16242.67969 16589.19531
16534.0 0.0000605 16240.39160 16697.99414
16740.0 0.0000597 16238.10840 16845.20898
16848.0 0.0000594 16235.82910 17022.81641
16934.0 0.0000591 16233.55176 17211.27930
17206.0 0.0000581 16231.27930 17369.21484
17606.0 0.0000568 16229.00879 17438.61133
17396.0 0.0000575 16226.74316 17383.83008
17368.0 0.0000576 16224.47949 17229.46289
17067.0 0.0000586 16222.22168 17033.79297
16995.0 0.0000588 16219.96582 16843.75000
16708.0 0.0000599 16217.71387 16683.72852
16582.0 0.0000603 16215.46582 16562.07422
16308.0 0.0000613 16213.22070 16477.54883
16509.0 0.0000606 16210.98047 16424.01367
16311.0 0.0000613 16208.74219 16393.78906
16455.0 0.0000608 16206.50879 16379.65332
16387.0 0.0000610 16204.27832 16375.77051
16192.0 0.0000618 16202.05273 16377.51270
16316.0 0.0000613 16199.83008 16381.10547
16428.0 0.0000609 16197.61035 16383.31738
16244.0 0.0000616 16195.39551 16381.71191
16380.0 0.0000611 16193.18359 16375.32422
16100.0 0.0000621 16190.97656 16364.98633
16193.0 0.0000618 16188.77148 16352.78125
16246.0 0.0000616 16186.57129 16341.07715
15999.0 0.0000625 16184.37402 16331.91016
16188.0 0.0000618 16182.18164 16326.67773
16210.0 0.0000617 16179.99316 16325.98926
16264.0 0.0000615 16177.80664 16329.48926
16271.0 0.0000615 16175.62598 16335.90332
16059.0 0.0000623 16173.44727 16343.32715
16221.0 0.0000616 16171.27344 16349.99512
16375.0 0.0000611 16169.10352 16354.95215
16242.0 0.0000616 16166.93652 16357.46094
16247.0 0.0000615 16164.77441 16355.69141
16398.0 0.0000610 16162.61523 16346.78027
16113.0 0.0000621 16160.46094 16329.95703
15986.0 0.0000626 16158.30859 16308.64258
16320.0 0.0000613 16156.16211 16287.67969
16219.0 0.0000617 16154.01758 16270.15332
16159.0 0.0000619 16151.87891 16256.89844
16054.0 0.0000623 16149.74219 16246.64551
16268.0 0.0000615 16147.61035 16237.13574
16373.0 0.0000611 16145.48242 16226.96484
16068.0 0.0000622 16143.35840 16214.42773
16045.0 0.0000623 16141.23828 16201.91113
16208.0 0.0000617 16139.12109 16190.63867
16400.0 0.0000610 16137.00879 16181.15332
16332.0 0.0000612 16134.89941 16173.49512
15978.0 0.0000626 16132.79395 16165.30762
16107.0 0.0000621 16130.69238 16160.43945
16129.0 0.0000620 16128.59570 16156.39355
16276.0 0.0000614 16126.50195 16152.89258
16234.0 0.0000616 16124.41211 16149.77637
16214.0 0.0000617 16122.32715 16146.95508
16151.0 0.0000619 16120.24414 16144.43359
15993.0 0.0000625 16118.16699 16142.25098
16256.0 0.0000615 16116.09180 16140.46484
16214.0 0.0000617 16114.02148 16139.09668
16175.0 0.0000618 16111.95508 16138.39746
16069.0 0.0000622 16109.89258 16137.51465
16197.0 0.0000617 16107.83398 16136.38770
16034.0 0.0000624 16105.77832 16134.66992
16138.0 0.0000620 16103.72754 16132.44531
16247.0 0.0000615 16101.67969 16130.28711
16081.0 0.0000622 16099.63672 16128.61523
16282.0 0.0000614 16097.59570 16127.86914
16111.0 0.0000621 16095.56055 16128.28809
15978.0 0.0000626 16093.52832 16129.96484
16050.0 0.0000623 16091.50000 16132.90918
16054.0 0.0000623 16089.47559 16136.63672
16238.0 0.0000616 16087.45410 16140.52930
16101.0 0.0000621 16085.43750 16143.56250
16135.0 0.0000620 16083.42383 16144.65234
16145.0 0.0000619 16081.41504 16143.07715
16055.0 0.0000623 16079.40918 16138.84473
16123.0 0.0000620 16077.40723 16132.92969
16062.0 0.0000623 16075.40918 16126.68652
15896.0 0.0000629 16073.41504 16121.15820
16159.0 0.0000619 16071.42480 16116.87598
16249.0 0.0000615 16069.43750 16114.11816
16310.0 0.0000613 16067.45410 16112.52051
16024.0 0.0000624 16065.47461 16111.98438
16428.0 0.0000609 16063.49902 16112.21094
16337.0 0.0000612 16061.52637 16113.06738
16201.0 0.0000617 16059.55762 16114.80469
16310.0 0.0000613 16057.59375 16118.06348
15974.0 0.0000626 16055.63184 16124.24902
16258.0 0.0000615 16053.67480 16136.64648
16512.0 0.0000606 16051.72070 16162.22852
16501.0 0.0000606 16049.77051 16212.85254
16612.0 0.0000602 16047.82324 16302.83594
16712.0 0.0000598 16045.88086 16440.27148
17066.0 0.0000586 16043.94141 16615.53711
17100.0 0.0000585 16042.00488 16797.03711
16988.0 0.0000589 16040.07324 16944.35938
16918.0 0.0000591 16038.14355 17037.26953
17082.0 0.0000585 16036.21875 17086.11328
17198.0 0.0000581 16034.29688 17099.03516
17277.0 0.0000579 16032.37891 17059.71680
17299.0 0.0000578 16030.46289 16953.87500
16985.0 0.0000589 16028.55176 16799.73047
16895.0 0.0000592 16026.64453 16635.43555
16420.0 0.0000609 16024.73926 16486.50000
16223.0 0.0000616 16022.83887 16365.86133
16105.0 0.0000621 16020.94043 16276.62500
16215.0 0.0000617 16019.04688 16215.72852
16297.0 0.0000614 16017.15527 16177.05371
16254.0 0.0000615 16015.26855 16154.71387
16185.0 0.0000618 16013.38477 16141.68359
15949.0 0.0000627 16011.50293 16134.35742
16390.0 0.0000610 16009.62598 16129.17773
16222.0 0.0000616 16007.75098 16123.02344
16059.0 0.0000623 16005.88086 16114.37891
16046.0 0.0000623 16004.01270 16104.27246
16228.0 0.0000616 16002.14844 16094.89063
16363.0 0.0000611 16000.28613 16087.93359
16386.0 0.0000610 15998.42871 16084.36328
16452.0 0.0000608 15996.57422 16084.65918
16228.0 0.0000616 15994.72168 16089.01367
16198.0 0.0000617 15992.87305 16097.46094
16143.0 0.0000619 15991.02734 16109.92090
16363.0 0.0000611 15989.18555 16126.24316
16283.0 0.0000614 15987.34570 16145.33887
16161.0 0.0000619 15985.50977 16165.65332
16137.0 0.0000620 15983.67578 16184.16992
16078.0 0.0000622 15981.84570 16196.99414
16397.0 0.0000610 15980.01855 16201.01563
16571.0 0.0000603 15978.19336 16195.89648
16403.0 0.0000610 15976.37207 16184.79102
16466.0 0.0000607 15974.55371 16172.04492
16366.0 0.0000611 15972.73828 16162.64844
16403.0 0.0000610 15970.92480 16161.09766
16540.0 0.0000605 15969.11523 16172.47852
16191.0 0.0000618 15967.30859 16202.46191
16290.0 0.0000614 15965.50391 16258.21582
16314.0 0.0000613 15963.70215 16346.35254
16198.0 0.0000617 15961.90332 16470.36133
16429.0 0.0000609 15960.10742 16626.72656
16620.0 0.0000602 15958.31348 16799.71680
16935.0 0.0000590 15956.52344 16954.59570
17123.0 0.0000584 15954.73535 17038.36523
17226.0 0.0000581 15952.95020 17010.13086
17350.0 0.0000576 15951.16699 16882.08398
17096.0 0.0000585 15949.38672 16705.75781
16709.0 0.0000598 15947.60938 16527.75195
16344.0 0.0000612 15945.83398 16373.73730
16627.0 0.0000601 15944.06152 16253.18848
16218.0 0.0000617 15942.29102 16165.72363
16092.0 0.0000621 15940.52344 16105.77539
16168.0 0.0000619 15938.75781 16066.04004
15896.0 0.0000629 15936.99512 16039.83789
16096.0 0.0000621 15935.23438 16022.20117
15908.0 0.0000629 15933.47559 16010.03418
16084.0 0.0000622 15931.72070 16001.59961
15986.0 0.0000626 15929.96582 15996.25000
15938.0 0.0000627 15928.21484 15993.87402
15724.0 0.0000636 15926.46582 15994.51074
15991.0 0.0000625 15924.71875 15998.05469
15867.0 0.0000630 15922.97461 16003.85254
16037.0 0.0000624 15921.23145 16010.31836
16169.0 0.0000618 15919.49121 16014.54883
15959.0 0.0000627 15917.75195 16013.10742
16168.0 0.0000619 15916.01563 16004.79102
15829.0 0.0000632 15914.28125 15991.91211
16033.0 0.0000624 15912.54883 15977.84668
15979.0 0.0000626 15910.81836 15964.88281
16000.0 0.0000625 15909.08984 15954.06934
16093.0 0.0000621 15907.36328 15945.65527
15809.0 0.0000633 15905.63867 15939.44336
16011.0 0.0000625 15903.91602 15935.08203
15900.0 0.0000629 15902.19434 15932.26074
15885.0 0.0000630 15900.47559 15931.40137
16120.0 0.0000620 15898.75781 15931.30273
15827.0 0.0000632 15897.04199 15932.63867
15921.0 0.0000628 15895.32813 15935.46582
15815.0 0.0000632 15893.61523 15939.72656
15902.0 0.0000629 15891.90527 15945.13770
16024.0 0.0000624 15890.19531 15951.13477
15711.0 0.0000636 15888.48828 15956.86719
16021.0 0.0000624 15886.78125 15961.27539
15850.0 0.0000631 15885.07715 15963.36914
15766.0 0.0000634 15883.37402 15962.18652
15751.0 0.0000635 15881.67285 15957.76953
15570.0 0.0000642 15879.97266 15950.85156
15890.0 0.0000629 15878.27344 15942.54785
16011.0 0.0000625 15876.57617 15934.05664
15796.0 0.0000633 15874.87988 15926.44727
15986.0 0.0000626 15873.18457 15920.66406
15931.0 0.0000628 15871.49121 15917.56934
15702.0 0.0000637 15869.79883 15918.03125
16008.0 0.0000625 15868.10742 15922.88184
15920.0 0.0000628 15866.41797 15932.75586
15888.0 0.0000629 15864.72852 15947.69531
15858.0 0.0000631 15863.04102 15966.63477
15932.0 0.0000628 15861.35449 15986.63086
16031.0 0.0000624 15859.66797 16002.12598
16014.0 0.0000624 15857.98340 16006.21387
16013.0 0.0000624 15856.29980 15996.06250
16015.0 0.0000624 15854.61719 15976.00781
15612.0 0.0000641 15852.93457 15952.91113
15697.0 0.0000637 15851.25391 15930.75000
15690.0 0.0000637 15849.57422 15913.35449
15684.0 0.0000638 15847.89355 15900.45508
15860.0 0.0000631 15846.21582 15891.59082
15856.0 0.0000631 15844.53711 15885.86719
15898.0 0.0000629 15842.86035 15882.39453
15657.0 0.0000639 15841.18359 15880.46191
16230.0 0.0000616 15839.50781 15879.68164
15916.0 0.0000628 15837.83301 15879.93359
15807.0 0.0000633 15836.15723 15881.37109
15883.0 0.0000630 15834.48340 15884.42090
15803.0 0.0000633 15832.80957 15889.81641
15889.0 0.0000629 15831.13672 15898.53613
15913.0 0.0000628 15829.46387 15911.67285
15842.0 0.0000631 15827.79102 15930.13672
15587.0 0.0000642 15826.11914 15954.21973
15889.0 0.0000629 15824.44727 15983.04980
16089.0 0.0000622 15822.77637 16013.79492
16096.0 0.0000621 15821.10547 16041.02344
15980.0 0.0000626 15819.43457 16058.62891
15968.0 0.0000626 15817.76367 16065.95117
16158.0 0.0000619 15816.09375 16070.72363
16056.0 0.0000623 15814.42285 16082.92969
15986.0 0.0000626 15812.75293 16108.96777
16045.0 0.0000623 15811.08203 16149.22461
15902.0 0.0000629 15809.41309 16196.91504
16255.0 0.0000615 15807.74316 16238.20703
16014.0 0.0000624 15806.07227 16260.35645
16179.0 0.0000618 15804.40234 16261.47461
16274.0 0.0000614 15802.73242 16245.40625
16050.0 0.0000623 15801.06152 16211.39355
15937.0 0.0000627 15799.39160 16159.64551
16193.0 0.0000618 15797.72070 16099.22070
16129.0 0.0000620 15796.04980 16042.06348
15891.0 0.0000629 15794.37891 15995.63379
15852.0 0.0000631 15792.70801 15962.66309
16063.0 0.0000623 15791.03516 15943.05664
15855.0 0.0000631 15789.36328 15935.16797
15920.0 0.0000628 15787.69141 15936.41797
15891.0 0.0000629 15786.01855 15943.60156
15913.0 0.0000628 15784.34473 15953.17773
15815.0 0.0000632 15782.67090 15962.58984
15761.0 0.0000634 15780.99707 15972.14551
15841.0 0.0000631 15779.32227 15984.58594
16078.0 0.0000622 15777.64746 16002.52734
16293.0 0.0000614 15775.97070 16027.67969
16074.0 0.0000622 15774.29492 16060.80762
16348.0 0.0000612 15772.61719 16101.72363
16039.0 0.0000623 15770.93945 16149.21777
16421.0 0.0000609 15769.26074 16201.43848
16422.0 0.0000609 15767.58105 16257.16406
16608.0 0.0000602 15765.90137 16317.31055
16635.0 0.0000601 15764.21973 16384.85547
16657.0 0.0000600 15762.53906 16462.08789
16850.0 0.0000593 15760.85547 16546.89453
17076.0 0.0000586 15759.17188 16629.45313
17115.0 0.0000584 15757.48730 16691.52148
17064.0 0.0000586 15755.80176 16712.25781
16966.0 0.0000589 15754.11621 16681.29883
17136.0 0.0000584 15752.42773 16607.24805
16650.0 0.0000601 15750.74023 16511.15234
16561.0 0.0000604 15749.04980 16413.51953
16330.0 0.0000612 15747.35938 16327.67188
16277.0 0.0000614 15745.66699 16260.02832
16149.0 0.0000619 15743.97461 16212.34375
15940.0 0.0000627 15742.27930 16183.34961
15783.0 0.0000634 15740.58398 16169.64844
16021.0 0.0000624 15738.88770 16166.74121
16037.0 0.0000624 15737.18945 16170.06348
16171.0 0.0000618 15735.49023 16174.82129
16141.0 0.0000620 15733.78906 16175.28613
16127.0 0.0000620 15732.08789 16166.32520
16327.0 0.0000612 15730.38379 16146.49609
16115.0 0.0000621 15728.67871 16119.15918
16246.0 0.0000616 15726.97266 16090.31641
15853.0 0.0000631 15725.26465 16065.82227
16146.0 0.0000619 15723.55566 16049.58594
15941.0 0.0000627 15721.84473 16047.01660
16077.0 0.0000622 15720.13281 16061.00977
16015.0 0.0000624 15718.41797 16095.05566
16093.0 0.0000621 15716.70313 16152.24805
16173.0 0.0000618 15714.98535 16233.01367
16394.0 0.0000610 15713.26660 16332.66113
16637.0 0.0000601 15711.54590 16441.53125
16582.0 0.0000603 15709.82324 16538.03125
17223.0 0.0000581 15708.09961 16589.34570
16930.0 0.0000591 15706.37305 16568.38672
16685.0 0.0000599 15704.64648 16479.23633
16358.0 0.0000611 15702.91602 16353.17480
16464.0 0.0000607 15701.18555 16221.82227
16076.0 0.0000622 15699.45117 16103.96191
15994.0 0.0000625 15697.71680 16007.39063
16081.0 0.0000622 15695.98047 15933.19629
15860.0 0.0000631 15694.24121 15878.79590
15775.0 0.0000634 15692.50000 15839.99414
16035.0 0.0000624 15690.75684 15813.01465
15862.0 0.0000630 15689.01270 15793.09375
15716.0 0.0000636 15687.26465 15778.26855
16126.0 0.0000620 15685.51660 15766.53906
16003.0 0.0000625 15683.76465 15756.96094
16180.0 0.0000618 15682.01172 15748.88574
15941.0 0.0000627 15680.25684 15741.90723
15999.0 0.0000625 15678.49902 15735.72266
16012.0 0.0000625 15676.74023 15730.11426
15784.0 0.0000634 15674.97754 15724.93066
15692.0 0.0000637 15673.21387 15720.13379
15624.0 0.0000640 15671.44727 15716.54688
15861.0 0.0000630 15669.67969 15712.54004
15746.0 0.0000635 15667.90918 15708.93164
15832.0 0.0000632 15666.13574 15705.69434
15666.0 0.0000638 15664.36035 15702.81250
15985.0 0.0000626 15662.58301 15700.25781
15814.0 0.0000632 15660.80273 15697.99121
15758.0 0.0000635 15659.02051 15695.93066
15659.0 0.0000639 15657.23535 15693.96582
15711.0 0.0000636 15655.44824 15691.93262
15587.0 0.0000642 15653.65918 15689.65918
15818.0 0.0000632 15651.86719 15687.04199
15726.0 0.0000636 15650.07227 15684.10840
15597.0 0.0000641 15648.27539 15681.00684
15484.0 0.0000646 15646.47559 15677.88770
15783.0 0.0000634 15644.67383 15674.98633
15640.0 0.0000639 15642.86914 15672.15234
15807.0 0.0000633 15641.06250 15669.52051
15793.0 0.0000633 15639.25293 15667.10059
15572.0 0.0000642 15637.44043 15664.89258
15459.0 0.0000647 15635.62598 15663.36816
15536.0 0.0000644 15633.80859 15661.59570
15568.0 0.0000642 15631.98926 15660.06250
15517.0 0.0000644 15630.16602 15658.81152
15450.0 0.0000647 15628.34082 15657.93555
15641.0 0.0000639 15626.51270 15657.58887
15604.0 0.0000641 15624.68164 15658.00781
15779.0 0.0000634 15622.84863 15659.53711
15416.0 0.0000649 15621.01270 15662.58496
15671.0 0.0000638 15619.17383 15667.56348
15728.0 0.0000636 15617.33203 15674.76953
15857.0 0.0000631 15615.48828 15684.20703
15738.0 0.0000635 15613.64063 15695.31738
15618.0 0.0000640 15611.79102 15706.65039
15791.0 0.0000633 15609.93848 15715.25977
15700.0 0.0000637 15608.08301 15717.78027
15683.0 0.0000638 15606.22559 15712.84863
15569.0 0.0000642 15604.36426 15702.08398
15926.0 0.0000628 15602.50000 15689.30371
15451.0 0.0000647 15600.63379 15677.48242
15721.0 0.0000636 15598.76465 15668.47363
15686.0 0.0000638 15596.89160 15663.38574
15735.0 0.0000636 15595.01660 15663.01855
15411.0 0.0000649 15593.13770 15668.03320
15706.0 0.0000637 15591.25684 15678.97168
15655.0 0.0000639 15589.37305 15696.10547
15505.0 0.0000645 15587.48633 15719.10645
15703.0 0.0000637 15585.59668 15746.43652
15649.0 0.0000639 15583.70313 15774.91211
15566.0 0.0000642 15581.80859 15800.36621
15487.0 0.0000646 15579.90918 15819.84277
15744.0 0.0000635 15578.00781 15832.59082
15549.0 0.0000643 15576.10352 15838.38184
15561.0 0.0000643 15574.19629 15836.36328
15777.0 0.0000634 15572.28613 15825.86719
15487.0 0.0000646 15570.37207 15807.68848
15589.0 0.0000641 15568.45605 15784.21191
15629.0 0.0000640 15566.53613 15758.54980
15491.0 0.0000646 15564.61426 15733.69336
15678.0 0.0000638 15562.68848 15712.10742
15380.0 0.0000650 15560.76074 15695.54492
15606.0 0.0000641 15558.82910 15684.98926
15748.0 0.0000635 15556.89453 15680.69922
15841.0 0.0000631 15554.95703 15682.21875
15605.0 0.0000641 15553.01660 15688.42773
15737.0 0.0000635 15551.07324 15697.66406
15710.0 0.0000637 15549.12695 15708.27930
15752.0 0.0000635 15547.17773 15719.51172
15656.0 0.0000639 15545.22461 15731.78223
15731.0 0.0000636 15543.26953 15745.90527
15603.0 0.0000641 15541.31055 15762.85059
15617.0 0.0000640 15539.34863 15779.90137
15345.0 0.0000652 15537.38477 15795.66309
15559.0 0.0000643 15535.41602 15807.27734
15634.0 0.0000640 15533.44629 15812.30469
15568.0 0.0000642 15531.47168 15809.30078
15563.0 0.0000643 15529.49512 15799.49805
15717.0 0.0000636 15527.51563 15785.87207
15783.0 0.0000634 15525.53223 15772.37109
15424.0 0.0000648 15523.54688 15763.20410
15714.0 0.0000636 15521.55762 15762.45605
15750.0 0.0000635 15519.56543 15773.87793
15705.0 0.0000637 15517.57031 15800.52637
15793.0 0.0000633 15515.57227 15844.42871
15681.0 0.0000638 15513.57129 15905.18848
16065.0 0.0000622 15511.56738 15979.94336
16249.0 0.0000615 15509.56055 16060.25977
16069.0 0.0000622 15507.54980 16131.13184
16202.0 0.0000617 15505.53711 16172.69727
16200.0 0.0000617 15503.51953 16170.76953
16369.0 0.0000611 15501.50098 16135.58105
16058.0 0.0000623 15499.47852 16098.76172
16236.0 0.0000616 15497.45313 16096.90137
15968.0 0.0000626 15495.42480 16151.00488
16366.0 0.0000611 15493.39355 16243.89453
15876.0 0.0000630 15491.35938 16316.71094
16072.0 0.0000622 15489.32129 16307.06641
15728.0 0.0000636 15487.28223 16202.60449
15753.0 0.0000635 15485.23828 16050.52344
15597.0 0.0000641 15483.19238 15911.66797
15525.0 0.0000644 15481.14258 15816.53613
15531.0 0.0000644 15479.09082 15761.84082
15458.0 0.0000647 15477.03613 15731.96289
15689.0 0.0000637 15474.97754 15715.72754
15754.0 0.0000635 15472.91699 15709.55273
15865.0 0.0000630 15470.85156 15714.68359
15879.0 0.0000630 15468.78516 15734.67090
15826.0 0.0000632 15466.71484 15774.35352
16067.0 0.0000622 15464.64258 15839.45605
15931.0 0.0000628 15462.56641 15935.96289
16331.0 0.0000612 15460.48828 16069.01563
16543.0 0.0000604 15458.40723 16240.82813
16834.0 0.0000594 15456.32227 16447.01953
17098.0 0.0000585 15454.23535 16670.73633
16813.0 0.0000595 15452.14551 16878.14258
17091.0 0.0000585 15450.05273 17027.23828
16720.0 0.0000598 15447.95605 17091.80664
16890.0 0.0000592 15445.85840 17069.04688
16679.0 0.0000600 15443.75586 16963.06250
16564.0 0.0000604 15441.65234 16786.20508
16354.0 0.0000611 15439.54492 16570.34766
16357.0 0.0000611 15437.43457 16352.40332
15904.0 0.0000629 15435.32227 16157.08691
15868.0 0.0000630 15433.20703 15995.46680
15617.0 0.0000640 15431.08887 15869.41016
15730.0 0.0000636 15428.96777 15775.53027
15563.0 0.0000643 15426.84375 15708.02051
15619.0 0.0000640 15424.71777 15660.68457
15500.0 0.0000645 15422.58887 15628.06055
15555.0 0.0000643 15420.45703 15605.77930
15561.0 0.0000643 15418.32227 15590.51563
15571.0 0.0000642 15416.18555 15579.74805
15607.0 0.0000641 15414.04492 15571.50195
15835.0 0.0000632 15411.90234 15564.40234
15512.0 0.0000645 15409.75684 15557.62402
15703.0 0.0000637 15407.60938 15550.94336
15573.0 0.0000642 15405.45996 15544.49316
15637.0 0.0000640 15403.30566 15538.63965
15669.0 0.0000638 15401.15137 15533.72461
15513.0 0.0000645 15398.99219 15529.93750
15643.0 0.0000639 15396.83203 15527.34277
15718.0 0.0000636 15394.66797 15525.90137
15630.0 0.0000640 15392.50293 15525.52148
15619.0 0.0000640 15390.33398 15526.14551
15753.0 0.0000635 15388.16309 15527.97363
15943.0 0.0000627 15385.99023 15531.46094
15535.0 0.0000644 15383.81445 15537.26270
15770.0 0.0000634 15381.63672 15546.12207
15880.0 0.0000630 15379.45508 15558.90430
15884.0 0.0000630 15377.27246 15576.65430
16034.0 0.0000624 15375.08691 15600.61133
15921.0 0.0000628 15372.89941 15632.17871
15758.0 0.0000635 15370.70898 15672.81836
16009.0 0.0000625 15368.51563 15723.91016
15866.0 0.0000630 15366.32129 15786.42676
15807.0 0.0000633 15364.12402 15860.48828
15927.0 0.0000628 15361.92480 15944.52539
16072.0 0.0000622 15359.72168 16034.03125
16122.0 0.0000620 15357.51855 16120.37793
16096.0 0.0000621 15355.31152 16191.56445
16314.0 0.0000613 15353.10352 16237.35547
16703.0 0.0000599 15350.89258 16257.37305
16576.0 0.0000603 15348.67871 16264.38867
16629.0 0.0000601 15346.46387 16278.12207
16586.0 0.0000603 15344.24609 16315.03418
16633.0 0.0000601 15342.02637 16381.48438
16702.0 0.0000599 15339.80371 16467.69922
16839.0 0.0000594 15337.58105 16546.36133
16534.0 0.0000605 15335.35449 16573.87891
16700.0 0.0000599 15333.12598 16517.65234
16667.0 0.0000600 15330.89648 16388.20313
16298.0 0.0000614 15328.66406 16226.66895
16301.0 0.0000613 15326.42969 16070.01465
15861.0 0.0000630 15324.19336 15938.03320
15665.0 0.0000638 15321.95508 15838.46094
15555.0 0.0000643 15319.71387 15771.31836
15694.0 0.0000637 15317.47266 15732.72168
15593.0 0.0000641 15315.22852 15717.53027
15561.0 0.0000643 15312.98145 15721.16992
15434.0 0.0000648 15310.73438 15740.54199
15395.0 0.0000650 15308.48340 15774.09180
15844.0 0.0000631 15306.23242 15821.44922
15761.0 0.0000634 15303.97852 15882.77637
15566.0 0.0000642 15301.72266 15957.98828
15665.0 0.0000638 15299.46484 16045.76465
15608.0 0.0000641 15297.20605 16142.41406
16068.0 0.0000622 15294.94629 16240.40332
16107.0 0.0000621 15292.68262 16327.28223
16321.0 0.0000613 15290.41895 16387.16016
16274.0 0.0000614 15288.15234 16407.17773
16614.0 0.0000602 15285.88477 16384.62695
16845.0 0.0000594 15283.61523 16331.03125
16658.0 0.0000600 15281.34375 16261.20703
16280.0 0.0000614 15279.07031 16190.93848
16268.0 0.0000615 15276.79688 16133.65234
16000.0 0.0000625 15274.52051 16098.50586
16132.0 0.0000620 15272.24316 16091.45215
16159.0 0.0000619 15269.96387 16113.70020
16264.0 0.0000615 15267.68262 16160.75879
16158.0 0.0000619 15265.40039 16222.17480
16244.0 0.0000616 15263.11621 16283.01758
16515.0 0.0000606 15260.83203 16323.97754
16647.0 0.0000601 15258.54492 16322.16699
16307.0 0.0000613 15256.25684 16264.88086
16320.0 0.0000613 15253.96680 16163.27832
16353.0 0.0000612 15251.67578 16040.54492
16163.0 0.0000619 15249.38379 15913.59766
15905.0 0.0000629 15247.08887 15792.87109
15706.0 0.0000637 15244.79395 15686.12598
15677.0 0.0000638 15242.49707 15597.93652
15447.0 0.0000647 15240.19922 15528.77441
15685.0 0.0000638 15237.90039 15476.33984
15105.0 0.0000662 15235.59961 15437.30957
15360.0 0.0000651 15233.29883 15408.50098
15377.0 0.0000650 15230.99512 15387.10840
15421.0 0.0000648 15228.69141 15371.26660
15310.0 0.0000653 15226.38477 15359.93066
15248.0 0.0000656 15224.07910 15352.07031
15289.0 0.0000654 15221.77051 15347.70703
15035.0 0.0000665 15219.46191 15346.96484
15452.0 0.0000647 15217.15234 15350.07617
15433.0 0.0000648 15214.83984 15357.12793
15150.0 0.0000660 15212.52832 15367.73633
15353.0 0.0000651 15210.21387 15380.59766
15246.0 0.0000656 15207.90039 15392.90332
15381.0 0.0000650 15205.58398 15400.30176
15514.0 0.0000645 15203.26758 15398.58984
15256.0 0.0000655 15200.95020 15386.62988
15226.0 0.0000657 15198.63184 15366.99023
15257.0 0.0000655 15196.31250 15343.97168
15244.0 0.0000656 15193.99121 15321.44043
15176.0 0.0000659 15191.66992 15301.92676
15266.0 0.0000655 15189.34766 15286.77441
14890.0 0.0000672 15187.02441 15276.39746
15087.0 0.0000663 15184.69922 15270.32227
15524.0 0.0000644 15182.37500 15267.18652
15129.0 0.0000661 15180.04980 15264.64063
15228.0 0.0000657 15177.72168 15259.85938
15095.0 0.0000662 15175.39453 15251.80176
14866.0 0.0000673 15173.06543 15241.86328
15064.0 0.0000664 15170.73730 15232.12207
15391.0 0.0000650 15168.40625 15223.96875
15225.0 0.0000657 15166.07617 15218.61426
15273.0 0.0000655 15163.74414 15214.80957
15080.0 0.0000663 15161.41211 15212.86426
15216.0 0.0000657 15159.08008 15212.43066
15090.0 0.0000663 15156.74609 15213.15820
15182.0 0.0000659 15154.41211 15214.64258
15236.0 0.0000656 15152.07617 15216.23340
15323.0 0.0000653 15149.74121 15216.92480
15327.0 0.0000652 15147.40430 15215.69434
15346.0 0.0000652 15145.06738 15212.13281
15222.0 0.0000657 15142.73047 15206.68262
15455.0 0.0000647 15140.39258 15200.24023
15169.0 0.0000659 15138.05371 15193.65625
15212.0 0.0000657 15135.71387 15187.53125
15201.0 0.0000658 15133.37500 15182.16113
15161.0 0.0000660 15131.03418 15177.65430
15200.0 0.0000658 15128.69336 15173.98242
15150.0 0.0000660 15126.35156 15171.07129
15046.0 0.0000665 15124.00977 15168.84180
14875.0 0.0000672 15121.66797 15167.23242
15157.0 0.0000660 15119.32520 15166.83008
15201.0 0.0000658 15116.98242 15166.42480
15104.0 0.0000662 15114.63770 15166.68262
15043.0 0.0000665 15112.29395 15167.71094
15058.0 0.0000664 15109.94922 15169.72656
15111.0 0.0000662 15107.60449 15173.10840
15111.0 0.0000662 15105.25879 15178.51465
14985.0 0.0000667 15102.91406 15187.05762
15018.0 0.0000666 15100.56836 15200.48340
15118.0 0.0000661 15098.22168 15221.28809
15263.0 0.0000655 15095.87500 15252.60156
15477.0 0.0000646 15093.52734 15297.71094
15299.0 0.0000654 15091.18066 15359.14063
15516.0 0.0000644 15088.83203 15437.29199
15612.0 0.0000641 15086.48438 15528.56836
15535.0 0.0000644 15084.13672 15622.53027
15935.0 0.0000628 15081.78809 15699.40332
15744.0 0.0000635 15079.43945 15735.54688
15651.0 0.0000639 15077.08984 15721.90234
15703.0 0.0000637 15074.74121 15675.47754
15582.0 0.0000642 15072.39063 15621.49609
15511.0 0.0000645 15070.04102 15579.07813
15395.0 0.0000650 15067.69043 15554.98438
15409.0 0.0000649 15065.34082 15545.53320
15659.0 0.0000639 15062.99121 15539.89648
15467.0 0.0000647 15060.63965 15528.94336
15630.0 0.0000640 15058.28906 15513.95117
15591.0 0.0000641 15055.93750 15502.37695
15763.0 0.0000634 15053.58691 15497.13965
15818.0 0.0000632 15051.23535 15491.63574
15589.0 0.0000641 15048.88379 15472.35742
15317.0 0.0000653 15046.53223 15430.48633
15376.0 0.0000650 15044.18066 15371.22754
15241.0 0.0000656 15041.82910 15307.16699
15198.0 0.0000658 15039.47656 15248.08789
15185.0 0.0000659 15037.12500 15198.77246
15325.0 0.0000653 15034.77246 15160.38574
15145.0 0.0000660 15032.41992 15131.96094
15319.0 0.0000653 15030.06738 15111.49121
15173.0 0.0000659 15027.71484 15096.78809
15306.0 0.0000653 15025.36230 15085.96484
15168.0 0.0000659 15023.00977 15077.53906
15186.0 0.0000659 15020.65723 15070.82129
14928.0 0.0000670 15018.30371 15065.15820
15024.0 0.0000666 15015.95117 15060.24316
15362.0 0.0000651 15013.59766 15055.89355
15069.0 0.0000664 15011.24414 15051.98926
14936.0 0.0000670 15008.89063 15048.47070
15116.0 0.0000662 15006.53809 15045.28809
15016.0 0.0000666 15004.18457 15042.41504
15148.0 0.0000660 15001.83105 15039.83594
14800.0 0.0000676 14999.47754 15037.55078
14915.0 0.0000670 14997.12402 15035.56836
15128.0 0.0000661 14994.77051 15033.94531
15066.0 0.0000664 14992.41699 15032.74512
15050.0 0.0000664 14990.06348 15032.10645
14795.0 0.0000676 14987.70898 15032.25977
14957.0 0.0000669 14985.35547 15033.53223
15189.0 0.0000658 14983.00195 15036.35742
15069.0 0.0000664 14980.64844 15041.24707
15033.0 0.0000665 14978.29492 15048.66602
15035.0 0.0000665 14975.94043 15058.87402
15073.0 0.0000663 14973.58691 15071.82324
15232.0 0.0000657 14971.23242 15086.39355
15246.0 0.0000656 14968.87793 15100.59375
15337.0 0.0000652 14966.52441 15111.27441
15271.0 0.0000655 14964.16992 15116.25195
15279.0 0.0000654 14961.81641 15116.98730
15078.0 0.0000663 14959.46094 15117.96777
15515.0 0.0000645 14957.10742 15123.85352
15346.0 0.0000652 14954.75195 15138.02930
15360.0 0.0000651 14952.39844 15162.54590
15463.0 0.0000647 14950.04297 15197.81641
15159.0 0.0000660 14947.68848 15242.09082
15478.0 0.0000646 14945.33496 15290.63379
15329.0 0.0000652 14942.97949 15337.01270
15463.0 0.0000647 14940.62500 15375.82715
15239.0 0.0000656 14938.26953 15401.28223
15412.0 0.0000649 14935.91504 15406.88477
15261.0 0.0000655 14933.55957 15391.41309
15404.0 0.0000649 14931.20508 15362.36230
15353.0 0.0000651 14928.84863 15329.33691
15056.0 0.0000664 14926.49414 15298.11719
15121.0 0.0000661 14924.13867 15270.72949
15179.0 0.0000659 14921.78223 15247.78125
15059.0 0.0000664 14919.42773 15230.08984
15066.0 0.0000664 14917.07129 15219.99512
14794.0 0.0000676 14914.71582 15220.35547
15262.0 0.0000655 14912.35938 15234.71387
15491.0 0.0000646 14910.00293 15266.44531
15382.0 0.0000650 14907.64648 15317.80762
15418.0 0.0000649 14905.29004 15388.41113
15688.0 0.0000637 14902.93359 15472.72363
15457.0 0.0000647 14900.57617 15557.54980
15412.0 0.0000649 14898.21875 15624.97852
15392.0 0.0000650 14895.86133 15664.66504
15670.0 0.0000638 14893.50391 15679.85352
15345.0 0.0000652 14891.14648 15675.20215
15545.0 0.0000643 14888.78809 15644.57910
15381.0 0.0000650 14886.43066 15580.95117
15396.0 0.0000650 14884.07129 15493.32031
15012.0 0.0000666 14881.71387 15402.16895
15214.0 0.0000657 14879.35352 15323.87598
15127.0 0.0000661 14876.99512 15263.29980
15176.0 0.0000659 14874.63477 15219.23047
14978.0 0.0000668 14872.27539 15184.14844
14949.0 0.0000669 14869.91504 15151.86035
15195.0 0.0000658 14867.55469 15120.13672
15100.0 0.0000662 14865.19434 15090.96387
15063.0 0.0000664 14862.83301 15067.24902
15003.0 0.0000667 14860.47168 15050.63184
14907.0 0.0000671 14858.10938 15041.09473
15038.0 0.0000665 14855.74707 15037.06445
15028.0 0.0000665 14853.38477 15034.60352
14978.0 0.0000668 14851.02148 15028.79492
15058.0 0.0000664 14848.65918 15016.12793
15208.0 0.0000658 14846.29395 14997.54688
15149.0 0.0000660 14843.93066 14976.79590
14858.0 0.0000673 14841.56543 14957.17383
15024.0 0.0000666 14839.20020 14940.56055
15006.0 0.0000666 14836.83398 14927.61914
15141.0 0.0000660 14834.46875 14918.36816
14713.0 0.0000680 14832.10156 14912.54102
14952.0 0.0000669 14829.73438 14909.74316
14945.0 0.0000669 14827.36719 14909.81543
15235.0 0.0000656 14824.99805 14912.82324
15292.0 0.0000654 14822.62891 14918.96484
15100.0 0.0000662 14820.25977 14928.56152
15055.0 0.0000664 14817.88965 14940.73047
15002.0 0.0000667 14815.51855 14954.60449
15173.0 0.0000659 14813.14746 14967.68262
14890.0 0.0000672 14810.77539 14976.25391
14965.0 0.0000668 14808.40234 14977.47656
15054.0 0.0000664 14806.02930 14972.30664
15118.0 0.0000661 14803.65527 14964.75098
14968.0 0.0000668 14801.28027 14958.75000
15009.0 0.0000666 14798.90430 14957.33398
14992.0 0.0000667 14796.52832 14960.79980
15099.0 0.0000662 14794.15137 14970.36816
15179.0 0.0000659 14791.77344 14986.73926
15293.0 0.0000654 14789.39551 15009.78711
14877.0 0.0000672 14787.01465 15039.52246
15249.0 0.0000656 14784.63477 15078.22559
15067.0 0.0000664 14782.25293 15125.66504
15358.0 0.0000651 14779.87207 15181.99609
15421.0 0.0000648 14777.48828 15246.76563
15419.0 0.0000649 14775.10449 15319.06836
15463.0 0.0000647 14772.71973 15397.32520
15644.0 0.0000639 14770.33398 15477.53711
15686.0 0.0000638 14767.94727 15549.61328
15586.0 0.0000642 14765.55859 15594.86523
15527.0 0.0000644 14763.16992 15592.58008
15597.0 0.0000641 14760.78027 15536.37793
15474.0 0.0000646 14758.38965 15441.01172
15380.0 0.0000650 14755.99707 15331.23926
15373.0 0.0000650 14753.60449 15224.49512
15026.0 0.0000666 14751.20898 15130.24316
15058.0 0.0000664 14748.81445 15051.26660
15048.0 0.0000665 14746.41797 14987.81738
14916.0 0.0000670 14744.02051 14938.50488
14865.0 0.0000673 14741.62109 14901.04199
14695.0 0.0000681 14739.22070 14872.82617
14887.0 0.0000672 14736.81934 14851.47461
14943.0 0.0000669 14734.41699 14835.04199
15089.0 0.0000663 14732.01270 14822.08496
14855.0 0.0000673 14729.60840 14811.59277
14811.0 0.0000675 14727.20117 14802.91797
15058.0 0.0000664 14724.79297 14795.63379
15010.0 0.0000666 14722.38379 14789.49609
14978.0 0.0000668 14719.97266 14784.52539
14770.0 0.0000677 14717.56055 14780.39453
14587.0 0.0000686 14715.14746 14777.27051
14842.0 0.0000674 14712.73145 14775.22754
14910.0 0.0000671 14710.31543 14774.41992
15056.0 0.0000664 14707.89746 14774.89648
14846.0 0.0000674 14705.47754 14776.84082
14736.0 0.0000679 14703.05664 14780.37109
14847.0 0.0000674 14700.63379 14785.62695
14999.0 0.0000667 14698.20996 14792.75684
14894.0 0.0000671 14695.78320 14801.91895
14608.0 0.0000685 14693.35547 14813.27930
14781.0 0.0000677 14690.92578 14826.99023
14968.0 0.0000668 14688.49512 14843.01855
15028.0 0.0000665 14686.06348 14862.87207
14680.0 0.0000681 14683.62793 14886.64453
14877.0 0.0000672 14681.19238 14913.60254
14932.0 0.0000670 14678.75391 14940.34961
15019.0 0.0000666 14676.31445 14959.85840
14873.0 0.0000672 14673.87207 14963.50000
15153.0 0.0000660 14671.42969 14947.57031
14999.0 0.0000667 14668.98438 14917.23145
15085.0 0.0000663 14666.53613 14881.83301
14818.0 0.0000675 14664.08789 14848.68262
14875.0 0.0000672 14661.63574 14821.51465
14672.0 0.0000682 14659.18359 14801.45703
14695.0 0.0000681 14656.72754 14788.21680
14535.0 0.0000688 14654.27051 14780.09375
14761.0 0.0000677 14651.81055 14775.48633
14770.0 0.0000677 14649.35059 14772.55566
14688.0 0.0000681 14646.88770 14769.73145
14617.0 0.0000684 14644.42090 14766.08691
14652.0 0.0000683 14641.95410 14760.97363
14509.0 0.0000689 14639.48340 14754.74023
14743.0 0.0000678 14637.01172 14748.00391
14750.0 0.0000678 14634.53711 14741.54980
14595.0 0.0000685 14632.06152 14736.19922
14752.0 0.0000678 14629.58203 14732.82715
14600.0 0.0000685 14627.10156 14732.38867
14831.0 0.0000674 14624.61816 14736.04199
14714.0 0.0000680 14622.13281 14745.31738
14770.0 0.0000677 14619.64453 14762.07422
14997.0 0.0000667 14617.15430 14788.61230
14842.0 0.0000674 14614.66211 14827.26074
14937.0 0.0000669 14612.16602 14880.42480
14908.0 0.0000671 14609.66895 14948.29590
14932.0 0.0000670 14607.16895 15030.08398
15205.0 0.0000658 14604.66602 15120.24609
15258.0 0.0000655 14602.16113 15206.63281
15654.0 0.0000639 14599.65332 15273.52637
15439.0 0.0000648 14597.14355 15312.95801
15369.0 0.0000651 14594.62988 15329.43555
15463.0 0.0000647 14592.11523 15327.13086
15288.0 0.0000654 14589.59668 15300.10645
15140.0 0.0000661 14587.07617 15245.34375
15055.0 0.0000664 14584.55273 15176.54492
14846.0 0.0000674 14582.02637 15111.57422
15022.0 0.0000666 14579.49805 15058.20020
14746.0 0.0000678 14576.96582 15014.64355
14758.0 0.0000678 14574.43164 14978.74219
14710.0 0.0000680 14571.89355 14952.40527
14741.0 0.0000678 14569.35449 14939.26270
14674.0 0.0000681 14566.81055 14941.25391
14812.0 0.0000675 14564.26563 14958.69727
14650.0 0.0000683 14561.71777 14991.91992
15015.0 0.0000666 14559.16504 15041.19727
14840.0 0.0000674 14556.61133 15103.62207
14838.0 0.0000674 14554.05273 15170.12305
14974.0 0.0000668 14551.49316 15226.87695
14909.0 0.0000671 14548.92969 15264.92188
14938.0 0.0000669 14546.36328 15286.49121
15001.0 0.0000667 14543.79395 15296.49707
15268.0 0.0000655 14541.22070 15295.43359
15275.0 0.0000655 14538.64648 15283.90137
14928.0 0.0000670 14536.06641 15269.91309
15257.0 0.0000655 14533.48535 15267.82227
15203.0 0.0000658 14530.89941 15290.99414
15214.0 0.0000657 14528.31152 15346.69824
15240.0 0.0000656 14525.72070 15434.52148
15537.0 0.0000644 14523.12598 15544.65527
15667.0 0.0000638 14520.52832 15655.06738
15796.0 0.0000633 14517.92676 15735.32324
15913.0 0.0000628 14515.32324 15759.26465
15930.0 0.0000628 14512.71484 15720.04199
15872.0 0.0000630 14510.10449 15625.77734
15817.0 0.0000632 14507.48926 15494.20703
15613.0 0.0000640 14504.87207 15348.18359
15494.0 0.0000645 14502.25098 15208.02734
15242.0 0.0000656 14499.62695 15086.17285
15154.0 0.0000660 14497.00000 14987.66602
15147.0 0.0000660 14494.36816 14911.81152
14764.0 0.0000677 14491.73340 14856.19824
14738.0 0.0000679 14489.09473 14817.09375
14770.0 0.0000677 14486.45313 14790.37207
14918.0 0.0000670 14483.80762 14771.81738
14665.0 0.0000682 14481.15918 14757.44922
14830.0 0.0000674 14478.50781 14744.11133
14751.0 0.0000678 14475.85156 14730.32520
14839.0 0.0000674 14473.19238 14715.80957
14753.0 0.0000678 14470.52930 14701.30469
14838.0 0.0000674 14467.86328 14688.21973
14679.0 0.0000681 14465.19238 14677.45703
14526.0 0.0000688 14462.51855 14669.38770
14418.0 0.0000694 14459.84082 14663.83203
14615.0 0.0000684 14457.16016 14660.07129
14775.0 0.0000677 14454.47559 14656.86133
14535.0 0.0000688 14451.78613 14652.71094
14693.0 0.0000681 14449.09473 14646.22949
14751.0 0.0000678 14446.39844 14636.79102
14672.0 0.0000682 14443.69922 14624.79004
14733.0 0.0000679 14440.99512 14611.41113
14677.0 0.0000681 14438.28809 14598.14160
14645.0 0.0000683 14435.57617 14586.28516
14539.0 0.0000688 14432.86133 14576.70996
14659.0 0.0000682 14430.14355 14569.86523
14532.0 0.0000688 14427.41992 14565.33984
14663.0 0.0000682 14424.69434 14562.28320
14464.0 0.0000691 14421.96289 14558.94922
14332.0 0.0000698 14419.22949 14553.16113
14531.0 0.0000688 14416.49023 14543.96582
14598.0 0.0000685 14413.74902 14532.29395
14496.0 0.0000690 14411.00391 14519.93164
14497.0 0.0000690 14408.25293 14508.27246
14520.0 0.0000689 14405.49902 14498.47461
14438.0 0.0000693 14402.74121 14490.13086
14560.0 0.0000687 14399.97949 14484.14746
14495.0 0.0000690 14397.21289 14480.45020
14511.0 0.0000689 14394.44434 14479.15137
14296.0 0.0000699 14391.66992 14480.49512
14324.0 0.0000698 14388.89258 14484.69727
14532.0 0.0000688 14386.11133 14492.14746
14452.0 0.0000692 14383.32422 14503.16602
14577.0 0.0000686 14380.53516 14517.96191
14479.0 0.0000691 14377.74023 14536.52832
14626.0 0.0000684 14374.94336 14558.52246
14422.0 0.0000693 14372.14063 14582.64551
14524.0 0.0000689 14369.33496 14607.66797
14249.0 0.0000702 14366.52344 14631.55566
14396.0 0.0000695 14363.70996 14651.72852
14470.0 0.0000691 14360.89160 14665.42676
14436.0 0.0000693 14358.06836 14670.31738
14439.0 0.0000693 14355.24219 14665.46680
14616.0 0.0000684 14352.41113 14651.75781
14477.0 0.0000691 14349.57617 14631.70996
14458.0 0.0000692 14346.73730 14608.59375
14599.0 0.0000685 14343.89453 14585.76855
14661.0 0.0000682 14341.04688 14566.29102
14806.0 0.0000675 14338.19531 14552.88477
14723.0 0.0000679 14335.33984 14548.12988
14403.0 0.0000694 14332.47949 14554.66406
14649.0 0.0000683 14329.61523 14575.34375
14560.0 0.0000687 14326.74707 14613.01074
14829.0 0.0000674 14323.87500 14670.00488
14750.0 0.0000678 14320.99707 14747.18848
15007.0 0.0000666 14318.11719 14842.70508
15232.0 0.0000657 14315.23242 14950.56250
15313.0 0.0000653 14312.34277 15058.33691
15245.0 0.0000656 14309.45020 15144.86230
15160.0 0.0000660 14306.55176 15185.25684
15196.0 0.0000658 14303.65039 15168.48242
15045.0 0.0000665 14300.74316 15107.52051
15040.0 0.0000665 14297.83398 15025.65234
14934.0 0.0000670 14294.91895 14938.53418
14664.0 0.0000682 14292.00098 14851.54785
14625.0 0.0000684 14289.07813 14765.58496
14716.0 0.0000680 14286.15039 14683.45215
14791.0 0.0000676 14283.21973 14609.57031
14538.0 0.0000688 14280.28418 14547.10840
14402.0 0.0000694 14277.34473 14496.70996
14618.0 0.0000684 14274.40039 14456.62402
14276.0 0.0000700 14271.45215 14426.68164
14387.0 0.0000695 14268.50000 14404.20996
14416.0 0.0000694 14265.54297 14387.32422
14499.0 0.0000690 14262.58301 14374.28809
14482.0 0.0000691 14259.61719 14363.58105
14380.0 0.0000695 14256.64941 14354.08203
14265.0 0.0000701 14253.67480 14345.11621
14383.0 0.0000695 14250.69824 14336.45020
14161.0 0.0000706 14247.71582 14328.06934
14219.0 0.0000703 14244.73047 14320.18066
14300.0 0.0000699 14241.74023 14312.82324
14403.0 0.0000694 14238.74609 14306.14746
14213.0 0.0000704 14235.74805 14300.17969
14233.0 0.0000703 14232.74414 14294.95898
14386.0 0.0000695 14229.73828 14290.50586
14251.0 0.0000702 14226.72656 14286.82129
14348.0 0.0000697 14223.71191 14283.91113
14130.0 0.0000708 14220.69238 14281.75000
14280.0 0.0000700 14217.66992 14280.27637
14200.0 0.0000704 14214.64258 14279.34473
14369.0 0.0000696 14211.61035 14278.71094
14281.0 0.0000700 14208.57520 14278.15039
14289.0 0.0000700 14205.53516 14277.63281
14454.0 0.0000692 14202.49121 14277.39063
14346.0 0.0000697 14199.44238 14277.69629
14390.0 0.0000695 14196.39160 14278.72852
14323.0 0.0000698 14193.33594 14280.52734
14624.0 0.0000684 14190.27441 14283.06348
14354.0 0.0000697 14187.21094 14286.61328
14385.0 0.0000695 14184.14258 14290.58496
14371.0 0.0000696 14181.07031 14295.48145
14475.0 0.0000691 14177.99316 14301.62793
14331.0 0.0000698 14174.91309 14309.83496
14477.0 0.0000691 14171.82910 14321.15332
14530.0 0.0000688 14168.74121 14336.80566
14518.0 0.0000689 14165.64941 14358.14453
14180.0 0.0000705 14162.55273 14386.53711
14494.0 0.0000690 14159.45215 14423.49023
14572.0 0.0000686 14156.34766 14469.65723
14501.0 0.0000690 14153.24023 14523.44824
14754.0 0.0000678 14150.12793 14579.58496
14652.0 0.0000683 14147.01270 14628.20313
14876.0 0.0000672 14143.89160 14658.07129
14793.0 0.0000676 14140.76953 14665.28125
14981.0 0.0000668 14137.64258 14657.18262
14825.0 0.0000675 14134.51074 14646.06836
14802.0 0.0000676 14131.37598 14642.44727
14717.0 0.0000679 14128.23633 14653.00879
14748.0 0.0000678 14125.09375 14678.53320
14604.0 0.0000685 14121.94727 14713.59473
14781.0 0.0000677 14118.79688 14744.03613
14606.0 0.0000685 14115.64355 14751.26563
14708.0 0.0000680 14112.48535 14726.85840
14541.0 0.0000688 14109.32422 14681.80664
14443.0 0.0000692 14106.15918 14635.42383
14577.0 0.0000686 14102.99121 14602.32324
14362.0 0.0000696 14099.81738 14589.69238
14340.0 0.0000697 14096.64258 14599.24512
14646.0 0.0000683 14093.46191 14628.11621
14460.0 0.0000692 14090.27930 14669.17773
14733.0 0.0000679 14087.09277 14711.20801
14723.0 0.0000679 14083.90234 14741.01172
14895.0 0.0000671 14080.70898 14749.38965
14883.0 0.0000672 14077.51074 14736.66699
14907.0 0.0000671 14074.31055 14711.82129
14977.0 0.0000668 14071.10547 14685.66699
14580.0 0.0000686 14067.89844 14665.14551
14597.0 0.0000685 14064.68652 14651.26465
14341.0 0.0000697 14061.47168 14639.87598
14548.0 0.0000687 14058.25391 14623.69629
14646.0 0.0000683 14055.03223 14599.03320
14503.0 0.0000690 14051.80859 14568.75000
14401.0 0.0000694 14048.57910 14540.39844
14411.0 0.0000694 14045.34863 14521.09473
14429.0 0.0000693 14042.11328 14514.22070
14508.0 0.0000689 14038.87598 14518.71875
14380.0 0.0000695 14035.63477 14528.38770
14437.0 0.0000693 14032.38965 14531.65820
14454.0 0.0000692 14029.14355 14515.74512
14395.0 0.0000695 14025.89160 14475.96777
14265.0 0.0000701 14022.63867 14419.63770
14386.0 0.0000695 14019.38086 14358.85156
14225.0 0.0000703 14016.12109 14302.72949
14237.0 0.0000702 14012.85742 14256.04199
14274.0 0.0000701 14009.59180 14220.33203
14213.0 0.0000704 14006.32324 14195.60059
14159.0 0.0000706 14003.05078 14180.76953
14072.0 0.0000711 13999.77637 14174.18066
14274.0 0.0000701 13996.49707 14173.69531
14089.0 0.0000710 13993.21680 14176.71582
14183.0 0.0000705 13989.93262 14180.38184
14129.0 0.0000708 13986.64648 14182.49121
14207.0 0.0000704 13983.35645 14182.11426
13984.0 0.0000715 13980.06445 14178.64355
14292.0 0.0000700 13976.76953 14170.97656
13990.0 0.0000715 13973.47168 14158.28711
14135.0 0.0000707 13970.17188 14141.09473
14002.0 0.0000714 13966.86816 14121.56641
13809.0 0.0000724 13963.56250 14102.08203
13985.0 0.0000715 13960.25293 14084.32129
13879.0 0.0000721 13956.94336 14069.15430
13832.0 0.0000723 13953.62988 14056.72559
14062.0 0.0000711 13950.31250 14046.92773
13903.0 0.0000719 13946.99512 14039.32910
14014.0 0.0000714 13943.67285 14033.30273
13982.0 0.0000715 13940.34961 14028.01953
13997.0 0.0000714 13937.02344 14022.64063
13907.0 0.0000719 13933.69531 14016.55469
14097.0 0.0000709 13930.36328 14009.89160
14040.0 0.0000712 13927.03125 14002.55176
14207.0 0.0000704 13923.69629 13995.26953
14045.0 0.0000712 13920.35742 13988.44922
13909.0 0.0000719 13917.01855 13982.33496
14033.0 0.0000713 13913.67578 13977.04590
14106.0 0.0000709 13910.33203 13973.00488
14048.0 0.0000712 13906.98438 13969.48438
14111.0 0.0000709 13903.63672 13966.90234
14040.0 0.0000712 13900.28516 13965.32227
13961.0 0.0000716 13896.93262 13964.86035
13849.0 0.0000722 13893.57910 13965.74023
14146.0 0.0000707 13890.22168 13968.10254
13985.0 0.0000715 13886.86328 13972.19531
13817.0 0.0000724 13883.50195 13978.08691
13997.0 0.0000714 13880.13965 13985.69727
14103.0 0.0000709 13876.77539 13994.54297
13920.0 0.0000718 13873.40918 14003.56836
13992.0 0.0000715 13870.04199 14011.04980
14095.0 0.0000709 13866.67188 14015.26270
13965.0 0.0000716 13863.30078 14015.75977
14093.0 0.0000710 13859.92676 14014.01367
13928.0 0.0000718 13856.55273 14012.49219
13873.0 0.0000721 13853.17480 14013.49707
14040.0 0.0000712 13849.79785 14018.88184
13907.0 0.0000719 13846.41699 14030.24316
13954.0 0.0000717 13843.03711 14049.20801
14125.0 0.0000708 13839.65430 14077.46484
14129.0 0.0000708 13836.26953 14116.68750
13881.0 0.0000720 13832.88477 14168.06445
14175.0 0.0000705 13829.49707 14231.61914
14371.0 0.0000696 13826.10938 14305.19141
14477.0 0.0000691 13822.71875 14382.88672
14344.0 0.0000697 13819.32813 14453.33496
14575.0 0.0000686 13815.93555 14499.74121
14737.0 0.0000679 13812.54297 14506.48145
14644.0 0.0000683 13809.14844 14470.70703
14548.0 0.0000687 13805.75195 14404.98047
14322.0 0.0000698 13802.35547 14327.06543
14357.0 0.0000697 13798.95703 14250.69043
14101.0 0.0000709 13795.55859 14183.73730
13979.0 0.0000715 13792.15820 14129.79883
14317.0 0.0000698 13788.75781 14089.86035
14005.0 0.0000714 13785.35645 14063.36719
14212.0 0.0000704 13781.95215 14049.98438
14260.0 0.0000701 13778.54883 14048.89648
14217.0 0.0000703 13775.14453 14059.96094
13953.0 0.0000717 13771.73926 14083.31543
13900.0 0.0000719 13768.33203 14118.71094
14049.0 0.0000712 13764.92578 14165.31152
14086.0 0.0000710 13761.51758 14220.35938
14537.0 0.0000688 13758.11035 14278.01855
14452.0 0.0000692 13754.70117 14328.58887
14634.0 0.0000683 13751.29102 14361.10449
14472.0 0.0000691 13747.88184 14371.44141
14603.0 0.0000685 13744.46973 14366.41016
14615.0 0.0000684 13741.05957 14355.10547
14441.0 0.0000692 13737.64746 14338.64746
14255.0 0.0000702 13734.23535 14310.06543
14391.0 0.0000695 13730.82227 14264.35742
14204.0 0.0000704 13727.41016 14206.63184
14282.0 0.0000700 13723.99805 14147.62793
14178.0 0.0000705 13720.58398 14096.74902
14161.0 0.0000706 13717.17090 14060.90625
14221.0 0.0000703 13713.75586 14045.75781
14090.0 0.0000710 13710.34277 14055.59375
14335.0 0.0000698 13706.92773 14090.95215
14131.0 0.0000708 13703.51367 14145.17773
14028.0 0.0000713 13700.09961 14201.60742
14244.0 0.0000702 13696.68457 14234.14941
13843.0 0.0000722 13693.27051 14220.94336
14064.0 0.0000711 13689.85547 14166.21094
13837.0 0.0000723 13686.44141 14093.13965
13859.0 0.0000722 13683.02637 14021.03711
13835.0 0.0000723 13679.61230 13961.23633
13819.0 0.0000724 13676.19824 13917.84473
13776.0 0.0000726 13672.78516 13890.01855
13815.0 0.0000724 13669.37207 13873.78613
13689.0 0.0000731 13665.95801 13865.19336
13799.0 0.0000725 13662.54492 13859.20410
13793.0 0.0000725 13659.13184 13851.84766
13820.0 0.0000724 13655.71973 13841.72656
13628.0 0.0000734 13652.30664 13829.72266
13703.0 0.0000730 13648.89551 13817.17188
13914.0 0.0000719 13645.48438 13804.70996
13735.0 0.0000728 13642.07422 13792.42188
13817.0 0.0000724 13638.66406 13780.27051
13535.0 0.0000739 13635.25391 13768.37109
13842.0 0.0000722 13631.84570 13756.96289
13707.0 0.0000730 13628.43652 13746.44434
13552.0 0.0000738 13625.02930 13737.24023
13515.0 0.0000740 13621.62109 13729.78711
13615.0 0.0000734 13618.21582 13724.46191
13706.0 0.0000730 13614.81055 13721.50488
13806.0 0.0000724 13611.40527 13720.95313
13924.0 0.0000718 13608.00195 13722.50098
13772.0 0.0000726 13604.59766 13725.38086
13820.0 0.0000724 13601.19629 13728.32422
13613.0 0.0000735 13597.79395 13729.90820
13780.0 0.0000726 13594.39453 13729.84961
13637.0 0.0000733 13590.99414 13729.37305
13745.0 0.0000728 13587.59668 13730.46484
14012.0 0.0000714 13584.19922 13734.79297
13768.0 0.0000726 13580.80273 13742.94727
13828.0 0.0000723 13577.40723 13754.22461
13829.0 0.0000723 13574.01270 13766.00098
13920.0 0.0000718 13570.62012 13774.09082
14190.0 0.0000705 13567.22754 13774.26660
14016.0 0.0000713 13563.83789 13765.55957
13835.0 0.0000723 13560.44824 13751.26367
13898.0 0.0000720 13557.06055 13736.36426
13626.0 0.0000734 13553.67383 13725.12012
13934.0 0.0000718 13550.28809 13720.58691
13889.0 0.0000720 13546.90430 13725.04102
13773.0 0.0000726 13543.52148 13740.14160
13764.0 0.0000727 13540.14063 13766.74512
13735.0 0.0000728 13536.75977 13804.44043
13883.0 0.0000720 13533.38184 13850.73633
13997.0 0.0000714 13530.00586 13899.53809
13958.0 0.0000716 13526.62988 13939.73242
14049.0 0.0000712 13523.25684 13957.26074
13991.0 0.0000715 13519.88379 13943.75879
13973.0 0.0000716 13516.51367 13904.01465
13854.0 0.0000722 13513.14355 13851.04102
13924.0 0.0000718 13509.77734 13796.16016
13766.0 0.0000726 13506.41113 13745.21875
13644.0 0.0000733 13503.04785 13700.34570
13634.0 0.0000733 13499.68555 13661.81738
13747.0 0.0000727 13496.32520 13630.10449
13748.0 0.0000727 13492.96680 13605.04785
13585.0 0.0000736 13489.60938 13585.93359
13700.0 0.0000730 13486.25488 13571.83398
13609.0 0.0000735 13482.90137 13561.86035
13626.0 0.0000734 13479.55078 13555.31641
13716.0 0.0000729 13476.20117 13551.71191
13704.0 0.0000730 13472.85352 13550.69434
13393.0 0.0000747 13469.50879 13551.96973
13617.0 0.0000734 13466.16504 13555.20313
13445.0 0.0000744 13462.82422 13559.93359
13526.0 0.0000739 13459.48438 13565.46484
13505.0 0.0000740 13456.14746 13570.82031
13624.0 0.0000734 13452.81152 13574.83496
13569.0 0.0000737 13449.47949 13576.54980
13652.0 0.0000732 13446.14844 13575.35938
13563.0 0.0000737 13442.81934 13570.98926
13540.0 0.0000739 13439.49316 13563.54297
13637.0 0.0000733 13436.16797 13553.42480
13529.0 0.0000739 13432.84668 13541.52539
13478.0 0.0000742 13429.52539 13528.90625
13667.0 0.0000732 13426.20898 13516.49023
13576.0 0.0000737 13422.89258 13504.91602
13332.0 0.0000750 13419.58008 13494.56738
13462.0 0.0000743 13416.26953 13485.62793
13192.0 0.0000758 13412.95996 13478.16602
13480.0 0.0000742 13409.65430 13472.17188
13433.0 0.0000744 13406.35059 13467.58887
13573.0 0.0000737 13403.04883 13464.42090
13381.0 0.0000747 13399.74902 13462.43262
13283.0 0.0000753 13396.45313 13461.64453
13457.0 0.0000743 13393.15820 13462.03711
13577.0 0.0000737 13389.86719 13463.62891
13334.0 0.0000750 13386.57910 13466.48730
13611.0 0.0000735 13383.29102 13470.69238
13395.0 0.0000747 13380.00781 13476.36328
13398.0 0.0000746 13376.72461 13483.57227
13408.0 0.0000746 13373.44629 13492.35449
13434.0 0.0000744 13370.16895 13502.58008
13599.0 0.0000735 13366.89551 13513.94238
13728.0 0.0000728 13363.62500 13525.77539
13462.0 0.0000743 13360.35547 13537.16797
13438.0 0.0000744 13357.08887 13547.29883
13607.0 0.0000735 13353.82520 13556.04688
13671.0 0.0000731 13350.56445 13563.73047
13600.0 0.0000735 13347.30566 13571.23242
13758.0 0.0000727 13344.04980 13579.47559
13667.0 0.0000732 13340.79688 13589.33691
13762.0 0.0000727 13337.54688 13601.32129
13776.0 0.0000726 13334.29980 13615.05762
13791.0 0.0000725 13331.05469 13628.96484
13798.0 0.0000725 13327.81250 13641.03809
13624.0 0.0000734 13324.57227 13651.18066
13478.0 0.0000742 13321.33691 13662.57520
13783.0 0.0000726 13318.10156 13679.52148
13530.0 0.0000739 13314.87109 13703.88770
13493.0 0.0000741 13311.64160 13732.46191
13588.0 0.0000736 13308.41699 13755.63086
13758.0 0.0000727 13305.19531 13759.48047
13692.0 0.0000730 13301.97363 13734.80566
14043.0 0.0000712 13298.75781 13685.81348
13609.0 0.0000735 13295.54199 13625.61133
13491.0 0.0000741 13292.33105 13565.99023
13595.0 0.0000736 13289.12207 13513.51758
13476.0 0.0000742 13285.91699 13470.62891
13306.0 0.0000752 13282.71484 13437.28223
13352.0 0.0000749 13279.51367 13411.91504
13360.0 0.0000749 13276.31738 13392.59766
13172.0 0.0000759 13273.12207 13377.48047
13281.0 0.0000753 13269.93066 13365.04883
13235.0 0.0000756 13266.74121 13354.18652
13367.0 0.0000748 13263.55664 13344.17578
13245.0 0.0000755 13260.37305 13334.57422
13335.0 0.0000750 13257.19336 13325.23340
13317.0 0.0000751 13254.01660 13316.17676
13185.0 0.0000758 13250.84277 13307.47949
13193.0 0.0000758 13247.67188 13299.20313
13243.0 0.0000755 13244.50293 13291.43945
13282.0 0.0000753 13241.33789 13284.25391
13334.0 0.0000750 13238.17480 13277.67871
13166.0 0.0000760 13235.01563 13271.72559
13155.0 0.0000760 13231.85840 13266.36914
13239.0 0.0000755 13228.70508 13261.59570
13242.0 0.0000755 13225.55469 13257.34766
13246.0 0.0000755 13222.40625 13253.59082
13420.0 0.0000745 13219.26172 13250.28906
13460.0 0.0000743 13216.11914 13247.40234
13291.0 0.0000752 13212.98047 13244.94629
13327.0 0.0000750 13209.84375 13242.97070
13272.0 0.0000753 13206.71094 13241.63086
13296.0 0.0000752 13203.58105 13241.08203
12987.0 0.0000770 13200.45313 13241.51758
13136.0 0.0000761 13197.32910 13242.92480
13220.0 0.0000756 13194.20605 13245.36523
13252.0 0.0000755 13191.08789 13248.47949
13291.0 0.0000752 13187.97168 13251.85156
13258.0 0.0000754 13184.85938 13254.94824
13199.0 0.0000758 13181.74902 13257.50781
13221.0 0.0000756 13178.64160 13259.58105
13258.0 0.0000754 13175.53809 13261.02930
13233.0 0.0000756 13172.43652 13261.17285
13275.0 0.0000753 13169.33887 13258.98633
13278.0 0.0000753 13166.24219 13253.92773
13191.0 0.0000758 13163.15039 13246.66016
13139.0 0.0000761 13160.05957 13238.58594
13107.0 0.0000763 13156.97266 13231.04492
13149.0 0.0000761 13153.88867 13224.86523
13072.0 0.0000765 13150.80762 13220.37988
13185.0 0.0000758 13147.72949 13217.52148
13232.0 0.0000756 13144.65332 13216.00000
13429.0 0.0000745 13141.58105 13215.30957
13253.0 0.0000755 13138.51074 13214.76563
13173.0 0.0000759 13135.44434 13213.61328
13270.0 0.0000754 13132.37891 13211.20801
13250.0 0.0000755 13129.31738 13207.19434
12971.0 0.0000771 13126.25977 13201.57422
12992.0 0.0000770 13123.20313 13194.73535
12985.0 0.0000770 13120.15039 13187.57227
13175.0 0.0000759 13117.09863 13180.70215
13124.0 0.0000762 13114.05176 13175.02539
13084.0 0.0000764 13111.00586 13171.17285
13310.0 0.0000751 13107.96387 13169.64355
13270.0 0.0000754 13104.92285 13170.86621
13139.0 0.0000761 13101.88672 13175.20215
12947.0 0.0000772 13098.85352 13182.96484
13186.0 0.0000758 13095.82129 13194.32129
13087.0 0.0000764 13092.79199 13208.68750
13131.0 0.0000762 13089.76563 13225.39258
13230.0 0.0000756 13086.74219 13241.59277
13356.0 0.0000749 13083.72070 13253.11816
13306.0 0.0000752 13080.70215 13255.40723
13132.0 0.0000761 13077.68555 13246.39648
13163.0 0.0000760 13074.67285 13228.18164
13351.0 0.0000749 13071.66309 13205.25488
13213.0 0.0000757 13068.65332 13181.67285
13214.0 0.0000757 13065.64844 13159.89844
13299.0 0.0000752 13062.64453 13141.01660
13034.0 0.0000767 13059.64453 13125.63965
13236.0 0.0000756 13056.64551 13113.01953
13178.0 0.0000759 13053.65039 13102.93652
13266.0 0.0000754 13050.65723 13094.96191
13031.0 0.0000767 13047.66602 13088.60645
13204.0 0.0000757 13044.67773 13083.43457
13167.0 0.0000759 13041.69141 13079.09668
13051.0 0.0000766 13038.70801 13075.36523
13106.0 0.0000763 13035.72559 13072.13965
12906.0 0.0000775 13032.74707 13069.40527
13193.0 0.0000758 13029.76953 13067.24902
13109.0 0.0000763 13026.79590 13065.81055
12928.0 0.0000774 13023.82422 13065.29492
13097.0 0.0000764 13020.85352 13065.98828
13103.0 0.0000763 13017.88574 13068.23730
12789.0 0.0000782 13014.91992 13072.47363
13120.0 0.0000762 13011.95703 13079.16211
13048.0 0.0000766 13008.99512 13088.74219
13048.0 0.0000766 13006.03711 13101.51758
13241.0 0.0000755 13003.07910 13117.44922
12996.0 0.0000769 13000.12500 13135.89063
13157.0 0.0000760 12997.17285 13155.34863
13374.0 0.0000748 12994.22168 13172.20117
13268.0 0.0000754 12991.27441 13182.79102
13049.0 0.0000766 12988.32715 13184.62793
12937.0 0.0000773 12985.38281 13178.54883
13026.0 0.0000768 12982.43945 13167.68750
12975.0 0.0000771 12979.50000 13154.84766
13194.0 0.0000758 12976.56152 13141.20117
13046.0 0.0000767 12973.62402 13126.65625
13201.0 0.0000758 12970.68945 13111.04395
13151.0 0.0000760 12967.75684 13094.78027
13165.0 0.0000760 12964.82617 13078.60352
12945.0 0.0000772 12961.89551 13063.08105
12939.0 0.0000773 12958.96875 13048.50195
13022.0 0.0000768 12956.04297 13034.94824
13124.0 0.0000762 12953.11914 13022.43457
13104.0 0.0000763 12950.19727 13010.98633
12810.0 0.0000781 12947.27637 13000.57813
13060.0 0.0000766 12944.35742 12991.19434
13138.0 0.0000761 12941.43945 12982.78223
13002.0 0.0000769 12938.52441 12975.29688
12780.0 0.0000782 12935.60938 12968.66504
13003.0 0.0000769 12932.69824 12962.84277
12859.0 0.0000778 12929.78613 12957.75098
12800.0 0.0000781 12926.87695 12953.25391
13017.0 0.0000768 12923.96973 12949.24121
13189.0 0.0000758 12921.06250 12945.67285
12729.0 0.0000786 12918.15820 12942.48047
12957.0 0.0000772 12915.25391 12939.61914
12932.0 0.0000773 12912.35156 12937.03418
13045.0 0.0000767 12909.45020 12934.70410
12905.0 0.0000775 12906.55078 12932.60840
13033.0 0.0000767 12903.65332 12930.90820
12888.0 0.0000776 12900.75488 12929.23242
12836.0 0.0000779 12897.85938 12927.76172
13000.0 0.0000769 12894.96484 12926.50684
12955.0 0.0000772 12892.07129 12925.55762
12827.0 0.0000780 12889.17871 12924.87598
13131.0 0.0000762 12886.28809 12924.69434
12898.0 0.0000775 12883.39746 12925.03906
13010.0 0.0000769 12880.50781 12926.70996
13128.0 0.0000762 12877.62109 12929.93945
12999.0 0.0000769 12874.73340 12934.98926
13067.0 0.0000765 12871.84766 12942.14160
13116.0 0.0000762 12868.96191 12951.14160
13006.0 0.0000769 12866.07813 12961.25781
12949.0 0.0000772 12863.19336 12971.32324
12986.0 0.0000770 12860.31152 12979.98047
12879.0 0.0000776 12857.42969 12985.47852
13287.0 0.0000753 12854.54883 12985.30469
12982.0 0.0000770 12851.66992 12977.64844
13089.0 0.0000764 12848.78906 12963.39160
12837.0 0.0000779 12845.91113 12945.82813
13049.0 0.0000766 12843.03223 12928.13184
12851.0 0.0000778 12840.15527 12912.21777
12725.0 0.0000786 12837.27832 12898.86719
12573.0 0.0000795 12834.40234 12888.19336
13059.0 0.0000766 12831.52734 12880.06934
12871.0 0.0000777 12828.65137 12873.92188
12925.0 0.0000774 12825.77734 12869.38867
13020.0 0.0000768 12822.90234 12866.14648
12780.0 0.0000782 12820.02832 12863.94727
12844.0 0.0000779 12817.15527 12862.66211
12948.0 0.0000772 12814.28223 12862.25293
12862.0 0.0000777 12811.40918 12862.75977
12950.0 0.0000772 12808.53711 12864.30664
12892.0 0.0000776 12805.66504 12867.06348
12892.0 0.0000776 12802.79297 12871.25000
12880.0 0.0000776 12799.92188 12877.10645
12875.0 0.0000777 12797.04980 12884.88477
13075.0 0.0000765 12794.17871 12894.82031
12974.0 0.0000771 12791.30664 12907.04785
12775.0 0.0000783 12788.43555 12921.56152
12840.0 0.0000779 12785.56445 12938.01270
12935.0 0.0000773 12782.69336 12955.53418
13112.0 0.0000763 12779.82324 12972.53320
13137.0 0.0000761 12776.95117 12986.68945
13134.0 0.0000761 12774.08008 12995.75391
13120.0 0.0000762 12771.20801 12997.79590
13217.0 0.0000757 12768.33691 12992.73047
13240.0 0.0000755 12765.46484 12982.41211
13210.0 0.0000757 12762.59277 12969.16113
12990.0 0.0000770 12759.72168 12955.22754
13089.0 0.0000764 12756.84766 12942.46484
12941.0 0.0000773 12753.97559 12932.39063
12898.0 0.0000775 12751.10254 12926.18848
12984.0 0.0000770 12748.22852 12924.66211
13144.0 0.0000761 12745.35449 12928.00781
12923.0 0.0000774 12742.48047 12935.56543
12870.0 0.0000777 12739.60547 12945.28613
12620.0 0.0000792 12736.73047 12953.30859
12791.0 0.0000782 12733.85449 12954.45703
13073.0 0.0000765 12730.97754 12945.04492
12951.0 0.0000772 12728.10059 12925.92773
12765.0 0.0000783 12725.22266 12901.51074
13078.0 0.0000765 12722.34473 12876.53027
12928.0 0.0000774 12719.46582 12854.06152
12995.0 0.0000770 12716.58594 12835.62891
12723.0 0.0000786 12713.70508 12821.82617
12798.0 0.0000781 12710.82422 12812.84375
12848.0 0.0000778 12707.94238 12808.78418
12763.0 0.0000784 12705.05859 12809.85547
12772.0 0.0000783 12702.17578 12816.50391
12880.0 0.0000776 12699.29102 12829.39160
12815.0 0.0000780 12696.40527 12849.05859
12949.0 0.0000772 12693.51758 12876.33105
12904.0 0.0000775 12690.63086 12910.87402
12811.0 0.0000781 12687.74316 12951.19141
12932.0 0.0000773 12684.85254 12993.35742
12985.0 0.0000770 12681.96191 13029.92188
13045.0 0.0000767 12679.06934 13050.76074
13123.0 0.0000762 12676.17676 13048.16504
12896.0 0.0000775 12673.28223 13022.92773
12832.0 0.0000779 12670.38770 12983.70020
12931.0 0.0000773 12667.49023 12940.45410
12757.0 0.0000784 12664.59180 12900.06250
13070.0 0.0000765 12661.69336 12865.89063
12758.0 0.0000784 12658.79199 12838.98828
12716.0 0.0000786 12655.89063 12819.00391
13000.0 0.0000769 12652.98730 12805.08594
12782.0 0.0000782 12650.08203 12796.29199
12790.0 0.0000782 12647.17578 12791.32715
12649.0 0.0000791 12644.26855 12789.78320
12865.0 0.0000777 12641.35840 12791.66699
12628.0 0.0000792 12638.44824 12797.53516
12610.0 0.0000793 12635.53613 12808.37402
12782.0 0.0000782 12632.62207 12825.27246
12839.0 0.0000779 12629.70605 12848.87695
12852.0 0.0000778 12626.78809 12879.18262
12938.0 0.0000773 12623.87012 12914.42285
12841.0 0.0000779 12620.94922 12950.09961
12834.0 0.0000779 12618.02637 12978.18457
12979.0 0.0000770 12615.10352 12989.25879
12912.0 0.0000774 12612.17676 12978.43262
12838.0 0.0000779 12609.24902 12949.44531
12855.0 0.0000778 12606.31934 12911.07227
13057.0 0.0000766 12603.38867 12871.09082
12707.0 0.0000787 12600.45410 12833.91504
12888.0 0.0000776 12597.51953 12801.17383
12862.0 0.0000777 12594.58105 12773.02246
12702.0 0.0000787 12591.64258 12748.86523
12587.0 0.0000794 12588.70215 12727.89648
12487.0 0.0000801 12585.75781 12709.40332
12552.0 0.0000797 12582.81348 12692.83496
12706.0 0.0000787 12579.86523 12677.87500
12758.0 0.0000784 12576.91602 12664.38770
12883.0 0.0000776 12573.96387 12652.37793
12518.0 0.0000799 12571.01074 12641.92773
12664.0 0.0000790 12568.05371 12633.11816
12608.0 0.0000793 12565.09570 12625.98340
12533.0 0.0000798 12562.13574 12620.48633
12770.0 0.0000783 12559.17285 12616.40137
12539.0 0.0000798 12556.20801 12613.31543
12480.0 0.0000801 12553.24023 12610.53516
12643.0 0.0000791 12550.27051 12607.23047
12774.0 0.0000783 12547.29785 12602.92969
12493.0 0.0000800 12544.32422 12597.87109
12420.0 0.0000805 12541.34766 12592.78711
12625.0 0.0000792 12538.36816 12588.44238
12547.0 0.0000797 12535.38770 12585.23145
12559.0 0.0000796 12532.40234 12583.54297
12495.0 0.0000800 12529.41602 12583.58691
12472.0 0.0000802 12526.42676 12585.45996
12689.0 0.0000788 12523.43555 12589.12305
12303.0 0.0000813 12520.44043 12594.30176
12510.0 0.0000799 12517.44434 12600.47852
12534.0 0.0000798 12514.44531 12606.20996
12552.0 0.0000797 12511.44336 12610.01270
12678.0 0.0000789 12508.43848 12610.77246
12640.0 0.0000791 12505.43066 12608.85547
12611.0 0.0000793 12502.42188 12605.97266
12544.0 0.0000797 12499.40820 12604.12207
12635.0 0.0000791 12496.39355 12604.74609
12535.0 0.0000798 12493.37500 12608.54883
12689.0 0.0000788 12490.35449 12615.53516
12527.0 0.0000798 12487.33203 12625.25977
12695.0 0.0000788 12484.30469 12637.26660
12541.0 0.0000797 12481.27637 12651.98633
12870.0 0.0000777 12478.24316 12669.76270
12722.0 0.0000786 12475.20898 12689.70313
12647.0 0.0000791 12472.17090 12709.20996
12994.0 0.0000770 12469.13086 12723.54199
12830.0 0.0000779 12466.08789 12727.22949
12896.0 0.0000775 12463.04199 12717.00684
12595.0 0.0000794 12459.99316 12694.51172
12880.0 0.0000776 12456.94043 12665.08691
12781.0 0.0000782 12453.88574 12634.26758
12723.0 0.0000786 12450.82715 12605.66699
12461.0 0.0000803 12447.76660 12580.80762
12509.0 0.0000799 12444.70215 12559.84375
12348.0 0.0000810 12441.63574 12542.17188
12490.0 0.0000801 12438.56641 12526.95898
12519.0 0.0000799 12435.49219 12514.16895
12520.0 0.0000799 12432.41699 12503.53613
12551.0 0.0000797 12429.33691 12494.96875
12409.0 0.0000806 12426.25488 12488.31836
12518.0 0.0000799 12423.16895 12483.32715
12517.0 0.0000799 12420.08203 12479.69824
12192.0 0.0000820 12416.99023 12477.02832
12670.0 0.0000789 12413.89551 12474.74316
12557.0 0.0000796 12410.79883 12472.14355
12277.0 0.0000815 12407.69727 12468.60254
12362.0 0.0000809 12404.59375 12463.97266
12361.0 0.0000809 12401.48633 12458.58691
12473.0 0.0000802 12398.37695 12453.02637
12638.0 0.0000791 12395.26270 12447.73047
12343.0 0.0000810 12392.14648 12443.02441
12431.0 0.0000804 12389.02734 12439.04785
12371.0 0.0000808 12385.90332 12435.84863
12328.0 0.0000811 12382.77734 12433.44531
12455.0 0.0000803 12379.64844 12431.83984
12307.0 0.0000813 12376.51563 12431.01953
12508.0 0.0000799 12373.37891 12430.99609
12320.0 0.0000812 12370.24023 12431.80664
12316.0 0.0000812 12367.09863 12433.49023
12412.0 0.0000806 12363.95313 12436.20117
12435.0 0.0000804 12360.80469 12439.90137
12381.0 0.0000808 12357.65234 12444.88965
12339.0 0.0000810 12354.49707 12450.99414
12393.0 0.0000807 12351.33789 12458.41895
12532.0 0.0000798 12348.17773 12467.10645
12366.0 0.0000809 12345.01172 12477.03613
12463.0 0.0000802 12341.84375 12487.95215
12390.0 0.0000807 12338.67090 12499.58203
12537.0 0.0000798 12335.49707 12511.50977
12489.0 0.0000801 12332.31934 12522.79102
12669.0 0.0000789 12329.13770 12531.71680
12556.0 0.0000796 12325.95410 12535.93652
12575.0 0.0000795 12322.76465 12533.55762
12565.0 0.0000796 12319.57422 12524.67285
12520.0 0.0000799 12316.37891 12511.45410
12524.0 0.0000798 12313.18164 12496.76855
12441.0 0.0000804 12309.98145 12482.80469
12424.0 0.0000805 12306.77637 12470.71875
12559.0 0.0000796 12303.56934 12460.76074
12623.0 0.0000792 12300.35742 12452.57617
12331.0 0.0000811 12297.14355 12445.40332
12429.0 0.0000805 12293.92578 12438.40723
12432.0 0.0000804 12290.70508 12431.03711
12618.0 0.0000793 12287.48047 12423.22754
12477.0 0.0000801 12284.25391 12415.27734
12558.0 0.0000796 12281.02441 12407.53613
12399.0 0.0000807 12277.79004 12400.03125
12399.0 0.0000807 12274.55273 12392.39941
12307.0 0.0000813 12271.31250 12384.19922
12406.0 0.0000806 12268.06934 12375.11719
12296.0 0.0000813 12264.82129 12365.63086
12241.0 0.0000817 12261.57227 12356.46973
12282.0 0.0000814 12258.31836 12348.34277
12254.0 0.0000816 12255.06250 12341.69336
12424.0 0.0000805 12251.80273 12336.76855
12332.0 0.0000811 12248.54004 12333.66309
12235.0 0.0000817 12245.27344 12332.36230
12400.0 0.0000806 12242.00391 12332.71777
12421.0 0.0000805 12238.73242 12334.41406
12534.0 0.0000798 12235.45605 12336.98047
12408.0 0.0000806 12232.17676 12340.09180
12532.0 0.0000798 12228.89551 12344.40918
12375.0 0.0000808 12225.61035 12351.93848
12425.0 0.0000805 12222.32227 12364.17383
12388.0 0.0000807 12219.03027 12378.95801
12483.0 0.0000801 12215.73633 12390.55469
12360.0 0.0000809 12212.43750 12395.85059
12329.0 0.0000811 12209.13770 12398.59082
12468.0 0.0000802 12205.83203 12405.69727
12602.0 0.0000794 12202.52637 12421.40234
12382.0 0.0000808 12199.21680 12445.37500
12356.0 0.0000809 12195.90332 12475.05371
12399.0 0.0000807 12192.58789 12507.25391
12556.0 0.0000796 12189.26758 12537.91309
12637.0 0.0000791 12185.94629 12561.55273
12669.0 0.0000789 12182.62012 12572.52930
12514.0 0.0000799 12179.29297 12568.45508
12805.0 0.0000781 12175.96094 12552.20801
12522.0 0.0000799 12172.62793 12529.57129
12583.0 0.0000795 12169.29102 12505.36133
12493.0 0.0000800 12165.95020 12481.73438
12427.0 0.0000805 12162.60742 12459.03320
12376.0 0.0000808 12159.26172 12437.54590
12372.0 0.0000808 12155.91309 12418.36621
12598.0 0.0000794 12152.56055 12403.00391
12401.0 0.0000806 12149.20703 12392.68164
12252.0 0.0000816 12145.85059 12388.11035
12425.0 0.0000805 12142.48926 12389.63965
12440.0 0.0000804 12139.12793 12397.56836
12480.0 0.0000801 12135.76172 12411.44336
12414.0 0.0000806 12132.39355 12430.99219
12339.0 0.0000810 12129.02148 12455.30859
12436.0 0.0000804 12125.64844 12482.73926
12567.0 0.0000796 12122.27148 12510.62793
12611.0 0.0000793 12118.89258 12535.30957
12666.0 0.0000790 12115.51172 12552.53809
12551.0 0.0000797 12112.12598 12558.68359
12741.0 0.0000785 12108.73926 12551.97266
12599.0 0.0000794 12105.34863 12533.29004
12528.0 0.0000798 12101.95703 12505.71582
12631.0 0.0000792 12098.56152 12473.21582
12731.0 0.0000785 12095.16406 12439.37109
12342.0 0.0000810 12091.76465 12406.75391
12252.0 0.0000816 12088.36230 12376.92090
12502.0 0.0000800 12084.95801 12350.65820
12334.0 0.0000811 12081.54980 12328.30859
12219.0 0.0000818 12078.14063 12309.90039
12215.0 0.0000819 12074.72754 12295.30273
12216.0 0.0000819 12071.31348 12284.22266
12365.0 0.0000809 12067.89551 12276.22656
12295.0 0.0000813 12064.47656 12270.75098
12460.0 0.0000803 12061.05566 12267.26855
12107.0 0.0000826 12057.63184 12265.69531
12165.0 0.0000822 12054.20605 12266.51465
12287.0 0.0000814 12050.77637 12270.70215
12347.0 0.0000810 12047.34668 12279.06934
12332.0 0.0000811 12043.91309 12291.91211
12225.0 0.0000818 12040.47852 12308.15820
12389.0 0.0000807 12037.04102 12325.51172
12388.0 0.0000807 12033.60254 12339.95703
12138.0 0.0000824 12030.16113 12347.14063
12286.0 0.0000814 12026.71777 12344.90820
12248.0 0.0000816 12023.27246 12334.84473
12298.0 0.0000813 12019.82422 12320.70605
12383.0 0.0000808 12016.37598 12306.08398
12479.0 0.0000801 12012.92383 12293.38672
12387.0 0.0000807 12009.47070 12284.08203
12274.0 0.0000815 12006.01563 12278.99414
12432.0 0.0000804 12002.55859 12278.36523
12482.0 0.0000801 11999.10059 12281.41211
12585.0 0.0000795 11995.63867 12286.10840
12213.0 0.0000819 11992.17676 12288.74707
12311.0 0.0000812 11988.71191 12285.03906
12299.0 0.0000813 11985.24707 12271.84277
12269.0 0.0000815 11981.77832 12249.38184
12190.0 0.0000820 11978.30957 12220.85742
12164.0 0.0000822 11974.83984 12190.19043
12104.0 0.0000826 11971.36621 12160.37988
11978.0 0.0000835 11967.89258 12133.14160
12244.0 0.0000817 11964.41602 12109.17773
11982.0 0.0000835 11960.93945 12088.49414
11979.0 0.0000835 11957.45996 12070.67480
12003.0 0.0000833 11953.98047 12055.24609
12046.0 0.0000830 11950.49805 12041.83398
12152.0 0.0000823 11947.01563 12030.21875
12085.0 0.0000827 11943.53125 12020.26758
12023.0 0.0000832 11940.04492 12011.83887
11857.0 0.0000843 11936.55859 12004.84766
11937.0 0.0000838 11933.06934 11999.08008
11982.0 0.0000835 11929.58105 11994.88965
12104.0 0.0000826 11926.08887 11992.20410
12038.0 0.0000831 11922.59766 11991.12109
11968.0 0.0000836 11919.10352 11991.78711
11990.0 0.0000834 11915.61035 11994.29297
12027.0 0.0000831 11912.11523 11998.63574
11974.0 0.0000835 11908.61816 12004.61035
11970.0 0.0000835 11905.12109 12011.66895
11940.0 0.0000838 11901.62207 12018.79199
11858.0 0.0000843 11898.12305 12024.92090
11993.0 0.0000834 11894.62109 12029.63477
11812.0 0.0000847 11891.12109 12033.64063
12123.0 0.0000825 11887.61914 12038.28906
12070.0 0.0000829 11884.11523 12044.81152
11951.0 0.0000837 11880.61230 12054.01953
12025.0 0.0000832 11877.10742 12066.32715
12100.0 0.0000826 11873.60156 12081.78027
12188.0 0.0000820 11870.09473 12099.97656
12082.0 0.0000828 11866.58887 12119.72949
12191.0 0.0000820 11863.08105 12139.05176
12089.0 0.0000827 11859.57324 12154.28516
12155.0 0.0000823 11856.06543 12161.83691
12072.0 0.0000828 11852.55566 12158.62109
12117.0 0.0000825 11849.04590 12143.93457
12054.0 0.0000830 11845.53516 12120.54004
11930.0 0.0000838 11842.02441 12093.45703
12152.0 0.0000823 11838.51270 12067.44531
12097.0 0.0000827 11835.00195 12045.26953
12126.0 0.0000825 11831.48926 12027.56641
11818.0 0.0000846 11827.97754 12013.16016
12043.0 0.0000830 11824.46582 11999.58789
12032.0 0.0000831 11820.95215 11984.37207
11866.0 0.0000843 11817.43945 11966.58887
11931.0 0.0000838 11813.92480 11947.38770
11960.0 0.0000836 11810.41211 11928.66016
11881.0 0.0000842 11806.89746 11911.73730
11813.0 0.0000847 11803.38477 11897.27051
11814.0 0.0000846 11799.87109 11885.39453
12068.0 0.0000829 11796.35645 11876.16699
11911.0 0.0000840 11792.84277 11869.57129
12024.0 0.0000832 11789.32813 11865.49121
11892.0 0.0000841 11785.81543 11863.75586
11875.0 0.0000842 11782.30078 11864.01465
11816.0 0.0000846 11778.78711 11865.70313
11729.0 0.0000853 11775.27246 11867.89551
12038.0 0.0000831 11771.75977 11869.21094
11818.0 0.0000846 11768.24707 11868.13477
11757.0 0.0000851 11764.73242 11863.63965
11926.0 0.0000839 11761.22070 11855.93359
11816.0 0.0000846 11757.70703 11846.18164
11701.0 0.0000855 11754.19531 11835.77441
11836.0 0.0000845 11750.68262 11825.64648
11818.0 0.0000846 11747.17188 11816.14941
11776.0 0.0000849 11743.66016 11807.27246
11735.0 0.0000852 11740.14941 11798.84180
12080.0 0.0000828 11736.63965 11791.04102
11757.0 0.0000851 11733.12891 11784.21484
11740.0 0.0000852 11729.62012 11778.30176
11761.0 0.0000850 11726.11035 11773.36816
11800.0 0.0000847 11722.60254 11769.43945
11824.0 0.0000846 11719.09375 11766.44336
11884.0 0.0000841 11715.58789 11764.28320
11816.0 0.0000846 11712.08203 11762.82031
11682.0 0.0000856 11708.57520 11761.87109
11537.0 0.0000867 11705.07129 11761.15234
11699.0 0.0000855 11701.56543 11760.29199
11763.0 0.0000850 11698.06250 11758.90234
11789.0 0.0000848 11694.55859 11756.67871
11505.0 0.0000869 11691.05762 11753.58594
11754.0 0.0000851 11687.55469 11749.61621
11770.0 0.0000850 11684.05469 11744.98926
11697.0 0.0000855 11680.55664 11739.83789
11834.0 0.0000845 11677.05664 11734.30273
11844.0 0.0000844 11673.55957 11728.48730
11763.0 0.0000850 11670.06152 11722.50098
11831.0 0.0000845 11666.56641 11716.48730
11723.0 0.0000853 11663.07129 11710.55469
11687.0 0.0000856 11659.57715 11704.82520
11741.0 0.0000852 11656.08398 11699.39844
11631.0 0.0000860 11652.59277 11694.34766
11608.0 0.0000861 11649.10254 11689.74414
11670.0 0.0000857 11645.61230 11685.65918
11713.0 0.0000854 11642.12500 11682.09375
11567.0 0.0000865 11638.63672 11679.11426
11666.0 0.0000857 11635.15039 11676.76855
11741.0 0.0000852 11631.66504 11675.11816
11741.0 0.0000852 11628.18164 11674.33594
11674.0 0.0000857 11624.69922 11674.31250
11438.0 0.0000874 11621.21777 11675.23438
11715.0 0.0000854 11617.73828 11677.18945
11708.0 0.0000854 11614.25879 11680.23047
11639.0 0.0000859 11610.78223 11684.23535
11512.0 0.0000869 11607.30566 11689.01465
11554.0 0.0000866 11603.83105 11694.09277
11636.0 0.0000859 11600.35645 11698.75195
11813.0 0.0000847 11596.88574 11702.33594
11715.0 0.0000854 11593.41504 11704.75488
11635.0 0.0000859 11589.94434 11706.63672
11645.0 0.0000859 11586.47754 11709.02930
11522.0 0.0000868 11583.01074 11712.66699
11720.0 0.0000853 11579.54590 11718.15137
11805.0 0.0000847 11576.08105 11725.86816
11614.0 0.0000861 11572.62012 11736.13770
11844.0 0.0000844 11569.15918 11749.25293
11680.0 0.0000856 11565.70020 11765.39941
11771.0 0.0000850 11562.24316 11784.46484
11939.0 0.0000838 11558.78711 11805.58398
11905.0 0.0000840 11555.33203 11826.66602
11886.0 0.0000841 11551.87891 11844.24121
11839.0 0.0000845 11548.42773 11854.33789
11942.0 0.0000837 11544.97754 11854.72559
11947.0 0.0000837 11541.52930 11846.61133
12090.0 0.0000827 11538.08398 11833.86621
11806.0 0.0000847 11534.63770 11820.73828
11721.0 0.0000853 11531.19531 11809.90039
11819.0 0.0000846 11527.75293 11801.87305
11801.0 0.0000847 11524.31250 11795.11035
11817.0 0.0000846 11520.87402 11786.66602
11857.0 0.0000843 11517.43652 11773.24512
11791.0 0.0000848 11514.00098 11753.79980
11937.0 0.0000838 11510.56836 11729.78809
11657.0 0.0000858 11507.13672 11703.96289
11764.0 0.0000850 11503.70605 11678.75879
11515.0 0.0000868 11500.27734 11655.64063
11561.0 0.0000865 11496.84961 11635.23438
11673.0 0.0000857 11493.42480 11617.61328
11684.0 0.0000856 11490.00098 11602.61328
11516.0 0.0000868 11486.57910 11589.87305
11513.0 0.0000869 11483.15820 11578.89453
11541.0 0.0000866 11479.74023 11569.28516
11511.0 0.0000869 11476.32324 11560.64551
11473.0 0.0000872 11472.90723 11552.64160
11665.0 0.0000857 11469.49512 11545.05469
11668.0 0.0000857 11466.08203 11537.67969
11549.0 0.0000866 11462.67188 11530.48730
11395.0 0.0000878 11459.26270 11523.45508
11541.0 0.0000866 11455.85645 11516.63379
11496.0 0.0000870 11452.45117 11510.07227
11414.0 0.0000876 11449.04688 11503.82227
11498.0 0.0000870 11445.64648 11497.94043
11560.0 0.0000865 11442.24512 11492.45410
11427.0 0.0000875 11438.84668 11487.38281
11522.0 0.0000868 11435.44922 11482.72070
11538.0 0.0000867 11432.05469 11478.44629
11386.0 0.0000878 11428.66016 11474.52441
11658.0 0.0000858 11425.26855 11470.93164
11460.0 0.0000873 11421.87891 11467.66211
11260.0 0.0000888 11418.48926 11464.78027
11414.0 0.0000876 11415.10156 11462.37305
11513.0 0.0000869 11411.71582 11460.57129
11645.0 0.0000859 11408.33203 11459.52930
11584.0 0.0000863 11404.94824 11459.39746
11406.0 0.0000877 11401.56836 11460.31934
11412.0 0.0000876 11398.18848 11462.37598
11485.0 0.0000871 11394.81055 11465.56934
11471.0 0.0000872 11391.43555 11469.74219
11451.0 0.0000873 11388.05957 11474.55176
11511.0 0.0000869 11384.68652 11479.55078
11495.0 0.0000870 11381.31348 11484.52930
11317.0 0.0000884 11377.94336 11489.76465
11540.0 0.0000867 11374.57422 11495.97656
11627.0 0.0000860 11371.20703 11504.03027
11548.0 0.0000866 11367.84082 11514.74219
11495.0 0.0000870 11364.47559 11528.77539
11573.0 0.0000864 11361.11230 11546.43750
11730.0 0.0000853 11357.75000 11567.39355
11592.0 0.0000863 11354.38965 11590.22266
11743.0 0.0000852 11351.02930 11611.93750
11615.0 0.0000861 11347.67188 11628.28613
11707.0 0.0000854 11344.31348 11634.31641
11536.0 0.0000867 11340.95898 11627.28516
11495.0 0.0000870 11337.60547 11608.19824
11628.0 0.0000860 11334.25098 11581.07617
11466.0 0.0000872 11330.90039 11550.36523
11511.0 0.0000869 11327.54785 11519.33496
11431.0 0.0000875 11324.19922 11489.98535
11413.0 0.0000876 11320.84961 11463.25488
11161.0 0.0000896 11317.50293 11439.49414
11603.0 0.0000862 11314.15527 11418.68164
11336.0 0.0000882 11310.81152 11400.62891
11379.0 0.0000879 11307.46680 11385.05566
11365.0 0.0000880 11304.12305 11371.66699
11486.0 0.0000871 11300.78125 11360.15234
11275.0 0.0000887 11297.43945 11350.27734
11339.0 0.0000882 11294.09863 11341.78711
11263.0 0.0000888 11290.75781 11334.52539
11388.0 0.0000878 11287.41992 11328.34473
11166.0 0.0000896 11284.08203 11323.14844
11330.0 0.0000883 11280.74414 11318.86133
11417.0 0.0000876 11277.40820 11315.43066
11144.0 0.0000897 11274.07227 11312.88770
11223.0 0.0000891 11270.73730 11311.10254
11316.0 0.0000884 11267.40137 11310.08594
11332.0 0.0000882 11264.06836 11309.75684
11258.0 0.0000888 11260.73438 11309.92969
11271.0 0.0000887 11257.40234 11310.29297
11305.0 0.0000885 11254.07129 11310.51855
11394.0 0.0000878 11250.73828 11310.43262
11427.0 0.0000875 11247.40723 11310.22266
11443.0 0.0000874 11244.07520 11310.30176
11354.0 0.0000881 11240.74609 11310.99902
11461.0 0.0000873 11237.41504 11312.23926
11293.0 0.0000886 11234.08496 11313.44727
11518.0 0.0000868 11230.75488 11313.61035
11319.0 0.0000883 11227.42578 11311.78320
11289.0 0.0000886 11224.09766 11307.71191
11485.0 0.0000871 11220.76758 11302.02832
11385.0 0.0000878 11217.43945 11295.67676
11363.0 0.0000880 11214.10938 11289.41406
11175.0 0.0000895 11210.78125 11283.59277
11230.0 0.0000890 11207.45215 11278.25684
11455.0 0.0000873 11204.12305 11273.58691
11431.0 0.0000875 11200.79395 11270.03320
11087.0 0.0000902 11197.46484 11267.94922
11276.0 0.0000887 11194.13574 11267.46289
11190.0 0.0000894 11190.80566 11268.68066
11331.0 0.0000883 11187.47656 11271.08496
11160.0 0.0000896 11184.14551 11273.81348
11453.0 0.0000873 11180.81445 11275.54688
11205.0 0.0000892 11177.48340 11274.96289
11204.0 0.0000893 11174.15234 11271.48438
11223.0 0.0000891 11170.82031 11265.72754
11208.0 0.0000892 11167.48730 11258.95313
11174.0 0.0000895 11164.15527 11252.38867
11176.0 0.0000895 11160.82031 11246.89355
11363.0 0.0000880 11157.48633 11242.99609
11138.0 0.0000898 11154.15039 11241.06152
11331.0 0.0000883 11150.81543 11241.34668
11245.0 0.0000889 11147.47852 11244.02832
10938.0 0.0000914 11144.14063 11249.13867
11286.0 0.0000886 11140.80371 11256.50195
11135.0 0.0000898 11137.46289 11265.79395
11335.0 0.0000882 11134.12305 11276.62793
11325.0 0.0000883 11130.78125 11288.71387
11293.0 0.0000886 11127.43945 11301.49414
11454.0 0.0000873 11124.09473 11313.79199
11372.0 0.0000879 11120.75000 11323.27246
11240.0 0.0000890 11117.40430 11327.81445
11201.0 0.0000893 11114.05664 11326.48047
11153.0 0.0000897 11110.70801 11320.14258
11310.0 0.0000884 11107.35742 11311.37695
11226.0 0.0000891 11104.00586 11302.15527
11071.0 0.0000903 11100.65137 11293.80859
11220.0 0.0000891 11097.29785 11287.04297
11116.0 0.0000900 11093.94043 11281.87012
11218.0 0.0000891 11090.58301 11277.71191
11238.0 0.0000890 11087.22363 11273.32813
11146.0 0.0000897 11083.86133 11267.30371
11056.0 0.0000904 11080.49902 11258.59570
11040.0 0.0000906 11077.13281 11247.81836
11262.0 0.0000888 11073.76660 11235.82910
11192.0 0.0000893 11070.39648 11224.01270
11035.0 0.0000906 11067.02637 11213.55566
11223.0 0.0000891 11063.65234 11205.23145
10971.0 0.0000911 11060.27832 11199.45898
11313.0 0.0000884 11056.90039 11196.32715
11234.0 0.0000890 11053.52051 11195.74316
11118.0 0.0000899 11050.13965 11197.20605
11200.0 0.0000893 11046.75391 11200.22070
11298.0 0.0000885 11043.36816 11204.07031
11512.0 0.0000869 11039.97852 11207.90625
11305.0 0.0000885 11036.58789 11211.12109
11414.0 0.0000876 11033.19434 11213.56738
11317.0 0.0000884 11029.79688 11215.58105
11376.0 0.0000879 11026.39844 11217.56348
11320.0 0.0000883 11022.99609 11219.31738
11478.0 0.0000871 11019.59180 11219.59766
11234.0 0.0000890 11016.18359 11216.25684
11342.0 0.0000882 11012.77441 11207.39746
11462.0 0.0000872 11009.36035 11192.92383
11066.0 0.0000904 11005.94434 11174.90430
11220.0 0.0000891 11002.52637 11156.08105
11186.0 0.0000894 10999.10352 11138.59473
11079.0 0.0000903 10995.67871 11123.53516
11052.0 0.0000905 10992.25000 11111.21289
11026.0 0.0000907 10988.81934 11101.20898
11182.0 0.0000894 10985.38379 11092.81543
11088.0 0.0000902 10981.94629 11085.22070
10900.0 0.0000917 10978.50391 11077.92676
11102.0 0.0000901 10975.05957 11070.94336
11245.0 0.0000889 10971.61230 11064.59766
11111.0 0.0000900 10968.16016 11058.97266
11164.0 0.0000896 10964.70508 11054.20898
10983.0 0.0000910 10961.24512 11050.20801
11040.0 0.0000906 10957.78418 11046.78613
10958.0 0.0000913 10954.31738 11043.60938
11103.0 0.0000901 10950.84766 11040.29297
11029.0 0.0000907 10947.37500 11036.30762
10852.0 0.0000921 10943.89648 11031.30859
11195.0 0.0000893 10940.41602 11025.35352
10933.0 0.0000915 10936.92969 11018.90430
10838.0 0.0000923 10933.44141 11012.62305
10838.0 0.0000923 10929.94727 11007.15723
10902.0 0.0000917 10926.45117 11002.66406
11025.0 0.0000907 10922.94824 10999.44727
11009.0 0.0000908 10919.44434 10997.58203
10949.0 0.0000913 10915.93457 10997.02148
11011.0 0.0000908 10912.41992 10997.63867
10891.0 0.0000918 10908.90332 10999.27246
11105.0 0.0000900 10905.37988 11001.61816
10923.0 0.0000915 10901.85352 11004.42383
10970.0 0.0000912 10898.32227 11007.36816
10962.0 0.0000912 10894.78711 11010.12891
11065.0 0.0000904 10891.24609 11012.45801
10944.0 0.0000914 10887.70215 11014.12109
11079.0 0.0000903 10884.15332 11015.01953
11083.0 0.0000902 10880.59863 11015.23535
10995.0 0.0000910 10877.04102 11014.88184
11204.0 0.0000893 10873.47754 11014.30078
10881.0 0.0000919 10869.91016 11013.93848
10964.0 0.0000912 10866.33594 11014.06250
10982.0 0.0000911 10862.75977 11015.07227
10760.0 0.0000929 10859.17773 11017.21289
10969.0 0.0000912 10855.58984 11020.54004
11039.0 0.0000906 10851.99902 11024.91797
10933.0 0.0000915 10848.40137 11029.92969
11158.0 0.0000896 10844.79980 11035.30859
11298.0 0.0000885 10841.19238 11042.26367
11253.0 0.0000889 10837.58203 11056.17871
11212.0 0.0000892 10833.96387 11087.58008
11314.0 0.0000884 10830.34180 11143.81152
11384.0 0.0000878 10826.71582 11211.47559
11303.0 0.0000885 10823.08301 11251.75293
11099.0 0.0000901 10819.44531 11230.34766
11045.0 0.0000905 10815.80176 11154.47461
10894.0 0.0000918 10812.15527 11065.21289
10913.0 0.0000916 10808.50098 10996.73242
10847.0 0.0000922 10804.84277 10955.66699
10974.0 0.0000911 10801.17871 10932.29199
11082.0 0.0000902 10797.50977 10916.86816
10810.0 0.0000925 10793.83594 10904.77148
10689.0 0.0000936 10790.15625 10894.78516
10925.0 0.0000915 10786.47070 10886.90918
10905.0 0.0000917 10782.77930 10881.42969
10918.0 0.0000916 10779.08398 10878.68848
10753.0 0.0000930 10775.38184 10879.02539
10921.0 0.0000916 10771.67480 10882.71094
10903.0 0.0000917 10767.96191 10889.82129
10927.0 0.0000915 10764.24414 10900.13867
10957.0 0.0000913 10760.52051 10912.70117
11125.0 0.0000899 10756.79004 10925.65918
10872.0 0.0000920 10753.05566 10935.53809
11030.0 0.0000907 10749.31445 10938.67578
10936.0 0.0000914 10745.56836 10932.95801
10837.0 0.0000923 10741.81641 10919.21582
11059.0 0.0000904 10738.05957 10900.40332
10683.0 0.0000936 10734.29688 10879.76563
10812.0 0.0000925 10730.52734 10859.78809
10998.0 0.0000909 10726.75391 10841.88867
10843.0 0.0000922 10722.97266 10826.62988
10957.0 0.0000913 10719.18750 10814.02148
10851.0 0.0000922 10715.39453 10803.75488
10857.0 0.0000921 10711.59863 10795.43164
10887.0 0.0000919 10707.79492 10788.61914
10861.0 0.0000921 10703.98633 10782.94434
10758.0 0.0000930 10700.17285 10778.16992
10943.0 0.0000914 10696.35156 10774.01953
10984.0 0.0000910 10692.52637 10770.42871
10853.0 0.0000921 10688.69434 10767.23340
10849.0 0.0000922 10684.85742 10764.22559
10987.0 0.0000910 10681.01367 10761.10254
10988.0 0.0000910 10677.16504 10757.27930
10787.0 0.0000927 10673.31250 10752.05078
10871.0 0.0000920 10669.45117 10744.98047
10746.0 0.0000931 10665.58496 10736.31445
10774.0 0.0000928 10661.71387 10726.78223
10764.0 0.0000929 10657.83691 10717.16016
10751.0 0.0000930 10653.95215 10707.98730
10672.0 0.0000937 10650.06445 10699.57715
10499.0 0.0000952 10646.16992 10692.03711
10617.0 0.0000942 10642.26953 10685.44141
10685.0 0.0000936 10638.36426 10679.69629
10695.0 0.0000935 10634.45313 10674.76270
10485.0 0.0000954 10630.53613 10670.58887
10583.0 0.0000945 10626.61230 10667.08496
10577.0 0.0000945 10622.68555 10664.12012
10560.0 0.0000947 10618.75098 10661.54980
10412.0 0.0000960 10614.81152 10659.08105
10632.0 0.0000941 10610.86621 10656.40039
10552.0 0.0000948 10606.91602 10653.25195
10597.0 0.0000944 10602.96094 10649.39941
10584.0 0.0000945 10598.99805 10645.09766
10544.0 0.0000948 10595.03223 10640.75879
10618.0 0.0000942 10591.05859 10636.77734
10704.0 0.0000934 10587.08105 10633.49414
10709.0 0.0000934 10583.09766 10631.13965
10715.0 0.0000933 10579.10938 10629.86719
10689.0 0.0000936 10575.11621 10629.71094
10465.0 0.0000956 10571.11523 10630.81836
10606.0 0.0000943 10567.11230 10632.69824
10668.0 0.0000937 10563.10059 10635.05469
10664.0 0.0000938 10559.08594 10637.24512
10604.0 0.0000943 10555.06543 10638.64844
10603.0 0.0000943 10551.04004 10639.14746
10445.0 0.0000957 10547.00781 10639.26758
10689.0 0.0000936 10542.97266 10639.82910
10686.0 0.0000936 10538.93262 10641.46387
10576.0 0.0000946 10534.88574 10644.25684
10458.0 0.0000956 10530.83496 10647.72266
10692.0 0.0000935 10526.77832 10650.76855
10541.0 0.0000949 10522.71777 10651.87402
10650.0 0.0000939 10518.65039 10649.61328
10746.0 0.0000931 10514.58105 10643.37500
10579.0 0.0000945 10510.50391 10633.62109
10664.0 0.0000938 10506.42383 10621.58594
10571.0 0.0000946 10502.33984 10608.63379
10716.0 0.0000933 10498.24902 10595.85449
10553.0 0.0000948 10494.15430 10584.00781
10406.0 0.0000961 10490.05469 10573.52246
10608.0 0.0000943 10485.95117 10564.69043
10631.0 0.0000941 10481.84180 10557.61816
10539.0 0.0000949 10477.72949 10552.40234
10539.0 0.0000949 10473.61328 10549.10547
10567.0 0.0000946 10469.49023 10547.82422
10480.0 0.0000954 10465.36426 10548.73145
10480.0 0.0000954 10461.23340 10552.00488
10525.0 0.0000950 10457.09961 10557.88281
10448.0 0.0000957 10452.95898 10566.54688
10635.0 0.0000940 10448.81641 10578.11621
10652.0 0.0000939 10444.66797 10592.62793
10646.0 0.0000939 10440.51758 10609.85254
10472.0 0.0000955 10436.36328 10629.24512
10676.0 0.0000937 10432.20313 10649.99023
10880.0 0.0000919 10428.04102 10670.41797
10595.0 0.0000944 10423.87305 10687.96973
10842.0 0.0000922 10419.70215 10699.70996
10918.0 0.0000916 10415.52734 10703.17871
10858.0 0.0000921 10411.34961 10697.04492
10934.0 0.0000915 10407.16699 10681.77734
10527.0 0.0000950 10402.98242 10659.72559
10653.0 0.0000939 10398.79395 10634.34863
10531.0 0.0000950 10394.59961 10608.92188
10520.0 0.0000951 10390.40527 10585.80859
10466.0 0.0000955 10386.20508 10566.38086
10441.0 0.0000958 10382.00293 10551.30176
10567.0 0.0000946 10377.79590 10540.77051
10623.0 0.0000941 10373.58887 10534.68457
10431.0 0.0000959 10369.37695 10532.61426
10524.0 0.0000950 10365.16113 10533.88672
10509.0 0.0000952 10360.94336 10537.50488
10673.0 0.0000937 10356.72168 10542.07129
10679.0 0.0000936 10352.49805 10545.52051
10574.0 0.0000946 10348.27051 10545.10645
10628.0 0.0000941 10344.04199 10538.45313
10539.0 0.0000949 10339.80957 10525.22754
10663.0 0.0000938 10335.57520 10507.72656
10699.0 0.0000935 10331.33887 10489.48633
10641.0 0.0000940 10327.09863 10473.63086
10474.0 0.0000955 10322.85645 10462.32617
10665.0 0.0000938 10318.61133 10456.64453
10753.0 0.0000930 10314.36523 10456.85742
10701.0 0.0000934 10310.11523 10462.26660
10600.0 0.0000943 10305.86426 10470.85742
10690.0 0.0000935 10301.61035 10478.85059
10700.0 0.0000935 10297.35547 10481.08203
10309.0 0.0000970 10293.09863 10473.75098
10427.0 0.0000959 10288.83887 10457.63574
10472.0 0.0000955 10284.57813 10437.18457
10303.0 0.0000971 10280.31445 10416.89648
10490.0 0.0000953 10276.04980 10399.64844
10276.0 0.0000973 10271.78320 10386.75879
10305.0 0.0000970 10267.51563 10378.58691
10340.0 0.0000967 10263.24707 10374.91309
10277.0 0.0000973 10258.97559 10375.20898
10343.0 0.0000967 10254.70313 10378.75977
10331.0 0.0000968 10250.42871 10385.41699
10236.0 0.0000977 10246.15527 10394.70313
10486.0 0.0000954 10241.87793 10406.02344
10274.0 0.0000973 10237.60059 10418.26660
10371.0 0.0000964 10233.32129 10429.54004
10272.0 0.0000974 10229.04297 10437.26074
10448.0 0.0000957 10224.76270 10439.01660
10446.0 0.0000957 10220.48047 10433.70117
10338.0 0.0000967 10216.19922 10421.70020
10418.0 0.0000960 10211.91504 10404.47754
10151.0 0.0000985 10207.63184 10384.06543
10472.0 0.0000955 10203.34668 10362.56250
10373.0 0.0000964 10199.06250 10341.74121
10469.0 0.0000955 10194.77539 10322.70898
10350.0 0.0000966 10190.49023 10306.03809
10315.0 0.0000969 10186.20508 10291.77441
10284.0 0.0000972 10181.91699 10279.64551
10076.0 0.0000992 10177.62988 10269.19141
10291.0 0.0000972 10173.34180 10259.87500
10160.0 0.0000984 10169.05469 10251.31934
10121.0 0.0000988 10164.76563 10243.36133
10345.0 0.0000967 10160.47852 10235.92480
9984.0 0.0001002 10156.19141 10228.96289
10200.0 0.0000980 10151.90332 10222.25391
10293.0 0.0000972 10147.61523 10215.44043
10344.0 0.0000967 10143.32715 10208.22363
10230.0 0.0000978 10139.04004 10200.47266
10316.0 0.0000969 10134.75195 10192.32422
10103.0 0.0000990 10130.46582 10184.07422
10080.0 0.0000992 10126.17871 10176.03613
10288.0 0.0000972 10121.89258 10168.42480
10105.0 0.0000990 10117.60742 10161.36230
10112.0 0.0000989 10113.32129 10154.88574
10225.0 0.0000978 10109.03711 10149.00098
10087.0 0.0000991 10104.75098 10143.66016
10270.0 0.0000974 10100.46875 10138.81055
10232.0 0.0000977 10096.18457 10134.39746
10138.0 0.0000986 10091.90234 10130.37891
10099.0 0.0000990 10087.62012 10126.76953
10121.0 0.0000988 10083.33984 10123.60547
10242.0 0.0000976 10079.06055 10120.95117
10085.0 0.0000992 10074.78027 10118.83301
9954.0 0.0001005 10070.50293 10117.25586
10067.0 0.0000993 10066.22461 10116.13965
10048.0 0.0000995 10061.94922 10115.33398
10071.0 0.0000993 10057.67285 10114.60254
10160.0 0.0000984 10053.39941 10113.62598
10031.0 0.0000997 10049.12598 10112.14063
10076.0 0.0000992 10044.85352 10109.98828
10002.0 0.0001000 10040.58301 10107.10547
10050.0 0.0000995 10036.31250 10103.39551
9953.0 0.0001005 10032.04395 10098.75195
10081.0 0.0000992 10027.77637 10093.17188
10109.0 0.0000989 10023.51074 10086.79688
10077.0 0.0000992 10019.24414 10079.88672
10038.0 0.0000996 10014.98145 10072.68555
10097.0 0.0000990 10010.71973 10065.39453
9963.0 0.0001004 10006.45801 10058.20410
9971.0 0.0001003 10002.19824 10051.20313
9909.0 0.0001009 9997.93945 10044.51270
10009.0 0.0000999 9993.68359 10038.20215
9996.0 0.0001000 9989.42676 10032.33203
9903.0 0.0001010 9985.17383 10027.02441
9971.0 0.0001003 9980.91992 10022.28027
9939.0 0.0001006 9976.66895 10018.22656
10002.0 0.0001000 9972.41992 10014.98340
10014.0 0.0000999 9968.17090 10012.66797
9962.0 0.0001004 9963.92480 10011.39551
9978.0 0.0001002 9959.67773 10011.25879
9953.0 0.0001005 9955.43555 10012.29883
10021.0 0.0000998 9951.19141 10014.43555
9928.0 0.0001007 9946.95117 10017.35840
9970.0 0.0001003 9942.71289 10020.44141
9905.0 0.0001010 9938.47363 10022.64551
9849.0 0.0001015 9934.23730 10022.81348
10006.0 0.0000999 9930.00195 10020.27539
10026.0 0.0000997 9925.76953 10015.35059
9818.0 0.0001019 9921.53613 10009.18457
9994.0 0.0001001 9917.30566 10003.08594
10053.0 0.0000995 9913.07617 9998.04199
9983.0 0.0001002 9908.84863 9994.51660
9961.0 0.0001004 9904.62305 9992.50586
9863.0 0.0001014 9900.39648 9991.51270
10043.0 0.0000996 9896.17383 9990.58496
9887.0 0.0001011 9891.95117 9988.44727
9864.0 0.0001014 9887.73047 9983.98535
9990.0 0.0001001 9883.51074 9976.82129
10010.0 0.0000999 9879.29297 9967.57324
9762.0 0.0001024 9875.07422 9957.20898
9829.0 0.0001017 9870.85938 9946.93457
9786.0 0.0001022 9866.64551 9937.47363
9833.0 0.0001017 9862.43164 9929.24609
9932.0 0.0001007 9858.22070 9922.43359
9866.0 0.0001014 9854.00879 9917.08398
9779.0 0.0001023 9849.79883 9913.04102
10029.0 0.0000997 9845.58887 9910.16699
10085.0 0.0000992 9841.38281 9908.18652
9941.0 0.0001006 9837.17578 9906.77539
9953.0 0.0001005 9832.96875 9905.63281
9875.0 0.0001013 9828.76563 9904.57422
9741.0 0.0001027 9824.56055 9903.60938
9980.0 0.0001002 9820.35742 9902.97070
9809.0 0.0001019 9816.15430 9902.99512
9936.0 0.0001006 9811.95313 9904.01367
9917.0 0.0001008 9807.75195 9906.28320
9724.0 0.0001028 9803.55176 9910.05664
9903.0 0.0001010 9799.35352 9915.55078
9874.0 0.0001013 9795.15332 9922.90527
10134.0 0.0000987 9790.95508 9932.16797
9855.0 0.0001015 9786.75586 9943.21191
9824.0 0.0001018 9782.55859 9955.58105
10148.0 0.0000985 9778.36035 9968.28613
10180.0 0.0000982 9774.16406 9979.75781
9978.0 0.0001002 9769.96680 9988.01855
10221.0 0.0000978 9765.77051 9991.33984
10162.0 0.0000984 9761.57422 9989.04004
9831.0 0.0001017 9757.37695 9982.01465
9896.0 0.0001011 9753.18066 9972.39355
9935.0 0.0001007 9748.98242 9962.74707
9924.0 0.0001008 9744.78613 9955.21191
10113.0 0.0000989 9740.58887 9951.02734
10151.0 0.0000985 9736.39160 9950.42383
10113.0 0.0000989 9732.19434 9952.45508
9919.0 0.0001008 9727.99512 9954.91016
9906.0 0.0001009 9723.79688 9954.58398
10067.0 0.0000993 9719.59668 9948.32031
10064.0 0.0000994 9715.39746 9934.56934
9925.0 0.0001008 9711.19531 9914.21680
9900.0 0.0001010 9706.99414 9889.86621
9863.0 0.0001014 9702.79102 9864.33203
10109.0 0.0000989 9698.58789 9839.69336
9851.0 0.0001015 9694.38379 9817.11426
9830.0 0.0001017 9690.17773 9797.08984
9822.0 0.0001018 9685.97168 9779.69824
9736.0 0.0001027 9681.76270 9764.76270
9949.0 0.0001005 9677.55371 9751.98535
9678.0 0.0001033 9673.34180 9740.97754
9781.0 0.0001022 9669.12988 9731.38770
9656.0 0.0001036 9664.91504 9722.86523
9914.0 0.0001009 9660.69922 9715.18066
9707.0 0.0001030 9656.48242 9708.15820
9721.0 0.0001029 9652.26172 9701.72949
9660.0 0.0001035 9648.04102 9695.87988
9756.0 0.0001025 9643.81641 9690.60840
9799.0 0.0001021 9639.59180 9685.95215
9795.0 0.0001021 9635.36328 9681.93457
9847.0 0.0001016 9631.13281 9678.61426
9782.0 0.0001022 9626.90137 9676.00391
9678.0 0.0001033 9622.66602 9674.11621
9550.0 0.0001047 9618.42871 9672.91211
9761.0 0.0001024 9614.18750 9672.27051
9824.0 0.0001018 9609.94531 9671.93945
9592.0 0.0001043 9605.69824 9671.46973
9625.0 0.0001039 9601.45020 9670.29492
9709.0 0.0001030 9597.19727 9667.84180
9737.0 0.0001027 9592.94238 9663.92090
9820.0 0.0001018 9588.68555 9658.72754
9753.0 0.0001025 9584.42285 9652.84180
9613.0 0.0001040 9580.15820 9646.86426
9598.0 0.0001042 9575.88867 9641.22461
9802.0 0.0001020 9571.61816 9636.14941
9478.0 0.0001055 9567.34082 9631.71094
9518.0 0.0001051 9563.06250 9627.82617
9763.0 0.0001024 9558.77832 9624.34668
9643.0 0.0001037 9554.49219 9621.08398
9701.0 0.0001031 9550.20117 9617.90820
9652.0 0.0001036 9545.90527 9614.74707
9712.0 0.0001030 9541.60645 9611.56445
9633.0 0.0001038 9537.30176 9608.64160
9631.0 0.0001038 9532.99512 9606.01855
9639.0 0.0001037 9528.68164 9603.81641
9778.0 0.0001023 9524.36523 9602.17969
9752.0 0.0001025 9520.04395 9601.18262
9627.0 0.0001039 9515.71680 9600.90039
9544.0 0.0001048 9511.38672 9601.38281
9533.0 0.0001049 9507.05078 9602.56934
9661.0 0.0001035 9502.70996 9604.33594
9694.0 0.0001032 9498.36426 9606.41992
9709.0 0.0001030 9494.01367 9608.46387
9528.0 0.0001050 9489.65625 9609.94629
9688.0 0.0001032 9485.29688 9610.28809
9671.0 0.0001034 9480.93066 9608.95020
9591.0 0.0001043 9476.55762 9605.52441
9640.0 0.0001037 9472.18066 9599.90430
9727.0 0.0001028 9467.79785 9592.24121
9439.0 0.0001059 9463.41016 9582.93359
9670.0 0.0001034 9459.01465 9572.48438
9551.0 0.0001047 9454.61621 9561.41113
9670.0 0.0001034 9450.20996 9550.15430
9491.0 0.0001054 9445.79883 9539.05371
9412.0 0.0001062 9441.38281 9528.36230
9528.0 0.0001050 9436.95801 9518.19336
9597.0 0.0001042 9432.52930 9508.69336
9374.0 0.0001067 9428.09375 9499.81055
9224.0 0.0001084 9423.65332 9491.56934
9450.0 0.0001058 9419.20508 9483.93848
9260.0 0.0001080 9414.75098 9476.88379
9368.0 0.0001067 9410.29297 9470.35449
9480.0 0.0001055 9405.82520 9464.29492
9432.0 0.0001060 9401.35254 9458.69922
9526.0 0.0001050 9396.87305 9453.54297
9305.0 0.0001075 9392.38867 9448.85449
9398.0 0.0001064 9387.89551 9444.65430
9247.0 0.0001081 9383.39746 9440.98047
9464.0 0.0001057 9378.89258 9437.84180
9453.0 0.0001058 9374.38086 9435.32227
9477.0 0.0001055 9369.86328 9433.22266
9423.0 0.0001061 9365.33789 9431.55371
9430.0 0.0001060 9360.80762 9430.16992
9275.0 0.0001078 9356.26855 9428.83691
9532.0 0.0001049 9351.72461 9427.21875
9296.0 0.0001076 9347.17285 9424.85156
9311.0 0.0001074 9342.61523 9421.43066
9364.0 0.0001068 9338.04980 9416.84961
9386.0 0.0001065 9333.47949 9411.26953
9322.0 0.0001073 9328.90234 9404.91992
9414.0 0.0001062 9324.31641 9398.05371
9363.0 0.0001068 9319.72559 9390.88281
9436.0 0.0001060 9315.12598 9383.49609
9362.0 0.0001068 9310.52246 9376.02441
9627.0 0.0001039 9305.90918 9368.58887
9332.0 0.0001072 9301.29297 9361.30176
9402.0 0.0001064 9296.66797 9354.25488
9491.0 0.0001054 9292.03613 9347.54004
9311.0 0.0001074 9287.39941 9341.18066
9294.0 0.0001076 9282.75293 9335.17871
9423.0 0.0001061 9278.10254 9329.43945
9269.0 0.0001079 9273.44434 9323.75977
9151.0 0.0001093 9268.78125 9317.93066
9085.0 0.0001101 9264.11035 9311.57617
9377.0 0.0001066 9259.43359 9304.69141
9370.0 0.0001067 9254.75195 9297.46484
9275.0 0.0001078 9250.06152 9290.17871
9340.0 0.0001071 9245.36621 9283.08789
9300.0 0.0001075 9240.66309 9276.34375
9368.0 0.0001067 9235.95703 9270.02051
9177.0 0.0001090 9231.24121 9264.15527
9161.0 0.0001092 9226.52246 9258.68457
9253.0 0.0001081 9221.79590 9253.58496
9139.0 0.0001094 9217.06543 9248.78125
9222.0 0.0001084 9212.32813 9244.18750
9082.0 0.0001101 9207.58496 9239.70020
9156.0 0.0001092 9202.83691 9235.22852
9406.0 0.0001063 9198.08203 9230.76953
9225.0 0.0001084 9193.32324 9226.37598
9202.0 0.0001087 9188.55762 9222.17383
9145.0 0.0001093 9183.78809 9218.34863
9323.0 0.0001073 9179.01367 9215.04688
9180.0 0.0001089 9174.23340 9212.40430
9156.0 0.0001092 9169.44922 9210.57129
9192.0 0.0001088 9164.65820 9209.67578
9351.0 0.0001069 9159.86523 9209.85254
9327.0 0.0001072 9155.06543 9211.16895
9201.0 0.0001087 9150.26270 9213.58887
9293.0 0.0001076 9145.45410 9216.82227
9216.0 0.0001085 9140.64355 9220.20703
9323.0 0.0001073 9135.82813 9222.54395
9340.0 0.0001071 9131.00781 9222.33203
9162.0 0.0001091 9126.18555 9218.37012
9187.0 0.0001088 9121.35742 9210.45605
9100.0 0.0001099 9116.52734 9199.61621
9193.0 0.0001088 9111.69238 9187.38281
9086.0 0.0001101 9106.85645 9175.08496
9241.0 0.0001082 9102.01563 9163.54590
9199.0 0.0001087 9097.17383 9153.18262
9227.0 0.0001084 9092.33008 9143.99414
9196.0 0.0001087 9087.48047 9136.29395
9211.0 0.0001086 9082.63086 9129.87402
9014.0 0.0001109 9077.77832 9124.63770
9145.0 0.0001093 9072.92480 9120.48438
9139.0 0.0001094 9068.06738 9117.31836
9181.0 0.0001089 9063.20996 9115.04590
9126.0 0.0001096 9058.35156 9113.58301
9140.0 0.0001094 9053.49023 9112.80273
8986.0 0.0001113 9048.62891 9112.55273
9092.0 0.0001100 9043.76660 9112.57031
9108.0 0.0001098 9038.90332 9112.47559
9171.0 0.0001090 9034.03906 9111.76270
9154.0 0.0001092 9029.17578 9109.94238
9036.0 0.0001107 9024.31055 9106.71094
9296.0 0.0001076 9019.44727 9102.13477
9203.0 0.0001087 9014.58496 9096.41211
9056.0 0.0001104 9009.72070 9089.87500
9196.0 0.0001087 9004.85938 9082.82520
9013.0 0.0001110 8999.99609 9075.45996
9238.0 0.0001082 8995.13770 9067.91406
9052.0 0.0001105 8990.27734 9060.35938
9004.0 0.0001111 8985.42090 9052.85742
9117.0 0.0001097 8980.56445 9045.54688
8964.0 0.0001116 8975.71191 9038.52051
9037.0 0.0001107 8970.86133 9031.85645
9065.0 0.0001103 8966.01172 9025.61230
9018.0 0.0001109 8961.16602 9019.82227
8837.0 0.0001132 8956.32227 9014.54102
9064.0 0.0001103 8951.48242 9009.79102
8899.0 0.0001124 8946.64551 9005.57813
8834.0 0.0001132 8941.81348 9001.93457
9142.0 0.0001094 8936.98535 8998.87891
8972.0 0.0001115 8932.15918 8996.45410
8825.0 0.0001133 8927.33984 8994.70410
8935.0 0.0001119 8922.52246 8993.74512
8990.0 0.0001112 8917.71191 8993.73340
9075.0 0.0001102 8912.90430 8994.95117
9137.0 0.0001094 8908.10449 8997.21875
8986.0 0.0001113 8903.30762 9000.51660
9055.0 0.0001104 8898.51855 9004.32031
9081.0 0.0001101 8893.73535 9007.58789
9069.0 0.0001103 8888.95703 9008.78027
8828.0 0.0001133 8884.18555 9006.04297
8921.0 0.0001121 8879.42090 8998.25586
8866.0 0.0001128 8874.66309 8986.25098
8905.0 0.0001123 8869.91211 8972.32813
8943.0 0.0001118 8865.16992 8958.58496
8858.0 0.0001129 8860.43262 8946.26270
8862.0 0.0001128 8855.70508 8935.89844
8867.0 0.0001128 8850.98633 8927.50098
8883.0 0.0001126 8846.27344 8920.82324
8873.0 0.0001127 8841.57129 8915.45801
8835.0 0.0001132 8836.87598 8910.99902
8820.0 0.0001134 8832.19141 8907.07031
8850.0 0.0001130 8827.51367 8903.35156
8776.0 0.0001139 8822.84766 8899.57520
8896.0 0.0001124 8818.19141 8895.51855
8824.0 0.0001133 8813.54199 8891.02441
8777.0 0.0001139 8808.90527 8885.97461
8897.0 0.0001124 8804.27637 8880.32031
8827.0 0.0001133 8799.66016 8874.10059
8867.0 0.0001128 8795.05273 8867.38672
8710.0 0.0001148 8790.45801 8860.31055
8813.0 0.0001135 8785.87207 8853.03027
8732.0 0.0001145 8781.29980 8845.70703
8894.0 0.0001124 8776.73828 8838.63184
8828.0 0.0001133 8772.18652 8831.73926
8769.0 0.0001140 8767.64844 8825.25781
8946.0 0.0001118 8763.12012 8819.33496
8802.0 0.0001136 8758.60645 8813.90625
8740.0 0.0001144 8754.10254 8809.02344
8943.0 0.0001118 8749.61328 8804.73828
8776.0 0.0001139 8745.13477 8801.10840
8795.0 0.0001137 8740.67090 8798.19727
8838.0 0.0001131 8736.21973 8796.04590
8780.0 0.0001139 8731.77930 8794.56934
8729.0 0.0001146 8727.35449 8793.55859
8892.0 0.0001125 8722.94141 8792.65527
8927.0 0.0001120 8718.54199 8791.42383
8647.0 0.0001156 8714.15527 8789.50781
8787.0 0.0001138 8709.78516 8786.73145
8706.0 0.0001149 8705.42676 8783.06738
9065.0 0.0001103 8701.08203 8778.63086
8815.0 0.0001134 8696.75293 8773.61035
8675.0 0.0001153 8692.43555 8768.21973
8820.0 0.0001134 8688.13379 8762.62891
8655.0 0.0001155 8683.84473 8756.91504
8666.0 0.0001154 8679.57227 8751.13184
8680.0 0.0001152 8675.31250 8745.34277
8629.0 0.0001159 8671.06836 8739.69922
8808.0 0.0001135 8666.83887 8734.37500
8661.0 0.0001155 8662.62207 8729.52051
8759.0 0.0001142 8658.42188 8725.28320
8657.0 0.0001155 8654.23438 8721.73242
8821.0 0.0001134 8650.06348 8718.94434
8888.0 0.0001125 8645.90527 8716.86230
8592.0 0.0001164 8641.76367 8715.52441
8885.0 0.0001125 8637.63477 8714.93750
8849.0 0.0001130 8633.52246 8715.07031
8916.0 0.0001122 8629.42383 8715.86719
8655.0 0.0001155 8625.33984 8717.23926
8594.0 0.0001164 8621.27051 8719.00684
8789.0 0.0001138 8617.21484 8720.99609
8742.0 0.0001144 8613.17480 8723.02148
8664.0 0.0001154 8609.14844 8724.96289
8695.0 0.0001150 8605.13672 8726.72852
8707.0 0.0001149 8601.14063 8728.03516
8536.0 0.0001172 8597.15625 8728.25879
8702.0 0.0001149 8593.18848 8726.34863
8716.0 0.0001147 8589.23242 8721.22070
8725.0 0.0001146 8585.29199 8712.41113
8798.0 0.0001137 8581.36426 8700.51563
8699.0 0.0001150 8577.45020 8686.81250
8528.0 0.0001173 8573.54980 8672.75195
8625.0 0.0001159 8569.66406 8659.40234
8622.0 0.0001160 8565.79102 8647.39160
8631.0 0.0001159 8561.92969 8637.00781
8623.0 0.0001160 8558.08301 8628.31738
8662.0 0.0001154 8554.24707 8621.29980
8655.0 0.0001155 8550.42578 8615.91797
8644.0 0.0001157 8546.61426 8612.10352
8669.0 0.0001154 8542.81738 8609.86621
8624.0 0.0001160 8539.03125 8609.16699
8636.0 0.0001158 8535.25684 8609.86035
8711.0 0.0001148 8531.49512 8611.62109
8756.0 0.0001142 8527.74219 8613.89355
8736.0 0.0001145 8524.00195 8616.01953
8795.0 0.0001137 8520.27148 8617.63281
9018.0 0.0001109 8516.55273 8618.83789
8760.0 0.0001142 8512.84180 8619.75977
8645.0 0.0001157 8509.14258 8620.03809
8740.0 0.0001144 8505.45410 8618.73047
8699.0 0.0001150 8501.77148 8614.67578
8590.0 0.0001164 8498.10059 8607.23926
8522.0 0.0001173 8494.43652 8596.72656
8441.0 0.0001185 8490.78223 8584.21094
8658.0 0.0001155 8487.13379 8570.94141
8520.0 0.0001174 8483.49512 8557.88867
8598.0 0.0001163 8479.86133 8545.65527
8496.0 0.0001177 8476.23633 8534.54004
8587.0 0.0001165 8472.61816 8524.54883
8432.0 0.0001186 8469.00391 8515.86719
8455.0 0.0001183 8465.39746 8508.29785
8478.0 0.0001180 8461.79492 8501.72852
8489.0 0.0001178 8458.19824 8495.98828
8457.0 0.0001182 8454.60449 8490.89160
8419.0 0.0001188 8451.01660 8486.26758
8524.0 0.0001173 8447.43066 8481.89453
8418.0 0.0001188 8443.85059 8477.60645
8552.0 0.0001169 8440.27148 8473.30859
8591.0 0.0001164 8436.69434 8468.98828
8460.0 0.0001182 8433.12109 8464.72070
8480.0 0.0001179 8429.54688 8460.60547
8541.0 0.0001171 8425.97461 8456.76855
8651.0 0.0001156 8422.40234 8453.30273
8414.0 0.0001188 8418.83203 8450.32227
8492.0 0.0001178 8415.25977 8447.97461
8469.0 0.0001181 8411.68652 8446.45215
8480.0 0.0001179 8408.11328 8446.06641
8431.0 0.0001186 8404.53613 8447.21289
8405.0 0.0001190 8400.95801 8450.40527
8393.0 0.0001191 8397.37598 8456.16895
8464.0 0.0001181 8393.79199 8464.98340
8639.0 0.0001158 8390.20313 8477.04590
8531.0 0.0001172 8386.61133 8492.08887
8440.0 0.0001185 8383.01367 8508.95801
8618.0 0.0001160 8379.41016 8525.09766
8504.0 0.0001176 8375.80176 8536.29004
8615.0 0.0001161 8372.18555 8537.90918
8397.0 0.0001191 8368.56445 8527.98047
8518.0 0.0001174 8364.93359 8508.93652
8664.0 0.0001154 8361.29785 8485.48047
8498.0 0.0001177 8357.65137 8461.67676
8415.0 0.0001188 8353.99707 8439.89844
8440.0 0.0001185 8350.33398 8421.17676
8430.0 0.0001186 8346.65918 8405.74805
8321.0 0.0001202 8342.97559 8393.38281
8403.0 0.0001190 8339.28027 8383.66406
8332.0 0.0001200 8335.57520 8376.04004
8475.0 0.0001180 8331.85547 8370.05371
8403.0 0.0001190 8328.12500 8365.30469
8447.0 0.0001184 8324.38281 8361.47363
8265.0 0.0001210 8320.62598 8358.32227
8349.0 0.0001198 8316.85547 8355.63867
8304.0 0.0001204 8313.07031 8353.25000
8100.0 0.0001235 8309.27148 8350.86426
8407.0 0.0001189 8305.45605 8348.36328
8197.0 0.0001220 8301.62695 8345.71289
8148.0 0.0001227 8297.78027 8342.96289
8329.0 0.0001201 8293.91797 8340.20801
8268.0 0.0001209 8290.03906 8337.53906
8168.0 0.0001224 8286.14160 8334.95605
8220.0 0.0001217 8282.22754 8332.53809
8367.0 0.0001195 8278.29395 8330.32129
8330.0 0.0001200 8274.34375 8328.30273
8225.0 0.0001216 8270.37402 8326.40723
8350.0 0.0001198 8266.38477 8324.56250
8133.0 0.0001230 8262.37500 8322.68848
8500.0 0.0001176 8258.34766 8320.73145
8270.0 0.0001209 8254.29980 8318.65430
8208.0 0.0001218 8250.22949 8316.42969
8286.0 0.0001207 8246.14063 8314.03223
8368.0 0.0001195 8242.02832 8311.40430
8312.0 0.0001203 8237.89648 8308.53906
8425.0 0.0001187 8233.74121 8305.40234
8282.0 0.0001207 8229.56543 8301.97949
8275.0 0.0001208 8225.36816 8298.19824
8513.0 0.0001175 8221.14648 8293.95508
8269.0 0.0001209 8216.90527 8289.07324
8313.0 0.0001203 8212.63867 8283.34180
8169.0 0.0001224 8208.35059 8276.68359
8261.0 0.0001211 8204.03809 8269.14453
8220.0 0.0001217 8199.70410 8261.00391
8088.0 0.0001236 8195.34570 8252.58008
8157.0 0.0001226 8190.96582 8244.17676
8252.0 0.0001212 8186.56250 8236.00391
8081.0 0.0001237 8182.13379 8228.18750
8190.0 0.0001221 8177.68359 8220.78613
8245.0 0.0001213 8173.20850 8213.81250
8202.0 0.0001219 8168.71191 8207.25293
8396.0 0.0001191 8164.18994 8201.09082
8244.0 0.0001213 8159.64648 8195.29199
8237.0 0.0001214 8155.07910 8189.81055
8130.0 0.0001230 8150.48926 8184.59033
8134.0 0.0001229 8145.87695 8179.58350
8231.0 0.0001215 8141.24023 8174.73633
8202.0 0.0001219 8136.58252 8170.02148
8178.0 0.0001223 8131.90088 8165.42188
8221.0 0.0001216 8127.19922 8160.94385
8234.0 0.0001214 8122.47314 8156.60449
8075.0 0.0001238 8117.72754 8152.43311
8243.0 0.0001213 8112.96045 8148.44238
8096.0 0.0001235 8108.17139 8144.64111
8061.0 0.0001241 8103.36279 8141.01318
8142.0 0.0001228 8098.53223 8137.50879
8132.0 0.0001230 8093.68408 8134.07324
8025.0 0.0001246 8088.81396 8130.64063
7988.0 0.0001252 8083.92676 8127.22119
8090.0 0.0001236 8079.01904 8123.88379
8092.0 0.0001236 8074.09619 8120.77539
8030.0 0.0001245 8069.15479 8118.05420
8047.0 0.0001243 8064.19434 8115.89307
8075.0 0.0001238 8059.22021 8114.46875
8086.0 0.0001237 8054.22803 8113.94434
8136.0 0.0001229 8049.22217 8114.49316
8049.0 0.0001242 8044.19971 8116.29248
8089.0 0.0001236 8039.16602 8119.44287
8004.0 0.0001249 8034.11621 8124.14355
8082.0 0.0001237 8029.05615 8130.38867
8241.0 0.0001213 8023.98438 8138.08154
8233.0 0.0001215 8018.89941 8146.97900
8360.0 0.0001196 8013.80566 8156.68457
8212.0 0.0001218 8008.70117 8166.70020
8183.0 0.0001222 8003.58887 8176.47705
8294.0 0.0001206 7998.46729 8185.31836
8199.0 0.0001220 7993.34033 8192.26074
8311.0 0.0001203 7988.20752 8195.99902
8220.0 0.0001217 7983.06689 8195.10840
8326.0 0.0001201 7977.92334 8188.58984
8175.0 0.0001223 7972.77539 8176.29102
8255.0 0.0001211 7967.62549 8158.96973
8201.0 0.0001219 7962.47266 8138.03613
8269.0 0.0001209 7957.32080 8115.21729
8166.0 0.0001225 7952.16699 8092.11572
8077.0 0.0001238 7947.01611 8069.94971
8126.0 0.0001231 7941.86768 8049.45947
8038.0 0.0001244 7936.72021 8030.98438
7929.0 0.0001261 7931.57861 8014.60059
7970.0 0.0001255 7926.43994 8000.22168
7962.0 0.0001256 7921.31006 7987.68799
8028.0 0.0001246 7916.18506 7976.81299
7918.0 0.0001263 7911.06934 7967.40381
7871.0 0.0001270 7905.96143 7959.28760
8040.0 0.0001244 7900.86572 7952.30176
7935.0 0.0001260 7895.78027 7946.29932
7918.0 0.0001263 7890.70557 7941.13672
8015.0 0.0001248 7885.64648 7936.66846
8014.0 0.0001248 7880.59863 7932.72705
7927.0 0.0001262 7875.56787 7929.19922
8037.0 0.0001244 7870.55225 7925.97461
7849.0 0.0001274 7865.55469 7922.90283
7787.0 0.0001284 7860.57471 7919.76758
7855.0 0.0001273 7855.61230 7916.20752
7835.0 0.0001276 7850.67188 7911.86816
7867.0 0.0001271 7845.75000 7906.45264
7894.0 0.0001267 7840.85107 7899.90186
7820.0 0.0001279 7835.97412 7892.46338
7806.0 0.0001281 7831.12109 7884.55518
7879.0 0.0001269 7826.29053 7876.57129
7945.0 0.0001259 7821.48730 7868.77441
7677.0 0.0001303 7816.70898 7861.27686
7884.0 0.0001268 7811.95557 7854.09961
7823.0 0.0001278 7807.23096 7847.22510
8006.0 0.0001249 7802.53223 7840.64502
7793.0 0.0001283 7797.86279 7834.38232
7804.0 0.0001281 7793.22119 7828.50684
7728.0 0.0001294 7788.61084 7823.06055
7787.0 0.0001284 7784.02783 7818.09814
7799.0 0.0001282 7779.47705 7813.65576
7773.0 0.0001287 7774.95752 7809.75928
7774.0 0.0001286 7770.46680 7806.42725
7834.0 0.0001276 7766.00830 7803.66406
7631.0 0.0001310 7761.58057 7801.45215
7744.0 0.0001291 7757.18604 7799.75195
7701.0 0.0001299 7752.82080 7798.44141
7703.0 0.0001298 7748.48926 7797.31787
7672.0 0.0001303 7744.18994 7796.07275
7892.0 0.0001267 7739.92041 7794.29053
7880.0 0.0001269 7735.68359 7791.59277
7742.0 0.0001292 7731.47656 7787.70166
7897.0 0.0001266 7727.30225 7782.63477
7797.0 0.0001283 7723.15674 7776.63721
7786.0 0.0001284 7719.04297 7770.10693
7801.0 0.0001282 7714.95801 7763.43750
7710.0 0.0001297 7710.90283 7756.95215
7857.0 0.0001273 7706.87598 7750.85840
7766.0 0.0001288 7702.87549 7745.28076
7761.0 0.0001288 7698.90332 7740.27148
7700.0 0.0001299 7694.95508 7735.83936
7929.0 0.0001261 7691.03320 7731.97949
7708.0 0.0001297 7687.13477 7728.66699
7655.0 0.0001306 7683.25928 7725.89111
7834.0 0.0001276 7679.40381 7723.63477
7682.0 0.0001302 7675.57080 7721.89307
7860.0 0.0001272 7671.75537 7720.64307
7736.0 0.0001293 7667.95605 7719.86621
7786.0 0.0001284 7664.17432 7719.50684
7750.0 0.0001290 7660.40430 7719.60059
7793.0 0.0001283 7656.64795 7720.03271
7672.0 0.0001303 7652.90088 7720.62354
7828.0 0.0001277 7649.16406 7720.99414
7904.0 0.0001265 7645.43359 7720.86182
7829.0 0.0001277 7641.70605 7719.79639
7783.0 0.0001285 7637.98242 7717.62109
7909.0 0.0001264 7634.25781 7714.36865
7858.0 0.0001273 7630.53223 7710.19629
7850.0 0.0001274 7626.80127 7705.25684
7675.0 0.0001303 7623.06543 7699.70166
7775.0 0.0001286 7619.31836 7693.63379
7657.0 0.0001306 7615.56152 7687.18457
7737.0 0.0001292 7611.79150 7680.48193
7645.0 0.0001308 7608.00293 7673.66699
7676.0 0.0001303 7604.19629 7666.87305
7554.0 0.0001324 7600.36719 7660.20361
7637.0 0.0001309 7596.51611 7653.74072
7748.0 0.0001291 7592.63623 7647.52637
7579.0 0.0001319 7588.72803 7641.59375
7568.0 0.0001321 7584.78760 7635.95215
7503.0 0.0001333 7580.81396 7630.62158
7425.0 0.0001347 7576.80322 7625.63867
7585.0 0.0001318 7572.75244 7621.03760
7522.0 0.0001329 7568.66064 7616.87988
7606.0 0.0001315 7564.52393 7613.23291
7640.0 0.0001309 7560.34277 7610.15967
7600.0 0.0001316 7556.11133 7607.70508
7469.0 0.0001339 7551.83154 7605.88574
7517.0 0.0001330 7547.50049 7604.62939
7483.0 0.0001336 7543.11377 7603.72754
7475.0 0.0001338 7538.67334 7602.77881
7531.0 0.0001328 7534.17480 7601.15967
7524.0 0.0001329 7529.62109 7598.19043
7465.0 0.0001340 7525.00732 7593.44775
7549.0 0.0001325 7520.33643 7587.04932
7537.0 0.0001327 7515.60449 7579.60840
7657.0 0.0001306 7510.81641 7571.89697
7492.0 0.0001335 7505.96924 7564.56152
7556.0 0.0001323 7501.06299 7558.03076
7778.0 0.0001286 7496.10254 7552.54150
7508.0 0.0001332 7491.08545 7548.17773
7417.0 0.0001348 7486.01758 7544.92871
7570.0 0.0001321 7480.89844 7542.66797
7525.0 0.0001329 7475.73535 7541.14111
7404.0 0.0001351 7470.52734 7539.93604
7559.0 0.0001323 7465.28320 7538.45801
7493.0 0.0001335 7460.00732 7535.96582
7570.0 0.0001321 7454.70166 7531.72607
7591.0 0.0001317 7449.37842 7525.28271
7573.0 0.0001320 7444.04102 7516.67871
7464.0 0.0001340 7438.70166 7506.44873
7404.0 0.0001351 7433.36523 7495.34668
7584.0 0.0001319 7428.04736 7484.08203
7499.0 0.0001334 7422.75684 7473.15869
7385.0 0.0001354 7417.50391 7462.87061
7472.0 0.0001338 7412.30664 7453.37305
7558.0 0.0001323 7407.17773 7444.70215
7574.0 0.0001320 7402.13477 7436.84961
7532.0 0.0001328 7397.19385 7429.75391
7439.0 0.0001344 7392.37744 7423.33936
7402.0 0.0001351 7387.70215 7417.49805
7504.0 0.0001333 7383.19434 7412.11133
7402.0 0.0001351 7378.87744 7407.00342
7455.0 0.0001341 7374.77490 7402.17188
7431.0 0.0001346 7370.91797 7397.54004
7497.0 0.0001334 7367.33447 7393.13379
7440.0 0.0001344 7364.05957 7389.04492
7455.0 0.0001341 7361.12451 7385.37646
7311.0 0.0001368 7358.56787 7382.23926
7377.0 0.0001356 7356.42822 7379.69873
7346.0 0.0001361 7354.74902 7377.81152
7334.0 0.0001364 7353.57324 7376.60498
7400.0 0.0001351 7352.94824 7376.07471
7416.0 0.0001348 7352.92529 7376.22217
7376.0 0.0001356 7353.55762 7377.06055
7263.0 0.0001377 7354.90137 7378.64551
7440.0 0.0001344 7357.01904 7381.08887
7372.0 0.0001356 7359.97119 7384.50781
7238.0 0.0001382 7363.82666 7389.03906
7373.0 0.0001356 7368.65869 7394.77295
7347.0 0.0001361 7374.54053 7401.82520
7471.0 0.0001339 7381.55420 7410.20410
7596.0 0.0001316 7389.77979 7419.84326
7193.0 0.0001390 7399.31299 7430.53027
7543.0 0.0001326 7410.23877 7441.93115
7429.0 . . .
loop_
_refln_index_h
_refln_index_k
_refln_index_l
_refln_observed_status
_refln_F_squared_meas
_refln_F_squared_calc
_refln_phase_calc
_refln_d_spacing
_gsas_i100_meas
0 0 1 o 1276.523 1301.628 0.00 8.07972 18.02
2 0 0 o 375.375 149.930 180.00 4.61250 0.59
1 1 0 o -46.418 63.701 0.00 4.39961 0.49
0 1 1 o 892.025 1129.967 180.00 4.25514 4.06
0 0 2 o 808.401 248.296 180.00 4.03986 2.62
2 0 -1 o 11112.444 10297.183 0.00 4.09320 23.68
1 1 -1 o 12303.581 11953.206 0.00 3.90248 66.35
1 1 1 o 17656.361 17848.545 0.00 3.82645 71.47
2 0 1 o 27561.385 27953.803 0.00 3.92364 50.31
2 1 0 o 950.288 776.632 180.00 3.39198 3.03
0 1 2 o 576.795 642.144 0.00 3.14372 1.37
2 1 -1 o 454.777 451.689 180.00 3.16866 1.36
2 0 -2 o 7853.193 7595.454 0.00 3.11580 12.47
2 1 1 o 144.660 93.077 0.00 3.08801 0.32
1 1 -2 o 38490.81 38648.39 0.00 3.01101 100.00
1 1 2 o 3368.705 4083.329 0.00 2.94156 11.66
2 0 2 o 13298.528 13267.020 0.00 2.96766 17.56
0 0 3 o 17555.199 17380.703 0.00 2.69324 19.07
2 1 -2 o 1642.900 2011.218 0.00 2.64520 3.17
3 1 0 o 25354.367 25351.922 0.00 2.62010 43.32
2 1 2 o 336.348 208.670 0.00 2.55274 0.85
3 1 -1 o 4664.001 4831.794 0.00 2.52350 8.79
0 2 0 o 28751.051 30652.617 0.00 2.50277 25.16
3 1 1 o 106.719 201.206 180.00 2.46228 0.00
0 1 3 o 982.207 1235.498 180.00 2.37173 1.61
1 2 0 o -17.054 46.103 0.00 2.41546 0.00
2 0 -3 o 5139.795 6392.001 0.00 2.37717 5.07
0 2 1 o 1315.069 1399.255 0.00 2.39071 2.54
1 1 -3 o 1320.682 1177.459 0.00 2.32136 2.40
1 1 3 o 7415.469 6955.661 0.00 2.27344 12.44
1 2 -1 o 3523.215 3403.834 180.00 2.32246 5.07
2 0 3 o 122.069 113.385 180.00 2.27760 0.04
4 0 0 o 9672.560 6914.718 0.00 2.30625 4.32
1 2 1 o 53.568 26.844 0.00 2.30613 0.14
4 0 -1 o 6057.569 4841.374 0.00 2.24699 4.15
3 1 -2 o 16.006 0.152 0.00 2.24148 0.07
2 2 0 o 2255.513 1935.802 0.00 2.19980 3.87
2 1 -3 o 1896.141 1486.090 180.00 2.14732 2.45
4 0 1 o 8519.025 10279.491 0.00 2.18948 3.31
3 1 2 o 14300.823 13889.524 0.00 2.15742 17.50
2 2 -1 o 10536.843 10488.345 0.00 2.13525 13.51
0 2 2 o 1033.395 1195.135 0.00 2.12757 1.39
2 2 1 o 9284.939 10103.524 0.00 2.11005 12.33
4 1 0 o 299.924 920.668 0.00 2.09462 0.17
2 1 3 o -35.874 405.140 0.00 2.07308 0.00
0 0 4 o 6564.172 3901.962 0.00 2.01993 4.80
1 2 -2 o 3.591 21.609 0.00 2.08499 0.01
4 1 -1 o 688.275 566.733 0.00 2.04992 0.82
1 2 2 o 626.416 868.493 180.00 2.06151 0.60
4 0 -2 o 16166.140 14355.675 0.00 2.04660 8.79
4 1 1 o 1494.135 925.449 180.00 2.00598 1.22
3 2 0 o 159.091 251.423 180.00 1.94110 0.10
2 2 -2 o 3218.768 3478.376 0.00 1.95124 3.94
2 0 -4 o 22033.420 21128.158 0.00 1.88460 10.38
3 1 -3 o 13284.351 14050.485 0.00 1.91856 13.40
2 2 2 o 5887.607 5739.310 0.00 1.91323 5.77
0 1 4 o 10.241 14.487 180.00 1.87316 0.01
4 0 2 o 190.478 1232.533 0.00 1.96182 0.31
3 2 -1 o 2919.548 2781.310 0.00 1.90082 2.80
1 1 -4 o 409.808 382.886 0.00 1.85222 0.51
4 1 -2 o 200.434 132.419 180.00 1.89437 0.18
3 2 1 o 5.514 31.768 0.00 1.87425 0.02
1 1 4 o 6223.220 6134.951 0.00 1.81962 5.84
2 0 4 o 10899.624 10409.726 0.00 1.81778 6.01
0 2 3 o 13400.760 13028.225 0.00 1.83337 11.85
3 1 3 o 15487.028 13730.577 0.00 1.83993 15.53
1 2 -3 o 2574.199 2942.736 0.00 1.80980 2.07
4 1 2 o 670.331 664.495 180.00 1.82654 0.58
1 2 3 o 2860.795 2165.149 0.00 1.78682 2.29
4 0 -3 o 1507.570 1080.438 0.00 1.79586 0.70
2 1 -4 o 42.491 78.328 180.00 1.76373 0.04
3 2 -2 o 986.407 1516.689 180.00 1.77117 0.80
2 1 4 o 48.471 57.579 0.00 1.70860 0.03
5 1 0 o 166.905 283.758 0.00 1.73115 0.24
3 2 2 o 1557.127 1776.865 0.00 1.72882 1.07
2 2 -3 o 1786.908 2066.339 0.00 1.72361 1.82
5 1 -1 o 2635.481 3336.913 0.00 1.70894 1.62
4 2 0 o 4542.024 4049.844 0.00 1.69599 3.41
4 0 3 o 8359.045 10316.306 0.00 1.71075 3.01
2 2 3 o 161.308 70.076 0.00 1.68450 0.19
4 1 -3 o 41.576 21.988 0.00 1.69036 0.03
4 2 -1 o 1226.721 1332.220 0.00 1.67200 1.29
0 0 5 o 3055.336 3412.282 0.00 1.61594 1.19
5 1 1 o 18338.881 15844.823 0.00 1.67698 9.85
3 1 -4 o 4786.195 4613.940 0.00 1.63310 3.93
4 2 1 o 5720.930 6595.640 0.00 1.64790 3.90
1 3 0 o 1074.814 890.274 0.00 1.64188 0.85
0 3 1 o 5374.481 5408.522 180.00 1.63404 3.57
4 1 3 o 350.939 409.810 0.00 1.61881 0.21
5 1 -2 o 8281.617 9825.391 0.00 1.61843 5.46
1 3 -1 o 4334.407 4250.998 0.00 1.61174 3.37
1 3 1 o 3857.918 3516.328 0.00 1.60625 2.56
3 2 -3 o 30.033 142.558 180.00 1.59840 0.00
0 2 4 o 2222.558 2509.286 0.00 1.57186 1.82
2 0 -5 o 20.920 8.760 180.00 1.54898 0.02
4 2 -2 o 7670.883 7891.138 0.00 1.58433 5.50
3 1 4 o 221.999 355.010 0.00 1.56831 0.35
0 1 5 o 744.566 563.411 0.00 1.53780 0.46
2 3 0 o 8.639 14.757 180.00 1.56902 0.01
1 2 -4 o 321.348 237.145 180.00 1.55942 0.17
4 0 -4 o 524.397 344.279 180.00 1.55790 0.15
1 1 -5 o 13666.153 13069.469 0.00 1.52849 8.50
1 2 4 o 787.648 504.958 180.00 1.53981 0.47
3 2 3 o 2598.974 2250.030 180.00 1.55207 1.59
5 1 2 o 1638.160 1800.528 0.00 1.56531 0.83
1 1 5 o 4.018 5.331 0.00 1.50550 0.03
2 3 -1 o 795.477 786.695 180.00 1.54508 0.49
4 2 2 o 1654.889 1448.113 0.00 1.54401 1.28
2 3 1 o 1214.827 1208.917 0.00 1.53545 0.61
0 3 2 o 2018.549 1408.109 0.00 1.54216 1.10
2 0 5 o 13633.888 15556.937 0.00 1.50222 5.01
6 0 0 o 12897.460 9200.130 0.00 1.53750 2.57
6 0 -1 o 13615.729 12592.952 0.00 1.52420 2.99
1 3 -2 o 8959.010 8197.226 0.00 1.52571 5.57
2 2 -4 o 6921.215 7125.807 0.00 1.50551 3.97
2 1 -5 o 844.412 567.508 0.00 1.47975 0.47
1 3 2 o 6505.459 5324.008 0.00 1.51644 4.30
4 1 -4 o 34.714 35.316 180.00 1.48752 0.02
4 0 4 o 1574.878 1496.822 0.00 1.48383 0.50
5 2 0 o 181.467 190.385 0.00 1.48509 0.10
2 2 4 o 6473.669 7262.329 0.00 1.47078 3.96
6 0 1 o 560.208 1062.232 180.00 1.49696 0.07
5 1 -3 o 1425.500 1433.131 0.00 1.48777 1.17
5 2 -1 o 1830.612 2040.192 180.00 1.47099 0.92
6 1 0 o 516.663 578.738 180.00 1.46973 0.18
2 1 5 o 372.233 725.444 180.00 1.43882 0.19
3 3 0 o 6830.240 8348.490 0.00 1.46654 4.14
2 3 -2 o 932.391 1022.849 0.00 1.47089 0.42
6 0 -2 o 221.539 230.352 180.00 1.46100 0.03
4 2 -3 o 1999.139 2050.437 0.00 1.45910 1.22
6 1 -1 o 8.676 8.939 0.00 1.45810 0.00
2 3 2 o 590.498 629.891 180.00 1.45440 0.26
5 2 1 o 105.734 112.298 0.00 1.45046 0.04
3 3 -1 o 4949.731 5236.217 0.00 1.44893 3.06
3 3 1 o 124.015 380.273 0.00 1.43706 0.12
4 1 4 o 83.848 103.400 180.00 1.42264 0.03
6 1 1 o 187.907 263.055 0.00 1.43420 0.06
3 2 -4 o 176.428 206.116 0.00 1.42179 0.06
3 1 -5 o 1845.094 1000.944 0.00 1.40185 1.12
0 3 3 o 64.323 31.280 180.00 1.41838 0.03
5 1 3 o 8.714 0.674 0.00 1.42667 0.02
4 2 3 o 5223.033 4165.542 0.00 1.41233 2.69
5 2 -2 o 959.207 792.245 0.00 1.41208 0.45
1 3 -3 o 264.962 135.434 0.00 1.40738 0.17
6 1 -2 o 83.593 46.293 180.00 1.40248 0.04
1 3 3 o 6493.183 5582.615 0.00 1.39649 3.42
6 0 2 o 6484.151 4863.057 0.00 1.41405 1.05
3 3 -2 o 245.374 254.134 0.00 1.38899 0.17
0 0 6 o 2202.493 1842.849 0.00 1.34662 0.53
3 2 4 o 0.960 1.660 0.00 1.37842 0.00
0 2 5 o 1781.898 1515.014 0.00 1.35756 0.90
5 2 2 o 373.712 905.617 180.00 1.37638 0.09
1 2 -5 o 12.818 13.870 180.00 1.35115 0.01
3 1 5 o 2251.376 2247.594 0.00 1.35038 1.16
4 0 -5 o 16380.954 13676.104 0.00 1.35505 3.99
3 3 2 o 655.430 943.818 0.00 1.36828 0.32
2 3 -3 o 1237.738 1589.579 180.00 1.36569 0.51
6 0 -3 o 2198.724 2706.679 0.00 1.36440 0.47
1 2 5 o 72.556 48.109 0.00 1.33519 0.05
4 3 0 o 317.359 343.922 0.00 1.35183 0.11
6 1 2 o 158.436 219.816 0.00 1.36080 0.05
5 1 -4 o 6124.513 4863.990 0.00 1.34544 2.93
2 0 -6 o 2028.925 2459.648 0.00 1.31008 0.53
2 3 3 o 1.180 0.064 0.00 1.34599 0.00
4 3 -1 o 21.018 2.293 0.00 1.33958 0.01
0 1 6 o 3.430 3.911 0.00 1.30038 0.01
2 2 -5 o 342.800 549.651 0.00 1.31713 0.20
1 1 -6 o 506.870 360.414 0.00 1.29618 0.31
4 3 1 o 623.084 716.929 180.00 1.32709 0.21
4 2 -4 o 15.228 290.736 0.00 1.32260 0.05
4 1 -5 o 38.091 46.760 180.00 1.30797 0.01
5 2 -3 o 0.234 29.979 0.00 1.32277 0.01
6 1 -3 o 7.609 11.224 180.00 1.31637 0.00
6 2 0 o 3538.488 3828.138 0.00 1.31005 1.45
1 1 6 o 9222.297 9789.823 0.00 1.27930 4.53
2 0 6 o 24.300 24.251 180.00 1.27591 0.00
2 2 5 o 7832.234 6351.461 0.00 1.28802 3.75
4 0 5 o 28.792 1.681 0.00 1.29389 0.02
6 2 -1 o 7380.439 7172.067 0.00 1.30179 3.06
2 1 -6 o -3.875 1.632 180.00 1.26739 0.00
3 3 -3 o 3222.053 3475.797 0.00 1.30083 1.46
4 3 -2 o 60.218 33.129 180.00 1.29321 0.03
0 3 4 o 24.475 20.737 180.00 1.28640 0.01
6 2 1 o 2.750 1.964 180.00 1.28470 0.01
5 1 4 o 7070.187 6331.793 0.00 1.28552 2.95
1 3 -4 o 1089.772 1178.766 0.00 1.27956 0.49
6 0 3 o 2234.209 3600.250 0.00 1.30788 0.44
4 2 4 o 1327.557 1267.806 0.00 1.27637 0.59
3 3 3 o 4817.154 4463.308 0.00 1.27548 2.12
5 2 3 o 68.596 69.582 0.00 1.27928 0.02
7 1 0 o 1657.229 1558.402 0.00 1.27443 0.43
1 3 4 o 521.793 930.335 0.00 1.26866 0.20
3 2 -5 o 223.842 190.041 180.00 1.26129 0.07
4 3 2 o -1.056 0.377 180.00 1.27100 0.00
7 1 -1 o 16.650 159.228 0.00 1.26817 0.04
2 1 6 o 27.469 25.635 180.00 1.23638 0.02
4 1 5 o 63.877 66.212 0.00 1.25271 0.03
6 2 -2 o 127.510 81.096 0.00 1.26175 0.08
6 0 -4 o 7907.363 8268.630 0.00 1.25343 1.63
6 1 3 o 43.948 215.737 180.00 1.26540 0.00
0 4 0 o 3988.539 3786.962 0.00 1.25139 0.85
2 3 -4 o 98.565 77.486 0.00 1.24926 0.04
7 1 1 o 3340.049 2748.070 0.00 1.24976 0.95
5 3 0 o 1342.609 1035.220 0.00 1.23752 0.63
1 4 0 o 1225.783 824.466 0.00 1.24003 0.42
3 1 -6 o 3812.921 3051.190 0.00 1.21860 1.37
3 2 5 o 74.074 47.955 0.00 1.22341 0.03
5 3 -1 o 348.235 415.420 0.00 1.22933 0.15
2 3 4 o 895.958 1016.645 0.00 1.22921 0.28
7 1 -2 o 3628.001 4017.266 0.00 1.23229 1.29
0 4 1 o 1751.714 1698.785 0.00 1.23664 0.72
1 4 -1 o 1054.979 897.029 180.00 1.22689 0.35
6 2 2 o 3325.490 4035.842 0.00 1.23114 1.03
1 4 1 o 12.954 0.400 0.00 1.22447 0.01
4 3 -3 o 1157.316 791.105 0.00 1.22236 0.42
5 3 1 o 6995.963 5945.886 0.00 1.21727 2.74
5 2 -4 o 10.027 5.218 180.00 1.21973 0.01
5 1 -5 o 183.266 131.921 0.00 1.20939 0.10
6 1 -4 o 145.363 129.547 0.00 1.21589 0.05
0 2 6 o 1861.250 1788.748 0.00 1.18586 0.66
4 0 -6 o 3063.859 2860.893 0.00 1.18859 0.62
2 4 0 o 2016.531 1850.803 0.00 1.20773 0.81
1 2 -6 o 182.651 198.001 0.00 1.18267 0.05
3 1 6 o 1035.888 1344.373 0.00 1.17782 0.44
4 2 -5 o 6925.435 6403.139 0.00 1.19161 2.63
3 3 -4 o 3641.680 3512.698 0.00 1.20018 1.52
6 2 -3 o 1047.823 1471.174 0.00 1.19795 0.38
2 4 -1 o 310.696 508.123 0.00 1.19671 0.12
0 0 7 o 856.639 964.745 0.00 1.15425 0.23
4 3 3 o 437.550 532.181 0.00 1.19447 0.12
5 3 -2 o 1515.242 1898.077 0.00 1.19432 0.60
1 2 6 o 500.662 499.191 0.00 1.16981 0.16
2 4 1 o 4922.648 4771.737 0.00 1.19222 1.93
7 1 2 o 2451.011 2654.375 0.00 1.19916 0.73
0 4 2 o 123.903 200.255 0.00 1.19535 0.06
6 0 4 o 1297.762 2186.092 0.00 1.19545 0.27
2 2 -6 o 2771.746 2309.910 0.00 1.16068 1.06
1 4 -2 o 6.941 6.687 180.00 1.18764 0.00
1 4 2 o 416.854 459.530 180.00 1.18325 0.12
3 3 4 o 1797.824 1674.204 0.00 1.17374 0.75
5 3 2 o 1641.992 1634.025 0.00 1.17248 0.58
5 2 4 o 303.606 274.303 0.00 1.17456 0.10
4 1 -6 o 120.110 122.082 0.00 1.15643 0.03
7 1 -3 o 4803.734 4513.607 0.00 1.17372 1.55
7 2 0 o 168.704 129.993 0.00 1.16608 0.04
0 3 5 o 189.737 166.663 0.00 1.16079 0.05
2 0 -7 o 4847.169 4674.383 0.00 1.13290 0.78
7 2 -1 o 20.831 17.882 0.00 1.16128 0.00
1 3 -5 o 5580.250 5693.773 0.00 1.15677 1.94
5 1 5 o 2555.495 2791.715 0.00 1.15503 1.05
3 4 0 o 387.083 393.722 180.00 1.15908 0.11
0 1 7 o 26.951 22.846 180.00 1.12473 0.01
2 4 -2 o 2598.685 2069.334 0.00 1.16123 0.97
4 0 6 o 7459.476 7237.589 0.00 1.13880 1.47
1 3 5 o 239.651 254.402 0.00 1.14670 0.11
6 1 4 o 134.728 99.940 0.00 1.16275 0.04
2 2 6 o 2.101 0.169 0.00 1.13672 0.01
4 2 5 o 497.453 897.893 0.00 1.14938 0.26
6 2 3 o 2943.178 3048.354 0.00 1.15915 1.00
1 1 -7 o 632.417 478.653 0.00 1.12294 0.22
3 4 -1 o 524.481 617.007 0.00 1.15033 0.14
8 0 -1 o 79.232 150.771 0.00 1.14948 0.01
8 0 0 o 1785.657 2129.408 0.00 1.15312 0.22
2 4 2 o 1957.901 2277.532 0.00 1.15307 0.69
7 2 1 o -2.353 4.490 180.00 1.14710 0.00
3 4 1 o 4.510 1.253 0.00 1.14436 0.00
1 1 7 o 2652.001 2619.040 0.00 1.11010 0.94
6 0 -5 o 1078.481 1101.320 0.00 1.14224 0.25
2 0 7 o 733.947 849.496 0.00 1.10699 0.13
2 3 -5 o 842.316 779.301 0.00 1.13520 0.24
3 2 -6 o 2.699 2.007 180.00 1.12286 0.00
5 3 -3 o 2917.018 2756.107 0.00 1.13881 1.20
4 3 -4 o 400.169 380.433 180.00 1.13870 0.13
6 3 0 o 981.912 1254.237 180.00 1.13066 0.26
7 2 -2 o 566.615 511.503 180.00 1.13354 0.15
2 1 -7 o 21.594 31.727 0.00 1.10495 0.01
0 4 3 o 3137.350 2752.120 0.00 1.13487 1.06
6 3 -1 o 892.897 776.487 0.00 1.12534 0.27
4 1 6 o 2.445 2.388 0.00 1.11043 0.00
8 0 1 o 8687.452 7583.406 0.00 1.13380 0.80
1 4 -3 o 471.281 651.152 0.00 1.12921 0.11
2 3 5 o 535.013 518.000 180.00 1.11641 0.14
8 1 0 o 77.914 55.921 0.00 1.12369 0.01
8 0 -2 o 3631.344 2459.020 0.00 1.12349 0.44
8 1 -1 o 25.482 22.377 180.00 1.12032 0.00
1 4 3 o 745.749 531.242 0.00 1.12356 0.20
5 2 -5 o 285.291 286.204 0.00 1.11564 0.07
7 1 3 o 2585.271 3131.465 0.00 1.13138 0.58
6 3 1 o 7.499 11.607 0.00 1.11424 0.00
6 2 -4 o 4316.821 3630.159 0.00 1.12074 1.51
3 4 -2 o 483.653 395.195 180.00 1.11964 0.14
6 1 -5 o 0.482 1.668 0.00 1.11361 0.00
2 1 7 o 318.157 220.880 0.00 1.08087 0.11
5 3 3 o 169.257 160.100 0.00 1.11070 0.07
4 3 4 o 1093.201 1015.443 180.00 1.10880 0.30
3 4 2 o 837.421 787.016 0.00 1.10871 0.22
3 2 6 o 117.098 98.137 180.00 1.09072 0.03
7 2 2 o 114.465 122.673 0.00 1.10759 0.02
2 4 -3 o 2786.158 3076.183 0.00 1.10733 0.96
4 4 0 o 164.892 237.915 0.00 1.09990 0.06
3 3 -5 o 381.382 622.130 0.00 1.09887 0.15
8 1 1 o 35.540 64.772 180.00 1.10579 0.01
6 3 -2 o 5.159 6.730 0.00 1.09917 0.00
5 1 -6 o 534.906 668.782 0.00 1.08746 0.23
7 1 -4 o 36.414 25.791 180.00 1.10170 0.01
3 1 -7 o 1752.875 1319.051 0.00 1.07298 0.60
2 4 3 o 7.421 34.149 0.00 1.09675 0.02
8 1 -2 o 89.350 187.832 0.00 1.09622 0.02
4 4 -1 o 1725.189 1704.041 0.00 1.09328 0.61
4 4 1 o 443.096 515.642 0.00 1.08645 0.15
6 0 5 o 1967.078 2318.795 0.00 1.08753 0.26
7 2 -3 o 57.718 66.317 0.00 1.08745 0.01
8 0 2 o -2.609 8.691 0.00 1.09474 0.00
4 2 -6 o 1677.830 1219.310 0.00 1.07366 0.56
3 3 5 o 1197.779 881.003 0.00 1.07355 0.37
8 0 -3 o 901.342 478.695 0.00 1.07940 0.15
6 3 2 o 388.536 300.564 0.00 1.07876 0.10
4 0 -7 o -3.605 0.236 180.00 1.05309 0.00
5 2 5 o 48.831 39.115 180.00 1.07254 0.01
0 2 7 o 836.898 1087.450 0.00 1.04815 0.32
6 2 4 o 907.430 669.588 0.00 1.07871 0.30
5 3 -4 o 1706.365 1666.205 0.00 1.07106 0.54
1 2 -7 o 440.359 440.599 180.00 1.04670 0.11
3 4 -3 o 4.385 3.268 180.00 1.07190 0.00
4 4 -2 o 3350.140 3694.023 0.00 1.06763 1.12
3 1 7 o 1461.717 1320.769 0.00 1.04035 0.60
0 4 4 o 2867.218 3438.267 0.00 1.06379 0.88
8 1 2 o 9.280 9.110 180.00 1.06946 0.00
1 2 7 o 648.531 610.616 180.00 1.03628 0.17
6 1 5 o 2.171 2.659 180.00 1.06273 0.00
0 3 6 o 94.119 105.121 180.00 1.04791 0.02
1 4 -4 o 267.842 352.779 180.00 1.05991 0.05
1 3 -6 o 1173.995 1061.993 0.00 1.04570 0.37
4 4 2 o 3025.631 2711.150 0.00 1.05503 0.95
3 4 3 o 589.478 879.254 180.00 1.05759 0.13
6 3 -3 o 526.264 545.877 180.00 1.05622 0.13
8 1 -3 o 3.033 2.755 0.00 1.05515 0.00
4 3 -5 o 226.275 343.577 180.00 1.05186 0.06
2 2 -7 o 2695.988 2549.968 0.00 1.03208 0.73
1 4 4 o 226.061 263.560 180.00 1.05369 0.05
4 1 -7 o 169.236 167.053 180.00 1.03053 0.04
7 2 3 o 3.135 4.361 180.00 1.05353 0.00
1 3 6 o 2931.170 2713.151 0.00 1.03678 0.87
8 2 0 o 1732.184 1758.493 0.00 1.04731 0.45
4 2 6 o 4322.020 3992.243 0.00 1.03654 1.34
5 1 6 o 110.575 99.610 0.00 1.03994 0.05
6 0 -6 o 367.977 350.021 0.00 1.03860 0.05
8 2 -1 o 504.151 502.131 0.00 1.04458 0.13
7 1 4 o 57.187 42.508 0.00 1.05545 0.02
2 3 -6 o 442.714 441.848 180.00 1.03041 0.10
0 0 8 o 3187.110 3166.153 0.00 1.00996 0.47
5 3 4 o 3057.405 2837.907 0.00 1.04008 0.87
2 4 -4 o 398.466 280.543 0.00 1.04250 0.12
6 2 -5 o 802.477 745.844 0.00 1.03913 0.30
5 4 0 o 81.447 76.058 0.00 1.03564 0.02
7 3 0 o 634.394 627.135 0.00 1.03418 0.16
4 0 7 o 455.811 534.298 0.00 1.01248 0.08
7 3 -1 o 790.684 730.582 0.00 1.03083 0.24
2 2 7 o 757.440 853.816 0.00 1.01238 0.21
8 2 1 o 2951.810 2930.992 0.00 1.03277 0.60
5 4 -1 o 675.842 636.389 180.00 1.03083 0.16
2 4 4 o 1245.791 1162.859 0.00 1.03075 0.36
5 4 1 o 176.551 183.273 0.00 1.02369 0.04
7 2 -4 o 32.571 35.412 0.00 1.02943 0.01
6 3 3 o 102.989 109.324 180.00 1.02934 0.02
2 0 -8 o 5.699 2.287 0.00 0.99687 0.00
4 3 5 o 164.186 155.039 0.00 1.02248 0.04
8 2 -2 o 1196.781 1296.877 0.00 1.02496 0.27
7 1 -5 o 2049.694 2231.748 0.00 1.02461 0.57
5 2 -6 o 315.123 379.504 180.00 1.01779 0.08
7 3 1 o 1045.777 1064.110 0.00 1.02087 0.28
4 4 -3 o 341.723 468.841 0.00 1.02671 0.10
2 3 6 o 70.825 110.718 180.00 1.01353 0.03
6 1 -6 o 27.472 26.848 180.00 1.01694 0.01
0 1 8 o 7.636 7.665 0.00 0.99001 0.00
3 2 -7 o 255.281 241.571 0.00 1.00589 0.06
8 0 -4 o 1998.395 2094.677 0.00 1.02330 0.27
8 0 3 o 515.186 431.057 0.00 1.04170 0.06
1 1 -8 o 2824.113 2609.619 0.00 0.98943 0.73
7 3 -2 o 3273.716 3067.278 0.00 1.01128 0.95
4 1 7 o 25.771 30.907 180.00 0.99238 0.01
1 1 8 o 43.520 42.307 180.00 0.97937 0.01
3 4 -4 o 311.667 436.323 0.00 1.01346 0.06
4 4 3 o 1741.240 1619.696 0.00 1.01001 0.48
5 4 -2 o 353.749 336.892 0.00 1.00992 0.08
3 3 -6 o 513.021 486.672 0.00 1.00367 0.13
2 0 8 o 2293.000 1722.355 0.00 0.97662 0.35
8 1 3 o 71.656 65.139 0.00 1.01985 0.01
2 1 -8 o 34.911 25.663 180.00 0.97767 0.01
9 1 0 o 512.974 480.502 0.00 1.00416 0.11
9 1 -1 o 4265.697 4337.657 0.00 1.00242 0.78
6 3 -4 o 83.260 87.409 0.00 1.00216 0.02
8 2 2 o 11.275 8.141 0.00 1.00299 0.01
8 1 -4 o 254.659 250.920 180.00 1.00256 0.06
5 4 2 o 464.094 378.319 180.00 0.99662 0.10
5 3 -5 o 346.294 283.541 0.00 0.99851 0.10
3 2 7 o 47.530 44.418 0.00 0.97886 0.01
6 2 5 o 1204.421 808.323 0.00 0.99743 0.30
3 4 4 o 3.976 3.033 0.00 0.99739 0.00
5 1 -7 o 4174.565 4040.011 0.00 0.98145 1.05
1 5 0 o 690.029 794.323 0.00 0.99527 0.18
6 0 6 o 237.457 170.115 0.00 0.98922 0.04
0 5 1 o 266.413 322.254 180.00 0.99351 0.05
7 3 2 o 1267.836 1680.295 0.00 0.99273 0.34
0 4 5 o 730.313 563.091 0.00 0.98940 0.19
8 2 -3 o 342.073 615.572 0.00 0.99115 0.12
1 4 -5 o 5.697 5.482 0.00 0.98691 0.00
3 3 6 o 784.434 805.270 0.00 0.98052 0.21
1 5 -1 o 2093.490 1564.984 0.00 0.98844 0.55
9 1 -2 o 274.685 400.128 0.00 0.98567 0.07
9 1 1 o 39.492 65.813 0.00 0.99068 0.01
2 1 8 o 53.460 56.107 180.00 0.95855 0.01
5 2 6 o 37.673 34.358 0.00 0.97851 0.01
1 5 1 o 344.379 328.123 0.00 0.98717 0.10
7 2 4 o 221.268 348.920 180.00 0.99140 0.04
4 2 -7 o 14.203 23.585 0.00 0.97066 0.01
1 4 5 o 4.644 5.034 0.00 0.98064 0.00
3 1 -8 o 347.113 919.165 0.00 0.95589 0.11
7 3 -3 o 1250.778 1056.038 0.00 0.97814 0.33
2 5 0 o 77.608 69.507 180.00 0.97833 0.01
4 3 -6 o 588.021 597.541 0.00 0.96807 0.12
2 4 -5 o -11.030 273.528 0.00 0.97342 0.00
6 4 0 o 1403.075 1725.329 0.00 0.97055 0.38
6 1 6 o 17.784 20.094 180.00 0.97045 0.00
7 1 5 o 1197.182 1011.092 0.00 0.97834 0.32
5 4 -3 o 3.025 2.048 180.00 0.97569 0.00
4 4 -4 o 674.969 411.287 0.00 0.97562 0.19
2 5 1 o 113.383 122.366 0.00 0.97003 0.02
6 4 -1 o 2244.557 2078.974 0.00 0.96718 0.61
2 5 -1 o 1.098 2.106 180.00 0.97245 0.00
6 3 4 o 192.289 242.503 0.00 0.97177 0.03
0 5 2 o 332.098 423.479 0.00 0.97172 0.06
5 3 5 o 1415.753 1300.438 0.00 0.96725 0.39
7 2 -5 o 364.044 321.235 180.00 0.96571 0.08
1 5 -2 o 864.396 781.522 0.00 0.96756 0.24
2 4 5 o 1440.907 1738.158 0.00 0.96149 0.37
0 3 7 o 5.995 6.255 0.00 0.94925 0.00
4 0 -8 o 2538.639 1910.123 0.00 0.94230 0.28
6 4 1 o 344.339 420.574 0.00 0.96010 0.09
1 3 -7 o 239.596 206.461 0.00 0.94817 0.06
1 5 2 o 2896.579 2113.639 0.00 0.96518 0.71
6 2 -6 o 578.017 584.840 0.00 0.95928 0.14
0 2 8 o 1316.466 1563.449 0.00 0.93658 0.33
8 0 4 o 3367.618 3352.683 0.00 0.98091 0.32
1 2 -8 o 51.668 56.329 0.00 0.93609 0.01
8 0 -5 o 596.556 674.175 0.00 0.96123 0.06
5 4 3 o 65.639 60.736 0.00 0.95784 0.01
8 2 3 o 450.151 597.373 0.00 0.96172 0.10
6 0 -7 o 685.781 439.469 0.00 0.94564 0.09
9 1 2 o 3783.402 2856.772 0.00 0.96372 0.57
4 4 4 o 88.074 216.676 0.00 0.95661 0.02
9 1 -3 o 49.090 186.621 0.00 0.95607 0.01
5 1 7 o 1817.186 1678.752 0.00 0.94056 0.46
1 3 7 o 1284.184 1232.580 0.00 0.94040 0.31
3 1 8 o 1565.140 1456.758 0.00 0.92942 0.40
6 4 -2 o 108.457 129.883 0.00 0.95041 0.03
4 2 7 o 84.755 181.846 0.00 0.93859 0.03
3 5 0 o 440.380 1116.467 0.00 0.95193 0.13
8 3 0 o 450.063 408.164 0.00 0.94862 0.08
2 3 -7 o 34.783 45.786 0.00 0.93726 0.01
9 2 0 o 237.200 212.225 180.00 0.94853 0.04
1 2 8 o 1.661 2.348 180.00 0.92756 0.00
7 1 -6 o 3187.113 2763.737 0.00 0.94838 0.79
7 3 3 o 274.802 780.161 0.00 0.95324 0.05
2 5 -2 o 193.298 390.272 0.00 0.95312 0.02
3 4 -5 o 181.319 198.561 180.00 0.95022 0.03
8 1 4 o 24.535 37.510 180.00 0.96260 0.00
9 2 -1 o 15.078 11.338 0.00 0.94706 0.00
2 2 -8 o 11.707 27.126 0.00 0.92611 0.01
8 3 -1 o 201.505 157.670 180.00 0.94659 0.04
2 5 2 o 236.101 211.098 180.00 0.94859 0.05
4 3 6 o 129.554 117.512 0.00 0.94060 0.03
8 2 -4 o 1862.392 1422.158 0.00 0.94719 0.46
3 5 -1 o 2044.333 1537.394 0.00 0.94707 0.52
4 1 -8 o 2.082 3.335 0.00 0.92603 0.00
8 1 -5 o 17.383 12.223 0.00 0.94398 0.00
3 5 1 o 1060.692 699.019 0.00 0.94373 0.25
6 3 -5 o 109.631 70.724 0.00 0.94253 0.03
8 3 1 o 22.099 42.440 180.00 0.93777 0.01
5 2 -7 o 13.605 12.431 180.00 0.92932 0.00
6 1 -7 o 43.142 39.466 0.00 0.92920 0.01
6 4 2 o 277.068 410.760 0.00 0.93712 0.07
2 3 7 o 203.023 199.024 0.00 0.92244 0.04
9 2 1 o 73.618 97.234 0.00 0.93715 0.01
0 5 3 o -0.432 1.113 180.00 0.93838 0.00
3 4 5 o 137.434 188.061 0.00 0.93370 0.02
7 3 -4 o -0.148 6.628 0.00 0.93528 0.01
9 2 -2 o 75.710 70.410 0.00 0.93290 0.01
2 2 8 o 1294.990 1783.551 0.00 0.90981 0.33
8 3 -2 o 56.931 49.321 0.00 0.93192 0.01
1 5 -3 o 133.731 187.094 0.00 0.93517 0.03
0 0 9 o 1031.204 829.772 0.00 0.89775 0.11
5 4 -4 o 81.714 70.333 180.00 0.93206 0.01
1 5 3 o 1515.787 1234.745 0.00 0.93196 0.36
5 3 -6 o 507.775 728.668 0.00 0.92652 0.14
4 0 8 o 115.628 148.856 0.00 0.90889 0.02
3 3 -7 o 1006.640 661.903 0.00 0.91752 0.24
3 5 -2 o 478.517 396.307 0.00 0.92972 0.11
3 2 -8 o 25.364 26.345 180.00 0.90754 0.00
3 5 2 o 93.692 93.227 0.00 0.92343 0.03
6 2 6 o 552.234 501.795 0.00 0.91997 0.15
7 2 5 o 155.558 182.498 0.00 0.92668 0.03
6 4 -3 o 183.539 173.095 0.00 0.92223 0.05
10 0 -1 o 506.359 542.154 0.00 0.92166 0.04
0 4 6 o 259.988 203.987 0.00 0.91668 0.06
10 0 0 o 685.519 636.529 0.00 0.92250 0.04
1 4 -6 o 143.596 108.106 0.00 0.91521 0.03
4 5 0 o 190.314 154.442 0.00 0.91832 0.03
2 5 -3 o 195.003 180.911 180.00 0.92263 0.03
4 4 -5 o 1533.060 1554.176 0.00 0.91933 0.37
9 1 3 o 272.256 471.613 0.00 0.92642 0.06
8 3 2 o 228.243 176.651 180.00 0.91531 0.04
4 1 8 o 61.376 76.564 0.00 0.89427 0.01
9 1 -4 o 2307.153 1656.464 0.00 0.91694 0.46
4 5 -1 o 14.625 10.003 180.00 0.91446 0.00
2 5 3 o 0.434 0.144 0.00 0.91648 0.00
1 4 6 o 188.771 218.805 0.00 0.90921 0.03
4 5 1 o 99.841 165.271 180.00 0.91045 0.01
9 2 2 o 42.207 31.090 180.00 0.91422 0.01
6 0 7 o 718.011 994.519 0.00 0.90205 0.10
5 4 4 o 13.421 42.454 0.00 0.91143 0.00
6 3 5 o -3.869 95.817 180.00 0.91108 0.00
7 4 0 o 84.667 79.152 0.00 0.90745 0.02
2 4 -6 o 1320.200 1273.724 0.00 0.90490 0.30
10 0 -2 o 701.438 931.529 0.00 0.90909 0.07
3 3 7 o 1378.493 1077.084 0.00 0.89686 0.35
8 0 5 o 705.989 307.594 0.00 0.91758 0.08
5 1 -8 o 205.312 232.486 0.00 0.89040 0.05
9 2 -3 o 23.118 20.378 180.00 0.90769 0.00
10 0 1 o -89.485 313.881 0.00 0.91151 0.00
7 4 -1 o 19.685 20.653 0.00 0.90518 0.00
8 2 4 o 3253.771 2878.034 0.00 0.91327 0.60
10 1 0 o 5.310 5.131 180.00 0.90722 0.00
10 1 -1 o 18.549 29.864 0.00 0.90642 0.00
8 3 -3 o 10.336 16.397 0.00 0.90629 0.00
5 2 7 o 0.408 0.793 180.00 0.89438 0.00
7 1 6 o 3042.898 2672.966 0.00 0.90443 0.66
7 3 4 o 15.528 64.409 0.00 0.90648 0.01
6 4 3 o 1746.055 1512.427 0.00 0.90418 0.39
7 2 -6 o 126.823 183.939 0.00 0.90110 0.02
7 4 1 o 100.383 76.003 180.00 0.89842 0.02
4 4 5 o 784.479 851.361 0.00 0.89951 0.18
5 3 6 o 116.321 101.007 0.00 0.89660 0.03
8 0 -6 o 233.026 122.403 0.00 0.89793 0.03
2 4 6 o 488.926 464.218 0.00 0.89341 0.11
3 5 -3 o 211.029 383.026 0.00 0.90184 0.06
4 3 -7 o 97.720 112.461 180.00 0.89055 0.01
4 5 -2 o 105.836 96.635 180.00 0.89929 0.02
8 2 -5 o 970.896 594.707 0.00 0.89732 0.20
10 1 -2 o 19.290 29.171 180.00 0.89446 0.00
8 1 5 o 34.825 33.551 180.00 0.90254 0.01
0 5 4 o 115.009 79.485 180.00 0.89699 0.02
10 1 1 o 28.152 21.622 180.00 0.89677 0.00
7 4 -2 o 466.928 299.500 180.00 0.89186 0.09
4 5 2 o 9.948 6.525 0.00 0.89172 0.00
3 5 3 o 1232.626 1099.396 0.00 0.89326 0.28
1 5 -4 o 320.229 877.553 0.00 0.89466 0.07
1 5 4 o 45.044 60.357 0.00 0.89091 0.01
