#------------------------------------------------------------------------------
#$Date: 2021-02-18 11:57:15 +0200 (Thu, 18 Feb 2021) $
#$Revision: 262059 $
#$URL: file:///home/coder/svn-repositories/cod/cif/1/56/04/1560464.cif $
#------------------------------------------------------------------------------
#
# This file is available in the Crystallography Open Database (COD),
# http://www.crystallography.net/
#
# All data on this site have been placed in the public domain by the
# contributors.
#
data_1560464
loop_
_publ_author_name
'Iyer, Abishek K.'
'Yin, Wenlong'
'Lee, Emma J.'
'Lin, Xinsong'
'Mar, Arthur'
_publ_section_title
;
 Quaternary rare-earth sulfides RE 3 M 0.5 GeS 7 (RE=La--Nd, Sm; M=Co, Ni)
 and Y 3 Pd 0.5 SiS 7
;
_journal_name_full               'Journal of Solid State Chemistry'
_journal_page_first              14
_journal_page_last               23
_journal_paper_doi               10.1016/j.jssc.2017.03.009
_journal_volume                  250
_journal_year                    2017
_chemical_absolute_configuration ad
_chemical_formula_structural     'Pr3 Co0.50 Ge S7'
_chemical_formula_sum            'Co0.5 Ge Pr3 S7'
_chemical_formula_weight         749.21
_chemical_name_common
'praseodymium cobalt germanium sulphide (3/0.5/1/7)'
_chemical_name_systematic
'praseodymium cobalt germanium sulphide (3/0.5/1/7)'
_space_group_crystal_system      hexagonal
_space_group_IT_number           173
_space_group_name_Hall           'P 6c'
_space_group_name_H-M_alt        'P 63'
_atom_sites_solution_hydrogens   .
_audit_creation_method           SHELXL-2014/7
_cell_angle_alpha                90
_cell_angle_beta                 90
_cell_angle_gamma                120
_cell_formula_units_Z            2
_cell_length_a                   10.1306(6)
_cell_length_b                   10.1306(6)
_cell_length_c                   5.7785(4)
_cell_measurement_reflns_used    3890
_cell_measurement_temperature    296(2)
_cell_measurement_theta_max      33.23
_cell_measurement_theta_min      4.22
_cell_volume                     513.59(6)
_computing_cell_refinement       'Bruker SAINT 8.34A (Bruker, 2013)'
_computing_data_collection       'Bruker APEX 2 (Bruker, 2008)'
_computing_data_reduction        'Bruker SAINT 8.34A'
_computing_molecular_graphics    'ATOMS 5.1 (Dowty, 1999)'
_computing_publication_material  'SHELXL-2014/7 (Sheldrick, 2014)'
_computing_structure_refinement  'SHELXL-2014/7 (Sheldrick, 2014)'
_computing_structure_solution    'SHELXS-97 (Sheldrick, 2008)'
_diffrn_ambient_temperature      296(2)
_diffrn_measured_fraction_theta_full 1.000
_diffrn_measured_fraction_theta_max 1.000
_diffrn_measurement_device_type  'Bruker PLATFORM/SMART APEX II CCD'
_diffrn_measurement_method       '\w and \f scans'
_diffrn_radiation_type           MoK\a
_diffrn_radiation_wavelength     0.71073
_diffrn_reflns_av_R_equivalents  0.0417
_diffrn_reflns_av_unetI/netI     0.0264
_diffrn_reflns_Laue_measured_fraction_full 1.000
_diffrn_reflns_Laue_measured_fraction_max 1.000
_diffrn_reflns_limit_h_max       15
_diffrn_reflns_limit_h_min       -15
_diffrn_reflns_limit_k_max       15
_diffrn_reflns_limit_k_min       -15
_diffrn_reflns_limit_l_max       8
_diffrn_reflns_limit_l_min       -8
_diffrn_reflns_number            7422
_diffrn_reflns_point_group_measured_fraction_full 1.000
_diffrn_reflns_point_group_measured_fraction_max 1.000
_diffrn_reflns_theta_full        25.242
_diffrn_reflns_theta_max         33.226
_diffrn_reflns_theta_min         2.321
_diffrn_source                   'fine-focus sealed tube'
_exptl_absorpt_coefficient_mu    19.007
_exptl_absorpt_correction_T_max  0.566
_exptl_absorpt_correction_T_min  0.510
_exptl_absorpt_correction_type   numerical
_exptl_absorpt_process_details   'SHELXL-2014/7 (Sheldrick, 2014)'
_exptl_crystal_colour            grey
_exptl_crystal_density_diffrn    4.845
_exptl_crystal_description       irregular
_exptl_crystal_F_000             669
_exptl_crystal_size_max          0.051
_exptl_crystal_size_mid          0.043
_exptl_crystal_size_min          0.043
_refine_diff_density_max         2.440
_refine_diff_density_min         -1.262
_refine_diff_density_rms         0.249
_refine_ls_abs_structure_details
;
 Refined as an inversion twin.
;
_refine_ls_abs_structure_Flack   -0.01(3)
_refine_ls_extinction_coef       .
_refine_ls_extinction_method     none
_refine_ls_goodness_of_fit_ref   1.136
_refine_ls_hydrogen_treatment    undef
_refine_ls_matrix_type           full
_refine_ls_number_parameters     40
_refine_ls_number_reflns         1310
_refine_ls_number_restraints     1
_refine_ls_restrained_S_all      1.135
_refine_ls_R_factor_all          0.0257
_refine_ls_R_factor_gt           0.0234
_refine_ls_shift/su_max          0.000
_refine_ls_shift/su_mean         0.000
_refine_ls_structure_factor_coef Fsqd
_refine_ls_weighting_details
'w=1/[\s^2^(Fo^2^)+(0.0152P)^2^+1.7106P] where P=(Fo^2^+2Fc^2^)/3'
_refine_ls_weighting_scheme      calc
_refine_ls_wR_factor_gt          0.0464
_refine_ls_wR_factor_ref         0.0475
_reflns_Friedel_coverage         0.842
_reflns_Friedel_fraction_full    1.000
_reflns_Friedel_fraction_max     1.000
_reflns_number_gt                1239
_reflns_number_total             1310
_reflns_threshold_expression     'I > 2\s(I)'
_cod_data_source_file            mmc14.cif
_cod_data_source_block           3
_cod_original_cell_volume        513.59(7)
_cod_original_formula_sum        'Co0.50 Ge Pr3 S7'
_cod_database_code               1560464
_shelx_shelxl_version_number     2014/7
_shelx_space_group_comment
;
The symmetry employed for this shelxl refinement is uniquely defined
by the following loop, which should always be used as a source of
symmetry information in preference to the above space-group names.
They are only intended as comments.
;
_shelx_estimated_absorpt_t_min   0.444
_shelx_estimated_absorpt_t_max   0.495
_shelx_res_file
;

    p63.res created by SHELXL-2014/7

TITL Pr3Co0.5GeS7 P6(3) lsf final refinement
CELL 0.71073  10.13060  10.13060   5.77850  90.0000  90.0000 120.0000
ZERR    2.00   0.00060   0.00060   0.00040   0.0000   0.0000   0.0000
LATT -1
SYMM -Y, X-Y, Z
SYMM -X+Y, -X, Z
SYMM -X, -Y, 0.5+Z
SYMM Y, -X+Y, 0.5+Z
SYMM X-Y, X, 0.5+Z
SFAC S CO GE PR
UNIT 14 1 2 6
TEMP 23
SIZE 0.043 0.043 0.051

L.S. 4
ACTA

TWIN

EADP COA COB
WGHT    0.015200    1.710600
BASF  -0.00825
FVAR       0.10642   0.88387
PR    4    0.128196    0.355931    0.483887    11.00000    0.01035    0.00870 =
         0.01077   -0.00068   -0.00074    0.00479
COA   2    0.000000    0.000000    0.251545    20.16667    0.00530    0.00530 =
         0.00959    0.00000    0.00000    0.00265
COB   2    0.000000    0.000000    0.489625   -20.16667    0.00530    0.00530 =
         0.00959    0.00000    0.00000    0.00265
GE    3    0.333333    0.666667    0.902246    10.33333    0.01180    0.01180 =
         0.00848    0.00000    0.00000    0.00590
S1    1    0.242515    0.154932    0.500000    11.00000    0.01406    0.01122 =
         0.02019   -0.00284   -0.00153    0.00758
S2    1    0.520228    0.102763    0.251668    11.00000    0.01002    0.01100 =
         0.01099   -0.00035    0.00039    0.00420
S3    1    0.333333    0.666667    0.278340    10.33333    0.01329    0.01329 =
         0.00852    0.00000    0.00000    0.00665
HKLF 4

REM  Pr3Co0.5GeS7 P6(3) lsf final refinement
REM R1 =  0.0234 for    1239 Fo > 4sig(Fo)  and  0.0257 for all    1310 data
REM     40 parameters refined using      1 restraints

END

WGHT      0.0152      1.7168

REM Highest difference peak  2.440,  deepest hole -1.262,  1-sigma level  0.249
Q1    1   0.2594  0.7138  0.9837  11.00000  0.05    2.44
Q2    1   0.3333  0.6667  1.0709  10.33333  0.05    2.36
Q3    1   0.3174  0.3837  0.4852  11.00000  0.05    1.58
Q4    1   0.0000  0.0000  0.1547  10.33333  0.05    1.04
Q5    1   0.3333  0.6667  0.4920  10.33333  0.05    0.95
Q6    1   0.4273  0.1779  0.5008  11.00000  0.05    0.88
Q7    1   0.3333  0.6667  0.6770  10.33333  0.05    0.87
Q8    1   0.0560  0.2848  0.2771  11.00000  0.05    0.84
Q9    1   0.5078  0.1562 -0.0132  11.00000  0.05    0.84
Q10   1   0.0793  0.2348  0.3937  11.00000  0.05    0.83
Q11   1   0.1644  0.4734  0.3002  11.00000  0.05    0.80
Q12   1   0.5841  0.1013 -0.0068  11.00000  0.05    0.79
Q13   1   0.4655  0.0246  0.3921  11.00000  0.05    0.78
Q14   1  -0.0120  0.3439  0.3603  11.00000  0.05    0.78
Q15   1   0.5583  0.2550  0.2108  11.00000  0.05    0.77
Q16   1   0.4789 -0.0998  0.2186  11.00000  0.05    0.76
Q17   1   0.4726  0.0259 -0.0146  11.00000  0.05    0.76
Q18   1   0.6004  0.1054  0.4806  11.00000  0.05    0.73
Q19   1   0.1960  0.2963  0.4163  11.00000  0.05    0.73
Q20   1   0.2204  0.0172  0.5583  11.00000  0.05    0.73
;
_shelx_res_checksum              11639
_shelx_hkl_file
;
   2  -6  -8    0.27    2.16
   3  -6  -8   32.11    7.22
  -1  -5  -8    2.04    1.58
   0  -5  -8    1.84    1.39
   1  -5  -8    6.52    2.27
   2  -5  -8    8.52    2.44
   3  -5  -8    1.07    1.28
   4  -5  -8   24.60    4.29
   5  -5  -8    2.51    1.74
   6  -5  -8  104.48    9.60
  -2  -4  -8    0.59    1.32
  -1  -4  -8   26.33    4.24
   0  -4  -8   10.56    2.62
   1  -4  -8    7.34    2.44
   2  -4  -8   29.37    4.53
   3  -4  -8   74.57    6.28
   4  -4  -8    9.93    2.77
   5  -4  -8    5.58    2.23
   6  -4  -8    3.12    1.25
  -3  -3  -8   29.78    4.37
  -2  -3  -8    0.43    1.07
  -1  -3  -8   69.91    5.99
   0  -3  -8   13.53    3.27
   1  -3  -8    0.64    1.38
   2  -3  -8   48.14    5.88
   3  -3  -8   13.04    3.18
   4  -3  -8    8.33    2.38
   5  -3  -8    5.38    1.56
   6  -3  -8   31.89    3.42
  -4  -2  -8    5.97    2.11
  -3  -2  -8    5.41    2.05
  -2  -2  -8   40.96    5.31
  -1  -2  -8   58.91    6.36
   0  -2  -8    6.18    2.05
   1  -2  -8   28.42    4.28
   2  -2  -8    8.23    2.60
   3  -2  -8    1.13    1.36
   4  -2  -8   32.31    3.34
   5  -2  -8    1.47    1.06
   6  -2  -8    1.06    1.06
  -4  -1  -8    5.54    2.12
  -3  -1  -8   20.78    3.82
  -2  -1  -8    0.35    1.13
  -1  -1  -8   30.02    4.73
   0  -1  -8    4.04    1.75
   1  -1  -8    3.57    1.67
   2  -1  -8   26.60    4.28
   3  -1  -8   59.41    4.03
   4  -1  -8   86.08    4.67
   5  -1  -8   33.93    3.41
   6  -1  -8    1.93    1.55
  -5   0  -8    1.57    1.36
  -4   0  -8    7.75    2.46
  -3   0  -8    9.04    2.47
  -2   0  -8    4.29    1.82
  -1   0  -8    3.86    1.75
   0   0  -8  186.82   10.07
   1   0  -8    2.84    1.42
   2   0  -8    6.54    1.53
   3   0  -8    9.56    1.78
   4   0  -8    9.37    1.83
   5   0  -8    3.09    1.22
  -6   1  -8    4.71    2.06
  -5   1  -8   33.37    4.71
  -4   1  -8   79.93    6.27
  -3   1  -8   55.32    6.10
  -2   1  -8   29.58    4.40
  -1   1  -8    5.55    1.99
   0   1  -8    1.59    1.42
   1   1  -8   31.04    3.14
   2   1  -8    1.01    0.90
   3   1  -8   10.03    1.88
   4   1  -8    8.84    1.85
   5   1  -8  110.95    7.36
  -6   2  -8   -0.44    1.25
  -5   2  -8    1.78    1.38
  -4   2  -8   23.15    3.97
  -3   2  -8    1.57    1.37
  -2   2  -8   13.30    3.10
  -1   2  -8   30.18    4.65
   0   2  -8    6.83    1.58
   1   2  -8   49.95    4.17
   2   2  -8   35.38    3.47
   3   2  -8    6.58    1.66
   4   2  -8    3.33    1.43
  -6   3  -8   30.19    4.45
  -5   3  -8    6.85    2.43
  -4   3  -8   11.12    2.73
  -3   3  -8   18.08    3.79
  -2   3  -8   45.45    5.59
  -1   3  -8    0.27    1.33
   0   3  -8    9.25    1.79
   1   3  -8   81.29    4.57
   2   3  -8   -0.18    0.83
   3   3  -8   30.35    3.32
  -6   4  -8    2.92    1.78
  -5   4  -8    8.61    2.64
  -4   4  -8   12.66    2.90
  -3   4  -8   77.07    6.34
  -2   4  -8   36.04    5.11
  -1   4  -8   12.09    2.19
   0   4  -8    7.84    1.78
   1   4  -8   33.36    3.41
   2   4  -8    0.69    0.95
  -5   5  -8    5.72    2.15
  -4   5  -8   27.78    4.49
  -3   5  -8    0.87    1.32
  -2   5  -8    6.47    1.57
  -1   5  -8    5.55    1.59
   0   5  -8    2.79    1.30
   1   5  -8    0.68    1.58
  -3   6  -8   36.68    5.37
  -2   6  -8    3.24    1.93
  -1   6  -8  111.24    8.08
   2  -9  -7    1.98    1.18
   3  -9  -7    0.62    0.95
   4  -9  -7   10.74    3.15
   5  -9  -7   58.57    9.83
   0  -8  -7    0.77    0.87
   1  -8  -7   87.99    4.54
   2  -8  -7   12.76    2.96
   3  -8  -7   79.51    4.23
   4  -8  -7   17.47    3.50
   5  -8  -7    0.80    1.21
   6  -8  -7   12.92    3.24
   7  -8  -7    5.57    2.18
   8  -8  -7    4.77    1.90
  -2  -7  -7   31.79    4.67
  -1  -7  -7    3.59    1.18
   0  -7  -7   19.84    2.43
   1  -7  -7   10.96    1.83
   2  -7  -7    4.61    1.26
   3  -7  -7   13.89    2.98
   4  -7  -7    1.51    1.47
   5  -7  -7    5.85    2.23
   6  -7  -7   75.91    6.31
   7  -7  -7   18.04    2.50
   8  -7  -7   80.33    4.62
   9  -7  -7    0.02    1.40
  -3  -6  -7   12.57    3.07
  -2  -6  -7   10.37    2.62
  -1  -6  -7   80.02    4.15
   0  -6  -7   18.19    2.28
   1  -6  -7    7.65    1.55
   2  -6  -7    9.64    2.47
   3  -6  -7   71.07    5.84
   4  -6  -7    6.91    2.20
   5  -6  -7   17.99    3.35
   6  -6  -7   16.71    2.40
   7  -6  -7    9.11    1.81
   8  -6  -7   15.07    2.34
   9  -6  -7   -0.30    0.91
  -4  -5  -7   60.41    5.32
  -3  -5  -7    1.88    1.25
  -2  -5  -7    2.66    1.00
  -1  -5  -7   23.68    2.55
   0  -5  -7   22.41    3.70
   1  -5  -7    6.91    2.14
   2  -5  -7   48.31    5.43
   3  -5  -7    4.44    1.70
   4  -5  -7   76.24    5.94
   5  -5  -7   22.03    2.59
   6  -5  -7    5.02    1.32
   7  -5  -7    5.71    1.46
   8  -5  -7   70.95    4.34
   9  -5  -7    5.07    1.51
  -5  -4  -7    8.17    2.45
  -4  -4  -7   22.31    3.55
  -3  -4  -7    0.88    0.78
  -2  -4  -7    1.51    1.24
  -1  -4  -7   69.16    5.44
   0  -4  -7   14.97    2.97
   1  -4  -7  139.29    8.04
   2  -4  -7    3.00    1.49
   3  -4  -7    0.95    1.14
   4  -4  -7   16.18    2.21
   5  -4  -7    6.91    1.44
   6  -4  -7    9.55    1.77
   7  -4  -7   17.95    2.55
   8  -4  -7   19.95    2.63
   9  -4  -7   60.43    8.01
  -6  -3  -7    1.16    1.27
  -5  -3  -7   79.56    8.17
  -3  -3  -7   86.39    6.00
  -2  -3  -7    3.17    1.62
  -1  -3  -7    1.35    1.10
   0  -3  -7   16.52    3.24
   1  -3  -7    5.12    1.83
   2  -3  -7    0.08    0.78
   3  -3  -7   10.57    1.73
   4  -3  -7  145.21    5.71
   5  -3  -7   56.93    3.53
   6  -3  -7   83.79    4.43
   7  -3  -7    0.98    0.94
   8  -3  -7    1.43    1.10
  -4  -2  -7   10.30    2.55
  -3  -2  -7   52.07    4.58
  -2  -2  -7    5.47    1.83
  -1  -2  -7    1.02    1.07
   0  -2  -7   56.57    4.84
   1  -2  -7   14.81    2.89
   2  -2  -7   57.17    3.34
   3  -2  -7    5.72    1.35
   4  -2  -7    1.90    0.88
   5  -2  -7    6.07    1.45
   6  -2  -7    2.12    0.98
   7  -2  -7    2.54    1.14
   8  -2  -7   15.79    3.51
  -5  -1  -7    6.89    2.11
  -4  -1  -7    6.59    2.05
  -3  -1  -7  129.92    7.55
  -2  -1  -7    4.59    1.69
  -1  -1  -7   11.37    2.48
   0  -1  -7   32.35    4.31
   1  -1  -7   39.65    3.29
   2  -1  -7   20.87    2.45
   3  -1  -7    0.02    0.56
   4  -1  -7    0.61    0.77
   5  -1  -7   76.62    4.16
   6  -1  -7   21.07    2.58
   7  -1  -7   82.16    6.84
   8  -1  -7    1.82    1.77
  -5   0  -7   18.78    3.31
  -4   0  -7   18.65    3.37
  -3   0  -7    8.97    2.21
  -2   0  -7   58.50    4.81
  -1   0  -7   39.91    4.73
   0   0  -7   -0.09    0.47
   1   0  -7   39.70    3.29
   2   0  -7   62.31    3.52
   3   0  -7   10.15    1.74
   4   0  -7   16.70    2.31
   5   0  -7   21.34    2.64
   6   0  -7   15.97    2.27
   7   0  -7   18.40    3.90
  -6   1  -7   21.03    3.46
  -5   1  -7   83.05    5.81
  -4   1  -7    0.52    0.84
  -3   1  -7    0.57    0.86
  -2   1  -7   17.57    3.25
  -1   1  -7   40.81    4.78
   0   1  -7   38.28    3.17
   1   1  -7   22.54    2.56
   2   1  -7    7.45    1.54
   3   1  -7  137.44    5.62
   4   1  -7    6.71    1.48
   5   1  -7    5.99    1.37
   6   1  -7    5.66    2.23
   7   1  -7   77.93    6.87
  -6   2  -7    2.00    1.36
  -5   2  -7    1.85    1.26
  -4   2  -7    4.39    1.65
  -3   2  -7    4.69    1.63
  -2   2  -7   62.91    5.02
  -1   2  -7   18.72    2.26
   0   2  -7   48.76    3.36
   1   2  -7    0.19    0.54
   2   2  -7    3.31    1.03
   3   2  -7   56.02    3.51
   4   2  -7   10.32    1.79
   5   2  -7    5.48    1.26
   6   2  -7   17.16    2.56
   7   2  -7    1.40    1.53
  -7   3  -7   -0.30    1.01
  -6   3  -7   78.52    5.91
  -5   3  -7   56.51    4.84
  -4   3  -7  140.45    7.91
  -3   3  -7    5.61    2.01
  -2   3  -7    0.12    0.55
  -1   3  -7    4.97    1.21
   0   3  -7   10.03    1.66
   1   3  -7   -0.17    0.51
   2   3  -7    2.76    0.79
   3   3  -7   79.99    3.46
   4   3  -7   17.77    1.99
   5   3  -7   76.61    4.55
   6   3  -7    0.39    1.30
  -8   4  -7   14.07    2.92
  -7   4  -7   14.95    2.97
  -6   4  -7   13.09    2.76
  -5   4  -7    9.86    2.52
  -4   4  -7   20.30    3.44
  -3   4  -7    0.84    0.71
  -2   4  -7    1.73    0.81
  -1   4  -7  133.55    5.55
   0   4  -7   15.11    1.72
   1   4  -7   76.14    3.35
   2   4  -7    3.78    1.03
   3   4  -7   -0.12    0.63
   4   4  -7   18.34    2.60
   5   4  -7    5.31    2.29
  -8   5  -7   80.26    6.19
  -7   5  -7    6.84    2.10
  -6   5  -7    7.44    2.43
  -5   5  -7   17.43    3.37
  -4   5  -7   69.74    5.61
  -3   5  -7    6.89    1.54
  -2   5  -7   55.66    3.81
  -1   5  -7    4.69    1.31
   0   5  -7   18.88    1.99
   1   5  -7   22.39    2.16
   2   5  -7    1.46    0.81
   3   5  -7    0.57    0.72
   4   5  -7   59.19    6.66
  -9   6  -7    0.57    1.24
  -8   6  -7   16.37    3.48
  -7   6  -7    9.52    2.57
  -6   6  -7    9.38    2.65
  -5   6  -7   29.00    4.30
  -4   6  -7    4.19    1.26
  -3   6  -7   76.84    4.25
  -2   6  -7   13.16    2.09
  -1   6  -7    3.55    1.20
   0   6  -7   17.76    2.03
   1   6  -7   79.12    3.63
   2   6  -7   13.10    1.70
   3   6  -7   12.14    3.03
  -9   7  -7    0.46    1.34
  -8   7  -7   80.45    6.29
  -7   7  -7   25.07    4.21
  -6   7  -7   77.79    6.18
  -5   7  -7    3.43    1.21
  -4   7  -7    0.98    0.80
  -3   7  -7   13.45    2.16
  -2   7  -7    5.01    1.50
  -1   7  -7    8.96    1.80
   0   7  -7   18.01    2.04
   1   7  -7    5.63    1.29
  -8   8  -7    0.42    1.37
  -7   8  -7    2.50    1.63
  -6   8  -7   14.99    2.30
  -5   8  -7    0.61    0.90
  -4   8  -7   20.68    2.76
  -3   8  -7   72.79    4.40
  -2   8  -7   16.96    2.41
  -1   8  -7   68.66    4.59
   0   8  -7    2.19    1.17
  -6   9  -7   15.95    3.60
  -5   9  -7   58.12    6.61
  -4   9  -7    7.45    1.79
  -3   9  -7    0.13    1.69
   3 -11  -6    4.11    2.47
   4 -11  -6   25.45    4.33
   5 -11  -6   13.56    3.62
   6 -11  -6   -0.34    1.28
   1 -10  -6    5.87    1.51
   2 -10  -6   28.82    3.06
   3 -10  -6   49.08    5.65
   4 -10  -6   50.96    5.99
   5 -10  -6   18.91    3.79
   6 -10  -6    2.71    1.67
   7 -10  -6    5.50    2.16
   8 -10  -6   48.38    4.16
   9 -10  -6    2.46    1.30
  -1  -9  -6    2.11    1.70
   0  -9  -6   14.39    2.14
   1  -9  -6    2.60    1.07
   2  -9  -6    0.36    0.67
   3  -9  -6   37.19    4.94
   4  -9  -6    6.17    2.20
   5  -9  -6   17.74    3.53
   6  -9  -6   40.07    5.30
   7  -9  -6   10.10    1.85
   8  -9  -6   44.71    3.94
   9  -9  -6   15.28    2.37
  10  -9  -6    4.83    1.52
  -2  -8  -6   59.83    6.36
  -1  -8  -6   40.75    5.06
   0  -8  -6   55.92    3.67
   1  -8  -6   21.36    2.42
   2  -8  -6    4.23    1.20
   3  -8  -6   24.57    3.87
   4  -8  -6   23.05    3.88
   5  -8  -6   33.79    4.67
   6  -8  -6    1.62    0.91
   7  -8  -6   27.85    2.97
   8  -8  -6   56.22    4.39
   9  -8  -6    3.13    1.23
  10  -8  -6   28.05    3.18
  -4  -7  -6  105.84    8.36
  -3  -7  -6    7.72    2.25
  -2  -7  -6   11.90    2.76
  -1  -7  -6   27.09    2.81
   0  -7  -6   14.53    1.98
   1  -7  -6    1.03    0.72
   2  -7  -6   10.38    2.50
   3  -7  -6   14.85    2.95
   4  -7  -6   70.87    5.41
   5  -7  -6   38.16    3.25
   6  -7  -6   19.81    2.38
   7  -7  -6   14.22    2.09
   8  -7  -6   24.82    2.83
   9  -7  -6    0.92    0.87
  10  -7  -6   42.93    3.87
  -5  -6  -6    0.36    1.22
  -4  -6  -6    3.43    1.59
  -3  -6  -6   32.92    4.29
  -2  -6  -6    3.78    1.08
  -1  -6  -6   17.78    2.16
   0  -6  -6    2.73    0.91
   1  -6  -6  172.37    5.96
   2  -6  -6    6.26    1.87
   3  -6  -6   84.95    5.83
   4  -6  -6    5.84    1.25
   5  -6  -6   35.43    3.10
   6  -6  -6    4.09    1.16
   7  -6  -6   -0.06    0.60
   8  -6  -6    6.71    1.50
   9  -6  -6   28.26    3.05
  10  -6  -6   45.09    5.91
  -5  -5  -6   26.09    3.93
  -4  -5  -6   13.70    2.74
  -3  -5  -6   33.11    4.20
  -2  -5  -6   43.83    3.41
  -1  -5  -6   35.13    2.94
   0  -5  -6    2.45    0.89
   1  -5  -6   25.45    2.43
   2  -5  -6   11.52    2.55
   3  -5  -6    5.37    1.17
   4  -5  -6   44.71    3.01
   5  -5  -6    1.67    0.80
   6  -5  -6  178.94    6.38
   7  -5  -6    8.86    1.62
   8  -5  -6   24.03    2.76
   9  -5  -6    5.53    1.44
  10  -5  -6   21.53    4.09
  -7  -4  -6   30.77    4.50
  -6  -4  -6   56.98    5.99
  -5  -4  -6    3.01    1.51
  -4  -4  -6   15.28    2.81
  -3  -4  -6   73.61    3.61
  -2  -4  -6    5.62    1.21
  -1  -4  -6   44.05    2.88
   0  -4  -6   15.96    1.89
   1  -4  -6   43.21    2.74
   2  -4  -6   37.46    4.50
   3  -4  -6   72.66    3.54
   4  -4  -6   16.61    2.00
   5  -4  -6   29.50    2.81
   6  -4  -6    5.67    1.31
   7  -4  -6   18.60    2.32
   8  -4  -6   17.21    2.31
   9  -4  -6   16.12    3.53
  10  -4  -6    2.66    1.69
  -7  -3  -6   42.44    5.22
  -6  -3  -6   33.20    4.45
  -5  -3  -6   21.53    3.28
  -4  -3  -6   20.74    2.25
  -3  -3  -6   78.96    3.70
  -2  -3  -6    5.81    1.15
  -1  -3  -6   74.03    3.40
   0  -3  -6   18.31    1.95
   1  -3  -6    3.57    0.94
   2  -3  -6  117.62    4.50
   3  -3  -6   17.23    1.99
   4  -3  -6   47.48    2.91
   5  -3  -6   12.30    1.84
   6  -3  -6   73.69    3.91
   7  -3  -6   75.54    3.99
   8  -3  -6   32.67    3.08
   9  -3  -6   32.21    4.76
  10  -3  -6    8.60    2.77
  -8  -2  -6   33.27    4.77
  -7  -2  -6    0.47    1.14
  -6  -2  -6    6.50    1.93
  -5  -2  -6    8.21    2.05
  -4  -2  -6    6.08    1.22
  -3  -2  -6   10.94    1.51
  -2  -2  -6   40.81    2.43
  -1  -2  -6  117.36    4.22
   0  -2  -6   70.19    4.88
   1  -2  -6   81.58    3.60
   2  -2  -6   64.74    3.28
   3  -2  -6    4.49    1.11
   4  -2  -6   38.16    3.13
   5  -2  -6    5.51    1.26
   6  -2  -6    8.90    1.58
   7  -2  -6   39.80    3.33
   8  -2  -6    1.05    1.18
   9  -2  -6   15.00    3.36
  10  -2  -6   53.36    6.38
  -9  -1  -6   10.73    2.82
  -8  -1  -6    1.83    1.27
  -7  -1  -6   22.75    3.47
  -6  -1  -6   -0.23    0.72
  -5  -1  -6  181.17    5.78
  -4  -1  -6   26.92    2.38
  -3  -1  -6   41.81    2.45
  -2  -1  -6    5.04    1.68
  -1  -1  -6   77.93    5.20
   0  -1  -6   16.74    1.82
   1  -1  -6   17.41    1.93
   2  -1  -6   78.06    3.65
   3  -1  -6  114.51    4.57
   4  -1  -6   77.30    3.76
   5  -1  -6   43.64    3.06
   6  -1  -6   31.18    2.82
   7  -1  -6   20.38    1.92
   8  -1  -6   29.60    3.08
   9  -1  -6   56.91    4.60
  10  -1  -6    1.52    1.12
 -10   0  -6   31.59    5.15
  -9   0  -6   22.07    3.73
  -8   0  -6   60.45    4.91
  -7   0  -6   15.41    2.85
  -6   0  -6    4.19    1.07
  -5   0  -6    2.91    0.88
  -4   0  -6   17.65    2.78
  -3   0  -6   20.10    3.09
  -2   0  -6   63.18    4.62
  -1   0  -6   15.93    1.84
   0   0  -6  157.12    5.26
   1   0  -6   15.02    1.83
   2   0  -6   60.37    3.24
   3   0  -6   20.49    2.28
   4   0  -6   19.39    1.75
   5   0  -6    2.77    0.78
   6   0  -6    6.60    1.13
   7   0  -6   16.65    2.26
   8   0  -6   69.05    4.16
   9   0  -6   16.58    2.40
  10   0  -6   22.80    5.05
 -10   1  -6    1.72    1.48
  -9   1  -6   53.87    4.64
  -8   1  -6   30.89    3.96
  -7   1  -6   23.99    3.31
  -6   1  -6   35.12    4.14
  -5   1  -6   45.79    3.91
  -4   1  -6   70.12    4.94
  -3   1  -6  111.35    6.30
  -2   1  -6   87.48    3.64
  -1   1  -6   14.98    1.83
   0   1  -6   13.97    1.73
   1   1  -6   77.18    3.64
   2   1  -6    4.53    0.86
   3   1  -6   42.05    2.41
   4   1  -6   22.21    1.91
   5   1  -6  174.43    5.02
   6   1  -6    1.40    0.78
   7   1  -6   20.38    2.57
   8   1  -6    3.05    1.27
   9   1  -6    4.63    1.50
 -10   2  -6   48.29    5.82
  -7   2  -6   44.60    4.73
  -6   2  -6    6.87    1.93
  -5   2  -6    2.71    1.31
  -4   2  -6   42.03    3.72
  -3   2  -6    3.62    1.39
  -2   2  -6   70.96    3.35
  -1   2  -6   83.63    3.75
   0   2  -6   63.91    2.59
   1   2  -6  110.68    3.61
   2   2  -6   39.61    2.33
   3   2  -6   11.48    1.40
   4   2  -6    6.21    1.07
   5   2  -6    9.90    1.38
   6   2  -6    7.00    1.58
   7   2  -6    1.79    1.04
   8   2  -6   27.93    3.27
  -7   3  -6   78.01    5.29
  -6   3  -6   82.43    5.50
  -5   3  -6   12.23    2.52
  -4   3  -6   43.43    3.87
  -3   3  -6   13.81    1.74
  -2   3  -6  113.96    4.50
  -1   3  -6    5.08    1.05
   0   3  -6   17.35    1.67
   1   3  -6   77.74    3.01
   2   3  -6    5.16    1.00
   3   3  -6   87.19    3.34
   4   3  -6   18.03    1.81
   5   3  -6   20.05    2.52
   6   3  -6   32.21    3.38
   7   3  -6   46.88    4.28
  -8   4  -6   17.60    3.09
  -7   4  -6   16.79    2.92
  -6   4  -6    7.79    2.05
  -5   4  -6   16.33    2.88
  -4   4  -6   21.87    2.32
  -3   4  -6   73.34    3.59
  -2   4  -6   31.07    2.74
  -1   4  -6   43.04    2.92
   0   4  -6   18.92    1.75
   1   4  -6   45.11    2.44
   2   4  -6    7.73    1.20
   3   4  -6   69.02    3.06
   4   4  -6   19.67    2.48
   5   4  -6    4.87    1.39
   6   4  -6   53.02    4.58
   7   4  -6   27.93    3.92
  -8   5  -6   24.25    3.68
  -7   5  -6   13.47    2.81
  -6   5  -6  161.44    8.36
  -5   5  -6    1.87    0.78
  -4   5  -6   44.90    3.03
  -3   5  -6    4.21    1.08
  -2   5  -6   11.49    1.68
  -1   5  -6   23.03    1.98
   0   5  -6    2.88    0.77
   1   5  -6   37.92    2.64
   2   5  -6   41.94    2.86
   3   5  -6   32.81    2.54
   4   5  -6   16.37    2.43
   5   5  -6   26.58    3.19
   6   5  -6   13.33    2.34
  -9   6  -6   34.33    4.55
  -8   6  -6    4.55    1.73
  -7   6  -6   -0.19    0.84
  -6   6  -6    4.91    1.18
  -5   6  -6   40.34    3.39
  -4   6  -6    7.84    1.38
  -3   6  -6   82.40    4.08
  -2   6  -6    5.18    1.28
  -1   6  -6  167.17    5.06
   0   6  -6    3.52    0.86
   1   6  -6   18.23    1.90
   2   6  -6    1.54    0.74
   3   6  -6   34.17    3.49
   4   6  -6    1.04    1.05
   5   6  -6    0.56    0.98
  -9   7  -6    0.42    1.14
  -8   7  -6   22.94    3.65
  -7   7  -6   14.98    3.05
  -6   7  -6   17.84    2.26
  -5   7  -6   45.29    3.70
  -4   7  -6   65.11    3.75
  -3   7  -6   18.94    2.31
  -2   7  -6   11.55    1.89
  -1   7  -6    0.28    0.53
   0   7  -6   14.67    1.75
   1   7  -6   31.81    2.58
   2   7  -6   10.78    2.05
   3   7  -6    8.90    1.81
 -10   8  -6   25.62    4.22
  -9   8  -6    2.09    1.53
  -8   8  -6   56.45    5.07
  -7   8  -6   28.21    2.95
  -6   8  -6    2.10    0.98
  -5   8  -6   34.77    3.32
  -4   8  -6   13.66    2.02
  -3   8  -6   27.38    2.94
  -2   8  -6    8.72    1.66
  -1   8  -6   24.72    2.30
   0   8  -6   61.95    3.15
   1   8  -6   45.13    2.96
   2   8  -6   50.18    4.47
 -10   9  -6    5.94    2.22
  -9   9  -6   19.46    3.62
  -8   9  -6   48.92    4.07
  -7   9  -6   12.94    2.02
  -6   9  -6   37.37    3.52
  -5   9  -6   16.48    2.39
  -4   9  -6    5.17    1.32
  -3   9  -6   29.11    3.06
  -2   9  -6    0.68    0.72
  -1   9  -6    2.41    0.88
   0   9  -6   17.36    2.04
   1   9  -6    1.02    1.29
  -9  10  -6    0.49    1.22
  -8  10  -6   44.70    4.07
  -7  10  -6    5.85    1.51
  -6  10  -6    2.25    1.07
  -5  10  -6   24.70    2.93
  -4  10  -6   46.25    4.04
  -3  10  -6   48.26    4.15
  -2  10  -6   28.64    3.17
  -1  10  -6   11.59    2.86
  -8  11  -6    5.77    2.36
  -7  11  -6  105.81    7.96
  -6  11  -6   -0.03    1.23
  -5  11  -6   10.03    2.11
  -4  11  -6   40.06    7.68
   2 -12  -5   10.17    2.85
   3 -12  -5    3.78    1.80
   4 -12  -5   95.93    7.13
   5 -12  -5    1.20    1.27
   6 -12  -5   15.02    3.28
   7 -12  -5   39.93    5.51
   8 -12  -5   17.69    3.78
   9 -12  -5   13.52    3.17
  10 -12  -5    1.63    1.73
   1 -11  -5   15.28    3.38
   2 -11  -5    3.39    1.22
   3 -11  -5   10.06    2.67
   4 -11  -5   24.42    4.12
   5 -11  -5   44.38    5.39
   6 -11  -5   27.99    4.32
   7 -11  -5    2.99    1.66
   8 -11  -5   25.14    2.89
   9 -11  -5   24.48    2.92
  10 -11  -5    4.04    1.31
  11 -11  -5    1.56    1.61
  -1 -10  -5    3.82    1.86
   0 -10  -5  135.81    8.37
   1 -10  -5   45.48    3.71
   2 -10  -5   89.07    6.17
   3 -10  -5    5.54    1.98
   4 -10  -5    2.95    1.60
   5 -10  -5   25.93    3.96
   6 -10  -5   38.75    4.95
   7 -10  -5   24.26    2.72
   8 -10  -5   15.42    2.10
   9 -10  -5    7.06    1.62
  10 -10  -5  123.25    5.80
  11 -10  -5   20.57    2.85
  12 -10  -5   15.25    3.39
  -2  -9  -5   23.91    3.86
  -1  -9  -5    3.18    1.67
   0  -9  -5    2.38    0.89
   1  -9  -5    0.12    0.63
   2  -9  -5    0.09    0.89
   3  -9  -5    0.59    0.82
   4  -9  -5   20.82    3.57
   5  -9  -5   17.17    3.21
   6  -9  -5   11.85    1.86
   7  -9  -5   74.12    3.91
   8  -9  -5    6.59    1.46
   9  -9  -5    2.18    0.91
  10  -9  -5   41.34    3.74
  11  -9  -5    4.44    1.47
  -4  -8  -5   16.94    3.70
  -3  -8  -5   35.74    5.01
  -2  -8  -5   11.77    2.72
  -1  -8  -5   10.51    1.75
   0  -8  -5    3.70    1.01
   1  -8  -5   69.91    3.66
   2  -8  -5   94.55    5.99
   3  -8  -5  205.33    9.62
   4  -8  -5   24.54    3.71
   5  -8  -5    8.11    1.44
   6  -8  -5   13.59    1.95
   7  -8  -5   14.08    2.00
   8  -8  -5    3.07    1.02
   9  -8  -5    0.32    0.73
  10  -8  -5   88.31    4.66
  11  -8  -5    7.59    1.73
  12  -8  -5   78.21    7.04
  -5  -7  -5   39.05    5.10
  -4  -7  -5    1.07    1.34
  -3  -7  -5   27.21    4.16
  -2  -7  -5   59.59    4.98
  -1  -7  -5   11.88    1.73
   0  -7  -5    8.36    1.44
   1  -7  -5    4.21    1.45
   2  -7  -5   11.04    2.27
   3  -7  -5   21.14    3.34
   4  -7  -5    7.25    1.28
   5  -7  -5    2.82    0.85
   6  -7  -5  265.03    7.82
   7  -7  -5    9.51    1.69
   8  -7  -5   74.23    3.93
   9  -7  -5    0.82    0.70
  10  -7  -5    5.05    1.40
  11  -7  -5   18.42    3.76
  12  -7  -5    1.55    1.66
  -6  -6  -5   18.88    3.53
  -5  -6  -5   26.25    4.14
  -4  -6  -5   36.05    4.60
  -3  -6  -5    8.81    2.34
  -2  -6  -5   16.18    1.95
  -1  -6  -5  260.68    7.46
   0  -6  -5    9.65    1.51
   1  -6  -5   31.26    3.79
   2  -6  -5   24.69    3.46
   3  -6  -5  136.95    4.82
   4  -6  -5    0.85    0.57
   5  -6  -5   68.22    3.43
   6  -6  -5    9.86    1.55
   7  -6  -5    5.07    1.15
   8  -6  -5   86.03    4.24
   9  -6  -5    1.11    0.74
  10  -6  -5    2.41    0.96
  11  -6  -5   41.76    5.69
  12  -6  -5   17.33    3.89
  -7  -5  -5    0.98    1.38
  -6  -5  -5   49.13    5.64
  -5  -5  -5   19.86    3.30
  -4  -5  -5   26.15    3.81
  -3  -5  -5    8.74    1.47
  -2  -5  -5    2.41    0.82
  -1  -5  -5   76.39    3.45
   0  -5  -5    7.88    1.34
   1  -5  -5   12.66    2.41
   2  -5  -5   87.73    3.52
   3  -5  -5    3.92    0.94
   4  -5  -5  169.14    5.62
   5  -5  -5    6.05    1.23
   6  -5  -5   32.15    2.85
   7  -5  -5   20.42    2.32
   8  -5  -5  219.07    7.06
   9  -5  -5   13.53    1.96
  10  -5  -5   21.95    4.01
  11  -5  -5   25.92    4.30
  12  -5  -5   37.27    5.51
  -8  -4  -5  107.20    7.44
  -7  -4  -5   14.70    3.01
  -6  -4  -5    0.59    1.15
  -5  -4  -5   14.06    2.81
  -4  -4  -5   20.52    3.30
  -3  -4  -5   12.13    1.62
  -2  -4  -5    0.74    0.52
  -1  -4  -5  191.70    5.67
   0  -4  -5    3.97    0.92
   1  -4  -5  315.67    7.77
   2  -4  -5    3.46    0.86
   3  -4  -5   11.63    1.56
   4  -4  -5    4.42    0.97
   5  -4  -5   10.93    1.63
   6  -4  -5   23.23    2.40
   7  -4  -5   24.65    2.42
   8  -4  -5   18.08    2.21
   9  -4  -5   24.80    3.98
  10  -4  -5   36.79    3.49
  11  -4  -5    2.94    1.18
  12  -4  -5   20.48    2.83
  -9  -3  -5    3.14    1.91
  -8  -3  -5    9.89    2.56
  -7  -3  -5    4.22    1.68
  -6  -3  -5    0.38    0.86
  -5  -3  -5  214.80    9.52
  -4  -3  -5   28.39    2.42
  -3  -3  -5  146.08    4.86
  -2  -3  -5    2.74    0.76
  -1  -3  -5   14.26    1.64
   0  -3  -5   64.92    2.90
   1  -3  -5   33.47    2.01
   2  -3  -5   32.21    2.17
   3  -3  -5   63.46    3.02
   4  -3  -5  311.31    8.27
   5  -3  -5   81.47    3.71
   6  -3  -5  143.84    5.19
   7  -3  -5   12.85    1.43
   8  -3  -5   10.52    1.36
   9  -3  -5   13.49    2.05
  10  -3  -5   21.20    2.62
  11  -3  -5   26.47    3.04
  12  -3  -5   11.22    2.21
  -9  -2  -5    5.68    2.06
  -8  -2  -5   75.20    5.87
  -7  -2  -5    0.39    0.99
  -6  -2  -5  103.43    6.07
  -5  -2  -5   12.93    2.37
  -4  -2  -5   25.58    2.23
  -3  -2  -5   88.99    3.48
  -2  -2  -5    2.34    0.73
  -1  -2  -5   34.76    2.02
   0  -2  -5   79.47    2.45
   1  -2  -5   47.35    2.44
   2  -2  -5   77.35    3.28
   3  -2  -5   35.66    2.39
   4  -2  -5    3.14    0.67
   5  -2  -5    3.48    0.74
   6  -2  -5    1.10    0.53
   7  -2  -5    3.27    0.81
   8  -2  -5   16.34    2.17
   9  -2  -5   69.52    4.00
  10  -2  -5   17.89    2.46
  11  -2  -5   23.98    2.95
  12  -2  -5    0.81    2.70
 -10  -1  -5   22.36    3.71
  -9  -1  -5   55.57    5.93
  -8  -1  -5    0.45    0.97
  -7  -1  -5   70.03    5.07
  -6  -1  -5    4.76    1.54
  -5  -1  -5   29.43    2.37
  -4  -1  -5   13.11    1.56
  -3  -1  -5  326.71    7.79
  -2  -1  -5   34.93    1.97
  -1  -1  -5   50.54    1.86
   0  -1  -5   71.17    2.31
   1  -1  -5   73.51    2.32
   2  -1  -5   48.17    1.93
   3  -1  -5   33.26    1.86
   4  -1  -5   13.98    1.33
   5  -1  -5  169.89    4.50
   6  -1  -5   73.08    2.80
   7  -1  -5  266.38    6.19
   8  -1  -5   13.46    1.92
   9  -1  -5   10.12    1.85
  10  -1  -5    6.23    1.60
  11  -1  -5    6.79    1.72
 -10   0  -5  125.19    7.68
  -9   0  -5    3.27    1.42
  -8   0  -5    5.87    1.76
  -7   0  -5    5.38    1.63
  -6   0  -5   13.76    1.65
  -5   0  -5    6.90    1.15
  -4   0  -5    4.81    0.96
  -3   0  -5   59.91    2.64
  -2   0  -5   77.42    2.36
  -1   0  -5   72.44    2.25
   0   0  -5    0.29    0.28
   1   0  -5   74.80    2.47
   2   0  -5   77.47    2.57
   3   0  -5   62.28    2.40
   4   0  -5    3.34    0.71
   5   0  -5    7.88    1.07
   6   0  -5   11.67    1.35
   7   0  -5    8.74    1.52
   8   0  -5    5.85    1.41
   9   0  -5    3.47    1.16
  10   0  -5  137.65    6.18
  11   0  -5    1.48    1.32
 -11   1  -5    4.98    2.01
 -10   1  -5    4.62    1.70
  -9   1  -5    8.84    2.12
  -8   1  -5    9.64    2.17
  -7   1  -5  258.53   10.17
  -6   1  -5   73.60    3.19
  -5   1  -5  184.66    5.31
  -4   1  -5   12.32    1.42
  -3   1  -5   35.09    1.52
  -2   1  -5   46.09    2.38
  -1   1  -5   77.11    3.15
   0   1  -5   72.51    2.47
   1   1  -5   51.64    2.08
   2   1  -5   33.65    1.71
   3   1  -5  315.00    6.67
   4   1  -5   13.08    1.34
   5   1  -5   32.24    1.99
   6   1  -5    5.45    1.27
   7   1  -5   70.17    3.95
   8   1  -5   -0.08    0.67
   9   1  -5   41.04    3.86
  10   1  -5   15.22    2.48
 -11   2  -5   29.25    4.33
 -10   2  -5   20.97    3.50
  -9   2  -5   69.73    5.00
  -8   2  -5   15.26    2.55
  -7   2  -5    1.78    0.65
  -6   2  -5    0.39    0.47
  -5   2  -5    3.42    0.77
  -4   2  -5    3.59    0.63
  -3   2  -5   31.55    2.15
  -2   2  -5   81.30    3.29
  -1   2  -5   48.62    2.51
   0   2  -5   77.46    2.64
   1   2  -5   31.49    1.74
   2   2  -5    3.08    0.67
   3   2  -5   75.84    2.86
   4   2  -5   26.94    2.00
   5   2  -5   14.00    1.46
   6   2  -5  100.05    4.68
   7   2  -5    0.86    0.78
   8   2  -5   86.78    4.72
   9   2  -5    5.21    1.53
  10   2  -5   13.92    3.59
 -12   3  -5   11.44    2.75
 -11   3  -5   23.34    3.84
 -10   3  -5   18.54    3.09
  -9   3  -5   11.55    2.25
  -8   3  -5   12.46    2.39
  -7   3  -5   13.63    1.59
  -6   3  -5  139.48    4.51
  -5   3  -5   83.56    4.98
  -4   3  -5  318.14    7.96
  -3   3  -5   64.40    2.97
  -2   3  -5   33.01    2.23
  -1   3  -5   30.15    1.80
   0   3  -5   62.00    2.42
   1   3  -5   12.36    1.31
   2   3  -5    4.06    0.81
   3   3  -5  137.65    4.06
   4   3  -5   24.11    1.97
   5   3  -5  203.21    7.10
   6   3  -5    0.23    0.59
   7   3  -5    5.10    1.32
   8   3  -5   10.98    2.09
   9   3  -5    2.39    1.25
 -12   4  -5   21.35    3.72
 -11   4  -5    2.64    1.50
 -10   4  -5   38.91    4.40
  -9   4  -5   27.47    3.50
  -8   4  -5   25.04    2.24
  -7   4  -5   26.46    3.24
  -6   4  -5   20.45    2.90
  -5   4  -5   12.42    1.61
  -4   4  -5    5.86    1.13
  -3   4  -5   14.46    1.69
  -2   4  -5    2.90    0.83
  -1   4  -5  314.28    6.71
   0   4  -5    3.93    0.80
   1   4  -5  180.48    4.71
   2   4  -5   -0.22    0.35
   3   4  -5   13.14    1.41
   4   4  -5   23.43    1.96
   5   4  -5   15.65    2.15
   6   4  -5    3.38    1.13
   7   4  -5   16.56    2.48
   8   4  -5   97.26    5.34
 -12   5  -5   39.50    4.96
 -11   5  -5   35.56    4.37
 -10   5  -5   20.90    3.29
  -9   5  -5   16.74    2.78
  -8   5  -5  233.96    9.54
  -7   5  -5   20.72    3.17
  -6   5  -5   36.85    2.54
  -5   5  -5    7.13    1.27
  -4   5  -5  176.91    5.68
  -3   5  -5    4.16    0.99
  -2   5  -5   85.21    3.75
  -1   5  -5   12.05    1.32
   0   5  -5    8.41    1.13
   1   5  -5   72.42    2.88
   2   5  -5    3.81    0.81
   3   5  -5    7.63    1.15
   4   5  -5   25.63    2.85
   5   5  -5   17.54    2.44
   6   5  -5   44.38    4.04
   7   5  -5    2.47    1.22
  -9   6  -5    1.37    1.00
  -8   6  -5   96.64    5.86
  -7   6  -5    4.52    1.07
  -6   6  -5   10.90    1.63
  -5   6  -5   69.65    3.48
  -4   6  -5    0.96    0.68
  -3   6  -5  138.90    5.08
  -2   6  -5   23.92    2.43
  -1   6  -5   30.74    2.21
   0   6  -5   10.06    1.29
   1   6  -5  251.54    6.27
   2   6  -5   17.02    1.71
   3   6  -5   16.40    2.35
   4   6  -5   40.69    3.75
   5   6  -5   40.25    3.81
   6   6  -5   14.96    2.48
 -10   7  -5    2.77    1.29
  -9   7  -5   -0.81    0.65
  -8   7  -5   71.80    3.67
  -7   7  -5    8.21    1.50
  -6   7  -5  268.49    7.80
  -5   7  -5    3.05    0.90
  -4   7  -5    9.01    1.56
  -3   7  -5   27.16    2.60
  -2   7  -5   13.66    1.53
  -1   7  -5    5.21    1.02
   0   7  -5    7.61    1.21
   1   7  -5   11.86    1.49
   2   7  -5   69.03    3.07
   3   7  -5   20.02    2.58
   4   7  -5    0.42    0.87
   5   7  -5   38.40    3.89
 -10   8  -5   86.19    5.98
  -9   8  -5    0.19    0.90
  -8   8  -5    5.67    1.29
  -7   8  -5   14.84    2.01
  -6   8  -5   18.14    2.23
  -5   8  -5   11.87    1.80
  -4   8  -5   25.20    2.61
  -3   8  -5  214.11    7.03
  -2   8  -5   88.29    4.22
  -1   8  -5   65.70    3.03
   0   8  -5    3.80    0.88
   1   8  -5    8.13    1.30
   2   8  -5   20.21    2.73
   3   8  -5   27.42    3.24
   4   8  -5   23.76    3.02
 -11   9  -5    5.24    2.06
 -10   9  -5   42.00    5.21
  -9   9  -5    2.58    1.47
  -8   9  -5   13.71    2.06
  -7   9  -5   72.22    3.89
  -6   9  -5   10.58    1.80
  -5   9  -5   26.10    2.77
  -4   9  -5   14.67    2.12
  -3   9  -5    1.51    0.79
  -2   9  -5    0.44    0.62
  -1   9  -5   -0.16    0.48
   0   9  -5    0.54    0.59
   1   9  -5    6.03    1.54
   2   9  -5   21.03    2.81
   3   9  -5   13.32    3.23
 -11  10  -5   25.31    4.30
 -10  10  -5  136.90    8.30
  -9  10  -5    8.79    2.44
  -8  10  -5   21.15    2.60
  -7  10  -5   25.95    2.87
  -6  10  -5   33.90    3.28
  -5  10  -5   21.16    2.57
  -4  10  -5    2.47    1.00
  -3  10  -5    5.53    1.45
  -2  10  -5   78.79    4.28
  -1  10  -5   41.26    2.98
   0  10  -5  133.31    4.90
   1  10  -5    5.69    1.65
 -11  11  -5    1.16    1.38
 -10  11  -5    4.16    1.90
  -9  11  -5   21.52    3.85
  -8  11  -5   30.18    3.17
  -7  11  -5    2.41    1.18
  -6  11  -5   30.90    3.26
  -5  11  -5   42.28    3.71
  -4  11  -5   17.63    2.44
  -3  11  -5    8.97    1.79
  -2  11  -5    3.97    1.27
  -1  11  -5   18.28    2.00
  -9  12  -5   15.38    3.92
  -8  12  -5   21.14    2.82
  -7  12  -5   33.68    3.57
  -6  12  -5   18.65    2.62
  -5  12  -5    2.94    1.19
  -4  12  -5   89.54    4.95
  -3  12  -5    3.82    1.80
  -2  12  -5   11.22    2.83
   3 -13  -4    1.13    1.32
   4 -13  -4    3.26    1.89
   5 -13  -4   51.78    6.22
   6 -13  -4   76.52    6.34
   7 -13  -4   12.65    3.14
   8 -13  -4   18.55    2.51
   9 -13  -4   11.65    2.02
  10 -13  -4    6.99    2.50
   1 -12  -4    4.07    1.90
   2 -12  -4  116.85    5.32
   3 -12  -4    1.83    1.31
   4 -12  -4   20.52    3.71
   5 -12  -4    1.46    1.24
   6 -12  -4   14.93    3.16
   7 -12  -4    0.82    0.81
   8 -12  -4   12.65    2.04
   9 -12  -4   20.04    2.75
  10 -12  -4   88.87    4.87
  11 -12  -4   69.48    4.83
  12 -12  -4    6.25    2.67
  -1 -11  -4   72.36    6.01
   0 -11  -4    6.24    2.22
   1 -11  -4    3.62    1.07
   2 -11  -4    9.93    2.46
   3 -11  -4   20.88    3.50
   4 -11  -4    0.02    0.93
   5 -11  -4   25.72    3.97
   6 -11  -4   11.40    1.86
   7 -11  -4  197.85    7.06
   8 -11  -4    8.70    1.79
   9 -11  -4   25.87    2.85
  10 -11  -4    1.57    0.99
  11 -11  -4    5.51    1.56
  12 -11  -4    2.35    1.10
  -2 -10  -4   83.63    6.36
  -1 -10  -4    2.33    1.58
   0 -10  -4   13.29    2.82
   1 -10  -4   13.67    1.91
   2 -10  -4   20.28    3.35
   3 -10  -4   59.77    4.83
   4 -10  -4   62.05    4.94
   5 -10  -4   19.76    2.27
   6 -10  -4   21.44    2.47
   7 -10  -4   21.08    2.43
   8 -10  -4    8.71    1.61
   9 -10  -4    6.81    1.56
  10 -10  -4   16.11    2.38
  11 -10  -4    3.05    1.13
  12 -10  -4  111.29    5.47
  -4  -9  -4   18.01    3.73
  -3  -9  -4   30.15    4.51
  -2  -9  -4   24.08    3.88
  -1  -9  -4    7.12    2.12
   0  -9  -4   59.08    3.37
   1  -9  -4    5.82    1.71
   2  -9  -4   24.97    3.50
   3  -9  -4   85.22    5.61
   4  -9  -4    2.91    0.85
   5  -9  -4   45.75    3.05
   6  -9  -4   21.48    2.32
   7  -9  -4   39.04    3.24
   8  -9  -4   44.93    3.57
   9  -9  -4   64.17    3.73
  10  -9  -4   14.87    2.17
  11  -9  -4   11.32    1.98
  12  -9  -4    1.13    1.43
  13  -9  -4    3.02    2.01
  -5  -8  -4   15.89    3.25
  -4  -8  -4   17.32    3.38
  -3  -8  -4   11.16    2.63
  -2  -8  -4    8.53    2.32
  -1  -8  -4   44.63    2.94
   0  -8  -4  146.80    5.22
   1  -8  -4   24.47    3.36
   2  -8  -4   17.14    2.76
   3  -8  -4   34.14    4.07
   4  -8  -4   22.49    2.18
   5  -8  -4  139.87    4.99
   6  -8  -4    1.36    0.73
   7  -8  -4    1.50    0.73
   8  -8  -4  145.25    5.53
   9  -8  -4    5.45    1.30
  10  -8  -4   21.96    2.56
  11  -8  -4   22.85    2.67
  12  -8  -4   21.36    4.16
  13  -8  -4   54.70    6.71
  -6  -7  -4   10.45    2.87
  -5  -7  -4   -0.18    0.97
  -4  -7  -4  190.42    9.80
  -3  -7  -4   17.91    3.10
  -2  -7  -4   42.92    4.75
  -1  -7  -4    1.89    0.71
   0  -7  -4   16.60    1.84
   1  -7  -4   14.69    2.45
   2  -7  -4    1.45    0.84
   3  -7  -4   27.73    2.06
   4  -7  -4  144.91    4.88
   5  -7  -4   92.89    3.89
   6  -7  -4   54.67    2.98
   7  -7  -4   20.69    2.27
   8  -7  -4   26.06    2.56
   9  -7  -4   27.23    2.71
  10  -7  -4   62.26    3.55
  11  -7  -4   -0.91    0.78
  12  -7  -4   -0.31    1.16
  13  -7  -4   63.34    7.07
  -7  -6  -4   69.32    6.01
  -6  -6  -4   18.35    3.55
  -5  -6  -4   17.25    3.27
  -4  -6  -4   18.51    3.14
  -3  -6  -4   20.12    3.17
  -2  -6  -4    1.68    0.68
  -1  -6  -4   57.31    2.89
   0  -6  -4    6.24    1.12
   1  -6  -4  304.33   11.02
   2  -6  -4    2.23    0.67
   3  -6  -4   13.91    1.54
   4  -6  -4    6.92    1.18
   5  -6  -4   11.93    1.61
   6  -6  -4    6.04    1.13
   7  -6  -4   13.89    1.81
   8  -6  -4   14.85    1.93
   9  -6  -4   79.44    3.91
  10  -6  -4   68.52    2.94
  11  -6  -4   28.00    2.88
  12  -6  -4   16.59    2.29
  13  -6  -4    9.75    2.02
  -8  -5  -4   51.84    6.08
  -7  -5  -4    2.08    1.68
  -6  -5  -4   18.54    3.30
  -5  -5  -4   26.37    3.85
  -4  -5  -4   40.42    4.52
  -3  -5  -4  142.26    4.72
  -2  -5  -4   93.02    3.72
  -1  -5  -4    9.82    1.36
   0  -5  -4    0.93    0.74
   1  -5  -4    8.08    1.08
   2  -5  -4   31.11    2.00
   3  -5  -4   11.43    1.41
   4  -5  -4   47.66    2.47
   5  -5  -4    1.32    0.58
   6  -5  -4  308.25    8.05
   7  -5  -4    1.70    0.53
   8  -5  -4   36.40    2.13
   9  -5  -4    2.26    0.68
  10  -5  -4   24.52    2.66
  11  -5  -4   17.10    2.28
  12  -5  -4    0.25    0.81
  13  -5  -4   22.54    2.97
  -9  -4  -4    0.84    1.44
  -8  -4  -4   22.03    3.80
  -7  -4  -4   -0.54    0.71
  -6  -4  -4   65.73    5.08
  -5  -4  -4    1.46    0.95
  -4  -4  -4   19.83    2.98
  -3  -4  -4  138.34    4.61
  -2  -4  -4    4.83    0.94
  -1  -4  -4   45.05    2.32
   0  -4  -4   32.96    1.72
   1  -4  -4   55.70    2.39
   2  -4  -4  164.26    4.79
   3  -4  -4  331.62    8.04
   4  -4  -4   33.87    2.26
   5  -4  -4    6.90    0.87
   6  -4  -4    1.08    0.43
   7  -4  -4   27.32    1.78
   8  -4  -4   22.37    1.76
   9  -4  -4   41.68    2.36
  10  -4  -4   24.28    2.60
  11  -4  -4  193.74    7.16
  12  -4  -4   18.80    2.60
  13  -4  -4   15.48    2.54
  -9  -3  -4    1.29    1.33
  -8  -3  -4   14.96    2.98
  -7  -3  -4   67.08    5.11
  -6  -3  -4   84.41    5.59
  -5  -3  -4   39.73    4.25
  -4  -3  -4   30.17    2.07
  -3  -3  -4    9.74    1.28
  -2  -3  -4   13.76    1.54
  -1  -3  -4  360.47    8.01
   0  -3  -4   29.25    1.60
   1  -3  -4    2.95    0.68
   2  -3  -4  155.33    4.55
   3  -3  -4   29.97    1.32
   4  -3  -4   52.36    1.95
   5  -3  -4   30.11    1.60
   6  -3  -4   10.61    1.13
   7  -3  -4  149.21    4.03
   8  -3  -4  135.41    3.96
   9  -3  -4   23.30    2.50
  10  -3  -4   21.47    2.50
  11  -3  -4    7.91    1.67
  12  -3  -4   25.71    3.02
  13  -3  -4    3.63    1.34
 -10  -2  -4  111.06    7.51
  -9  -2  -4    9.32    2.45
  -8  -2  -4   25.01    3.78
  -7  -2  -4   24.20    3.39
  -6  -2  -4   22.26    3.13
  -5  -2  -4    1.90    1.03
  -4  -2  -4    1.74    0.55
  -3  -2  -4   32.23    1.89
  -2  -2  -4  168.55    4.74
  -1  -2  -4  157.26    3.42
   0  -2  -4   34.68    1.76
   1  -2  -4   69.82    1.92
   2  -2  -4   38.75    1.48
   3  -2  -4    2.88    0.55
   4  -2  -4  163.54    3.91
   5  -2  -4   13.59    1.25
   6  -2  -4    5.36    0.84
   7  -2  -4   96.15    3.13
   8  -2  -4    2.83    0.92
   9  -2  -4   40.41    3.40
  10  -2  -4    6.94    1.52
  11  -2  -4   27.72    3.06
  12  -2  -4   84.48    4.79
 -11  -1  -4    1.89    1.50
 -10  -1  -4    2.33    1.44
  -9  -1  -4   11.92    2.59
  -8  -1  -4    7.09    2.00
  -7  -1  -4   29.96    3.69
  -6  -1  -4   17.50    2.68
  -5  -1  -4  305.20    7.37
  -4  -1  -4    8.55    1.14
  -3  -1  -4   57.47    2.44
  -2  -1  -4    2.91    0.48
  -1  -1  -4   69.24    2.03
   0  -1  -4   23.20    1.16
   1  -1  -4   19.58    1.12
   2  -1  -4   69.77    2.15
   3  -1  -4  152.42    3.65
   4  -1  -4  339.79    6.53
   5  -1  -4   46.13    1.96
   6  -1  -4   10.80    1.18
   7  -1  -4   56.09    2.32
   8  -1  -4    0.90    0.63
   9  -1  -4   45.28    3.23
  10  -1  -4    7.14    1.58
  11  -1  -4    2.42    1.03
  12  -1  -4   60.21    4.79
 -11   0  -4    6.42    2.02
 -10   0  -4   11.30    2.59
  -9   0  -4   58.42    4.74
  -8   0  -4  136.87    7.19
  -7   0  -4   18.33    2.80
  -6   0  -4    6.50    1.05
  -5   0  -4    1.33    0.49
  -4   0  -4   35.15    1.87
  -3   0  -4   32.04    1.31
  -2   0  -4   37.36    1.41
  -1   0  -4   20.80    1.06
   0   0  -4  938.63   12.26
   1   0  -4   18.82    1.19
   2   0  -4   36.36    1.56
   3   0  -4   32.28    1.52
   4   0  -4   36.14    1.67
   5   0  -4    1.40    0.45
   6   0  -4    5.56    0.87
   7   0  -4   16.49    2.07
   8   0  -4  145.33    5.65
   9   0  -4   74.55    4.05
  10   0  -4   10.73    1.89
  11   0  -4    4.87    1.47
  12   0  -4    2.10    1.67
 -12   1  -4   70.46    5.89
 -11   1  -4    3.51    1.63
 -10   1  -4    2.94    1.36
  -9   1  -4   49.06    4.09
  -8   1  -4    2.10    1.11
  -7   1  -4   59.91    4.05
  -6   1  -4   12.73    1.46
  -5   1  -4   48.35    2.23
  -4   1  -4  350.90    6.11
  -3   1  -4  160.65    3.41
  -2   1  -4   68.10    1.96
  -1   1  -4   20.88    1.06
   0   1  -4   19.64    0.84
   1   1  -4   67.36    2.20
   2   1  -4    2.01    0.51
   3   1  -4   53.76    2.06
   4   1  -4    8.48    1.01
   5   1  -4  306.95    6.33
   6   1  -4   16.21    1.95
   7   1  -4   31.70    2.95
   8   1  -4    8.00    1.53
   9   1  -4   13.61    2.10
  10   1  -4    1.64    0.94
  11   1  -4    2.50    1.20
 -12   2  -4   77.25    6.11
 -11   2  -4   25.81    3.91
 -10   2  -4   10.07    2.40
  -9   2  -4   39.90    4.36
  -8   2  -4    0.56    0.70
  -7   2  -4   93.72    3.50
  -6   2  -4    6.34    1.03
  -5   2  -4   13.92    1.10
  -4   2  -4  168.95    3.66
  -3   2  -4    3.13    0.51
  -2   2  -4   36.25    1.31
  -1   2  -4   67.29    1.58
   0   2  -4   36.67    1.60
   1   2  -4  155.31    3.74
   2   2  -4  164.46    4.02
   3   2  -4   30.83    1.78
   4   2  -4    1.25    0.44
   5   2  -4    1.26    0.50
   6   2  -4   18.49    2.18
   7   2  -4   21.99    2.54
   8   2  -4   26.83    2.83
   9   2  -4   10.82    1.94
  10   2  -4  111.95    5.53
 -13   3  -4    2.13    1.73
 -12   3  -4   22.74    3.90
 -11   3  -4    7.69    2.13
 -10   3  -4   20.01    3.07
  -9   3  -4   21.32    3.05
  -8   3  -4  138.14    4.53
  -7   3  -4  148.61    4.53
  -6   3  -4   11.32    1.29
  -5   3  -4   30.61    1.39
  -4   3  -4   58.32    1.88
  -3   3  -4   29.93    1.25
  -2   3  -4  157.39    4.58
  -1   3  -4    1.88    0.48
   0   3  -4   28.61    1.48
   1   3  -4  329.29    6.59
   2   3  -4   12.60    1.24
   3   3  -4   12.68    1.24
   4   3  -4   28.88    1.76
   5   3  -4   31.08    2.79
   6   3  -4   83.51    4.16
   7   3  -4   64.46    3.75
   8   3  -4   20.68    2.62
   9   3  -4    0.53    0.88
 -13   4  -4   14.05    3.05
 -12   4  -4   23.32    3.76
 -11   4  -4  192.15    9.42
 -10   4  -4   22.83    3.28
  -9   4  -4   47.59    3.78
  -8   4  -4   23.16    2.05
  -7   4  -4   31.20    2.07
  -6   4  -4    1.13    0.41
  -5   4  -4    8.01    0.87
  -4   4  -4   33.74    1.39
  -3   4  -4  339.40    8.08
  -2   4  -4  161.32    4.92
  -1   4  -4   54.22    2.13
   0   4  -4   33.70    1.69
   1   4  -4   45.20    1.98
   2   4  -4    5.67    0.87
   3   4  -4  143.92    4.00
   4   4  -4   20.73    1.68
   5   4  -4    4.15    1.17
   6   4  -4   62.35    3.70
   7   4  -4   -0.50    0.59
   8   4  -4   21.66    2.70
   9   4  -4    2.45    1.75
 -13   5  -4   14.29    3.03
 -12   5  -4    0.49    1.08
 -11   5  -4   19.66    3.28
 -10   5  -4   26.05    3.42
  -9   5  -4    4.73    1.01
  -8   5  -4   30.74    2.14
  -7   5  -4    2.23    0.55
  -6   5  -4  305.33    5.98
  -5   5  -4    0.91    0.53
  -4   5  -4   48.42    2.48
  -3   5  -4   10.63    1.36
  -2   5  -4   34.71    1.74
  -1   5  -4    8.32    1.04
   0   5  -4    0.85    0.42
   1   5  -4   10.55    1.20
   2   5  -4   93.53    3.17
   3   5  -4  134.73    3.96
   4   5  -4   49.58    3.34
   5   5  -4   23.75    2.61
   6   5  -4   30.99    3.21
   7   5  -4    0.51    0.80
   8   5  -4   51.12    4.37
 -13   6  -4   11.66    2.73
 -12   6  -4   21.47    3.56
 -11   6  -4   32.93    4.09
 -10   6  -4   64.59    4.50
  -9   6  -4   86.86    3.58
  -8   6  -4   22.52    2.00
  -7   6  -4   16.95    1.43
  -6   6  -4    7.84    1.32
  -5   6  -4   14.82    1.69
  -4   6  -4    5.87    1.10
  -3   6  -4   13.08    1.60
  -2   6  -4    1.48    0.52
  -1   6  -4  310.88    6.62
   0   6  -4    5.60    0.88
   1   6  -4   57.62    2.44
   2   6  -4    1.89    0.58
   3   6  -4   24.60    2.64
   4   6  -4   24.57    2.72
   5   6  -4   14.22    2.19
   6   6  -4   17.49    2.34
   7   6  -4   73.99    4.46
 -13   7  -4   81.08    5.87
 -12   7  -4    1.73    1.23
 -11   7  -4    0.68    0.88
 -10   7  -4   70.66    3.33
  -9   7  -4   28.18    2.37
  -8   7  -4   21.74    3.08
  -7   7  -4   18.26    2.04
  -6   7  -4   60.62    3.07
  -5   7  -4   99.51    4.03
  -4   7  -4  146.58    5.08
  -3   7  -4   25.14    2.33
  -2   7  -4    1.42    0.55
  -1   7  -4   17.79    1.67
   0   7  -4   17.01    1.57
   1   7  -4    0.79    0.48
   2   7  -4   36.13    2.24
   3   7  -4   17.88    2.31
   4   7  -4  200.11    7.29
   5   7  -4    0.54    0.84
   6   7  -4   10.46    1.98
 -13   8  -4   52.17    5.45
 -12   8  -4   25.04    3.66
 -11   8  -4   22.78    4.31
 -10   8  -4   23.24    3.46
  -9   8  -4   12.61    2.53
  -8   8  -4  151.29    5.42
  -7   8  -4    0.85    0.65
  -6   8  -4    1.44    0.70
  -5   8  -4  127.24    4.93
  -4   8  -4   22.80    2.35
  -3   8  -4   35.79    2.97
  -2   8  -4   18.61    1.77
  -1   8  -4   23.46    1.91
   0   8  -4  141.59    4.35
   1   8  -4   51.23    2.74
   2   8  -4    5.73    1.31
   3   8  -4    9.76    1.88
   4   8  -4   15.43    2.27
   5   8  -4   21.50    2.86
 -11   9  -4   14.38    2.84
 -10   9  -4   12.98    2.61
  -9   9  -4   68.17    5.15
  -8   9  -4   46.83    3.23
  -7   9  -4   38.94    3.22
  -6   9  -4   25.05    2.64
  -5   9  -4   45.59    3.12
  -4   9  -4    3.44    0.99
  -3   9  -4   85.70    4.03
  -2   9  -4   25.73    2.10
  -1   9  -4    8.21    1.25
   0   9  -4   64.47    2.93
   1   9  -4    4.96    1.32
   2   9  -4   27.66    3.07
   3   9  -4   27.64    3.18
   4   9  -4   14.78    2.39
 -11  10  -4    3.68    1.65
 -10  10  -4   13.89    2.93
  -9  10  -4    5.27    1.78
  -8  10  -4    6.26    1.42
  -7  10  -4   16.29    2.17
  -6  10  -4   25.25    2.69
  -5  10  -4   20.72    2.43
  -4  10  -4   70.10    3.74
  -3  10  -4   59.06    3.49
  -2  10  -4   23.49    2.12
  -1  10  -4   14.15    1.68
   0  10  -4   12.65    1.61
   1  10  -4    2.87    1.15
   2  10  -4   74.84    4.56
   3  10  -4    1.83    1.48
 -12  11  -4    1.10    1.30
 -11  11  -4    7.93    2.39
 -10  11  -4    3.59    1.62
  -9  11  -4   26.17    4.07
  -8  11  -4   11.70    1.97
  -7  11  -4  206.09    7.32
  -6  11  -4   18.15    2.24
  -5  11  -4   27.90    2.93
  -4  11  -4    0.70    0.70
  -3  11  -4   23.60    2.70
  -2  11  -4   12.25    1.98
  -1  11  -4    3.70    0.98
   0  11  -4    3.57    1.33
   1  11  -4   70.78    4.87
 -12  12  -4    1.90    1.75
 -11  12  -4   70.55    5.89
 -10  12  -4   86.11    6.50
  -9  12  -4   30.57    4.49
  -8  12  -4   13.60    2.90
  -7  12  -4    0.82    0.80
  -6  12  -4   20.26    2.66
  -5  12  -4    1.47    0.81
  -4  12  -4   21.75    2.61
  -3  12  -4    1.49    0.93
  -2  12  -4  113.73    5.26
  -1  12  -4    2.92    1.76
 -10  13  -4    5.10    3.22
  -9  13  -4   17.07    3.60
  -8  13  -4   21.16    3.88
  -7  13  -4    9.09    1.78
  -6  13  -4   69.71    4.63
  -5  13  -4   55.30    4.44
  -4  13  -4    4.29    1.34
  -3  13  -4    0.47    1.08
   4 -14  -3   44.39    5.73
   5 -14  -3   21.23    3.84
   6 -14  -3    7.41    2.42
   7 -14  -3   20.86    3.93
   8 -14  -3    0.22    0.93
   9 -14  -3   -0.22    0.72
  10 -14  -3    6.99    2.49
   2 -13  -3   11.74    2.97
   3 -13  -3   24.31    3.91
   4 -13  -3   24.71    4.06
   5 -13  -3    0.16    1.18
   6 -13  -3    2.58    1.43
   7 -13  -3   68.50    3.99
   8 -13  -3   24.36    2.87
   9 -13  -3   61.14    4.23
  10 -13  -3    4.48    1.36
  11 -13  -3    1.77    1.04
  12 -13  -3   10.69    2.83
   0 -12  -3   67.39    5.79
   1 -12  -3   25.50    4.15
   2 -12  -3    9.72    2.55
   3 -12  -3    4.04    1.72
   4 -12  -3   99.52    6.61
   5 -12  -3    0.49    0.89
   6 -12  -3   16.86    2.22
   7 -12  -3   20.45    2.51
   8 -12  -3    8.57    1.67
   9 -12  -3   22.82    2.73
  10 -12  -3    2.95    1.13
  11 -12  -3   11.92    2.11
  12 -12  -3   65.77    4.45
  13 -12  -3   18.92    3.77
  -2 -11  -3    1.27    1.21
  -1 -11  -3    9.47    2.55
   0 -11  -3   31.55    4.56
   1 -11  -3    7.68    1.48
   2 -11  -3   38.10    4.56
   3 -11  -3   30.61    4.09
   4 -11  -3   25.78    3.70
   5 -11  -3   80.44    3.90
   6 -11  -3   18.28    2.29
   7 -11  -3    3.47    1.08
   8 -11  -3   14.08    2.03
   9 -11  -3   97.66    4.66
  10 -11  -3   12.69    1.99
  11 -11  -3   38.22    3.55
  12 -11  -3   29.82    3.28
  13 -11  -3    8.74    2.77
  -4 -10  -3   11.95    4.32
  -3 -10  -3    2.72    1.59
  -2 -10  -3    3.69    1.53
  -1 -10  -3   12.86    2.81
   0 -10  -3  119.05    7.24
   1 -10  -3   23.01    3.35
   2 -10  -3  139.86    7.26
   3 -10  -3    4.56    1.65
   4 -10  -3    3.29    0.91
   5 -10  -3   17.73    2.06
   6 -10  -3   20.58    2.26
   7 -10  -3   12.77    1.83
   8 -10  -3   27.75    2.84
   9 -10  -3    2.25    0.89
  10 -10  -3  122.49    5.34
  11 -10  -3    6.68    1.56
  12 -10  -3   11.89    2.03
  13 -10  -3   44.00    5.93
  -5  -9  -3   -1.04    1.00
  -4  -9  -3   47.25    5.61
  -3  -9  -3   24.49    3.82
  -2  -9  -3  101.58    6.53
  -1  -9  -3    0.99    0.91
   0  -9  -3    4.31    1.02
   1  -9  -3   37.67    3.38
   2  -9  -3   18.63    2.89
   3  -9  -3    0.09    0.42
   4  -9  -3    3.23    0.90
   5  -9  -3  207.92    6.34
   6  -9  -3   34.95    2.53
   7  -9  -3  108.24    4.52
   8  -9  -3    1.92    0.72
   9  -9  -3    3.73    1.07
  10  -9  -3   35.33    3.26
  11  -9  -3   33.87    3.17
  12  -9  -3    2.39    1.71
  13  -9  -3   25.49    4.42
  14  -9  -3   18.92    3.97
  -6  -8  -3    0.19    1.16
  -5  -8  -3   23.85    3.92
  -4  -8  -3    7.55    2.28
  -3  -8  -3   13.23    2.75
  -2  -8  -3   21.72    3.35
  -1  -8  -3    2.00    0.71
   0  -8  -3    5.57    1.12
   1  -8  -3  184.58    7.86
   2  -8  -3   73.15    4.01
   3  -8  -3  208.35    5.89
   4  -8  -3   58.03    2.84
   5  -8  -3   10.67    1.51
   6  -8  -3    2.32    0.78
   7  -8  -3   24.29    2.37
   8  -8  -3    3.05    0.85
   9  -8  -3   43.09    3.01
  10  -8  -3  139.21    4.31
  11  -8  -3   28.43    2.30
  12  -8  -3  100.91    4.89
  13  -8  -3    0.28    0.77
  14  -8  -3   14.12    2.44
  -7  -7  -3   18.69    3.59
  -6  -7  -3   73.60    5.87
  -5  -7  -3   19.66    3.54
  -4  -7  -3    4.80    1.67
  -3  -7  -3   15.20    2.78
  -2  -7  -3  109.24    6.41
  -1  -7  -3   27.37    2.33
   0  -7  -3   93.55    5.01
   1  -7  -3   69.66    4.29
   2  -7  -3   13.92    1.44
   3  -7  -3   90.68    3.44
   4  -7  -3   17.14    1.72
   5  -7  -3    8.48    1.28
   6  -7  -3  244.40    6.79
   7  -7  -3   98.46    3.08
   8  -7  -3  186.67    4.69
   9  -7  -3   22.25    1.87
  10  -7  -3    4.79    0.93
  11  -7  -3   30.00    2.95
  12  -7  -3    0.27    0.69
  13  -7  -3    0.73    0.81
  14  -7  -3   28.96    3.46
  -8  -6  -3   10.60    2.89
  -7  -6  -3    2.94    1.55
  -6  -6  -3   18.98    3.37
  -5  -6  -3   18.32    3.07
  -4  -6  -3   18.87    3.04
  -3  -6  -3   33.95    4.03
  -2  -6  -3    4.26    0.91
  -1  -6  -3  243.33    6.50
   0  -6  -3   41.78    3.05
   1  -6  -3   23.32    1.54
   2  -6  -3   56.90    2.44
   3  -6  -3  231.53    6.01
   4  -6  -3   55.75    2.58
   5  -6  -3   46.70    1.80
   6  -6  -3   39.26    1.73
   7  -6  -3   73.38    2.55
   8  -6  -3   59.10    2.42
   9  -6  -3    0.69    0.43
  10  -6  -3    3.79    0.83
  11  -6  -3   85.12    4.26
  12  -6  -3   15.60    2.21
  13  -6  -3   68.97    4.27
  14  -6  -3    1.50    1.11
  -9  -5  -3   14.41    3.18
  -8  -5  -3    0.09    0.95
  -7  -5  -3   -0.47    0.70
  -6  -5  -3   79.15    5.70
  -5  -5  -3   16.84    2.90
  -4  -5  -3  216.33    9.26
  -3  -5  -3   12.55    1.47
  -2  -5  -3    8.03    1.14
  -1  -5  -3   48.86    2.35
   0  -5  -3  133.17    3.63
   1  -5  -3   21.63    1.44
   2  -5  -3   82.66    2.90
   3  -5  -3   48.69    2.24
   4  -5  -3  256.41    4.97
   5  -5  -3  131.45    3.23
   6  -5  -3   21.45    1.36
   7  -5  -3   14.84    1.36
   8  -5  -3  207.24    4.96
   9  -5  -3    4.88    0.89
  10  -5  -3   22.25    2.46
  11  -5  -3   21.32    2.54
  12  -5  -3   17.96    2.42
  13  -5  -3   18.19    2.51
  14  -5  -3    0.42    0.93
  -9  -4  -3   26.00    4.26
  -8  -4  -3  101.99    6.85
  -7  -4  -3   33.81    4.29
  -6  -4  -3    4.51    1.63
  -5  -4  -3    5.76    1.67
  -4  -4  -3   64.79    4.37
  -3  -4  -3   13.10    1.40
  -2  -4  -3   58.40    2.50
  -1  -4  -3  267.71    6.43
   0  -4  -3  139.89    3.61
   1  -4  -3  393.04    7.95
   2  -4  -3    7.93    1.00
   3  -4  -3   25.29    1.06
   4  -4  -3  133.05    3.11
   5  -4  -3   18.95    1.22
   6  -4  -3   54.05    2.04
   7  -4  -3   93.16    2.89
   8  -4  -3   61.16    2.38
   9  -4  -3  215.55    5.35
  10  -4  -3   21.85    2.44
  11  -4  -3    2.96    1.06
  12  -4  -3    9.48    1.73
  13  -4  -3   58.07    4.19
  14  -4  -3   10.28    2.31
 -10  -3  -3   30.47    4.57
  -9  -3  -3    5.87    1.97
  -8  -3  -3   30.75    4.08
  -7  -3  -3    4.34    1.51
  -6  -3  -3    0.35    0.76
  -5  -3  -3  212.53    8.68
  -4  -3  -3   93.58    3.26
  -3  -3  -3  241.47    5.90
  -2  -3  -3   44.89    2.07
  -1  -3  -3   25.78    1.06
   0  -3  -3   81.05    2.51
   1  -3  -3   25.03    1.87
   2  -3  -3   77.62    1.87
   3  -3  -3   76.34    2.42
   4  -3  -3  369.38    6.54
   5  -3  -3   82.30    2.42
   6  -3  -3  235.30    4.99
   7  -3  -3   17.42    1.40
   8  -3  -3   13.68    1.31
   9  -3  -3   30.97    2.74
  10  -3  -3   10.55    1.71
  11  -3  -3   11.68    1.82
  12  -3  -3   25.73    2.91
  13  -3  -3    5.68    1.54
 -11  -2  -3    8.97    2.47
 -10  -2  -3   16.62    3.31
  -9  -2  -3   30.15    4.20
  -8  -2  -3  138.26    7.48
  -7  -2  -3   22.67    3.19
  -6  -2  -3   64.35    4.40
  -5  -2  -3   18.38    2.63
  -4  -2  -3   57.80    2.36
  -3  -2  -3   82.91    2.83
  -2  -2  -3   10.09    0.61
  -1  -2  -3   75.48    1.93
   0  -2  -3  339.58    6.89
   1  -2  -3   70.92    1.98
   2  -2  -3  330.71    5.60
   3  -2  -3   27.32    1.19
   4  -2  -3    9.12    0.88
   5  -2  -3   46.89    1.78
   6  -2  -3   54.84    2.04
   7  -2  -3    9.53    1.02
   8  -2  -3    4.92    1.08
   9  -2  -3  116.85    4.75
  10  -2  -3   21.92    2.48
  11  -2  -3   96.23    4.64
  12  -2  -3    2.74    1.19
  13  -2  -3    1.08    1.45
 -11  -1  -3   17.06    3.25
 -10  -1  -3    7.74    2.14
  -9  -1  -3   18.12    3.04
  -8  -1  -3   33.58    4.05
  -7  -1  -3  177.56    8.02
  -6  -1  -3   69.64    4.38
  -5  -1  -3   20.62    1.44
  -4  -1  -3   19.16    1.53
  -3  -1  -3  373.32    6.00
  -2  -1  -3   26.16    1.02
  -1  -1  -3   69.83    1.83
   0  -1  -3   55.03    1.48
   1  -1  -3   53.15    1.83
   2  -1  -3   67.64    1.93
   3  -1  -3   71.13    2.11
   4  -1  -3   25.95    1.25
   5  -1  -3  270.24    5.31
   6  -1  -3   48.17    1.89
   7  -1  -3  238.57    5.21
   8  -1  -3   24.58    2.34
   9  -1  -3    1.00    0.69
  10  -1  -3    1.75    0.86
  11  -1  -3   12.53    1.93
  12  -1  -3    6.94    1.53
 -12   0  -3   57.55    6.15
 -11   0  -3   29.15    4.20
 -10   0  -3  130.70    7.29
  -9   0  -3    0.80    0.82
  -8   0  -3    3.90    1.42
  -7   0  -3  103.35    5.50
  -6   0  -3   45.50    2.03
  -5   0  -3  131.21    3.78
  -4   0  -3  136.68    2.75
  -3   0  -3   77.28    1.92
  -2   0  -3  337.05    5.49
  -1   0  -3   54.84    1.53
   0   0  -3    0.37    0.17
   1   0  -3   52.17    1.64
   2   0  -3  324.31    5.77
   3   0  -3   73.23    2.18
   4   0  -3  134.92    3.25
   5   0  -3  128.85    3.27
   6   0  -3   43.60    1.75
   7   0  -3   91.61    3.91
   8   0  -3    5.37    1.14
   9   0  -3    2.85    0.95
  10   0  -3  121.71    5.25
  11   0  -3   30.68    3.12
  12   0  -3   41.82    5.77
 -12   1  -3    6.79    2.10
 -11   1  -3   18.12    3.27
 -10   1  -3    1.29    0.95
  -9   1  -3    1.04    0.81
  -8   1  -3   18.99    2.69
  -7   1  -3  241.19    9.19
  -6   1  -3   48.24    2.12
  -5   1  -3  257.30    6.06
  -4   1  -3   27.18    1.08
  -3   1  -3   73.69    1.90
  -2   1  -3   72.08    1.83
  -1   1  -3   54.64    1.29
   0   1  -3   53.58    1.24
   1   1  -3   71.23    2.47
   2   1  -3   23.09    1.16
   3   1  -3  366.00    6.60
   4   1  -3   18.27    1.32
   5   1  -3   22.68    1.33
   6   1  -3   74.28    3.40
   7   1  -3  186.08    6.01
   8   1  -3   48.07    2.93
   9   1  -3   20.67    2.42
  10   1  -3    5.24    1.37
  11   1  -3   27.53    4.79
 -13   2  -3    1.49    1.24
 -12   2  -3    3.94    1.69
 -11   2  -3   84.63    5.89
 -10   2  -3   25.86    3.55
  -9   2  -3  105.29    5.97
  -8   2  -3    5.43    1.54
  -7   2  -3   10.54    1.21
  -6   2  -3   58.90    2.33
  -5   2  -3   47.42    1.57
  -4   2  -3    8.95    0.79
  -3   2  -3   25.18    1.05
  -2   2  -3  328.44    5.45
  -1   2  -3   70.77    1.48
   0   2  -3  329.58    5.84
   1   2  -3   73.03    2.18
   2   2  -3    7.16    0.80
   3   2  -3   82.78    2.43
   4   2  -3   55.92    2.00
   5   2  -3   15.42    1.26
   6   2  -3   62.13    3.21
   7   2  -3   21.38    2.28
   8   2  -3  134.61    5.42
   9   2  -3   37.31    3.46
  10   2  -3    8.13    2.60
  11   2  -3   12.44    3.37
 -13   3  -3    9.47    2.52
 -12   3  -3   24.01    3.79
 -11   3  -3   13.14    2.73
 -10   3  -3   16.30    2.79
  -9   3  -3   29.77    3.40
  -8   3  -3   12.70    1.41
  -7   3  -3   20.84    1.72
  -6   3  -3  235.95    5.71
  -5   3  -3   82.63    2.22
  -4   3  -3  375.21    6.35
  -3   3  -3   77.30    1.99
  -2   3  -3   74.53    1.81
  -1   3  -3   24.05    1.21
   0   3  -3   70.67    2.68
   1   3  -3   26.39    1.37
   2   3  -3   45.57    1.76
   3   3  -3  233.80    4.94
   4   3  -3   91.12    2.76
   5   3  -3  211.32    6.38
   6   3  -3    1.61    0.70
   7   3  -3    5.23    1.25
   8   3  -3   28.58    2.89
   9   3  -3    4.84    1.37
  10   3  -3   24.92    4.64
 -13   4  -3   51.48    5.71
 -12   4  -3   11.10    2.50
 -11   4  -3    4.29    1.66
 -10   4  -3   25.86    3.46
  -9   4  -3  206.89    8.58
  -8   4  -3   64.21    2.70
  -7   4  -3   95.58    3.30
  -6   4  -3   54.50    1.90
  -5   4  -3   20.47    1.15
  -4   4  -3  131.56    2.99
  -3   4  -3   27.55    1.09
  -2   4  -3    9.83    0.56
  -1   4  -3  374.10    6.78
   0   4  -3  132.77    3.36
   1   4  -3  257.41    5.29
   2   4  -3   55.62    2.07
   3   4  -3   20.38    1.49
   4   4  -3   58.07    2.23
   5   4  -3    3.33    1.00
   6   4  -3    1.85    0.82
   7   4  -3   31.94    3.06
   8   4  -3  111.62    5.05
   9   4  -3   25.48    4.47
 -14   5  -3   -0.54    1.10
 -13   5  -3   21.29    3.43
 -12   5  -3   20.35    3.35
 -11   5  -3   22.26    3.33
 -10   5  -3   15.71    2.56
  -9   5  -3    3.34    0.73
  -8   5  -3  213.34    5.66
  -7   5  -3   15.11    1.47
  -6   5  -3   21.74    1.31
  -5   5  -3  125.27    3.08
  -4   5  -3  263.08    5.00
  -3   5  -3   44.46    1.50
  -2   5  -3   80.33    1.89
  -1   5  -3   18.00    1.37
   0   5  -3  131.97    3.45
   1   5  -3   48.39    1.98
   2   5  -3    9.29    1.04
   3   5  -3   12.54    1.24
   4   5  -3  212.46    6.61
   5   5  -3   18.09    2.17
   6   5  -3   86.68    4.23
   7   5  -3   -0.15    0.62
   8   5  -3    0.18    1.16
   9   5  -3   14.12    3.53
 -14   6  -3    0.79    1.18
 -13   6  -3   67.42    5.39
 -12   6  -3   20.17    3.29
 -11   6  -3   98.90    5.80
 -10   6  -3    1.59    0.89
  -9   6  -3    1.61    0.61
  -8   6  -3   62.24    2.76
  -7   6  -3   75.17    2.44
  -6   6  -3   44.12    1.75
  -5   6  -3   48.99    1.79
  -4   6  -3   59.20    1.91
  -3   6  -3  239.35    6.29
  -2   6  -3   55.92    2.20
  -1   6  -3   23.52    1.69
   0   6  -3   42.44    1.91
   1   6  -3  240.28    5.41
   2   6  -3    3.86    0.73
   3   6  -3   29.25    2.71
   4   6  -3   18.71    2.24
   5   6  -3   24.10    2.70
   6   6  -3   19.13    2.45
   7   6  -3    2.59    1.73
   8   6  -3   14.69    3.49
 -14   7  -3   20.18    3.66
 -13   7  -3    2.98    1.48
 -12   7  -3    0.29    0.88
 -11   7  -3   30.99    3.75
 -10   7  -3    4.72    0.99
  -9   7  -3   17.59    1.85
  -8   7  -3  182.74    5.29
  -7   7  -3   96.40    2.91
  -6   7  -3  242.66    5.18
  -5   7  -3    9.62    0.97
  -4   7  -3   18.23    1.84
  -3   7  -3   92.85    3.65
  -2   7  -3   16.45    1.49
  -1   7  -3   73.92    2.68
   0   7  -3   94.87    3.11
   1   7  -3   25.82    1.95
   2   7  -3  122.27    3.66
   3   7  -3   12.26    1.80
   4   7  -3    3.75    1.11
   5   7  -3   21.85    2.64
   6   7  -3   58.07    6.71
   7   7  -3   15.05    3.53
 -14   8  -3    9.82    2.60
 -13   8  -3    0.63    0.93
 -12   8  -3  105.44    6.34
 -11   8  -3   33.01    2.84
 -10   8  -3  145.19    4.95
  -9   8  -3   38.19    2.31
  -8   8  -3    3.32    0.82
  -7   8  -3   23.96    1.53
  -6   8  -3    4.45    0.74
  -5   8  -3   11.70    1.56
  -4   8  -3   63.27    3.05
  -3   8  -3  184.48    5.97
  -2   8  -3   58.56    2.51
  -1   8  -3  191.18    4.84
   0   8  -3    3.60    0.74
   1   8  -3    2.02    0.65
   2   8  -3   23.05    2.53
   3   8  -3   13.30    2.04
   4   8  -3    9.33    1.75
   5   8  -3   27.29    4.57
   6   8  -3    1.22    1.35
 -14   9  -3   13.66    3.00
 -13   9  -3   34.65    4.50
 -12   9  -3    3.18    1.43
 -11   9  -3   31.49    2.75
 -10   9  -3   30.21    2.62
  -9   9  -3    4.18    1.04
  -8   9  -3    1.79    0.64
  -7   9  -3  116.84    4.65
  -6   9  -3   34.18    2.81
  -5   9  -3  233.07    6.75
  -4   9  -3    4.04    0.92
  -3   9  -3    1.38    0.68
  -2   9  -3   18.67    1.74
  -1   9  -3   42.41    2.32
   0   9  -3    3.57    0.84
   1   9  -3    1.14    0.77
   2   9  -3   97.90    4.68
   3   9  -3   23.68    2.73
   4   9  -3   55.71    6.53
   5   9  -3   -0.95    1.05
 -14  10  -3   36.24    4.80
 -13  10  -3   34.73    4.52
 -12  10  -3   16.37    2.15
 -11  10  -3    7.24    1.35
 -10  10  -3  122.62    4.72
  -9  10  -3    0.35    0.73
  -8  10  -3   24.38    3.61
  -7  10  -3   15.23    2.03
  -6  10  -3   19.78    2.23
  -5  10  -3   18.99    2.28
  -4  10  -3    1.28    0.66
  -3  10  -3    4.84    1.16
  -2  10  -3  132.77    4.32
  -1  10  -3   25.42    2.16
   0  10  -3  117.26    4.04
   1  10  -3   12.07    2.02
   2  10  -3    3.21    1.20
   3  10  -3    6.29    1.74
   4  10  -3    7.94    2.81
 -12  11  -3   24.70    3.87
 -11  11  -3   40.85    4.98
 -10  11  -3   13.96    2.86
  -9  11  -3   91.03    6.15
  -8  11  -3   10.82    2.45
  -7  11  -3    5.23    1.26
  -6  11  -3   19.09    2.34
  -5  11  -3   75.63    3.98
  -4  11  -3   28.39    2.68
  -3  11  -3   23.97    2.52
  -2  11  -3   34.04    3.06
  -1  11  -3    7.40    1.23
   0  11  -3   30.40    3.16
   1  11  -3    7.09    1.58
   2  11  -3    1.51    1.05
 -12  12  -3   65.26    5.59
 -11  12  -3    8.30    2.38
 -10  12  -3    2.79    1.51
  -9  12  -3   24.01    3.83
  -8  12  -3   10.15    2.56
  -7  12  -3   24.02    2.77
  -6  12  -3   21.23    2.57
  -5  12  -3    0.83    0.71
  -4  12  -3  106.55    4.88
  -3  12  -3    5.66    1.35
  -2  12  -3   12.57    1.97
  -1  12  -3   29.26    3.14
   0  12  -3   64.22    4.48
   1  12  -3    8.56    1.85
 -12  13  -3    5.19    2.15
 -11  13  -3    2.47    1.53
 -10  13  -3    4.73    2.10
  -9  13  -3   59.06    5.26
  -8  13  -3   27.47    4.31
  -7  13  -3   68.61    5.63
  -6  13  -3    2.93    1.22
  -5  13  -3    0.01    0.76
  -4  13  -3   23.47    2.73
  -3  13  -3   29.50    3.12
  -2  13  -3    8.50    1.78
  -1  13  -3   17.55    3.59
  -9  14  -3   -0.17    1.08
  -8  14  -3    1.60    1.31
  -7  14  -3   22.51    3.88
  -6  14  -3   13.42    3.00
  -5  14  -3   16.54    2.49
  -4  14  -3   46.12    4.21
   8 -15  -2   20.30    3.99
   9 -15  -2   21.86    4.12
   2 -14  -2   25.84    4.84
   3 -14  -2   41.25    4.13
   4 -14  -2    6.97    2.28
   5 -14  -2    2.30    1.50
   6 -14  -2   52.79    6.04
   7 -14  -2    3.80    1.28
   8 -14  -2    6.02    1.43
   9 -14  -2   50.04    4.21
  10 -14  -2    8.69    1.91
  11 -14  -2   38.14    3.80
   0 -13  -2    2.54    1.66
   1 -13  -2    9.78    2.70
   2 -13  -2    4.43    1.76
   3 -13  -2    0.69    1.08
   4 -13  -2   21.69    3.76
   5 -13  -2   59.05    5.04
   6 -13  -2   35.84    3.29
   7 -13  -2   48.11    3.89
   8 -13  -2   23.76    2.80
   9 -13  -2   34.77    3.43
  10 -13  -2    4.95    1.37
  11 -13  -2   37.89    3.58
  12 -13  -2    1.54    1.05
  13 -13  -2    3.20    1.89
  -2 -12  -2   29.51    5.37
  -1 -12  -2    2.26    1.42
   0 -12  -2   14.78    3.18
   1 -12  -2    1.44    1.27
   2 -12  -2  115.30    6.83
   3 -12  -2    7.87    2.11
   4 -12  -2   30.89    4.10
   5 -12  -2    3.65    1.04
   6 -12  -2   36.41    3.29
   7 -12  -2    4.04    1.16
   8 -12  -2    1.89    0.88
   9 -12  -2   24.39    2.75
  10 -12  -2   16.49    2.25
  11 -12  -2   89.31    4.66
  12 -12  -2   18.11    2.36
  13 -12  -2   11.60    2.02
  -3 -11  -2   43.05    5.45
  -2 -11  -2   48.12    5.55
  -1 -11  -2   82.24    6.12
   0 -11  -2   13.03    2.83
   1 -11  -2    6.02    1.32
   2 -11  -2    3.32    1.24
   3 -11  -2   31.20    3.95
   4 -11  -2   68.42    3.40
   5 -11  -2   56.02    3.13
   6 -11  -2    0.94    0.63
   7 -11  -2  334.37    9.18
   8 -11  -2   10.58    1.74
   9 -11  -2   38.80    3.41
  10 -11  -2    5.45    1.30
  11 -11  -2   17.52    2.36
  12 -11  -2    0.98    0.86
  13 -11  -2    7.33    2.52
  14 -11  -2   43.94    6.03
  -4 -10  -2    8.67    2.43
  -3 -10  -2    5.76    1.91
  -2 -10  -2   12.50    2.65
  -1 -10  -2    4.74    1.65
   0 -10  -2   89.59    4.18
   1 -10  -2   28.31    3.48
   2 -10  -2   37.51    4.18
   3 -10  -2   90.43    3.76
   4 -10  -2   80.51    3.62
   5 -10  -2   39.21    2.72
   6 -10  -2    3.45    0.93
   7 -10  -2    9.61    1.54
   8 -10  -2   90.71    4.11
   9 -10  -2   13.18    1.83
  10 -10  -2   90.54    3.49
  11 -10  -2    3.81    0.94
  12 -10  -2  118.82    4.26
  13 -10  -2    3.28    1.29
  14 -10  -2    6.38    1.74
  -6  -9  -2   24.30    4.65
  -5  -9  -2   43.05    5.23
  -4  -9  -2   40.12    4.94
  -3  -9  -2   18.05    3.22
  -2  -9  -2   39.86    4.48
  -1  -9  -2   18.33    3.10
   0  -9  -2   75.77    3.36
   1  -9  -2    5.11    1.46
   2  -9  -2    8.26    1.22
   3  -9  -2  147.46    4.89
   4  -9  -2   37.32    2.27
   5  -9  -2   61.03    3.02
   6  -9  -2   52.20    2.82
   7  -9  -2   60.11    2.53
   8  -9  -2   77.29    2.89
   9  -9  -2   75.52    2.92
  10  -9  -2   25.41    2.13
  11  -9  -2    1.46    0.64
  12  -9  -2    5.83    1.44
  13  -9  -2   24.53    2.99
  14  -9  -2    0.81    1.02
  15  -9  -2   14.86    2.94
  -7  -8  -2   19.24    3.66
  -6  -8  -2    5.71    2.20
  -5  -8  -2   21.44    3.60
  -4  -8  -2    1.45    1.16
  -3  -8  -2    9.86    2.23
  -2  -8  -2   85.25    5.53
  -1  -8  -2   75.05    3.25
   0  -8  -2  100.86    5.21
   1  -8  -2   15.85    1.61
   2  -8  -2   28.63    1.94
   3  -8  -2  109.21    3.88
   4  -8  -2   25.06    2.14
   5  -8  -2   38.99    1.71
   6  -8  -2   24.69    1.55
   7  -8  -2   49.74    2.12
   8  -8  -2  117.35    3.53
   9  -8  -2    4.81    0.89
  10  -8  -2   35.82    2.43
  11  -8  -2   31.23    2.34
  12  -8  -2   28.22    2.96
  13  -8  -2   51.77    4.25
  14  -8  -2   51.71    4.35
  15  -8  -2   39.66    4.07
  -8  -7  -2   33.05    5.45
  -7  -7  -2    1.39    1.22
  -6  -7  -2   50.60    5.48
  -5  -7  -2    1.13    0.92
  -4  -7  -2  319.04   12.61
  -3  -7  -2   13.12    2.38
  -2  -7  -2   60.57    4.36
  -1  -7  -2   51.10    2.46
   0  -7  -2   73.34    4.00
   1  -7  -2    9.14    1.13
   2  -7  -2   22.95    1.65
   3  -7  -2   91.82    2.53
   4  -7  -2  146.36    3.42
   5  -7  -2  220.35    4.68
   6  -7  -2   95.13    2.83
   7  -7  -2   71.82    2.50
   8  -7  -2   13.67    1.33
   9  -7  -2    7.44    1.04
  10  -7  -2   89.92    3.22
  11  -7  -2   62.88    3.56
  12  -7  -2    4.72    1.29
  13  -7  -2   32.24    3.35
  14  -7  -2    4.54    1.46
  15  -7  -2   26.73    4.63
  -8  -6  -2   60.65    6.42
  -7  -6  -2   41.48    5.02
  -6  -6  -2   34.90    4.43
  -5  -6  -2    1.33    0.89
  -4  -6  -2    5.93    1.70
  -3  -6  -2   52.08    3.91
  -2  -6  -2   24.57    1.73
  -1  -6  -2   91.24    3.29
   0  -6  -2   16.70    1.19
   1  -6  -2  338.31    5.75
   2  -6  -2   10.06    0.80
   3  -6  -2  137.10    3.00
   4  -6  -2   15.16    1.00
   5  -6  -2  165.31    3.73
   6  -6  -2   17.95    1.33
   7  -6  -2    6.96    0.85
   8  -6  -2   27.99    1.87
   9  -6  -2  155.07    4.18
  10  -6  -2   88.04    3.10
  11  -6  -2   55.01    3.27
  12  -6  -2   38.56    3.46
  13  -6  -2   45.96    3.98
  14  -6  -2    6.15    1.61
  -9  -5  -2    2.65    1.48
  -8  -5  -2   55.26    5.81
  -7  -5  -2    2.60    1.38
  -6  -5  -2   40.12    4.52
  -5  -5  -2   29.82    3.65
  -4  -5  -2   59.48    4.23
  -3  -5  -2   37.68    1.92
  -2  -5  -2  223.68    5.60
  -1  -5  -2  165.29    3.41
   0  -5  -2    4.54    0.47
   1  -5  -2   49.99    1.31
   2  -5  -2   66.52    1.65
   3  -5  -2   12.87    0.80
   4  -5  -2   46.25    1.59
   5  -5  -2    5.53    0.68
   6  -5  -2  332.27    6.24
   7  -5  -2   24.53    1.51
   8  -5  -2  112.45    3.28
   9  -5  -2   39.43    1.89
  10  -5  -2   39.38    3.12
  11  -5  -2    0.95    0.77
  12  -5  -2    2.75    0.91
  13  -5  -2   27.18    3.05
  14  -5  -2   48.66    4.23
 -10  -4  -2    5.62    2.00
  -9  -4  -2   21.58    3.72
  -8  -4  -2   33.86    4.38
  -7  -4  -2   55.39    4.48
  -6  -4  -2   81.19    5.27
  -5  -4  -2   32.38    3.80
  -4  -4  -2   30.45    3.45
  -3  -4  -2  142.85    3.99
  -2  -4  -2   16.08    1.42
  -1  -4  -2   46.99    1.41
   0  -4  -2  113.24    2.12
   1  -4  -2  259.42    5.47
   2  -4  -2  273.69    4.54
   3  -4  -2  145.34    2.94
   4  -4  -2  115.35    2.65
   5  -4  -2   49.80    1.70
   6  -4  -2    9.15    0.93
   7  -4  -2   95.45    2.78
   8  -4  -2   24.88    1.56
   9  -4  -2   63.21    3.15
  10  -4  -2    5.03    1.18
  11  -4  -2  332.37    9.28
  12  -4  -2    1.67    0.92
  13  -4  -2   41.08    3.75
  14  -4  -2    8.23    2.80
 -11  -3  -2   44.44    5.46
 -10  -3  -2    0.02    1.05
  -9  -3  -2    6.80    2.08
  -8  -3  -2   34.24    4.30
  -7  -3  -2   85.02    5.39
  -6  -3  -2  145.97    7.11
  -5  -3  -2  105.49    5.57
  -4  -3  -2   98.13    3.01
  -3  -3  -2  132.33    3.67
  -2  -3  -2   13.83    1.22
  -1  -3  -2  145.29    2.79
   0  -3  -2   40.96    1.46
   1  -3  -2   70.51    2.17
   2  -3  -2  273.72    4.55
   3  -3  -2   37.78    1.26
   4  -3  -2  244.35    4.57
   5  -3  -2   63.02    1.93
   6  -3  -2  131.89    3.22
   7  -3  -2  146.18    3.52
   8  -3  -2   38.22    1.68
   9  -3  -2   53.58    2.90
  10  -3  -2   11.10    1.68
  11  -3  -2    8.82    1.53
  12  -3  -2   26.30    2.78
  13  -3  -2    2.97    1.80
  14  -3  -2   31.71    5.48
 -11  -2  -2    7.09    2.35
 -10  -2  -2  110.41    6.95
  -9  -2  -2    2.94    1.36
  -8  -2  -2   27.87    3.64
  -7  -2  -2    7.07    1.80
  -6  -2  -2   23.43    2.89
  -5  -2  -2   19.92    2.50
  -4  -2  -2    8.62    0.90
  -3  -2  -2   64.14    2.17
  -2  -2  -2  272.57    5.86
  -1  -2  -2  279.32    4.50
   0  -2  -2  417.40    7.61
   1  -2  -2  184.48    3.09
   2  -2  -2  399.57    6.27
   3  -2  -2   66.26    1.78
   4  -2  -2  274.06    4.90
   5  -2  -2   14.47    1.08
   6  -2  -2   13.44    1.07
   7  -2  -2  223.43    4.64
   8  -2  -2   24.73    2.22
   9  -2  -2   62.74    3.19
  10  -2  -2   84.82    3.98
  11  -2  -2   48.80    3.77
  12  -2  -2   12.77    1.95
  13  -2  -2   46.85    6.26
 -12  -1  -2   11.71    2.84
 -11  -1  -2    2.06    1.40
 -10  -1  -2    5.42    1.78
  -9  -1  -2   31.92    3.92
  -8  -1  -2    3.72    1.26
  -7  -1  -2   11.73    2.14
  -6  -1  -2    5.80    1.40
  -5  -1  -2  332.98    6.96
  -4  -1  -2   48.73    1.78
  -3  -1  -2  251.65    5.38
  -2  -1  -2   68.81    1.45
  -1  -1  -2  184.25    3.15
   0  -1  -2   53.23    1.22
   1  -1  -2   55.06    1.37
   2  -1  -2  181.68    3.34
   3  -1  -2  274.46    5.76
   4  -1  -2  139.81    3.05
   5  -1  -2   51.10    1.67
   6  -1  -2  171.14    3.66
   7  -1  -2   96.29    3.67
   8  -1  -2   47.64    2.65
   9  -1  -2   85.51    3.77
  10  -1  -2   13.18    1.83
  11  -1  -2    4.51    1.20
  12  -1  -2   82.90    6.71
  13  -1  -2    0.26    1.29
 -12   0  -2   19.11    3.43
 -11   0  -2   16.55    3.11
 -10   0  -2   88.04    5.81
  -9   0  -2   79.59    5.06
  -8   0  -2  114.95    5.96
  -6   0  -2   17.70    2.30
  -5   0  -2    3.86    0.59
  -4   0  -2  109.03    2.96
  -3   0  -2   38.07    1.05
  -2   0  -2  405.71    6.10
  -1   0  -2   55.94    1.33
   0   0  -2  874.20   12.43
   1   0  -2   55.21    1.44
   2   0  -2  385.71    6.36
   3   0  -2   38.81    1.32
   4   0  -2  111.50    2.61
   5   0  -2    3.30    0.51
   6   0  -2   17.79    1.02
   7   0  -2   71.74    3.17
   8   0  -2  114.18    4.37
   9   0  -2   69.95    3.51
  10   0  -2   95.30    4.33
  11   0  -2   14.05    3.24
  12   0  -2   14.36    3.57
 -13   1  -2    2.29    1.50
 -12   1  -2   85.58    6.22
 -11   1  -2    6.03    1.80
 -10   1  -2   17.00    2.84
  -9   1  -2   73.38    4.82
  -8   1  -2   48.39    3.55
  -7   1  -2  100.27    4.91
  -6   1  -2  171.25    4.19
  -5   1  -2   49.24    2.41
  -4   1  -2  142.08    3.52
  -3   1  -2  279.15    4.52
  -2   1  -2  183.32    3.17
  -1   1  -2   53.60    1.12
   0   1  -2   54.56    1.06
   1   1  -2  180.02    3.39
   2   1  -2   66.71    1.79
   3   1  -2  243.72    4.51
   4   1  -2   50.41    1.58
   5   1  -2  332.49    5.94
   6   1  -2    9.65    1.27
   7   1  -2   15.39    1.76
   8   1  -2    7.08    1.28
   9   1  -2   24.59    2.50
  10   1  -2    8.20    2.35
  11   1  -2    1.95    1.38
  12   1  -2    8.02    2.63
 -13   2  -2   47.76    5.76
 -12   2  -2   15.38    3.02
 -11   2  -2   50.00    5.19
 -10   2  -2   86.89    5.38
  -9   2  -2   63.38    4.26
  -8   2  -2   21.14    2.65
  -7   2  -2  221.61    5.28
  -6   2  -2   15.35    1.24
  -5   2  -2   12.91    1.09
  -4   2  -2  273.64    4.64
  -3   2  -2   66.75    1.65
  -2   2  -2  398.42    6.18
  -1   2  -2  182.00    2.74
   0   2  -2  392.03    6.45
   1   2  -2  273.27    4.83
   2   2  -2  269.65    4.87
   3   2  -2   62.14    1.83
   4   2  -2    8.18    0.78
   5   2  -2   25.10    1.17
   6   2  -2   29.28    2.10
   7   2  -2    6.65    1.20
   8   2  -2   26.30    2.50
   9   2  -2    3.14    1.59
  10   2  -2  107.39    7.61
  11   2  -2    4.49    2.09
 -14   3  -2   41.02    5.86
 -13   3  -2    7.31    2.23
 -12   3  -2   30.70    4.29
 -11   3  -2   11.64    2.53
 -10   3  -2   13.21    2.42
  -9   3  -2   46.14    3.60
  -8   3  -2   39.70    2.24
  -7   3  -2  141.69    3.93
  -6   3  -2  133.21    3.67
  -5   3  -2   62.22    2.15
  -4   3  -2  240.75    4.37
  -3   3  -2   39.19    1.22
  -2   3  -2  280.00    7.20
  -1   3  -2   68.26    1.38
   0   3  -2   39.24    1.67
   1   3  -2  138.48    3.10
   2   3  -2   12.31    0.95
   3   3  -2  134.80    3.10
   4   3  -2   94.72    2.53
   5   3  -2  108.59    4.06
   6   3  -2  162.48    5.30
   7   3  -2   84.47    3.85
   8   3  -2   33.82    2.92
   9   3  -2    4.86    1.92
  10   3  -2    1.22    1.31
  11   3  -2   35.45    5.53
 -14   4  -2   10.57    2.75
 -13   4  -2   36.96    4.79
 -12   4  -2    2.18    1.20
 -11   4  -2  318.63   12.28
 -10   4  -2    6.70    1.68
  -9   4  -2   62.45    4.11
  -8   4  -2   26.97    1.75
  -7   4  -2   99.39    3.16
  -6   4  -2    8.58    0.97
  -5   4  -2   50.43    1.60
  -4   4  -2  109.16    2.53
  -3   4  -2  142.38    2.93
  -2   4  -2  270.48    4.12
  -1   4  -2  249.33    3.84
   0   4  -2  113.13    2.76
   1   4  -2   47.95    1.70
   2   4  -2   14.61    1.10
   3   4  -2  147.49    3.43
   4   4  -2   28.96    2.11
   5   4  -2   30.37    2.31
   6   4  -2   86.08    3.82
   7   4  -2   57.44    3.19
   8   4  -2   32.94    4.65
   9   4  -2   23.56    4.18
  10   4  -2    6.72    2.59
 -14   5  -2   52.61    5.95
 -13   5  -2   21.40    3.51
 -12   5  -2    3.64    1.42
 -11   5  -2    0.06    0.58
 -10   5  -2   39.66    3.32
  -9   5  -2   37.98    2.04
  -8   5  -2  118.54    3.74
  -7   5  -2   23.01    1.58
  -6   5  -2  322.84    7.24
  -5   5  -2    4.11    0.57
  -4   5  -2   48.48    1.59
  -3   5  -2   11.24    0.83
  -2   5  -2   62.31    1.56
  -1   5  -2   49.90    1.35
   0   5  -2    4.50    0.49
   1   5  -2  162.90    3.78
   2   5  -2  222.50    4.67
   3   5  -2   38.04    1.63
   4   5  -2   65.67    3.14
   5   5  -2   39.30    2.70
   6   5  -2   53.08    3.08
   7   5  -2    1.85    1.39
   8   5  -2   60.60    6.71
   9   5  -2    0.48    1.54
 -14   6  -2    7.83    2.38
 -13   6  -2   51.08    5.52
 -12   6  -2   49.24    5.15
 -11   6  -2   47.35    3.93
 -10   6  -2   95.33    5.29
  -9   6  -2  153.70    4.70
  -8   6  -2   29.36    1.92
  -7   6  -2    7.78    1.06
  -6   6  -2   17.57    1.26
  -5   6  -2  163.52    3.69
  -4   6  -2   12.70    1.00
  -3   6  -2  136.07    3.08
  -2   6  -2    8.68    0.72
  -1   6  -2  339.08    5.28
   0   6  -2   18.59    0.99
   1   6  -2   96.22    2.82
   2   6  -2   23.57    1.47
   3   6  -2   53.14    2.84
   4   6  -2    7.11    1.30
   5   6  -2    1.32    0.72
   6   6  -2   29.45    4.38
   7   6  -2   41.80    5.51
   8   6  -2   52.49    6.46
 -14   7  -2    3.70    1.67
 -13   7  -2   36.55    4.58
 -12   7  -2    1.68    1.12
 -11   7  -2   59.36    4.39
 -10   7  -2   94.46    3.68
  -9   7  -2    8.23    1.20
  -8   7  -2   16.17    1.66
  -7   7  -2   71.65    2.84
  -6   7  -2   92.74    2.74
  -5   7  -2  213.52    4.60
  -4   7  -2  134.57    3.36
  -3   7  -2  100.08    2.65
  -2   7  -2   22.19    1.14
  -1   7  -2    8.05    0.77
   0   7  -2   70.17    2.01
   1   7  -2   50.34    2.07
   2   7  -2   62.50    2.35
   3   7  -2   17.06    2.02
   4   7  -2  329.67    9.03
   5   7  -2    5.44    1.99
   6   7  -2   47.46    5.71
   7   7  -2    3.89    1.89
   8   7  -2   35.71    5.55
 -14   8  -2   51.52    5.73
 -13   8  -2   59.77    4.87
 -12   8  -2   28.06    3.80
 -11   8  -2   34.55    2.48
 -10   8  -2   33.63    2.58
  -9   8  -2    4.83    0.92
  -8   8  -2  117.56    4.01
  -7   8  -2   47.74    2.37
  -6   8  -2   22.29    1.58
  -5   8  -2   34.79    1.64
  -4   8  -2   24.66    1.46
  -3   8  -2  115.99    3.12
  -2   8  -2   32.03    1.42
  -1   8  -2   14.29    1.37
   0   8  -2  114.64    3.46
   1   8  -2   77.11    2.76
   2   8  -2   89.05    4.00
   3   8  -2   11.21    1.75
   4   8  -2    2.40    1.42
   5   8  -2   24.82    4.24
   6   8  -2    4.94    2.19
   7   8  -2   26.16    4.71
 -14   9  -2    0.97    1.17
 -13   9  -2   27.55    3.84
 -12   9  -2    4.09    1.51
 -11   9  -2    3.64    0.98
 -10   9  -2   26.48    2.39
  -9   9  -2   72.05    3.25
  -8   9  -2   75.11    3.22
  -7   9  -2   59.92    2.78
  -6   9  -2   51.67    2.14
  -5   9  -2   65.14    2.39
  -4   9  -2   39.20    1.81
  -3   9  -2  146.82    5.05
  -2   9  -2    8.07    1.04
  -1   9  -2    5.24    0.88
   0   9  -2   80.98    2.94
   1   9  -2   10.47    1.60
   2   9  -2   36.19    3.13
   3   9  -2   27.52    2.86
   4   9  -2   31.80    4.80
   5   9  -2   50.68    6.21
   6   9  -2   26.49    4.63
 -14  10  -2   10.26    2.71
 -13  10  -2    1.45    1.16
 -12  10  -2  112.63    4.69
 -11  10  -2    5.58    1.16
 -10  10  -2   93.84    3.98
  -9  10  -2   14.43    1.71
  -8  10  -2   83.73    3.57
  -7  10  -2   15.39    1.75
  -6  10  -2    3.45    0.71
  -5  10  -2   34.50    2.29
  -4  10  -2   85.49    3.82
  -3  10  -2   84.56    3.80
  -2  10  -2   30.06    2.20
  -1  10  -2   31.95    2.27
   0  10  -2   89.03    3.31
   1  10  -2    7.36    1.51
   2  10  -2   12.30    1.96
   3  10  -2    3.38    1.72
   4  10  -2    8.16    2.67
 -14  11  -2   39.41    4.87
 -13  11  -2    5.88    1.97
 -12  11  -2    1.41    0.77
 -11  11  -2   17.62    2.06
 -10  11  -2    6.09    1.27
  -9  11  -2   40.41    3.08
  -8  11  -2   11.96    1.65
  -7  11  -2  318.23    8.69
  -6  11  -2    2.15    0.87
  -5  11  -2   53.45    3.13
  -4  11  -2   56.50    3.22
  -3  11  -2   35.61    3.06
  -2  11  -2    2.09    0.82
  -1  11  -2    7.19    1.18
   0  11  -2   16.96    2.30
   1  11  -2   86.54    4.43
   2  11  -2   40.41    5.35
   3  11  -2   39.89    5.53
 -14  12  -2   25.71    4.05
 -13  12  -2    9.58    1.67
 -12  12  -2   15.87    2.13
 -11  12  -2   89.37    4.23
 -10  12  -2   13.77    1.94
  -9  12  -2   22.78    3.63
  -8  12  -2    1.37    1.06
  -7  12  -2    5.36    1.86
  -6  12  -2   34.90    4.30
  -5  12  -2    3.86    1.12
  -4  12  -2   37.65    3.29
  -3  12  -2    6.99    1.38
  -2  12  -2  119.62    5.00
  -1  12  -2    3.07    1.09
   0  12  -2   16.79    2.31
   1  12  -2    0.71    1.37
   2  12  -2   21.90    3.96
 -13  13  -2    2.13    1.14
 -12  13  -2    1.34    1.33
 -11  13  -2   47.28    5.66
 -10  13  -2    4.10    1.69
  -9  13  -2   41.41    4.93
  -8  13  -2   29.95    4.33
  -7  13  -2   40.04    4.90
  -6  13  -2   37.60    4.74
  -5  13  -2   59.17    4.94
  -4  13  -2   20.53    2.50
  -3  13  -2    1.10    0.82
  -2  13  -2    5.28    1.41
  -1  13  -2   11.71    2.79
   0  13  -2    0.60    1.26
 -11  14  -2   29.11    4.51
 -10  14  -2    9.61    2.50
  -9  14  -2   48.73    5.73
  -8  14  -2    6.42    2.29
  -7  14  -2    5.91    2.13
  -6  14  -2   59.70    5.27
  -5  14  -2    2.97    1.45
  -4  14  -2    2.77    1.54
  -3  14  -2   38.54    3.59
  -2  14  -2   21.18    3.85
   5 -15  -1    6.66    2.38
   6 -15  -1   74.26    6.07
   7 -15  -1   11.85    2.13
   8 -15  -1   61.89    4.26
   9 -15  -1    1.40    1.00
  10 -15  -1    6.49    3.71
   2 -14  -1   65.70    6.88
   3 -14  -1   47.63    3.94
   4 -14  -1   61.17    5.29
   5 -14  -1   15.93    3.34
   6 -14  -1    1.79    0.86
   7 -14  -1   21.05    2.62
   8 -14  -1    2.93    1.17
   9 -14  -1    3.14    1.13
  10 -14  -1   14.98    2.25
  11 -14  -1   66.71    4.53
  12 -14  -1    8.92    2.75
   0 -13  -1    9.31    2.78
   1 -13  -1    6.43    2.06
   2 -13  -1    8.07    2.31
   3 -13  -1   26.74    3.98
   4 -13  -1   23.62    3.75
   5 -13  -1    0.55    0.66
   6 -13  -1    1.29    0.80
   7 -13  -1   70.60    3.94
   8 -13  -1   17.96    2.36
   9 -13  -1   62.61    3.85
  10 -13  -1    1.81    0.89
  11 -13  -1    2.14    1.02
  12 -13  -1   17.40    2.34
  13 -13  -1    8.94    1.95
  -2 -12  -1    7.92    2.70
  -1 -12  -1   16.31    3.23
   0 -12  -1   87.45    6.07
   1 -12  -1   43.55    5.12
   2 -12  -1    2.57    1.36
   3 -12  -1    5.84    1.88
   4 -12  -1  106.30    4.51
   5 -12  -1    3.65    1.04
   6 -12  -1   25.63    2.63
   7 -12  -1   13.11    1.98
   8 -12  -1    1.95    0.77
   9 -12  -1   22.94    2.65
  10 -12  -1    0.91    0.73
  11 -12  -1    2.72    0.85
  12 -12  -1   78.78    3.59
  13 -12  -1    9.28    1.52
  14 -12  -1   60.54    4.51
  -3 -11  -1   66.53    5.52
  -2 -11  -1    2.53    1.46
  -1 -11  -1    1.42    1.12
   0 -11  -1   29.06    3.91
   1 -11  -1   23.09    2.38
   2 -11  -1   53.05    4.17
   3 -11  -1   60.89    3.14
   4 -11  -1   40.56    2.78
   5 -11  -1  128.99    4.89
   6 -11  -1   14.26    1.91
   7 -11  -1    3.74    0.98
   8 -11  -1    4.79    0.80
   9 -11  -1  110.35    3.89
  10 -11  -1   13.08    1.59
  11 -11  -1   31.90    2.55
  12 -11  -1   46.09    3.16
  13 -11  -1   11.05    2.09
  14 -11  -1   43.18    4.05
  -5 -10  -1    7.20    1.91
  -4 -10  -1   18.94    3.34
  -3 -10  -1    0.95    1.15
  -2 -10  -1    0.31    0.91
  -1 -10  -1   22.55    3.43
   0 -10  -1  126.47    4.66
   1 -10  -1   16.95    2.57
   2 -10  -1  165.83    5.30
   3 -10  -1    2.28    0.76
   4 -10  -1    3.69    0.94
   5 -10  -1   31.24    1.91
   6 -10  -1   11.83    1.29
   7 -10  -1    5.83    0.93
   8 -10  -1   28.77    2.12
   9 -10  -1    1.30    0.59
  10 -10  -1  128.73    4.20
  11 -10  -1   22.02    2.05
  12 -10  -1    0.79    0.57
  13 -10  -1   28.12    3.15
  14 -10  -1   73.58    4.85
  15 -10  -1    8.35    2.00
  -6  -9  -1    2.06    1.56
  -5  -9  -1    3.66    1.71
  -4  -9  -1   64.28    5.08
  -3  -9  -1   25.24    3.58
  -2  -9  -1  113.42    6.44
  -1  -9  -1    1.10    0.90
   0  -9  -1    3.63    0.89
   1  -9  -1   35.46    2.06
   2  -9  -1   28.34    2.28
   3  -9  -1    1.21    0.42
   4  -9  -1    0.38    0.30
   5  -9  -1  197.77    4.72
   6  -9  -1   28.76    1.78
   7  -9  -1  224.01    5.27
   8  -9  -1   11.09    1.27
   9  -9  -1    5.91    1.01
  10  -9  -1   18.64    1.76
  11  -9  -1   54.90    2.81
  12  -9  -1    2.46    1.05
  13  -9  -1   19.80    2.60
  14  -9  -1   10.26    2.04
  15  -9  -1   64.01    5.10
  -7  -8  -1   58.94    6.14
  -6  -8  -1    2.41    1.40
  -5  -8  -1   19.32    3.32
  -4  -8  -1    3.89    1.60
  -3  -8  -1    6.65    1.80
  -2  -8  -1   32.53    3.79
  -1  -8  -1   12.97    1.47
   0  -8  -1    6.67    0.83
   1  -8  -1  184.75    4.19
   2  -8  -1   54.61    1.97
   3  -8  -1  228.67    4.70
   4  -8  -1   68.72    2.31
   5  -8  -1    2.37    0.56
   6  -8  -1    0.09    0.29
   7  -8  -1   33.22    1.82
   8  -8  -1    6.16    0.94
   9  -8  -1   32.06    2.00
  10  -8  -1  173.77    4.72
  11  -8  -1   56.74    2.63
  12  -8  -1  102.23    4.87
  13  -8  -1    0.75    0.80
  14  -8  -1    1.96    1.07
  15  -8  -1   15.90    2.58
  -8  -7  -1   16.74    3.31
  -7  -7  -1   23.16    3.86
  -6  -7  -1   65.33    5.16
  -5  -7  -1   15.69    2.71
  -4  -7  -1    3.27    1.39
  -3  -7  -1    7.22    1.71
  -2  -7  -1  227.95    8.98
  -1  -7  -1   31.94    1.44
   0  -7  -1  127.55    3.77
   1  -7  -1  113.51    2.84
   2  -7  -1   26.72    1.25
   3  -7  -1  193.59    4.05
   4  -7  -1    1.81    0.44
   5  -7  -1    8.49    0.91
   6  -7  -1  276.92    5.58
   7  -7  -1  128.00    3.52
   8  -7  -1  189.13    4.65
   9  -7  -1   28.02    1.98
  10  -7  -1    4.01    0.79
  11  -7  -1   38.51    3.28
  12  -7  -1    3.69    1.17
  13  -7  -1    1.20    0.86
  14  -7  -1   19.90    2.63
  15  -7  -1   51.74    6.52
  -9  -6  -1   75.28    5.33
  -8  -6  -1    2.31    1.50
  -7  -6  -1    1.94    1.24
  -6  -6  -1   21.54    3.30
  -5  -6  -1   11.74    2.31
  -4  -6  -1    8.77    1.89
  -3  -6  -1   27.39    3.25
  -2  -6  -1   -0.18    0.24
  -1  -6  -1  273.82    5.06
   0  -6  -1   36.39    1.68
   1  -6  -1    8.24    0.77
   2  -6  -1  179.62    3.64
   3  -6  -1  330.53    5.84
   4  -6  -1   44.07    1.64
   5  -6  -1   34.68    1.47
   6  -6  -1   35.06    1.59
   7  -6  -1  110.09    3.13
   8  -6  -1   57.22    2.18
   9  -6  -1    1.57    0.51
  10  -6  -1    4.89    0.86
  11  -6  -1  127.50    5.16
  12  -6  -1   33.87    3.20
  13  -6  -1   70.99    4.06
  14  -6  -1    1.33    0.96
  15  -6  -1    0.69    1.55
 -10  -5  -1    7.80    2.49
  -9  -5  -1   15.10    3.11
  -8  -5  -1    0.43    0.89
  -7  -5  -1    4.67    1.60
  -6  -5  -1  147.21    7.19
  -5  -5  -1   26.24    3.23
  -4  -5  -1  184.22    8.05
  -3  -5  -1    2.73    0.61
  -2  -5  -1   11.87    0.87
  -1  -5  -1   30.66    1.18
   0  -5  -1  183.83    4.37
   1  -5  -1   23.91    0.98
   2  -5  -1   68.12    1.82
   3  -5  -1   89.51    2.22
   4  -5  -1  406.97    6.81
   5  -5  -1  184.01    3.93
   6  -5  -1    8.76    0.91
   7  -5  -1   26.01    1.49
   8  -5  -1  222.32    4.83
   9  -5  -1    0.98    0.40
  10  -5  -1   33.12    2.79
  11  -5  -1   11.13    1.66
  12  -5  -1   14.59    2.02
  13  -5  -1   19.39    2.51
  14  -5  -1    3.51    1.90
 -10  -4  -1   66.85    5.49
  -9  -4  -1   21.66    3.60
  -8  -4  -1   94.94    6.17
  -7  -4  -1   39.74    4.32
  -6  -4  -1    4.30    1.44
  -5  -4  -1    0.99    0.69
  -4  -4  -1   72.33    4.16
  -3  -4  -1    1.26    0.40
  -2  -4  -1   45.93    1.80
  -1  -4  -1  408.13    6.44
   0  -4  -1  182.74    4.01
   1  -4  -1  454.81    6.76
   2  -4  -1   13.45    0.77
   3  -4  -1   11.58    0.82
   4  -4  -1  179.43    3.57
   5  -4  -1   21.04    1.05
   6  -4  -1  176.55    3.78
   7  -4  -1  190.44    4.12
   8  -4  -1   64.99    2.24
   9  -4  -1  200.62    6.11
  10  -4  -1   10.07    1.55
  11  -4  -1    4.19    1.08
  12  -4  -1    2.34    0.96
  13  -4  -1   70.76    6.13
  14  -4  -1   17.19    3.82
 -11  -3  -1   45.64    4.18
 -10  -3  -1   24.65    3.82
  -9  -3  -1    3.16    1.39
  -8  -3  -1   67.13    4.79
  -7  -3  -1    3.97    1.34
  -6  -3  -1    1.13    0.72
  -5  -3  -1  210.66    8.15
  -4  -3  -1  187.17    4.40
  -3  -3  -1  331.39    6.71
  -2  -3  -1   88.46    2.50
  -1  -3  -1   10.39    0.60
   0  -3  -1  190.24    3.87
   1  -3  -1   17.10    0.63
   2  -3  -1   35.71    1.07
   3  -3  -1  180.67    3.34
   4  -3  -1  430.81    6.96
   5  -3  -1   68.88    1.93
   6  -3  -1  322.32    5.86
   7  -3  -1    2.15    0.43
   8  -3  -1    3.31    0.56
   9  -3  -1   30.91    2.24
  10  -3  -1    6.30    1.17
  11  -3  -1    5.62    1.19
  12  -3  -1   19.55    3.63
  13  -3  -1    0.52    1.41
  14  -3  -1   72.79    6.56
 -12  -2  -1   61.16    4.31
 -11  -2  -1   13.04    2.84
 -10  -2  -1    1.38    1.03
  -9  -2  -1   54.13    4.31
  -8  -2  -1  171.88    7.87
  -7  -2  -1   27.71    3.40
  -6  -2  -1   47.51    3.38
  -5  -2  -1   30.91    2.48
  -4  -2  -1  179.99    3.90
  -3  -2  -1   67.24    1.97
  -2  -2  -1   14.70    0.86
  -1  -2  -1   33.92    0.91
   0  -2  -1  561.63    9.58
   1  -2  -1  139.26    2.31
   2  -2  -1  532.93    7.95
   3  -2  -1   15.04    0.87
   4  -2  -1   14.54    0.82
   5  -2  -1   89.46    2.19
   6  -2  -1   45.14    1.54
   7  -2  -1   10.49    0.86
   8  -2  -1    0.13    0.42
   9  -2  -1  224.43    6.39
  10  -2  -1   30.18    2.66
  11  -2  -1  113.32    4.70
  12  -2  -1   -0.17    0.75
  13  -2  -1    4.50    2.10
 -12  -1  -1   11.22    1.92
 -11  -1  -1   52.36    5.58
 -10  -1  -1   19.70    3.21
  -9  -1  -1   15.09    2.60
  -8  -1  -1   26.24    3.18
  -7  -1  -1  199.24    7.93
  -6  -1  -1  112.25    5.28
  -5  -1  -1    6.69    1.33
  -4  -1  -1   24.66    0.92
  -3  -1  -1  435.15    8.04
  -2  -1  -1   15.12    0.74
  -1  -1  -1  140.31    2.95
   0  -1  -1   45.64    1.18
   1  -1  -1   41.48    0.96
   2  -1  -1  141.55    2.48
   3  -1  -1   35.12    1.30
   4  -1  -1   10.09    0.65
   5  -1  -1  405.93    6.55
   6  -1  -1   31.71    1.13
   7  -1  -1  275.99    6.81
   8  -1  -1   36.04    2.13
   9  -1  -1   12.92    1.67
  10  -1  -1    0.50    0.56
  11  -1  -1   15.94    3.38
  12  -1  -1    1.96    1.38
  13  -1  -1   19.38    4.27
 -13   0  -1    7.67    2.41
 -12   0  -1   77.98    4.24
 -11   0  -1   36.99    4.49
 -10   0  -1  120.29    6.71
  -9   0  -1    4.52    1.45
  -8   0  -1    9.54    1.93
  -7   0  -1  121.12    5.68
  -6   0  -1   34.93    2.58
  -5   0  -1  187.32    3.96
  -4   0  -1  176.02    3.77
  -3   0  -1  185.76    3.78
  -2   0  -1  543.98   13.34
  -1   0  -1   42.75    0.91
   0   0  -1    0.43    0.14
   1   0  -1   43.12    1.02
   2   0  -1  533.73    7.95
   3   0  -1  182.28    3.81
   4   0  -1  175.60    2.89
   5   0  -1  181.19    3.07
   6   0  -1   34.03    1.53
   7   0  -1  124.89    3.41
   8   0  -1    7.72    0.99
   9   0  -1    5.50    1.07
  10   0  -1  127.03    7.46
  11   0  -1   28.30    4.35
  12   0  -1   68.38    6.12
  13   0  -1    5.93    2.49
 -13   1  -1   11.77    2.73
 -12   1  -1    1.13    0.74
 -11   1  -1   15.14    2.71
 -10   1  -1    0.72    0.76
  -9   1  -1    9.98    2.02
  -8   1  -1   32.11    2.82
  -7   1  -1  266.41    9.23
  -6   1  -1   31.29    1.24
  -5   1  -1  408.64    7.69
  -4   1  -1   10.44    0.69
  -3   1  -1   33.87    1.20
  -2   1  -1  140.34    2.33
  -1   1  -1   42.02    1.09
   0   1  -1   42.01    1.04
   1   1  -1  134.40    2.43
   2   1  -1   15.36    0.67
   3   1  -1  442.38    5.93
   4   1  -1   23.72    0.77
   5   1  -1    8.74    0.45
   6   1  -1  111.77    3.08
   7   1  -1  192.85    4.57
   8   1  -1   31.39    1.93
   9   1  -1   16.57    2.13
  10   1  -1   18.62    3.45
  11   1  -1   44.10    5.74
  12   1  -1   12.65    3.30
 -14   2  -1    4.42    2.06
 -13   2  -1    2.39    1.39
 -12   2  -1   -0.10    0.84
 -11   2  -1  111.64    6.53
 -10   2  -1   25.78    3.33
  -9   2  -1  220.85    8.80
  -8   2  -1    1.11    0.74
  -7   2  -1   11.13    1.00
  -6   2  -1   48.72    1.76
  -5   2  -1   89.48    2.45
  -4   2  -1   14.01    1.06
  -3   2  -1   14.64    0.64
  -2   2  -1  541.47    7.90
  -1   2  -1  139.71    2.08
   0   2  -1  539.79    6.85
   1   2  -1   35.67    1.27
   2   2  -1   13.23    0.64
   3   2  -1   71.08    1.72
   4   2  -1  184.78    3.04
   5   2  -1   27.85    1.42
   6   2  -1   52.10    2.05
   7   2  -1   25.87    1.87
   8   2  -1  163.45    5.89
   9   2  -1   52.02    3.32
  10   2  -1   -0.32    0.94
  11   2  -1    9.26    2.67
  12   2  -1   65.94    7.54
 -14   3  -1   41.81    5.14
 -13   3  -1    2.07    1.20
 -12   3  -1   22.64    3.40
 -11   3  -1    5.50    1.74
 -10   3  -1    6.30    1.70
  -9   3  -1   24.39    2.94
  -8   3  -1    2.34    0.95
  -7   3  -1    3.26    0.61
  -6   3  -1  325.75    6.88
  -5   3  -1   68.98    2.17
  -4   3  -1  433.55    8.28
  -3   3  -1  183.22    3.28
  -2   3  -1   36.66    1.66
  -1   3  -1   15.34    0.67
   0   3  -1  180.50    2.82
   1   3  -1    9.16    0.70
   2   3  -1   84.35    1.84
   3   3  -1  334.06    4.98
   4   3  -1  191.83    3.31
   5   3  -1  221.93    4.84
   6   3  -1    1.01    0.40
   7   3  -1    4.15    0.83
   8   3  -1   56.43    3.71
   9   3  -1    2.89    1.11
  10   3  -1   31.45    4.84
  11   3  -1   44.86    6.07
 -14   4  -1   17.08    3.47
 -13   4  -1   69.38    5.31
 -12   4  -1    6.08    1.79
 -11   4  -1    6.42    1.81
 -10   4  -1    5.97    1.54
  -9   4  -1  207.38    8.19
  -8   4  -1   66.26    2.53
  -7   4  -1  188.96    4.71
  -6   4  -1  181.92    4.42
  -5   4  -1   23.12    1.23
  -4   4  -1  172.88    3.42
  -3   4  -1    9.04    0.81
  -2   4  -1   14.00    0.78
  -1   4  -1  435.22    5.99
   0   4  -1  175.97    2.65
   1   4  -1  405.59    5.80
   2   4  -1   46.72    1.39
   3   4  -1    1.86    0.35
   4   4  -1   68.84    2.38
   5   4  -1    0.16    0.29
   6   4  -1    4.51    0.83
   7   4  -1   37.99    3.32
   8   4  -1   96.92    4.79
   9   4  -1   18.08    3.56
  10   4  -1   81.10    6.60
 -14   5  -1    1.79    1.35
 -13   5  -1   25.39    3.77
 -12   5  -1   14.21    2.60
 -11   5  -1   15.20    2.67
 -10   5  -1   37.55    3.22
  -9   5  -1    1.05    0.47
  -8   5  -1  215.25    5.50
  -7   5  -1   26.50    1.50
  -6   5  -1    7.96    0.96
  -5   5  -1  185.88    4.56
  -4   5  -1  405.49    6.74
  -3   5  -1   89.39    2.21
  -2   5  -1   69.76    1.66
  -1   5  -1   22.54    0.80
   0   5  -1  181.78    2.90
   1   5  -1   29.06    0.98
   2   5  -1   10.22    0.80
   3   5  -1    1.89    0.40
   4   5  -1  194.57    4.74
   5   5  -1   36.11    2.03
   6   5  -1  137.99    5.36
   7   5  -1    4.21    1.23
   8   5  -1    0.40    0.77
   9   5  -1    9.73    2.75
  10   5  -1    5.85    2.39
 -15   6  -1    1.71    1.67
 -14   6  -1    0.34    0.97
 -13   6  -1   74.53    5.51
 -12   6  -1   26.20    3.65
 -11   6  -1  130.26    6.71
 -10   6  -1    5.78    1.50
  -9   6  -1    1.49    0.54
  -8   6  -1   53.10    2.37
  -7   6  -1  110.94    3.54
  -6   6  -1   34.72    1.74
  -5   6  -1   32.30    1.61
  -4   6  -1   46.07    1.66
  -3   6  -1  327.11    5.85
  -2   6  -1  177.92    3.26
  -1   6  -1    8.58    0.64
   0   6  -1   36.29    1.15
   1   6  -1  270.40    4.63
   2   6  -1    0.52    0.27
   3   6  -1   29.34    1.81
   4   6  -1    9.62    1.19
   5   6  -1   10.26    1.71
   6   6  -1   27.55    2.90
   7   6  -1    1.00    0.82
   8   6  -1    2.21    1.66
   9   6  -1   81.10    6.77
 -15   7  -1   67.51    5.82
 -14   7  -1   22.63    3.83
 -13   7  -1    1.73    1.20
 -12   7  -1    3.29    1.36
 -11   7  -1   43.14    4.51
 -10   7  -1    3.72    0.86
  -9   7  -1   24.23    2.05
  -8   7  -1  186.74    5.29
  -7   7  -1  125.44    3.97
  -6   7  -1  268.53    6.45
  -5   7  -1   10.00    1.15
  -4   7  -1    1.79    0.44
  -3   7  -1  187.43    4.05
  -2   7  -1   28.69    1.23
  -1   7  -1  112.82    2.30
   0   7  -1  124.37    2.51
   1   7  -1   35.85    1.43
   2   7  -1  221.78    4.26
   3   7  -1    6.44    0.99
   4   7  -1    5.59    1.25
   5   7  -1   14.40    2.15
   6   7  -1   72.70    4.22
   7   7  -1   19.35    3.60
   8   7  -1   14.97    3.52
 -15   8  -1    9.57    2.56
 -14   8  -1    2.83    1.44
 -13   8  -1   -0.84    0.66
 -12   8  -1   92.90    5.93
 -11   8  -1   49.66    2.76
 -10   8  -1  168.58    5.28
  -9   8  -1   28.86    2.35
  -8   8  -1    5.94    1.07
  -7   8  -1   30.52    1.87
  -6   8  -1    0.30    0.36
  -5   8  -1    2.64    0.52
  -4   8  -1   63.72    2.24
  -3   8  -1  219.32    4.71
  -2   8  -1   53.99    1.76
  -1   8  -1  188.54    3.39
   0   8  -1    7.71    0.72
   1   8  -1   12.51    1.09
   2   8  -1   29.59    2.11
   3   8  -1    7.19    1.44
   4   8  -1    2.74    1.04
   5   8  -1   18.84    2.42
   6   8  -1    2.04    1.56
   7   8  -1   65.34    6.00
 -14   9  -1   12.33    2.71
 -13   9  -1   17.32    3.08
 -12   9  -1    5.87    1.78
 -11   9  -1   51.97    2.89
 -10   9  -1   18.85    2.00
  -9   9  -1    4.72    0.98
  -8   9  -1   11.52    1.44
  -7   9  -1  226.20    6.13
  -6   9  -1   28.76    2.25
  -5   9  -1  190.75    5.57
  -4   9  -1    0.07    0.30
  -3   9  -1    1.33    0.42
  -2   9  -1   27.32    1.49
  -1   9  -1   31.79    1.37
   0   9  -1    4.48    0.60
   1   9  -1    1.47    0.55
   2   9  -1  114.88    3.82
   3   9  -1   23.76    2.67
   4   9  -1   68.83    4.03
   5   9  -1    2.24    1.57
   6   9  -1    0.72    2.03
 -14  10  -1   79.98    5.95
 -13  10  -1   25.86    3.77
 -12  10  -1    2.59    0.89
 -11  10  -1   22.31    2.27
 -10  10  -1  122.27    4.67
  -9  10  -1    0.44    0.50
  -8  10  -1   27.19    2.36
  -7  10  -1    5.26    1.02
  -6  10  -1   11.15    1.47
  -5  10  -1   32.47    2.15
  -4  10  -1    4.50    0.78
  -3  10  -1    3.87    0.75
  -2  10  -1  168.46    4.35
  -1  10  -1   18.69    1.41
   0  10  -1  135.54    3.95
   1  10  -1   18.66    1.78
   2  10  -1    0.99    0.73
   3  10  -1    0.77    1.10
   4  10  -1   16.47    3.73
 -14  11  -1   46.03    5.30
 -13  11  -1    9.02    2.36
 -12  11  -1   44.09    3.46
 -11  11  -1   36.22    3.01
 -10  11  -1   15.73    1.92
  -9  11  -1  113.83    4.53
  -8  11  -1    4.43    1.05
  -7  11  -1    2.65    0.81
  -6  11  -1   11.98    1.64
  -5  11  -1  138.04    4.79
  -4  11  -1   44.38    2.26
  -3  11  -1   55.48    2.43
  -2  11  -1   53.81    3.00
  -1  11  -1   21.26    1.77
   0  11  -1   28.44    2.80
   1  11  -1    2.37    1.51
   2  11  -1    3.72    2.57
 -14  12  -1   42.75    5.08
 -13  12  -1   11.68    1.91
 -12  12  -1   76.68    4.00
 -11  12  -1    1.25    0.83
 -10  12  -1    1.43    0.71
  -9  12  -1   25.05    2.55
  -8  12  -1    3.57    1.01
  -7  12  -1   14.15    1.87
  -6  12  -1   25.70    2.50
  -5  12  -1    3.60    0.99
  -4  12  -1  102.01    6.13
  -3  12  -1    5.71    1.24
  -2  12  -1    0.89    0.72
  -1  12  -1   43.83    5.04
 -13  13  -1    8.05    1.68
 -12  13  -1   13.40    2.02
 -11  13  -1    4.82    1.21
 -10  13  -1    1.44    0.85
  -9  13  -1   73.31    3.82
  -8  13  -1   21.66    2.47
  -7  13  -1   70.87    3.72
  -6  13  -1    0.83    0.92
  -5  13  -1    0.96    0.99
  -4  13  -1   18.36    3.05
  -3  13  -1   25.40    3.63
  -2  13  -1    4.18    1.64
 -12  14  -1    7.93    1.71
 -11  14  -1   69.03    3.93
 -10  14  -1   15.36    2.19
  -9  14  -1    2.18    1.52
  -8  14  -1    2.34    1.27
  -7  14  -1   22.06    3.57
  -6  14  -1    2.41    1.38
  -5  14  -1   18.21    3.38
  -4  14  -1   70.60    5.54
  -3  14  -1   41.33    5.07
  -9  15  -1    2.37    2.51
  -8  15  -1   55.96    6.17
  -7  15  -1   12.20    2.81
  -6  15  -1   67.00    5.70
  -5  15  -1    4.58    1.91
   4 -15   0   35.98    5.12
   5 -15   0    1.18    1.39
   6 -15   0   -0.34    0.75
   7 -15   0    5.94    1.53
   8 -15   0   34.59    3.58
   9 -15   0  122.03    5.85
  10 -15   0   41.82    8.65
   3 -14   0   15.14    3.15
   4 -14   0    0.89    0.89
   5 -14   0   -0.13    0.65
   6 -14   0   35.96    3.27
   7 -14   0    1.10    0.78
   8 -14   0    3.11    1.14
   9 -14   0   28.94    3.17
  10 -14   0    7.90    1.74
  11 -14   0   29.73    3.30
  12 -14   0   12.71    2.10
  13 -14   0   -0.08    1.35
   3 -13   0    0.39    0.73
   4 -13   0    5.98    1.38
   5 -13   0  154.43    5.89
   6 -13   0   68.83    3.82
   7 -13   0   31.22    3.07
   8 -13   0    1.79    0.81
   9 -13   0   36.62    2.71
  10 -13   0   19.81    2.06
  11 -13   0   78.81    3.62
  12 -13   0    0.83    0.79
  13 -13   0    0.38    0.71
  14 -13   0  129.09   11.52
  -2 -12   0   12.62    3.10
   2 -12   0  109.95    5.04
   3 -12   0   30.04    2.75
   4 -12   0   59.51    3.30
   5 -12   0   13.02    1.89
   6 -12   0    0.56    0.47
   7 -12   0    0.74    0.52
   8 -12   0    9.83    1.35
   9 -12   0    4.42    0.97
  10 -12   0   84.96    3.56
  11 -12   0   72.30    3.35
  12 -12   0    2.36    0.91
  13 -12   0   22.87    2.37
  14 -12   0   34.93    3.81
  -4 -11   0   13.71    4.36
  -3 -11   0   33.25    5.11
  -2 -11   0   74.00    6.02
  -1 -11   0   61.37    5.18
   0 -11   0   19.60    2.27
   1 -11   0    5.84    1.14
   2 -11   0    3.53    0.95
   3 -11   0   63.30    2.60
   4 -11   0   18.33    1.65
   5 -11   0   84.99    3.13
   6 -11   0    7.85    1.15
   7 -11   0  485.71    9.61
   8 -11   0    1.68    0.58
   9 -11   0   70.63    3.03
  10 -11   0    1.96    0.69
  11 -11   0   20.67    2.02
  12 -11   0    0.18    0.57
  13 -11   0    8.14    1.78
  14 -11   0    7.47    1.72
  15 -11   0   35.87    6.05
  -5 -10   0   25.23    4.50
  -4 -10   0   10.02    2.73
  -3 -10   0   13.53    3.00
  -2 -10   0   91.71    4.21
  -1 -10   0    2.08    0.80
   0 -10   0   39.56    1.99
   1 -10   0   47.49    2.12
   2 -10   0    1.18    0.48
   3 -10   0   61.67    2.46
   4 -10   0   58.34    2.41
   5 -10   0    0.46    0.38
   6 -10   0   13.87    1.42
   7 -10   0   11.91    1.36
   8 -10   0    2.12    0.65
   9 -10   0   26.35    2.02
  10 -10   0   39.45    2.68
  11 -10   0    6.10    1.09
  12 -10   0  111.38    4.08
  13 -10   0   -0.53    0.71
  14 -10   0    1.19    1.02
  15 -10   0    1.49    1.18
  -6  -9   0  106.48    8.08
  -5  -9   0   28.75    4.66
  -4  -9   0   38.70    3.33
  -3  -9   0    3.73    1.06
  -2  -9   0   66.82    4.59
  -1  -9   0   28.33    3.42
   0  -9   0  247.57    5.37
   1  -9   0    0.34    0.36
   2  -9   0   14.47    1.32
   3  -9   0  293.69    7.58
   4  -9   0   -0.17    0.33
   5  -9   0  139.57    4.69
   6  -9   0    0.41    0.44
   7  -9   0  108.89    4.25
   8  -9   0   35.34    2.11
   9  -9   0  241.17    5.85
  10  -9   0   46.24    2.42
  11  -9   0    3.27    0.84
  12  -9   0   24.75    2.73
  13  -9   0    6.07    1.50
  14  -9   0    0.59    0.83
  15  -9   0    0.77    1.03
  -7  -8   0   35.09    5.55
  -6  -8   0    3.39    1.62
  -5  -8   0    2.45    0.94
  -4  -8   0   10.74    2.20
  -3  -8   0    4.45    1.43
  -2  -8   0    2.91    1.16
  -1  -8   0   35.05    1.99
   0  -8   0  165.00    3.97
   1  -8   0    0.11    0.26
   2  -8   0   63.74    2.72
   3  -8   0  108.37    3.72
   4  -8   0    0.01    0.34
   5  -8   0  141.79    4.57
   6  -8   0   16.77    1.77
   7  -8   0   19.19    1.95
   8  -8   0  166.30    4.34
   9  -8   0    0.83    0.44
  10  -8   0    0.54    0.45
  11  -8   0   64.66    2.76
  12  -8   0   59.40    3.59
  13  -8   0  154.23    6.24
  14  -8   0   29.40    3.29
  15  -8   0    7.96    2.74
  -8  -7   0    1.57    1.43
  -7  -7   0   -0.01    0.65
  -6  -7   0   27.31    2.78
  -5  -7   0   -0.03    0.76
  -4  -7   0  478.96   15.70
  -3  -7   0   10.63    2.00
  -2  -7   0  108.78    5.43
  -1  -7   0   22.74    1.59
   0  -7   0   74.53    3.71
   1  -7   0    3.49    0.75
   2  -7   0   71.64    2.74
   3  -7   0   99.36    3.40
   4  -7   0  168.42    3.43
   5  -7   0  378.51    8.64
   6  -7   0  163.31    4.99
   7  -7   0   63.63    2.98
   8  -7   0    0.14    0.25
   9  -7   0   13.92    1.38
  10  -7   0   66.25    2.61
  11  -7   0   22.32    2.47
  12  -7   0   10.88    1.81
  13  -7   0   79.18    4.28
  14  -7   0   -0.28    1.12
  15  -7   0   38.04    5.83
  -9  -6   0   -0.56    1.08
  -8  -6   0   26.44    2.92
  -7  -6   0   72.03    3.91
  -6  -6   0    1.13    0.94
  -5  -6   0    6.62    1.69
  -4  -6   0   15.45    2.38
  -3  -6   0   -0.34    0.43
  -2  -6   0   17.61    1.46
  -1  -6   0  170.50    4.48
   1  -6   0  385.45   11.46
   2  -6   0    4.23    0.71
   3  -6   0   24.99    1.97
   4  -6   0    0.34    0.16
   5  -6   0    9.02    1.16
   6  -6   0   24.26    1.76
   7  -6   0    3.72    0.89
   8  -6   0   62.28    2.30
   9  -6   0  313.58    6.36
  10  -6   0   59.13    2.40
  11  -6   0   91.43    4.14
  12  -6   0    1.46    0.80
  13  -6   0   35.01    3.35
  14  -6   0    2.39    1.65
  15  -6   0  123.97    9.02
 -10  -5   0    2.74    1.44
  -9  -5   0   -0.42    0.66
  -8  -5   0  149.98    5.91
  -7  -5   0   15.87    2.75
  -6  -5   0   89.10    5.20
  -5  -5   0    1.69    0.88
  -4  -5   0  141.48    6.16
  -3  -5   0  142.59    3.99
  -2  -5   0  378.88    7.84
  -1  -5   0    8.71    1.51
   2  -5   0  134.22    3.58
   3  -5   0   -0.09    0.21
   4  -5   0    0.29    0.29
   5  -5   0    5.09    0.84
   6  -5   0  385.48    8.55
   7  -5   0   73.05    2.99
   8  -5   0  106.04    2.99
   9  -5   0   -0.26    0.26
  10  -5   0    0.60    0.56
  11  -5   0    9.27    1.56
  12  -5   0    0.69    0.65
  13  -5   0    4.30    1.87
  14  -5   0   36.88    5.53
 -11  -4   0   34.63    4.88
 -10  -4   0    0.34    0.73
  -9  -4   0    4.86    1.27
  -8  -4   0   61.57    3.43
  -7  -4   0   17.36    2.72
  -6  -4   0   65.30    4.15
  -5  -4   0    0.63    0.65
  -4  -4   0   -0.05    0.45
  -3  -4   0  161.68    3.96
  -2  -4   0    0.18    0.22
  -1  -4   0    0.43    0.40
   1  -4   0  221.09    6.77
   2  -4   0  804.77   14.50
   3  -4   0  548.36   10.40
   4  -4   0  154.16    4.01
   5  -4   0  159.94    4.34
   6  -4   0    2.92    0.65
   7  -4   0  101.54    2.71
   8  -4   0    0.37    0.28
   9  -4   0  133.58    4.61
  10  -4   0   17.30    1.93
  11  -4   0  490.23   11.78
  12  -4   0    3.92    1.77
  13  -4   0   37.97    5.29
  14  -4   0    5.31    2.22
 -11  -3   0    9.59    1.84
 -10  -3   0   -0.15    0.65
  -9  -3   0   29.41    2.83
  -8  -3   0   62.78    4.43
  -7  -3   0   56.43    4.01
  -6  -3   0  305.58   10.59
  -5  -3   0  102.67    4.92
  -4  -3   0   98.02    4.51
  -3  -3   0   19.85    0.93
  -2  -3   0    0.48    0.34
  -1  -3   0  544.09   14.34
   1  -3   0   56.87    2.41
   2  -3   0  177.05    3.88
   3  -3   0    3.06    0.52
   4  -3   0  219.04    5.03
   5  -3   0  137.93    2.76
   6  -3   0   21.10    0.84
   7  -3   0  169.27    3.06
   8  -3   0  146.23    2.87
   9  -3   0    0.63    0.34
  10  -3   0   13.36    1.31
  11  -3   0    1.54    1.16
  12  -3   0    1.57    1.25
  13  -3   0   20.01    3.87
  14  -3   0   26.97    4.61
 -12  -2   0   31.10    3.30
 -11  -2   0    2.63    0.96
 -10  -2   0  117.98    5.00
  -9  -2   0    4.11    1.04
  -8  -2   0    0.34    0.63
  -7  -2   0   15.06    2.38
  -6  -2   0   65.47    3.86
  -5  -2   0   68.60    3.68
  -4  -2   0    3.71    0.92
  -3  -2   0  133.39    2.87
  -2  -2   0  795.68   20.24
  -1  -2   0  171.61    5.24
   1  -2   0    2.19    0.33
   2  -2   0  179.74    3.75
   3  -2   0   58.30    1.30
   4  -2   0  809.86   14.18
   5  -2   0    0.08    0.13
   6  -2   0    0.71    0.19
   7  -2   0  386.67    5.63
   8  -2   0   17.25    1.35
   9  -2   0  108.65    3.19
  10  -2   0    2.34    0.63
  11  -2   0   70.34    3.61
  12  -2   0   90.61    6.60
  13  -2   0   70.95    6.27
  14  -2   0   11.76    3.20
 -13  -1   0  132.75    8.87
 -12  -1   0   25.18    2.88
 -11  -1   0   -0.31    0.57
 -10  -1   0    7.29    1.40
  -9  -1   0   46.11    2.74
  -8  -1   0    0.95    0.63
  -7  -1   0   -0.25    0.33
  -6  -1   0    6.55    1.42
  -5  -1   0  399.99   11.55
  -4  -1   0  160.67    5.69
  -3  -1   0  220.86    6.70
  -2  -1   0   58.35    2.33
  -1  -1   0    3.16    0.51
   1  -1   0    6.40    0.51
   2  -1   0    3.07    0.28
   3  -1   0  180.83    3.67
   4  -1   0  552.76    7.04
   5  -1   0    0.27    0.14
   6  -1   0    8.96    0.48
   7  -1   0  176.34    3.89
   8  -1   0   22.09    1.41
   9  -1   0   36.48    1.84
  10  -1   0   26.30    2.57
  11  -1   0    1.78    0.86
  12  -1   0   68.42    4.93
  13  -1   0   -0.82    1.07
 -13   0   0    0.26    1.10
 -12   0   0    2.65    1.03
 -11   0   0   20.48    2.41
 -10   0   0   38.45    2.73
  -9   0   0  248.06    6.93
  -8   0   0  173.78    7.18
  -7   0   0   60.87    3.69
  -6   0   0   22.12    1.95
  -5   0   0    3.95    0.91
  -3   0   0    2.26    0.57
  -2   0   0  183.60    5.10
  -1   0   0    4.59    0.39
   1   0   0    5.21    0.24
   2   0   0  182.22    2.97
   3   0   0    4.26    0.44
   4   0   0  159.16    3.11
   5   0   0    3.83    0.52
   6   0   0   24.18    1.21
   7   0   0   67.14    2.22
   8   0   0  169.88    4.09
   9   0   0  247.54    7.23
  10   0   0   36.98    2.82
  11   0   0   22.72    2.64
  12   0   0    1.49    0.86
  13   0   0    0.50    1.26
 -13   1   0   -0.69    0.96
 -12   1   0   64.25    3.58
 -11   1   0    3.33    0.96
 -10   1   0   28.80    2.56
  -9   1   0   36.90    2.22
  -8   1   0   26.61    2.97
  -7   1   0  162.66    6.56
  -6   1   0    7.42    1.29
  -5   1   0    0.34    0.38
  -4   1   0  553.88    9.73
  -3   1   0  178.19    4.70
  -2   1   0    2.61    0.31
  -1   1   0    5.31    0.30
   0   1   0    5.67    0.19
   1   1   0    2.77    0.21
   2   1   0   57.29    1.36
   3   1   0  224.13    3.92
   4   1   0  169.06    3.35
   5   1   0  393.28    6.65
   6   1   0    4.45    0.64
   7   1   0    0.17    0.30
   8   1   0    0.74    0.49
   9   1   0   46.54    2.89
  10   1   0    8.20    1.51
  11   1   0    0.00    0.59
  12   1   0   22.09    2.68
 -14   2   0    9.01    2.45
 -13   2   0   83.45    6.01
 -12   2   0   90.13    5.94
 -11   2   0   75.03    3.49
 -10   2   0    3.77    0.92
  -9   2   0  118.02    4.01
  -8   2   0   19.69    1.71
  -7   2   0  374.15   11.75
  -6   2   0    0.48    0.25
  -5   2   0    0.16    0.20
  -4   2   0  813.17   19.76
  -3   2   0   59.64    1.23
  -2   2   0  181.22    3.62
  -1   2   0    2.36    0.21
   0   2   0  181.34    2.28
   1   2   0  175.73    2.32
   2   2   0  823.89   10.03
   3   2   0  132.89    2.80
   4   2   0    3.89    0.53
   5   2   0   72.44    2.15
   6   2   0   69.16    2.23
   7   2   0   13.42    1.70
   8   2   0   -0.15    0.45
   9   2   0    2.26    0.90
  10   2   0  113.15    5.16
  11   2   0    5.55    1.49
  12   2   0   31.52    3.57
 -14   3   0   39.19    5.00
 -13   3   0   15.67    3.07
 -12   3   0    7.25    1.87
 -11   3   0    2.92    1.33
 -10   3   0   12.58    1.43
  -9   3   0    0.68    0.39
  -8   3   0  145.20    4.11
  -7   3   0  171.18    3.39
  -6   3   0   21.98    0.90
  -5   3   0  134.89    2.57
  -4   3   0  229.48    3.64
  -3   3   0    4.72    0.57
  -2   3   0  180.26    2.88
  -1   3   0   58.84    1.06
   0   3   0    4.34    0.34
   1   3   0  547.34    6.37
   2   3   0    0.37    0.16
   3   3   0   19.52    1.07
   4   3   0  105.61    2.68
   5   3   0  110.40    2.91
   6   3   0  302.45    7.98
   7   3   0   63.09    3.29
   8   3   0   66.02    3.56
   9   3   0   22.47    2.57
  10   3   0   -0.24    0.66
  11   3   0    9.72    2.03
 -14   4   0    9.76    2.63
 -13   4   0   38.91    4.57
 -12   4   0    6.67    1.82
 -11   4   0  462.44   15.96
 -10   4   0   14.38    2.41
  -9   4   0  138.50    4.05
  -8   4   0    0.28    0.24
  -7   4   0  105.85    2.80
  -6   4   0    3.59    0.42
  -5   4   0  168.66    2.94
  -4   4   0  160.27    3.81
  -3   4   0  552.90   10.19
  -2   4   0  815.79   10.11
  -1   4   0  223.13    3.02
   0   4   0  157.67    2.66
   1   4   0    0.40    0.17
   2   4   0    0.32    0.19
   3   4   0  171.48    3.72
   4   4   0    0.28    0.27
   5   4   0    0.34    0.41
   6   4   0   62.77    3.22
   7   4   0   18.57    2.24
   8   4   0   52.12    3.37
   9   4   0    4.81    1.30
  10   4   0   -0.15    0.76
  11   4   0   38.77    5.58
 -15   5   0   40.98    7.67
 -14   5   0   40.46    5.10
 -13   5   0    3.11    1.36
 -12   5   0    2.15    1.10
 -11   5   0    7.42    1.89
 -10   5   0    0.76    0.77
  -9   5   0    0.72    0.42
  -8   5   0  104.12    3.38
  -7   5   0   69.78    1.75
  -6   5   0  378.73    8.04
  -5   5   0    3.25    0.59
  -4   5   0    0.56    0.31
  -3   5   0    0.55    0.17
  -2   5   0  132.59    2.40
  -1   5   0  166.22    2.57
   0   5   0    6.06    0.47
   1   5   0    9.18    0.65
   2   5   0  386.45    5.73
   3   5   0  148.37    3.53
   4   5   0  134.69    3.49
   5   5   0    0.65    0.58
   6   5   0   87.77    4.09
   7   5   0   12.10    1.93
   8   5   0  145.07    6.07
   9   5   0    0.01    0.70
  10   5   0    2.57    1.55
 -15   6   0  106.92    7.43
 -14   6   0    3.89    1.61
 -13   6   0   29.07    4.05
 -12   6   0    1.14    0.89
 -11   6   0   81.01    5.21
 -10   6   0   58.36    4.09
  -9   6   0  300.35    7.29
  -8   6   0   68.26    2.71
  -7   6   0    3.10    0.68
  -6   6   0   23.24    2.05
  -5   6   0    8.18    0.97
  -4   6   0    0.50    0.17
  -3   6   0   19.50    0.91
  -2   6   0    3.92    0.47
  -1   6   0  379.78    5.09
   0   6   0   23.32    0.92
   1   6   0  174.37    2.94
   2   6   0   18.52    1.05
   3   6   0    0.13    0.28
   4   6   0   12.65    1.69
   5   6   0    8.81    1.53
   6   6   0    0.28    0.59
   7   6   0   69.50    4.00
   8   6   0   30.97    3.36
   9   6   0    0.76    1.43
 -15   7   0   36.48    4.90
 -14   7   0   -0.55    0.74
 -13   7   0   68.54    5.22
 -12   7   0    9.92    2.22
 -11   7   0   19.06    2.81
 -10   7   0   61.23    2.86
  -9   7   0   14.84    1.59
  -8   7   0    0.15    0.33
  -7   7   0   73.48    2.83
  -6   7   0  170.02    4.74
  -5   7   0  396.32    8.47
  -4   7   0  173.19    3.39
  -3   7   0  104.65    2.54
  -2   7   0   72.77    1.87
  -1   7   0    3.89    0.46
   0   7   0   67.15    1.69
   1   7   0   22.55    1.12
   2   7   0  111.24    2.65
   3   7   0   13.80    1.82
   4   7   0  502.23   11.93
   5   7   0    1.30    0.75
   6   7   0   29.60    3.14
   7   7   0   -0.58    0.68
   8   7   0    2.97    1.90
 -15   8   0    8.74    2.37
 -14   8   0   34.91    4.68
 -13   8   0  160.09    8.26
 -12   8   0   59.49    4.52
 -11   8   0   68.32    3.21
 -10   8   0    0.51    0.48
  -9   8   0    0.66    0.47
  -8   8   0  162.20    4.98
  -7   8   0   20.92    1.83
  -6   8   0   17.31    1.68
  -5   8   0  137.89    4.33
  -4   8   0    0.17    0.26
  -3   8   0  104.58    2.76
  -2   8   0   64.99    1.89
  -1   8   0    0.32    0.22
   0   8   0  166.40    3.12
   1   8   0   35.71    1.33
   2   8   0    2.59    0.84
   3   8   0    3.33    0.95
   4   8   0    7.26    1.46
   5   8   0    4.54    1.30
   6   8   0    5.13    2.15
   7   8   0   37.65    5.74
 -15   9   0    1.16    1.44
 -14   9   0    0.67    1.10
 -13   9   0    3.75    1.52
 -12   9   0   19.61    3.10
 -11   9   0    6.09    1.19
 -10   9   0   47.70    2.66
  -9   9   0  242.71    6.75
  -8   9   0   35.02    2.34
  -7   9   0  110.63    4.02
  -6   9   0   -0.25    0.33
  -5   9   0  138.09    4.47
  -4   9   0    0.31    0.40
  -3   9   0  308.29    5.97
  -2   9   0   14.42    1.11
  -1   9   0    0.82    0.30
   0   9   0  242.09    4.19
   1   9   0   31.33    2.41
   2   9   0   74.62    3.66
   3   9   0    3.48    1.13
   4   9   0   38.58    5.09
   5   9   0   38.05    5.27
   6   9   0  120.06    8.69
 -14  10   0    0.17    0.94
 -13  10   0    0.93    1.02
 -12  10   0  116.14    6.77
 -11  10   0    5.95    1.23
 -10  10   0   41.32    2.56
  -9  10   0   25.08    2.35
  -8  10   0    3.59    0.91
  -7  10   0   12.04    1.59
  -6  10   0   16.13    1.76
  -5  10   0    1.59    0.59
  -4  10   0   57.76    2.87
  -3  10   0   63.97    2.98
  -2  10   0    1.09    0.44
  -1  10   0   45.71    1.63
   0  10   0   40.58    1.62
   1  10   0    2.56    1.31
   2  10   0   81.79    6.02
   3  10   0   11.70    2.94
   4  10   0    9.24    2.65
   5  10   0   27.49    4.71
 -14  11   0    6.10    2.10
 -13  11   0    3.45    1.59
 -12  11   0    0.22    0.79
 -11  11   0   22.00    2.40
 -10  11   0    2.53    0.82
  -9  11   0   69.41    3.49
  -8  11   0    3.81    0.91
  -7  11   0  497.68   11.50
  -6  11   0    8.24    1.38
  -5  11   0   83.28    3.70
  -4  11   0   16.98    1.91
  -3  11   0   61.26    3.10
  -2  11   0    7.12    1.32
  -1  11   0    6.21    1.20
   0  11   0   20.42    2.37
   1  11   0   69.47    5.45
   2  11   0   75.53    6.03
   3  11   0   35.97    5.43
   4  11   0   18.75    5.76
 -14  12   0   33.63    4.72
 -13  12   0   25.76    3.98
 -12  12   0    1.29    1.24
 -11  12   0   61.57    3.56
 -10  12   0   82.32    4.01
  -9  12   0    6.25    1.31
  -8  12   0   10.85    1.76
  -7  12   0    0.37    0.56
  -6  12   0    0.63    0.58
  -5  12   0   15.08    1.95
  -4  12   0   55.84    3.12
  -3  12   0   27.46    2.57
  -2  12   0  128.62    4.89
  -1  12   0    0.27    1.01
   1  12   0   -0.25    1.31
   2  12   0    7.88    2.58
 -13  13   0    0.28    1.11
 -12  13   0    0.25    1.07
 -11  13   0   79.97    4.19
 -10  13   0   22.00    2.56
  -9  13   0   42.56    3.41
  -8  13   0    2.65    0.95
  -7  13   0   34.75    3.05
  -6  13   0   66.14    3.65
  -5  13   0  152.44    5.69
  -4  13   0    5.38    1.27
  -3  13   0    1.28    1.09
 -12  14   0    5.84    2.13
 -11  14   0   29.54    4.37
 -10  14   0   10.68    1.75
  -9  14   0   35.35    3.28
  -8  14   0    3.88    1.13
  -7  14   0   -0.76    0.61
  -6  14   0   34.26    3.18
  -5  14   0   -0.20    1.07
 -11  15   0   16.90    3.53
 -10  15   0   30.28    4.65
  -9  15   0  111.51    7.47
  -8  15   0   43.38    5.29
   5 -15   1    8.49    1.84
   6 -15   1   68.13    4.21
   7 -15   1   10.69    1.86
   8 -15   1   54.22    4.36
   9 -15   1    1.61    1.04
   3 -14   1   48.94    4.31
   4 -14   1   61.54    4.01
   5 -14   1   17.77    2.47
   6 -14   1    1.98    1.01
   7 -14   1   23.74    2.30
   8 -14   1    0.87    0.74
   9 -14   1    1.88    0.79
  10 -14   1   15.37    1.81
  11 -14   1   64.17    3.78
  12 -14   1    6.72    1.56
   2 -13   1   10.19    2.59
   3 -13   1   28.38    2.93
   4 -13   1   16.51    1.81
   5 -13   1    0.16    0.52
   6 -13   1    1.66    0.88
   7 -13   1   80.01    4.28
   8 -13   1   21.38    2.61
   9 -13   1   70.91    4.14
  10 -13   1    1.39    0.68
  11 -13   1    3.75    1.02
  12 -13   1   16.12    1.93
  13 -13   1    7.17    1.36
   1 -12   1   42.09    5.34
   2 -12   1    2.54    0.76
   3 -12   1    2.76    0.94
   4 -12   1  100.21    4.57
   5 -12   1    2.87    0.94
   6 -12   1   26.52    2.84
   7 -12   1    9.80    1.78
   8 -12   1    2.85    1.02
   9 -12   1   25.27    2.84
  10 -12   1    2.00    0.94
  11 -12   1    1.44    0.72
  12 -12   1   74.56    3.54
  13 -12   1   12.66    1.71
  14 -12   1   64.69    5.19
  -3 -11   1   64.01    5.94
  -2 -11   1    4.48    1.96
  -1 -11   1    3.47    1.12
   0 -11   1   37.68    3.61
   1 -11   1   21.01    1.90
   2 -11   1   52.51    3.11
   3 -11   1   61.51    3.32
   4 -11   1   36.67    3.09
   5 -11   1  119.63    4.93
   6 -11   1   10.21    1.64
   7 -11   1    2.70    0.94
   8 -11   1    5.19    1.29
   9 -11   1  118.47    5.13
  10 -11   1   18.33    2.38
  11 -11   1   40.62    2.91
  12 -11   1   47.66    3.24
  13 -11   1    9.55    1.96
  14 -11   1   47.18    4.39
  -5 -10   1    6.24    2.77
  -4 -10   1   13.95    3.29
  -3 -10   1    1.97    1.43
  -2 -10   1    0.75    1.06
  -1 -10   1   14.29    2.75
   0 -10   1  130.03    4.88
   1 -10   1   15.84    1.90
   2 -10   1  166.50    5.62
   3 -10   1    4.63    1.06
   4 -10   1    7.47    1.29
   5 -10   1   25.47    2.47
   6 -10   1    9.59    1.37
   7 -10   1    6.98    1.33
   8 -10   1   29.34    2.82
   9 -10   1    2.19    0.86
  10 -10   1  126.34    5.31
  11 -10   1   18.15    2.40
  12 -10   1    1.73    0.72
  13 -10   1   33.15    3.44
  14 -10   1   56.84    4.70
  -6  -9   1    0.80    1.43
  -5  -9   1    1.56    1.37
  -4  -9   1   72.39    5.80
  -3  -9   1   22.08    3.69
  -2  -9   1  105.85    6.52
  -1  -9   1    2.08    1.08
   0  -9   1    5.84    1.06
   1  -9   1   38.37    2.25
   2  -9   1   26.46    1.96
   3  -9   1    1.44    0.64
   4  -9   1    0.04    0.39
   5  -9   1  220.37    6.32
   6  -9   1   31.49    2.60
   7  -9   1  210.08    6.58
   8  -9   1   11.71    1.67
   9  -9   1    5.41    1.15
  10  -9   1   15.95    2.09
  11  -9   1   53.74    3.37
  12  -9   1    4.49    1.19
  13  -9   1   15.80    2.31
  14  -9   1   15.31    2.38
  15  -9   1   80.99    9.62
  -7  -8   1   61.42    7.34
  -6  -8   1    0.43    1.07
  -5  -8   1   25.25    4.09
  -4  -8   1    5.65    1.82
  -3  -8   1    4.77    1.68
  -2  -8   1   27.86    2.33
  -1  -8   1    8.53    1.26
   0  -8   1    6.84    1.08
   1  -8   1  197.04    5.48
   2  -8   1   46.68    2.27
   3  -8   1  214.51    4.62
   4  -8   1   69.73    3.08
   5  -8   1    2.13    0.70
   6  -8   1    0.34    0.50
   7  -8   1   35.17    2.46
   8  -8   1    7.26    1.33
   9  -8   1   38.44    3.11
  10  -8   1  167.18    5.97
  11  -8   1   60.41    3.47
  12  -8   1  101.56    4.75
  13  -8   1    1.07    0.88
  14  -8   1    5.57    2.23
  15  -8   1   13.38    3.53
  -8  -7   1   18.17    3.94
  -7  -7   1   26.82    4.54
  -6  -7   1   82.21    6.23
  -5  -7   1    8.64    2.39
  -4  -7   1    3.46    0.95
  -3  -7   1    5.17    1.02
  -2  -7   1  209.06    5.94
  -1  -7   1   32.93    1.91
   0  -7   1  134.73    3.96
   1  -7   1  109.53    4.89
   2  -7   1   24.80    1.61
   3  -7   1  186.17    4.68
   4  -7   1    3.82    0.51
   5  -7   1   11.99    1.46
   6  -7   1  274.19    7.08
   7  -7   1  132.93    4.51
   8  -7   1  205.06    6.05
   9  -7   1   22.31    2.31
  10  -7   1    3.18    1.00
  11  -7   1   43.02    3.04
  12  -7   1    3.64    1.17
  13  -7   1    1.19    1.23
  14  -7   1   23.51    4.37
  15  -7   1   61.06    7.42
  -9  -6   1   58.57    8.71
  -8  -6   1    3.91    1.80
  -7  -6   1    1.77    1.30
  -6  -6   1   28.96    4.24
  -5  -6   1   12.35    1.64
  -4  -6   1   10.60    1.49
  -3  -6   1   33.37    2.11
  -2  -6   1    0.98    0.45
  -1  -6   1  265.97    6.40
   0  -6   1   38.30    2.68
   1  -6   1    6.13    1.18
   2  -6   1  178.08    4.50
   3  -6   1  326.78    6.87
   4  -6   1   54.07    1.49
   5  -6   1   30.42    2.54
   6  -6   1   37.53    2.07
   7  -6   1  120.01    4.11
   8  -6   1   49.10    2.64
   9  -6   1    2.36    0.79
  10  -6   1    6.89    1.31
  11  -6   1  125.26    5.01
  12  -6   1   29.50    2.90
  13  -6   1   71.60    6.10
  14  -6   1    1.02    1.42
  15  -6   1    0.73    1.43
  -9  -5   1   17.47    3.73
  -8  -5   1    1.09    1.21
  -7  -5   1    4.94    1.14
  -6  -5   1  120.54    4.65
  -5  -5   1   31.47    2.55
  -4  -5   1  202.68    5.72
  -3  -5   1    3.34    0.74
  -2  -5   1   11.99    1.27
  -1  -5   1   26.50    1.91
   0  -5   1  191.74    6.61
   1  -5   1   23.06    1.66
   2  -5   1   71.68    2.25
   3  -5   1   88.92    2.42
   4  -5   1  401.67    6.47
   5  -5   1  193.55    5.02
   6  -5   1    5.98    0.97
   7  -5   1   20.96    1.87
   8  -5   1  212.58    6.08
   9  -5   1    1.03    0.57
  10  -5   1   29.56    2.60
  11  -5   1    9.61    1.55
  12  -5   1    6.82    2.25
  13  -5   1   27.88    4.63
  14  -5   1    3.85    1.97
 -10  -4   1   66.72    6.18
  -9  -4   1   18.50    2.75
  -8  -4   1  103.14    4.38
  -7  -4   1   38.06    2.58
  -6  -4   1    5.11    1.05
  -5  -4   1    1.29    0.47
  -4  -4   1   72.53    2.83
  -3  -4   1    1.83    0.49
  -2  -4   1   49.46    1.97
  -1  -4   1  399.08    8.03
   0  -4   1  183.13    6.02
   1  -4   1  453.51   11.75
   2  -4   1   13.74    0.84
   3  -4   1   11.62    0.71
   4  -4   1  186.03    3.30
   5  -4   1   23.41    0.89
   6  -4   1  172.93    3.53
   7  -4   1  189.48    3.92
   8  -4   1   73.38    2.24
   9  -4   1  220.89    6.11
  10  -4   1    8.54    1.30
  11  -4   1    2.20    1.19
  12  -4   1    5.48    1.99
  13  -4   1   75.29    6.20
  14  -4   1   14.10    3.43
 -11  -3   1   48.05    6.34
 -10  -3   1   31.66    3.04
  -9  -3   1    4.00    1.10
  -8  -3   1   62.14    3.19
  -7  -3   1    3.69    0.89
  -6  -3   1    1.72    0.58
  -5  -3   1  206.53    5.69
  -4  -3   1  184.21    4.89
  -3  -3   1  342.78    7.14
  -2  -3   1   90.19    2.61
  -1  -3   1   10.88    0.77
   0  -3   1  186.90    5.77
   1  -3   1   17.00    1.11
   2  -3   1   40.36    1.30
   3  -3   1  183.57    3.25
   4  -3   1  435.94    6.82
   5  -3   1   72.79    1.86
   6  -3   1  327.78    5.76
   7  -3   1    2.23    0.48
   8  -3   1    2.82    0.54
   9  -3   1   30.81    1.61
  10  -3   1    5.78    1.79
  11  -3   1    5.63    1.87
  12  -3   1   29.49    4.33
  13  -3   1    2.48    1.55
  14  -3   1   65.29    7.42
 -12  -2   1   60.48    6.94
 -11  -2   1    8.99    1.77
 -10  -2   1    1.54    0.79
  -9  -2   1   60.25    3.18
  -8  -2   1  166.46    5.42
  -7  -2   1   29.49    2.06
  -6  -2   1   49.04    2.36
  -5  -2   1   24.36    1.62
  -4  -2   1  178.42    4.54
  -3  -2   1   70.96    2.28
  -2  -2   1   12.11    0.80
  -1  -2   1   40.96    1.55
   0  -2   1  556.47   13.83
   1  -2   1  133.05    2.98
   2  -2   1  558.07    9.74
   3  -2   1   16.30    0.69
   4  -2   1   13.54    0.73
   5  -2   1   86.01    2.14
   6  -2   1   48.89    1.61
   7  -2   1   10.28    0.93
   8  -2   1    0.50    0.31
   9  -2   1  213.71    6.22
  10  -2   1   29.04    2.58
  11  -2   1  115.27    7.00
  12  -2   1    1.64    1.29
  13  -2   1    4.45    2.06
  14  -2   1    8.65    2.89
 -12  -1   1   10.36    1.91
 -11  -1   1   45.90    3.71
 -10  -1   1   15.28    1.95
  -9  -1   1   16.85    1.88
  -8  -1   1   37.55    2.22
  -7  -1   1  201.58    5.50
  -6  -1   1  117.81    3.70
  -5  -1   1    6.00    0.84
  -4  -1   1   22.73    1.22
  -3  -1   1  436.03    8.34
  -2  -1   1   15.11    0.76
  -1  -1   1  133.29    2.76
   0  -1   1   44.45    1.80
   1  -1   1   43.25    1.26
   2  -1   1  136.40    3.02
   3  -1   1   39.70    1.10
   4  -1   1   12.30    0.71
   5  -1   1  398.71    6.57
   6  -1   1   27.65    1.19
   7  -1   1  260.69    5.15
   8  -1   1   37.67    2.19
   9  -1   1   10.74    1.53
  10  -1   1    1.95    0.74
  11  -1   1   15.35    2.07
  12  -1   1    4.44    1.92
  13  -1   1   16.12    3.47
 -13   0   1   10.72    1.83
 -12   0   1   81.22    4.14
 -11   0   1   39.46    3.30
 -10   0   1  119.49    4.75
  -9   0   1    6.57    1.20
  -8   0   1    8.10    1.20
  -7   0   1  131.16    4.05
  -6   0   1   38.69    1.84
  -5   0   1  182.26    4.52
  -4   0   1  180.67    4.14
  -3   0   1  181.15    3.96
  -2   0   1  553.80    9.64
  -1   0   1   43.62    1.11
   0   0   1    0.37    0.15
   1   0   1   43.15    1.60
   2   0   1  551.16    9.42
   3   0   1  181.30    3.14
   4   0   1  180.88    3.29
   5   0   1  190.35    3.62
   6   0   1   39.05    1.40
   7   0   1  129.27    4.26
   8   0   1    6.29    1.18
   9   0   1    4.11    1.05
  10   0   1  127.83    5.09
  11   0   1   39.16    3.45
  12   0   1   79.26    4.38
  13   0   1    5.55    2.21
 -13   1   1   16.19    3.14
 -12   1   1    5.06    1.21
 -11   1   1   16.32    1.99
 -10   1   1    1.93    0.73
  -9   1   1    9.50    1.36
  -8   1   1   35.99    2.02
  -7   1   1  269.47    6.48
  -6   1   1   28.48    1.53
  -5   1   1  405.95    8.09
  -4   1   1   11.19    0.94
  -3   1   1   40.53    1.33
  -2   1   1  136.68    2.90
  -1   1   1   43.33    1.65
   0   1   1   42.53    1.91
   1   1   1  131.94    2.87
   2   1   1   15.36    0.86
   3   1   1  441.60    6.63
   4   1   1   24.72    0.87
   5   1   1    6.12    0.60
   6   1   1  113.62    2.93
   7   1   1  196.25    5.73
   8   1   1   35.91    2.57
   9   1   1   19.05    2.21
  10   1   1   19.77    2.37
  11   1   1   42.82    3.65
  12   1   1   12.47    2.16
 -14   2   1    4.31    1.82
 -13   2   1    3.25    1.49
 -12   2   1    0.98    0.96
 -11   2   1  118.05    4.46
 -10   2   1   30.78    2.22
  -9   2   1  214.25    5.94
  -8   2   1    0.66    0.39
  -7   2   1   11.22    1.16
  -6   2   1   49.53    1.93
  -5   2   1   86.71    2.54
  -4   2   1   13.97    0.82
  -3   2   1   16.64    0.82
  -2   2   1  548.66    9.66
  -1   2   1  132.71    3.00
   0   2   1  571.47    7.92
   1   2   1   40.52    1.11
   2   2   1   13.63    0.53
   3   2   1   72.79    1.62
   4   2   1  180.68    3.41
   5   2   1   27.11    1.09
   6   2   1   45.65    2.43
   7   2   1   28.13    2.45
   8   2   1  168.53    5.72
   9   2   1   57.89    3.33
  10   2   1    2.08    0.92
  11   2   1   12.54    1.95
  12   2   1   55.03    4.64
 -14   3   1   63.24    5.35
 -13   3   1   -0.03    0.88
 -12   3   1   21.53    3.31
 -11   3   1    4.57    1.51
 -10   3   1    5.80    1.03
  -9   3   1   33.26    1.88
  -8   3   1    3.17    0.71
  -7   3   1    2.43    0.55
  -6   3   1  331.71    6.86
  -5   3   1   75.56    2.18
  -4   3   1  444.95    8.20
  -3   3   1  186.86    5.29
  -2   3   1   41.07    1.36
  -1   3   1   18.80    1.33
   0   3   1  187.05    3.89
   1   3   1   10.16    0.67
   2   3   1   93.14    2.23
   3   3   1  339.42    5.53
   4   3   1  194.98    3.72
   5   3   1  218.95    6.00
   6   3   1    2.76    0.82
   7   3   1    2.32    0.78
   8   3   1   58.37    3.32
   9   3   1    2.28    0.95
  10   3   1   32.02    3.27
  11   3   1   51.45    4.33
 -14   4   1   12.31    2.95
 -13   4   1   70.75    5.34
 -12   4   1    4.72    1.64
 -11   4   1    5.18    1.61
 -10   4   1    7.93    1.75
  -9   4   1  219.64    5.48
  -8   4   1   70.62    2.55
  -7   4   1  185.68    4.55
  -6   4   1  177.99    4.18
  -5   4   1   23.78    1.09
  -4   4   1  178.87    3.92
  -3   4   1   10.74    0.77
  -2   4   1   11.76    0.85
  -1   4   1  432.78    8.53
   0   4   1  184.09    3.42
   1   4   1  404.14    5.69
   2   4   1   52.74    1.52
   3   4   1    2.98    0.44
   4   4   1   72.76    2.96
   5   4   1    0.91    0.50
   6   4   1    4.75    1.07
   7   4   1   43.66    3.02
   8   4   1   97.85    4.56
   9   4   1   14.30    2.09
  10   4   1   59.32    6.87
 -15   5   1    2.03    2.33
 -14   5   1    5.84    1.97
 -13   5   1   23.85    3.66
 -12   5   1    6.93    1.91
 -11   5   1    7.85    1.83
 -10   5   1   31.27    3.54
  -9   5   1    0.32    0.63
  -8   5   1  218.32    5.91
  -7   5   1   26.13    1.27
  -6   5   1    7.02    0.72
  -5   5   1  194.93    4.17
  -4   5   1  402.08    6.50
  -3   5   1   93.14    2.16
  -2   5   1   70.21    1.89
  -1   5   1   23.50    1.05
   0   5   1  195.83    3.81
   1   5   1   30.01    1.07
   2   5   1   10.48    0.78
   3   5   1    3.11    0.77
   4   5   1  208.75    5.97
   5   5   1   33.01    2.37
   6   5   1  129.39    5.03
   7   5   1    5.42    1.25
   8   5   1    0.24    0.86
   9   5   1   18.98    3.91
 -15   6   1    1.33    1.22
 -14   6   1    1.54    1.22
 -13   6   1   81.63    5.61
 -12   6   1   21.84    3.29
 -11   6   1  129.25    6.69
 -10   6   1    4.96    1.43
  -9   6   1    1.58    0.81
  -8   6   1   46.06    3.32
  -7   6   1  110.85    5.20
  -6   6   1   38.42    1.38
  -5   6   1   29.28    1.24
  -4   6   1   52.80    1.56
  -3   6   1  326.76    5.73
  -2   6   1  171.43    3.68
  -1   6   1    6.41    0.70
   0   6   1   36.88    1.50
   1   6   1  273.82    4.53
   2   6   1    1.18    0.38
   3   6   1   31.97    2.15
   4   6   1    8.58    1.37
   5   6   1    9.52    1.58
   6   6   1   25.92    3.20
   7   6   1    0.64    1.09
   8   6   1    3.89    2.07
   9   6   1   78.21    9.22
 -15   7   1   55.47    6.20
 -14   7   1   26.97    4.10
 -13   7   1    4.40    1.62
 -12   7   1    2.61    1.12
 -11   7   1   34.12    3.89
 -10   7   1    3.08    1.20
  -9   7   1   31.33    3.48
  -8   7   1  186.82    7.66
  -7   7   1  126.94    5.76
  -6   7   1  265.69    6.63
  -5   7   1   11.25    0.75
  -4   7   1    3.72    0.55
  -3   7   1  181.86    3.94
  -2   7   1   25.05    1.34
  -1   7   1  120.87    2.96
   0   7   1  131.03    3.32
   1   7   1   34.99    1.72
   2   7   1  216.34    6.12
   3   7   1    6.01    1.15
   4   7   1    2.75    1.39
   5   7   1    9.94    2.69
   6   7   1   71.86    6.05
   7   7   1   17.83    3.82
   8   7   1   18.35    4.15
 -15   8   1   13.82    3.16
 -14   8   1    3.75    1.69
 -13   8   1   -0.25    0.74
 -12   8   1  101.75    6.21
 -11   8   1   46.20    3.98
 -10   8   1  169.45    7.70
  -9   8   1   33.79    3.67
  -8   8   1    5.31    1.40
  -7   8   1   32.22    2.01
  -6   8   1    0.66    0.47
  -5   8   1    3.76    0.80
  -4   8   1   71.27    2.17
  -3   8   1  214.50    4.59
  -2   8   1   48.83    2.36
  -1   8   1  201.77    4.41
   0   8   1    6.51    0.89
   1   8   1   10.17    1.15
   2   8   1   23.91    3.40
   3   8   1    3.22    1.41
   4   8   1    1.26    1.12
   5   8   1   19.31    3.74
   6   8   1    0.76    1.21
   7   8   1   42.42    5.90
 -15   9   1   54.81    6.84
 -14   9   1   11.81    2.80
 -13   9   1   17.76    3.08
 -12   9   1    4.73    1.58
 -11   9   1   55.42    4.31
 -10   9   1   14.82    2.48
  -9   9   1    4.91    1.54
  -8   9   1    6.19    1.59
  -7   9   1  214.96    6.25
  -6   9   1   30.69    2.43
  -5   9   1  214.98    6.01
  -4   9   1    0.24    0.35
  -3   9   1    1.36    0.53
  -2   9   1   28.58    2.02
  -1   9   1   38.67    2.52
   0   9   1    5.14    1.08
   1   9   1    0.91    0.61
   2   9   1  111.85    6.83
   3   9   1   28.30    4.24
   4   9   1   57.11    5.41
   5   9   1    1.89    1.42
   6   9   1   -0.07    1.28
 -14  10   1   63.94    5.36
 -13  10   1   31.58    4.27
 -12  10   1    2.47    1.29
 -11  10   1   19.04    3.12
 -10  10   1  135.32    7.02
  -9  10   1    1.34    0.91
  -8  10   1   28.53    3.45
  -7  10   1    7.84    1.91
  -6  10   1    8.45    1.36
  -5  10   1   26.21    2.47
  -4  10   1    4.15    1.41
  -3  10   1    3.25    1.24
  -2  10   1  160.89    5.30
  -1  10   1   14.26    1.78
   0  10   1  123.76    4.87
   1  10   1   15.47    2.86
   2  10   1    0.18    0.96
   3  10   1    1.60    1.44
   4  10   1   14.73    3.55
 -14  11   1   42.98    5.14
 -13  11   1    7.61    2.16
 -12  11   1   40.89    4.75
 -11  11   1   38.20    4.47
 -10  11   1   18.62    3.09
  -9  11   1  115.01    6.49
  -8  11   1    4.09    1.41
  -7  11   1    6.99    1.85
  -6  11   1   11.02    2.35
  -5  11   1  141.08    7.19
  -4  11   1   42.77    4.50
  -3  11   1   62.12    4.53
  -2  11   1   53.31    4.44
  -1  11   1   19.59    2.29
   0  11   1   35.88    3.10
   1  11   1    4.33    1.84
   2  11   1    0.82    1.15
   3  11   1   67.11    6.11
 -13  12   1   12.18    2.85
 -12  12   1   76.48    5.84
 -11  12   1    2.16    1.33
 -10  12   1    1.53    1.18
  -9  12   1   20.39    3.30
  -8  12   1    3.77    1.57
  -7  12   1   11.00    2.54
  -6  12   1   21.15    3.30
  -5  12   1    5.76    1.84
  -4  12   1   99.11    6.24
  -3  12   1    4.27    1.64
  -2  12   1    0.99    0.98
  -1  12   1   47.20    5.28
   1  12   1   11.80    2.80
   2  12   1    7.95    2.60
 -13  13   1    5.50    1.98
 -12  13   1   11.92    2.87
 -11  13   1    4.86    1.90
 -10  13   1    1.26    1.32
  -9  13   1   67.82    5.34
  -8  13   1   19.51    3.37
  -7  13   1   69.03    5.47
  -6  13   1   -0.65    0.86
  -5  13   1    0.37    0.98
  -4  13   1   16.37    3.18
  -3  13   1   35.21    4.65
  -2  13   1   11.02    2.68
  -1  13   1    8.73    2.48
 -12  14   1    5.19    1.96
 -11  14   1   72.99    5.85
 -10  14   1   13.80    3.16
  -9  14   1    1.40    1.41
  -8  14   1    2.33    1.38
  -7  14   1   24.88    4.03
  -6  14   1    2.75    1.48
  -5  14   1   16.98    3.26
  -4  14   1   63.23    5.53
  -3  14   1   45.57    5.33
  -2  14   1   66.01    5.71
 -10  15   1    5.98    2.37
  -9  15   1    1.38    1.49
  -8  15   1   56.15    6.17
  -7  15   1   12.07    2.96
  -6  15   1   69.80    5.83
  -5  15   1    5.65    1.99
   6 -15   2    9.10    2.94
   7 -15   2   46.66    6.25
   8 -15   2   20.90    4.39
   9 -15   2   20.35    4.51
   3 -14   2   44.79    3.31
   4 -14   2    3.52    1.22
   5 -14   2    1.67    1.08
   6 -14   2   56.87    4.57
   7 -14   2    1.76    1.04
   8 -14   2    8.94    1.85
   9 -14   2   47.00    4.36
  10 -14   2    9.86    2.06
  11 -14   2   46.70    4.49
   1 -13   2    7.65    2.59
   2 -13   2    2.73    1.07
   3 -13   2    0.58    0.77
   4 -13   2   24.70    2.86
   5 -13   2   59.54    3.79
   6 -13   2   35.79    3.49
   7 -13   2   52.49    4.35
   8 -13   2   36.23    3.68
   9 -13   2   26.71    3.08
  10 -13   2    6.22    1.69
  11 -13   2   50.89    4.49
  12 -13   2   -0.12    0.87
  13 -13   2    1.05    1.22
  -1 -12   2    1.74    1.52
   0 -12   2   16.98    3.50
   1 -12   2    3.24    1.17
   2 -12   2  111.53    5.12
   3 -12   2    3.73    1.16
   4 -12   2   36.62    3.45
   5 -12   2    1.83    0.85
   6 -12   2   36.33    3.47
   7 -12   2    2.26    0.97
   8 -12   2    1.73    0.92
   9 -12   2   24.37    2.88
  10 -12   2   10.30    1.89
  11 -12   2   82.58    4.71
  12 -12   2   16.35    2.56
  13 -12   2    8.87    1.46
  14 -12   2   18.97    3.97
  -3 -11   2   43.37    5.89
  -2 -11   2   40.92    5.21
  -1 -11   2   82.63    4.33
   0 -11   2   13.36    2.96
   1 -11   2    1.83    1.24
   2 -11   2    4.02    1.65
   3 -11   2   33.96    3.14
   4 -11   2   57.47    3.44
   5 -11   2   53.60    3.29
   6 -11   2    1.14    0.71
   7 -11   2  314.54    9.31
   8 -11   2    6.75    1.45
   9 -11   2   43.43    3.69
  10 -11   2    7.11    1.63
  11 -11   2   16.81    2.47
  12 -11   2    2.04    1.10
  13 -11   2    5.48    1.55
  14 -11   2   36.64    3.84
  -4 -10   2    7.09    2.48
  -3 -10   2    5.89    2.03
  -2 -10   2   11.35    2.60
  -1 -10   2    2.47    1.27
   0 -10   2   97.61    4.30
   1 -10   2   25.22    2.47
   2 -10   2   27.60    3.95
   3 -10   2   95.94    6.09
   4 -10   2   79.48    3.92
   5 -10   2   35.91    3.06
   6 -10   2    3.47    1.07
   7 -10   2   12.19    1.80
   8 -10   2   88.33    4.22
   9 -10   2   14.24    2.02
  10 -10   2   98.64    4.69
  11 -10   2    4.67    1.31
  12 -10   2  107.27    5.27
  13 -10   2    1.67    1.00
  14 -10   2    7.81    2.63
  -5  -9   2   41.85    5.64
  -4  -9   2   36.41    5.08
  -3  -9   2   26.30    4.20
  -2  -9   2   35.53    4.42
  -1  -9   2   15.11    2.69
   0  -9   2   85.26    5.10
   1  -9   2    4.34    1.03
   2  -9   2    7.64    1.21
   3  -9   2  161.20    7.87
   4  -9   2   39.39    3.63
   5  -9   2   58.19    3.16
   6  -9   2   48.36    2.86
   7  -9   2   54.44    3.11
   8  -9   2   80.98    3.89
   9  -9   2   67.18    3.64
  10  -9   2   22.32    2.51
  11  -9   2    2.59    0.96
  12  -9   2    5.21    1.34
  13  -9   2   21.56    2.73
  14  -9   2    0.82    1.35
  -6  -8   2    7.43    2.50
  -5  -8   2   22.05    3.85
  -4  -8   2    2.07    1.39
  -3  -8   2    9.26    2.41
  -2  -8   2   82.55    5.52
  -1  -8   2   76.97    4.97
   0  -8   2  110.18    5.71
   1  -8   2   18.09    1.80
   2  -8   2   23.51    1.79
   3  -8   2  115.33    3.79
   4  -8   2   24.88    3.35
   5  -8   2   36.39    2.55
   6  -8   2   22.24    2.22
   7  -8   2   49.18    2.79
   8  -8   2  106.96    4.44
   9  -8   2    3.47    1.01
  10  -8   2   34.95    3.09
  11  -8   2   28.45    2.84
  12  -8   2   32.80    3.12
  13  -8   2   58.14    6.67
  14  -8   2   58.08    7.15
  -7  -7   2    3.06    1.61
  -6  -7   2   47.54    5.73
  -5  -7   2    2.98    1.41
  -4  -7   2  338.33   13.36
  -3  -7   2   12.96    2.59
  -2  -7   2   53.28    4.16
  -1  -7   2   47.16    3.60
   0  -7   2   68.27    4.10
   1  -7   2    6.94    1.38
   2  -7   2   18.02    1.46
   3  -7   2   92.96    3.19
   4  -7   2  139.96    3.99
   5  -7   2  215.83    6.18
   6  -7   2   85.97    3.58
   7  -7   2   77.38    3.36
   8  -7   2   16.92    1.92
   9  -7   2    7.60    1.38
  10  -7   2   88.94    4.07
  11  -7   2   52.93    3.50
  12  -7   2    4.13    1.80
  13  -7   2   32.34    4.83
  14  -7   2    2.72    1.89
  -8  -6   2   54.65    6.40
  -7  -6   2   36.55    5.24
  -6  -6   2   31.07    4.46
  -5  -6   2    0.56    0.88
  -4  -6   2    5.36    1.68
  -3  -6   2   49.53    4.01
  -2  -6   2   27.11    3.22
  -1  -6   2   94.69    3.05
   0  -6   2   17.42    1.18
   1  -6   2  333.67   10.42
   2  -6   2   10.62    1.22
   3  -6   2  139.49    3.86
   4  -6   2   12.32    1.01
   5  -6   2  168.96    3.63
   6  -6   2   16.92    1.75
   7  -6   2   10.79    1.43
   8  -6   2   26.64    2.30
   9  -6   2  153.68    5.22
  10  -6   2   87.42    3.88
  11  -6   2   48.20    2.98
  12  -6   2   33.52    4.76
  13  -6   2   56.39    6.39
  14  -6   2    3.98    2.04
  -9  -5   2   -0.55    1.02
  -8  -5   2   55.30    5.32
  -7  -5   2    2.83    1.62
  -6  -5   2   52.69    4.62
  -5  -5   2   30.62    3.95
  -4  -5   2   53.14    4.27
  -3  -5   2   38.40    1.90
  -2  -5   2  223.01    5.34
  -1  -5   2  164.99    4.11
   0  -5   2    3.02    0.51
   1  -5   2   43.40    2.62
   2  -5   2   59.16    2.27
   3  -5   2    7.62    0.89
   4  -5   2   46.39    1.86
   5  -5   2    4.13    0.54
   6  -5   2  340.46    6.05
   7  -5   2   20.61    1.95
   8  -5   2  114.35    4.09
   9  -5   2   40.97    2.41
  10  -5   2   36.28    2.57
  11  -5   2    1.43    1.03
  12  -5   2    1.16    1.07
  13  -5   2   24.28    4.11
  14  -5   2   42.98    5.96
 -10  -4   2    2.34    1.68
  -9  -4   2   20.39    3.76
  -8  -4   2   23.10    3.82
  -7  -4   2   52.50    4.70
  -6  -4   2   82.93    5.65
  -5  -4   2   39.21    2.09
  -4  -4   2   23.63    1.60
  -3  -4   2  150.52    4.02
  -2  -4   2   12.75    0.94
  -1  -4   2   50.97    1.68
   0  -4   2  110.08    2.70
   1  -4   2  241.69    7.63
   2  -4   2  275.10    6.01
   3  -4   2  144.58    3.71
   4  -4   2  116.35    4.11
   5  -4   2   39.85    1.49
   6  -4   2    7.54    0.79
   7  -4   2   97.50    2.64
   8  -4   2   26.37    1.41
   9  -4   2   70.24    3.07
  10  -4   2    3.14    1.40
  11  -4   2  330.95   13.29
  12  -4   2    4.00    1.84
  13  -4   2   36.24    5.02
  14  -4   2    8.37    2.80
 -11  -3   2   33.78    5.11
 -10  -3   2    1.22    1.34
  -9  -3   2    5.22    1.88
  -8  -3   2   33.67    4.31
  -7  -3   2   89.67    3.68
  -6  -3   2  157.53    4.79
  -5  -3   2  115.03    3.70
  -4  -3   2   93.04    3.05
  -3  -3   2  134.75    3.56
  -2  -3   2    9.42    0.83
  -1  -3   2  144.20    3.19
   0  -3   2   35.48    2.25
   1  -3   2   70.24    3.10
   2  -3   2  270.78    5.86
   3  -3   2   38.80    1.61
   4  -3   2  254.83    5.61
   5  -3   2   58.16    1.81
   6  -3   2  130.88    3.10
   7  -3   2  142.61    3.38
   8  -3   2   34.73    1.58
   9  -3   2   54.02    2.70
  10  -3   2   10.92    2.34
  11  -3   2    4.92    1.71
  12  -3   2   24.63    4.05
  13  -3   2    4.39    2.04
  14  -3   2   43.98    5.86
 -11  -2   2    1.83    1.56
 -10  -2   2  100.94    7.01
  -9  -2   2    2.81    1.25
  -8  -2   2   35.10    2.39
  -7  -2   2    8.97    1.28
  -6  -2   2   24.58    1.70
  -5  -2   2   20.70    1.45
  -4  -2   2    9.02    0.96
  -3  -2   2   58.63    1.98
  -2  -2   2  272.24    5.49
  -1  -2   2  274.96    5.21
   0  -2   2  405.41   11.19
   1  -2   2  177.26    4.15
   2  -2   2  404.57    7.85
   3  -2   2   68.51    2.23
   4  -2   2  267.17    4.79
   5  -2   2    8.41    0.77
   6  -2   2   12.10    0.99
   7  -2   2  225.87    4.55
   8  -2   2   26.52    1.97
   9  -2   2   55.08    2.88
  10  -2   2   81.31    3.77
  11  -2   2   42.68    4.97
  12  -2   2   14.32    2.96
  13  -2   2   54.73    6.44
  14  -2   2   19.38    4.39
 -12  -1   2    7.19    2.47
 -11  -1   2    0.96    1.05
 -10  -1   2    5.27    1.21
  -9  -1   2   27.65    2.44
  -8  -1   2    3.98    0.87
  -7  -1   2   14.77    1.58
  -6  -1   2   10.27    1.19
  -5  -1   2  342.11    7.35
  -4  -1   2   43.10    1.77
  -3  -1   2  252.63    5.27
  -2  -1   2   68.62    1.85
  -1  -1   2  174.11    3.59
   0  -1   2   48.90    2.53
   1  -1   2   51.95    1.75
   2  -1   2  175.81    4.09
   3  -1   2  274.22    5.90
   4  -1   2  143.15    2.91
   5  -1   2   49.65    1.52
   6  -1   2  164.33    3.47
   7  -1   2   93.99    3.49
   8  -1   2   45.81    2.52
   9  -1   2   70.28    3.40
  10  -1   2   18.16    2.14
  11  -1   2    5.72    1.32
  12  -1   2   77.63    6.08
  13  -1   2    0.30    1.36
 -13   0   2    0.70    1.32
 -12   0   2   15.29    3.29
 -11   0   2   16.70    2.08
 -10   0   2  100.38    4.12
  -9   0   2   64.63    3.12
  -8   0   2  117.03    4.03
  -7   0   2   70.78    2.84
  -6   0   2   16.29    1.47
  -5   0   2    4.93    0.74
  -4   0   2  111.30    3.03
  -3   0   2   37.49    1.42
  -2   0   2  412.52   10.11
  -1   0   2   50.72    1.51
   0   0   2  884.52   15.22
   1   0   2   48.02    1.62
   2   0   2  403.68    7.78
   3   0   2   36.98    1.21
   4   0   2  112.08    2.29
   5   0   2    3.51    0.39
   6   0   2   17.78    1.66
   7   0   2   71.46    3.10
   8   0   2  109.71    4.20
   9   0   2   74.71    3.56
  10   0   2   94.34    4.29
  11   0   2   16.85    2.23
  12   0   2   13.36    2.14
  13   0   2   -0.24    1.38
 -12   1   2   83.85    4.13
 -11   1   2    4.62    1.09
 -10   1   2   14.38    1.73
  -9   1   2   79.27    3.31
  -8   1   2   45.64    2.30
  -7   1   2   89.20    3.18
  -6   1   2  165.05    4.40
  -5   1   2   48.00    1.91
  -4   1   2  140.58    3.54
  -3   1   2  273.26    5.64
  -2   1   2  179.52    3.94
  -1   1   2   49.59    1.65
   0   1   2   50.99    1.25
   1   1   2  178.76    3.19
   2   1   2   65.96    2.04
   3   1   2  248.27    5.53
   4   1   2   40.24    1.89
   5   1   2  328.07    7.60
   6   1   2    8.30    1.17
   7   1   2   16.39    1.79
   8   1   2    2.83    0.81
   9   1   2   29.23    2.77
  10   1   2    4.33    1.16
  11   1   2    1.30    0.86
  12   1   2    9.20    2.80
 -13   2   2   56.93    5.81
 -12   2   2   10.43    2.32
 -11   2   2   43.87    2.63
 -10   2   2   85.62    3.58
  -9   2   2   58.29    2.72
  -8   2   2   27.15    1.68
  -7   2   2  218.63    5.53
  -6   2   2   11.28    1.16
  -5   2   2    8.46    0.93
  -4   2   2  275.37    5.79
  -3   2   2   68.10    2.09
  -2   2   2  391.61    7.71
  -1   2   2  183.09    5.71
   0   2   2  420.12    8.02
   1   2   2  274.32    4.54
   2   2   2  271.54    5.74
   3   2   2   58.63    2.16
   4   2   2    8.94    1.10
   5   2   2   19.27    1.76
   6   2   2   24.79    1.91
   7   2   2    7.06    1.24
   8   2   2   30.10    2.77
   9   2   2    2.30    0.91
  10   2   2  110.64    5.01
  11   2   2    2.09    1.57
  12   2   2   20.00    4.20
 -14   3   2   39.97    5.13
 -13   3   2    3.66    1.52
 -12   3   2   21.23    3.35
 -11   3   2    9.67    1.55
 -10   3   2   12.23    1.53
  -9   3   2   51.06    2.47
  -8   3   2   38.65    1.98
  -7   3   2  139.51    4.00
  -6   3   2  136.61    3.73
  -5   3   2   58.34    2.13
  -4   3   2  248.94    5.42
  -3   3   2   37.78    1.55
  -2   3   2  277.23    5.86
  -1   3   2   69.54    2.29
   0   3   2   40.97    1.79
   1   3   2  148.89    2.87
   2   3   2    8.58    0.76
   3   3   2  135.63    3.79
   4   3   2   98.25    3.32
   5   3   2  113.98    3.92
   6   3   2  161.49    5.11
   7   3   2   88.42    3.89
   8   3   2   29.03    2.79
   9   3   2    4.73    2.01
  10   3   2    1.46    1.32
  11   3   2   30.73    5.05
 -14   4   2    6.00    2.14
 -13   4   2   41.27    4.80
 -12   4   2    1.04    1.00
 -11   4   2  323.03   11.91
 -10   4   2    4.25    1.35
  -9   4   2   61.12    2.65
  -8   4   2   22.55    1.58
  -7   4   2   93.92    3.07
  -6   4   2    9.08    1.02
  -5   4   2   40.13    1.75
  -4   4   2  103.35    3.05
  -3   4   2  141.03    3.68
  -2   4   2  274.82    6.04
  -1   4   2  249.23    5.77
   0   4   2  116.09    5.03
   1   4   2   51.52    1.53
   2   4   2   12.24    0.89
   3   4   2  146.43    4.17
   4   4   2   25.33    1.78
   5   4   2   41.33    2.32
   6   4   2   88.11    3.76
   7   4   2   53.62    4.85
   8   4   2   24.75    4.05
   9   4   2   22.07    3.95
  10   4   2    6.65    2.51
 -14   5   2   51.77    5.54
 -13   5   2   23.82    3.56
 -12   5   2    4.19    1.46
 -11   5   2    0.20    0.68
 -10   5   2   29.97    3.40
  -9   5   2   34.01    2.91
  -8   5   2  115.46    3.58
  -7   5   2   18.53    1.33
  -6   5   2  334.87    7.18
  -5   5   2    3.23    0.61
  -4   5   2   45.59    1.88
  -3   5   2    7.71    0.95
  -2   5   2   59.75    2.33
  -1   5   2   41.16    1.99
   0   5   2    4.15    0.51
   1   5   2  168.33    3.59
   2   5   2  220.29    4.61
   3   5   2   36.52    1.98
   4   5   2   56.15    4.51
   5   5   2   38.22    4.51
   6   5   2   55.17    4.83
   7   5   2    1.75    1.32
   8   5   2   60.48    5.72
   9   5   2    0.27    1.11
 -15   6   2   27.25    6.45
 -14   6   2    6.53    2.06
 -13   6   2   53.91    4.53
 -12   6   2   33.75    4.17
 -11   6   2   57.75    4.29
 -10   6   2   82.32    5.00
  -9   6   2  150.88    6.91
  -8   6   2   24.95    2.90
  -7   6   2    9.68    1.04
  -6   6   2   18.54    1.26
  -5   6   2  162.43    4.30
  -4   6   2   12.08    1.22
  -3   6   2  136.18    3.93
  -2   6   2    9.49    1.17
  -1   6   2  330.02    7.74
   0   6   2   16.43    1.11
   1   6   2   97.93    3.72
   2   6   2   24.12    2.25
   3   6   2   46.11    4.05
   4   6   2    3.69    1.65
   5   6   2    0.41    0.75
   6   6   2   32.23    4.66
   7   6   2   28.85    4.64
   8   6   2   48.91    6.20
 -15   7   2   21.92    4.88
 -14   7   2    3.89    1.67
 -13   7   2   30.27    4.08
 -12   7   2    2.98    1.34
 -11   7   2   57.04    4.33
 -10   7   2   84.26    5.15
  -9   7   2    9.25    1.89
  -8   7   2   12.60    2.17
  -7   7   2   70.34    4.24
  -6   7   2   97.14    5.01
  -5   7   2  212.22    5.37
  -4   7   2  137.31    4.07
  -3   7   2   98.69    3.33
  -2   7   2   22.05    1.66
  -1   7   2    7.46    1.17
   0   7   2   69.15    3.13
   1   7   2   45.39    2.63
   2   7   2   52.70    4.34
   3   7   2   11.92    2.58
   4   7   2  320.21   13.36
   5   7   2    0.25    1.04
   6   7   2   40.88    5.46
   7   7   2    2.16    1.58
 -14   8   2   52.13    5.57
 -13   8   2   61.07    4.93
 -12   8   2   34.05    4.27
 -11   8   2   29.78    3.77
 -10   8   2   29.58    3.53
  -9   8   2    4.63    1.38
  -8   8   2  102.67    5.74
  -7   8   2   43.11    3.47
  -6   8   2   19.91    2.65
  -5   8   2   40.52    3.22
  -4   8   2   22.54    1.69
  -3   8   2  116.71    3.89
  -2   8   2   26.86    1.99
  -1   8   2   17.90    1.89
   0   8   2  113.13    4.34
   1   8   2   77.73    3.67
   2   8   2   79.49    5.65
   3   8   2    7.29    2.11
   4   8   2    1.06    1.07
   5   8   2   28.47    4.59
   6   8   2    7.14    2.51
 -14   9   2    0.26    1.12
 -13   9   2   29.57    4.10
 -12   9   2    5.03    1.79
 -11   9   2    0.71    0.82
 -10   9   2   19.30    2.98
  -9   9   2   65.01    4.66
  -8   9   2   77.15    4.98
  -7   9   2   64.40    4.40
  -6   9   2   55.30    3.99
  -5   9   2   67.19    4.43
  -4   9   2   32.13    3.65
  -3   9   2  156.14    4.94
  -2   9   2    7.72    1.30
  -1   9   2    3.59    0.97
   0   9   2   71.06    3.51
   1   9   2   13.35    1.81
   2   9   2   40.21    4.99
   3   9   2   28.56    4.46
   4   9   2   37.56    5.09
   5   9   2   42.45    5.88
 -14  10   2    9.31    2.51
 -13  10   2    1.06    1.09
 -12  10   2  104.19    6.68
 -11  10   2    7.35    2.01
 -10  10   2  106.01    6.27
  -9  10   2   14.76    2.62
  -8  10   2   81.01    5.39
  -7  10   2   14.18    2.56
  -6  10   2    3.16    1.18
  -5  10   2   28.35    3.64
  -4  10   2   86.45    5.50
  -3  10   2   87.82    5.52
  -2  10   2   33.38    2.48
  -1  10   2   21.80    2.34
   0  10   2   98.91    4.43
   1  10   2    3.11    1.00
   2  10   2   12.34    2.93
   3  10   2    6.99    2.37
   4  10   2    8.18    2.61
 -14  11   2   38.81    5.01
 -13  11   2    5.35    1.95
 -12  11   2    1.67    1.18
 -11  11   2   18.67    3.28
 -10  11   2    3.32    1.40
  -9  11   2   33.76    4.21
  -8  11   2    9.25    2.25
  -7  11   2  332.05   12.74
  -6  11   2    0.39    0.77
  -5  11   2   49.64    4.27
  -4  11   2   63.68    4.78
  -3  11   2   38.56    4.50
  -2  11   2    2.02    1.28
  -1  11   2    6.43    1.39
   0  11   2   19.70    2.47
   1  11   2   88.73    6.57
   2  11   2   53.70    6.36
   3  11   2   47.55    6.26
 -13  12   2    9.74    2.57
 -12  12   2   16.25    3.27
 -11  12   2   86.25    6.15
 -10  12   2   13.30    2.82
  -9  12   2   24.94    3.83
  -8  12   2    3.60    1.53
  -7  12   2    1.61    1.34
  -6  12   2   25.02    3.73
  -5  12   2    2.79    1.38
  -4  12   2   27.60    3.93
  -3  12   2    0.72    1.03
  -2  12   2  117.90    7.36
  -1  12   2    1.42    1.28
   0  12   2   10.36    2.62
   1  12   2    1.95    1.63
   2  12   2   27.63    4.76
 -12  13   2    0.90    1.26
 -11  13   2   43.11    5.43
 -10  13   2    2.23    1.44
  -9  13   2   40.89    5.14
  -8  13   2   32.76    4.55
  -7  13   2   53.74    5.69
  -6  13   2   41.16    5.12
  -5  13   2   55.71    5.85
  -4  13   2   28.12    4.25
  -3  13   2    0.47    1.01
  -2  13   2    3.61    1.78
  -1  13   2    8.83    2.60
 -11  14   2   32.92    4.73
 -10  14   2    6.53    2.28
  -9  14   2   43.47    5.41
  -8  14   2    6.44    2.29
  -7  14   2    1.48    1.41
  -6  14   2   63.22    6.59
  -5  14   2    2.03    1.59
  -4  14   2    6.49    2.29
  -3  14   2   39.29    5.36
  -7  15   2   42.49    8.02
   4 -14   3   40.66    4.00
   5 -14   3   16.71    2.64
   6 -14   3   11.79    2.24
   7 -14   3   25.70    3.22
   8 -14   3    1.04    1.07
   9 -14   3   -0.94    0.89
  10 -14   3   12.94    4.90
   1 -13   3   17.17    3.97
   2 -13   3    8.51    1.91
   3 -13   3   31.72    3.55
   4 -13   3   26.07    3.16
   5 -13   3    0.90    0.87
   6 -13   3    2.25    1.09
   7 -13   3   65.09    4.56
   8 -13   3   23.22    3.04
   9 -13   3   53.58    4.62
  10 -13   3    5.78    1.61
  11 -13   3    2.55    1.13
  12 -13   3   10.05    3.31
  -1 -12   3   11.83    3.30
   0 -12   3   68.05    6.08
   1 -12   3   29.98    4.67
   2 -12   3   11.37    2.96
   3 -12   3    2.43    1.53
   4 -12   3  103.54    5.15
   5 -12   3   -0.35    0.71
   6 -12   3   15.84    2.31
   7 -12   3   25.93    3.04
   8 -12   3   10.45    2.04
   9 -12   3   23.71    2.94
  10 -12   3    2.10    1.06
  11 -12   3   14.93    2.46
  12 -12   3   68.94    4.79
  13 -12   3   10.71    3.12
  -2 -11   3    3.57    1.88
  -1 -11   3    8.64    2.54
   0 -11   3   27.73    4.33
   1 -11   3    8.84    2.48
   2 -11   3   37.39    4.95
   3 -11   3   26.17    4.22
   4 -11   3   28.73    4.40
   5 -11   3   84.35    4.42
   6 -11   3   21.87    2.66
   7 -11   3    2.20    0.99
   8 -11   3   19.10    2.51
   9 -11   3   91.54    4.80
  10 -11   3   10.56    1.94
  11 -11   3   33.85    3.55
  12 -11   3   29.17    3.25
  13 -11   3    5.63    1.67
  -4 -10   3   10.91    2.86
  -3 -10   3    5.91    2.21
  -2 -10   3    5.06    1.95
  -1 -10   3   18.57    3.30
   0 -10   3  118.07    5.06
   1 -10   3   30.75    4.42
   2 -10   3  138.55    8.02
   3 -10   3    4.73    1.91
   4 -10   3    2.53    1.31
   5 -10   3   21.87    2.55
   6 -10   3   25.70    2.69
   7 -10   3   16.48    2.14
   8 -10   3   23.35    2.63
   9 -10   3    0.50    0.72
  10 -10   3  119.22    5.40
  11 -10   3    9.22    1.61
  12 -10   3   13.82    2.19
  13 -10   3   25.48    4.48
  -5  -9   3    0.80    1.33
  -4  -9   3   61.74    5.66
  -3  -9   3   22.38    3.97
  -2  -9   3   77.13    5.86
  -1  -9   3    1.16    0.90
   0  -9   3    4.42    1.51
   1  -9   3   39.76    2.73
   2  -9   3   22.34    2.21
   3  -9   3    0.05    0.72
   4  -9   3    4.60    1.55
   5  -9   3  186.47    9.39
   6  -9   3   29.43    2.81
   7  -9   3  110.47    4.72
   8  -9   3   -0.28    0.47
   9  -9   3    2.75    0.99
  10  -9   3   35.41    3.28
  11  -9   3   41.79    3.65
  12  -9   3    1.78    1.02
  13  -9   3   28.25    4.93
  14  -9   3   15.47    3.89
  -6  -8   3    1.21    1.40
  -5  -8   3   21.61    3.98
  -4  -8   3   13.67    3.07
  -3  -8   3   12.20    2.68
  -2  -8   3   25.01    3.71
  -1  -8   3    0.90    0.82
   0  -8   3    6.72    1.70
   1  -8   3  172.88    5.62
   2  -8   3   73.10    3.21
   3  -8   3  206.92    5.92
   4  -8   3   54.42    4.40
   5  -8   3   15.00    2.75
   6  -8   3    5.02    1.12
   7  -8   3   26.03    2.51
   8  -8   3    3.67    1.04
   9  -8   3   39.90    3.31
  10  -8   3  145.85    5.59
  11  -8   3   36.23    3.28
  12  -8   3   99.00    7.20
  13  -8   3    1.61    1.54
  14  -8   3   12.26    3.41
  -7  -7   3    9.81    2.90
  -6  -7   3   58.19    5.64
  -5  -7   3   20.84    3.83
  -4  -7   3    3.32    1.56
  -3  -7   3    9.89    2.34
  -2  -7   3  121.24    6.64
  -1  -7   3   22.22    3.08
   0  -7   3  103.43    5.41
   1  -7   3   81.31    3.32
   2  -7   3   18.44    1.84
   3  -7   3   95.78    3.50
   4  -7   3   18.47    1.50
   5  -7   3    8.87    2.01
   6  -7   3  256.23    7.15
   7  -7   3   89.28    3.89
   8  -7   3  177.44    5.89
   9  -7   3   20.94    2.25
  10  -7   3    3.26    0.95
  11  -7   3   24.30    4.02
  12  -7   3   -0.56    0.75
  13  -7   3    2.47    1.59
  14  -7   3   16.86    3.79
  -8  -6   3   11.11    3.09
  -7  -6   3    1.88    1.49
  -6  -6   3   15.47    3.23
  -5  -6   3   20.06    3.55
  -4  -6   3   22.96    3.52
  -3  -6   3   30.18    3.81
  -2  -6   3    3.95    1.30
  -1  -6   3  249.90    9.56
   0  -6   3   37.49    3.01
   1  -6   3   20.76    2.55
   2  -6   3   60.03    2.64
   3  -6   3  239.42    6.11
   4  -6   3   57.08    2.50
   5  -6   3   54.16    2.37
   6  -6   3   39.25    2.34
   7  -6   3   70.23    3.27
   8  -6   3   71.76    3.32
   9  -6   3    0.51    0.56
  10  -6   3    3.57    1.58
  11  -6   3   78.61    5.99
  12  -6   3   21.31    3.81
  13  -6   3   70.62    6.15
  14  -6   3    3.33    1.98
  -9  -5   3   16.55    3.62
  -8  -5   3    0.24    1.14
  -7  -5   3   -0.58    0.70
  -6  -5   3   88.76    6.22
  -5  -5   3   14.11    2.80
  -4  -5   3  194.76    9.17
  -3  -5   3   13.74    2.45
  -2  -5   3    6.21    1.51
  -1  -5   3   52.35    3.57
   0  -5   3  124.80    5.66
   1  -5   3   17.59    2.25
   2  -5   3   73.67    2.89
   3  -5   3   47.45    2.19
   4  -5   3  270.43    6.46
   5  -5   3  135.74    4.04
   6  -5   3   19.51    1.32
   7  -5   3   15.62    1.73
   8  -5   3  209.60    6.07
   9  -5   3    3.23    0.92
  10  -5   3   17.43    3.09
  11  -5   3   15.35    3.06
  12  -5   3   19.14    3.55
  13  -5   3   17.28    3.65
  14  -5   3    0.60    1.47
  -9  -4   3   29.99    4.89
  -8  -4   3  110.81    7.43
  -7  -4   3   28.26    4.30
  -6  -4   3    2.85    1.38
  -5  -4   3    5.82    1.79
  -4  -4   3   60.65    4.38
  -3  -4   3   17.50    2.57
  -2  -4   3   53.88    3.69
  -1  -4   3  254.32    9.17
   0  -4   3  125.74    5.59
   1  -4   3  369.16   11.41
   2  -4   3    9.90    1.14
   3  -4   3   28.32    1.62
   4  -4   3  134.65    3.99
   5  -4   3   17.79    1.61
   6  -4   3   60.70    2.06
   7  -4   3   99.17    2.84
   8  -4   3   58.53    2.20
   9  -4   3  191.64    9.08
  10  -4   3   18.47    3.17
  11  -4   3    2.72    1.38
  12  -4   3    9.55    2.61
  13  -4   3   58.13    6.60
  14  -4   3    9.14    2.83
 -10  -3   3   26.01    4.38
  -9  -3   3    3.74    1.88
  -8  -3   3   35.01    4.53
  -7  -3   3    0.64    0.87
  -6  -3   3    1.29    0.88
  -5  -3   3  217.61    9.14
  -4  -3   3   92.42    5.27
  -3  -3   3  234.54    8.99
  -2  -3   3   49.78    3.30
  -1  -3   3   26.85    2.28
   0  -3   3   75.63    3.87
   1  -3   3   31.98    1.66
   2  -3   3   77.21    2.70
   3  -3   3   84.88    2.84
   4  -3   3  367.52    8.12
   5  -3   3   74.00    2.89
   6  -3   3  243.29    4.88
   7  -3   3   20.47    1.30
   8  -3   3   14.16    1.66
   9  -3   3   27.60    2.42
  10  -3   3   13.89    2.71
  11  -3   3   18.04    3.28
  12  -3   3   14.25    3.08
  13  -3   3    7.48    2.43
 -11  -2   3   10.57    2.79
 -10  -2   3   10.45    2.73
  -9  -2   3   30.02    4.35
  -8  -2   3  135.77    7.69
  -7  -2   3   21.35    3.29
  -6  -2   3   74.17    4.84
  -5  -2   3   14.19    2.47
  -4  -2   3   63.25    4.00
  -3  -2   3   76.89    2.30
  -2  -2   3    8.41    0.49
  -1  -2   3   72.36    3.82
   0  -2   3  331.56   10.28
   1  -2   3   75.08    2.59
   2  -2   3  315.53    7.08
   3  -2   3   33.77    1.66
   4  -2   3    7.72    1.03
   5  -2   3   46.85    1.67
   6  -2   3   58.03    1.92
   7  -2   3    8.93    1.30
   8  -2   3    5.83    1.14
   9  -2   3  119.66    4.52
  10  -2   3   24.16    2.45
  11  -2   3   99.29    6.52
  12  -2   3    2.86    1.51
  13  -2   3    3.40    1.87
 -12  -1   3   13.06    3.27
 -11  -1   3   26.70    4.20
 -10  -1   3    9.23    2.52
  -9  -1   3   25.65    3.77
  -8  -1   3   39.42    3.74
  -7  -1   3  171.15    8.17
  -6  -1   3   77.10    2.87
  -5  -1   3   20.87    1.40
  -4  -1   3   18.46    1.16
  -3  -1   3  376.28    7.48
  -2  -1   3   31.82    1.12
  -1  -1   3   70.55    1.87
   0  -1   3   50.70    3.05
   1  -1   3   48.84    1.98
   2  -1   3   72.47    2.48
   3  -1   3   77.82    2.64
   4  -1   3   27.16    1.56
   5  -1   3  269.99    4.93
   6  -1   3   48.97    2.38
   7  -1   3  247.79    6.60
   8  -1   3   21.28    2.16
   9  -1   3    0.90    0.62
  10  -1   3    2.23    0.89
  11  -1   3   17.43    2.21
  12  -1   3   11.52    2.77
 -12   0   3   60.46    5.54
 -11   0   3   36.44    4.66
 -10   0   3  125.17    7.32
  -9   0   3    2.98    1.33
  -8   0   3    5.73    1.05
  -7   0   3   93.43    3.42
  -6   0   3   39.91    1.97
  -5   0   3  135.22    3.75
  -4   0   3  135.30    3.61
  -3   0   3   82.09    2.37
  -2   0   3  315.93    6.57
  -1   0   3   51.94    1.76
   0   0   3   -0.01    0.21
   1   0   3   51.92    1.91
   2   0   3  315.84    6.88
   3   0   3   78.84    2.66
   4   0   3  136.02    2.81
   5   0   3  125.97    3.98
   6   0   3   33.81    2.02
   7   0   3   96.52    3.74
   8   0   3    2.45    0.81
   9   0   3    3.47    0.88
  10   0   3  121.89    5.01
  11   0   3   24.72    4.19
 -12   1   3   10.79    2.62
 -11   1   3   15.29    2.97
 -10   1   3    0.23    0.86
  -9   1   3    1.24    0.58
  -8   1   3   27.19    1.92
  -7   1   3  256.65    6.28
  -6   1   3   51.07    2.20
  -5   1   3  269.07    6.14
  -4   1   3   28.72    1.40
  -3   1   3   77.23    2.41
  -2   1   3   71.92    2.27
  -1   1   3   52.14    1.93
   0   1   3   54.48    1.49
   1   1   3   72.80    2.06
   2   1   3   31.69    1.38
   3   1   3  371.03    7.85
   4   1   3   16.30    1.27
   5   1   3   19.24    1.70
   6   1   3   77.10    3.13
   7   1   3  179.11    5.58
   8   1   3   40.48    2.74
   9   1   3   33.24    4.38
  10   1   3    8.02    2.32
  11   1   3   30.04    4.70
  12   1   3   14.48    3.44
 -11   2   3   94.41    4.06
 -10   2   3   25.24    2.34
  -9   2   3  115.50    4.12
  -8   2   3    4.73    0.89
  -7   2   3    9.39    1.18
  -6   2   3   54.21    2.32
  -5   2   3   47.86    2.02
  -4   2   3    8.35    0.92
  -3   2   3   34.60    1.53
  -2   2   3  333.16    6.99
  -1   2   3   68.94    3.21
   0   2   3  329.37    5.36
   1   2   3   78.11    1.79
   2   2   3    8.26    0.78
   3   2   3   76.60    2.58
   4   2   3   63.95    2.43
   5   2   3   14.47    1.48
   6   2   3   71.34    3.05
   7   2   3   18.89    3.23
   8   2   3  137.24    7.90
   9   2   3   33.34    4.74
  10   2   3   12.00    3.01
  11   2   3    5.46    2.35
 -12   3   3   18.93    3.05
 -11   3   3   16.16    1.94
 -10   3   3   15.22    1.79
  -9   3   3   32.54    2.01
  -8   3   3   16.05    1.64
  -7   3   3   19.13    1.70
  -6   3   3  235.69    5.79
  -5   3   3   74.79    2.71
  -4   3   3  378.32    7.93
  -3   3   3   79.02    2.64
  -2   3   3   79.11    2.67
  -1   3   3   34.16    2.26
   0   3   3   80.79    2.88
   1   3   3   26.01    2.06
   2   3   3   49.47    1.70
   3   3   3  213.76    9.07
   4   3   3   94.65    5.63
   5   3   3  210.36    9.34
   6   3   3    2.12    1.27
   7   3   3    7.08    2.22
   8   3   3   27.95    4.25
   9   3   3    3.62    1.81
  10   3   3   28.94    4.57
 -13   4   3   52.48    4.57
 -12   4   3    9.81    2.31
 -11   4   3    3.31    1.29
 -10   4   3   23.27    2.10
  -9   4   3  204.41    5.83
  -8   4   3   57.11    2.59
  -7   4   3   98.49    3.34
  -6   4   3   59.63    2.44
  -5   4   3   19.53    1.61
  -4   4   3  128.18    3.80
  -3   4   3   23.93    1.45
  -2   4   3    8.06    1.06
  -1   4   3  376.53    8.27
   0   4   3  139.29    4.23
   1   4   3  275.55    6.84
   2   4   3   61.52    2.82
   3   4   3   14.24    2.56
   4   4   3   59.70    4.54
   5   4   3    6.68    2.01
   6   4   3    4.39    1.64
   7   4   3   33.89    4.79
   8   4   3  103.72    7.39
   9   4   3   26.34    4.57
  10   4   3   37.90    6.68
 -14   5   3    1.25    1.20
 -13   5   3   20.22    3.32
 -12   5   3   23.96    3.41
 -11   5   3   18.08    2.83
 -10   5   3   22.03    3.00
  -9   5   3    5.86    1.16
  -8   5   3  205.36    5.60
  -7   5   3   17.51    1.59
  -6   5   3   18.62    1.62
  -5   5   3  137.49    3.96
  -4   5   3  256.92    6.25
  -3   5   3   46.96    2.16
  -2   5   3   77.17    3.00
  -1   5   3   16.83    1.63
   0   5   3  137.20    4.41
   1   5   3   46.43    2.50
   2   5   3    7.67    1.30
   3   5   3   13.80    2.63
   4   5   3  200.67    9.71
   5   5   3   21.13    3.65
   6   5   3   83.49    6.23
   7   5   3    0.26    1.04
   8   5   3    0.43    1.22
   9   5   3   17.58    3.95
 -14   6   3    0.11    1.22
 -13   6   3   68.75    5.27
 -12   6   3   17.29    2.95
 -11   6   3   83.80    5.32
 -10   6   3    3.17    1.25
  -9   6   3    0.63    0.66
  -8   6   3   67.56    4.23
  -7   6   3   76.57    2.94
  -6   6   3   38.94    2.01
  -5   6   3   50.05    2.26
  -4   6   3   56.45    2.48
  -3   6   3  234.16    6.09
  -2   6   3   62.99    2.74
  -1   6   3   19.10    1.87
   0   6   3   38.68    2.29
   1   6   3  240.72    6.95
   2   6   3    5.16    1.62
   3   6   3   31.83    4.32
   4   6   3   24.23    3.93
   5   6   3   15.93    3.33
   6   6   3   18.78    3.70
   7   6   3    4.05    2.02
   8   6   3    7.81    2.86
 -14   7   3   20.06    3.52
 -13   7   3    2.82    1.43
 -12   7   3    0.71    0.99
 -11   7   3   31.21    3.80
 -10   7   3    2.94    1.27
  -9   7   3   19.89    2.87
  -8   7   3  190.53    8.03
  -7   7   3   98.18    5.29
  -6   7   3  250.50    6.29
  -5   7   3    9.55    1.23
  -4   7   3   19.25    1.80
  -3   7   3   97.12    3.60
  -2   7   3   17.61    1.78
  -1   7   3   74.30    3.30
   0   7   3   94.69    3.94
   1   7   3   28.83    2.63
   2   7   3  117.04    6.97
   3   7   3   12.83    2.88
   4   7   3    4.09    1.76
   5   7   3   20.55    3.97
   6   7   3   63.11    6.02
   7   7   3   21.81    4.39
 -14   8   3   10.84    2.49
 -13   8   3    0.26    0.91
 -12   8   3   96.32    6.20
 -11   8   3   33.65    4.20
 -10   8   3  131.34    7.02
  -9   8   3   31.41    3.81
  -8   8   3    4.26    1.41
  -7   8   3   20.15    2.88
  -6   8   3    5.86    1.52
  -5   8   3   14.41    1.57
  -4   8   3   61.06    2.84
  -3   8   3  211.88    6.06
  -2   8   3   68.85    3.17
  -1   8   3  174.84    5.73
   0   8   3    3.99    1.03
   1   8   3    0.54    0.53
   2   8   3   18.41    3.24
   3   8   3   16.80    3.23
   4   8   3    9.40    2.76
   5   8   3   14.11    3.38
   6   8   3    0.73    1.38
 -14   9   3   12.90    2.88
 -13   9   3   21.35    3.51
 -12   9   3    4.45    1.76
 -11   9   3   36.19    4.34
 -10   9   3   43.13    4.71
  -9   9   3    2.43    1.11
  -8   9   3   -0.20    0.60
  -7   9   3  115.08    6.32
  -6   9   3   30.42    3.77
  -5   9   3  204.54    8.96
  -4   9   3    8.06    1.29
  -3   9   3    1.46    0.62
  -2   9   3   23.03    2.34
  -1   9   3   43.11    3.01
   0   9   3    4.06    1.13
   1   9   3    1.46    0.78
   2   9   3   90.54    6.49
   3   9   3   20.29    3.77
   4   9   3   62.72    5.96
   5   9   3    0.96    1.30
 -14  10   3   59.54    9.04
 -13  10   3   24.69    3.91
 -12  10   3   12.02    2.72
 -11  10   3   10.75    2.55
 -10  10   3  119.55    7.00
  -9  10   3    0.95    1.00
  -8  10   3   26.25    3.61
  -7  10   3   11.39    2.36
  -6  10   3   19.71    3.18
  -5  10   3   20.35    3.23
  -4  10   3    3.99    1.55
  -3  10   3    4.22    1.12
  -2  10   3  133.84    5.15
  -1  10   3   34.88    3.17
   0  10   3  125.90    5.26
   1  10   3   13.01    2.96
   2  10   3    3.22    1.60
   3  10   3    2.41    1.57
   4  10   3    9.18    3.17
 -13  11   3    6.49    2.17
 -12  11   3   29.54    4.27
 -11  11   3   34.17    4.43
 -10  11   3   11.69    2.52
  -9  11   3   85.45    6.01
  -8  11   3   12.95    2.73
  -7  11   3    2.56    1.40
  -6  11   3   19.64    3.28
  -5  11   3   91.28    6.04
  -4  11   3   30.20    4.06
  -3  11   3   33.65    4.43
  -2  11   3   36.05    4.57
  -1  11   3   10.94    1.76
   0  11   3   35.23    3.37
   1  11   3   10.92    2.91
   2  11   3    2.71    1.80
 -12  12   3   51.03    5.90
 -11  12   3    8.49    2.50
 -10  12   3    1.82    1.13
  -9  12   3   17.93    3.33
  -8  12   3    9.36    2.48
  -7  12   3   14.85    2.98
  -6  12   3   15.58    3.07
  -5  12   3    0.09    0.79
  -4  12   3   84.76    6.32
  -3  12   3    3.07    1.54
  -2  12   3   11.24    2.68
  -1  12   3   35.96    4.95
   0  12   3   62.67    6.68
   1  12   3   10.64    3.09
 -11  13   3    4.99    2.03
 -10  13   3    6.68    2.21
  -9  13   3   53.98    6.07
  -8  13   3   31.12    4.68
  -7  13   3   72.63    5.96
  -6  13   3    1.92    1.57
  -5  13   3    0.90    1.08
  -4  13   3   15.03    3.22
  -3  13   3   32.13    4.71
  -2  13   3    8.07    2.64
  -9  14   3   -0.61    1.03
  -8  14   3    2.98    1.76
  -7  14   3   21.12    3.98
  -6  14   3   21.23    4.08
  -5  14   3   17.93    3.65
   3 -13   4   -0.45    1.41
   4 -13   4    1.15    1.04
   5 -13   4   48.55    4.42
   6 -13   4   69.47    4.93
   7 -13   4    8.37    1.90
   8 -13   4   13.61    2.37
   9 -13   4   11.28    2.23
  10 -13   4    4.40    2.48
   1 -12   4    2.76    1.84
   2 -12   4  110.28    8.07
   3 -12   4    1.41    1.45
   4 -12   4   25.88    4.49
   5 -12   4    1.84    1.08
   6 -12   4   12.88    2.24
   7 -12   4    1.33    1.01
   8 -12   4   15.76    2.49
   9 -12   4   20.66    2.83
  10 -12   4   80.56    4.88
  11 -12   4   59.86    4.97
  12 -12   4    1.03    1.78
  -1 -11   4   53.94    6.65
   0 -11   4    1.75    1.53
   1 -11   4    1.93    1.42
   2 -11   4    7.25    2.47
   3 -11   4   22.68    4.00
   4 -11   4   -0.37    0.86
   5 -11   4   27.20    4.40
   6 -11   4   17.50    2.49
   7 -11   4  197.20    7.51
   8 -11   4    4.99    1.40
   9 -11   4   28.45    3.27
  10 -11   4    3.56    1.27
  11 -11   4    6.56    1.70
  12 -11   4    3.07    1.19
  -3 -10   4    7.45    2.57
  -2 -10   4   89.78    6.60
  -1 -10   4    2.87    1.11
   0 -10   4   14.78    2.19
   1 -10   4   16.81    3.49
   2 -10   4   23.46    4.03
   3 -10   4   57.41    5.22
   4 -10   4   62.78    5.45
   5 -10   4   21.16    3.85
   6 -10   4   19.18    2.49
   7 -10   4   15.62    2.24
   8 -10   4    3.30    1.20
   9 -10   4    5.46    1.39
  10 -10   4   20.57    2.74
  11 -10   4    0.95    0.96
  12 -10   4  104.92    8.00
  -4  -9   4   12.12    3.10
  -3  -9   4   27.20    4.30
  -2  -9   4   32.25    4.49
  -1  -9   4    8.97    2.36
   0  -9   4   76.41    3.92
   1  -9   4    6.56    1.32
   2  -9   4   25.10    3.98
   3  -9   4   83.46    6.11
   4  -9   4    4.02    1.65
   5  -9   4   40.68    4.93
   6  -9   4   17.50    3.40
   7  -9   4   40.67    3.57
   8  -9   4   44.69    3.76
   9  -9   4   67.75    3.87
  10  -9   4   15.24    2.31
  11  -9   4    8.54    2.66
  12  -9   4    4.71    2.27
  13  -9   4    3.90    2.14
  -5  -8   4   18.25    3.85
  -4  -8   4   15.89    3.41
  -3  -8   4    9.56    2.42
  -2  -8   4    3.25    1.44
  -1  -8   4   45.72    4.10
   0  -8   4  147.20    7.49
   1  -8   4   19.69    2.21
   2  -8   4   19.76    2.18
   3  -8   4   33.82    2.46
   4  -8   4   21.28    3.42
   5  -8   4  129.55    7.52
   6  -8   4    2.30    1.28
   7  -8   4    0.72    0.62
   8  -8   4  142.00    5.55
   9  -8   4    6.33    1.42
  10  -8   4   23.20    2.60
  11  -8   4   21.76    4.06
  12  -8   4   19.71    3.96
  13  -8   4   56.98    6.82
  -6  -7   4   11.64    3.13
  -5  -7   4   -0.44    0.89
  -4  -7   4  203.03   10.42
  -3  -7   4   17.73    3.24
  -2  -7   4   40.39    3.83
  -1  -7   4    1.14    0.92
   0  -7   4   19.69    3.06
   1  -7   4   15.15    1.86
   2  -7   4    1.65    0.70
   3  -7   4   31.60    2.31
   4  -7   4  145.05    4.91
   5  -7   4  110.63    6.37
   6  -7   4   54.29    4.43
   7  -7   4   18.33    2.12
   8  -7   4   21.39    2.35
   9  -7   4   22.95    2.53
  10  -7   4   53.67    4.93
  11  -7   4    0.12    1.12
  12  -7   4    1.18    1.14
  13  -7   4   81.18    6.77
  -7  -6   4   70.32    6.40
  -6  -6   4   16.09    3.44
  -5  -6   4   17.56    3.40
  -4  -6   4   20.64    3.53
  -3  -6   4   21.30    3.40
  -2  -6   4    0.81    0.83
  -1  -6   4   57.88    4.31
   0  -6   4    4.77    1.44
   1  -6   4  308.50    8.03
   2  -6   4    1.89    0.70
   3  -6   4    7.19    1.16
   4  -6   4    4.71    1.00
   5  -6   4    9.87    1.39
   6  -6   4    3.22    1.44
   7  -6   4   12.79    1.72
   8  -6   4   15.93    1.84
   9  -6   4   84.78    5.94
  10  -6   4   62.14    5.22
  11  -6   4   27.56    4.21
  12  -6   4   15.21    3.29
  13  -6   4    9.76    2.89
  -8  -5   4   40.02    5.57
  -7  -5   4    2.46    1.55
  -6  -5   4   31.92    4.69
  -5  -5   4   23.96    3.89
  -4  -5   4   56.38    4.59
  -3  -5   4  127.91    7.00
  -2  -5   4  108.83    5.99
  -1  -5   4    9.12    1.93
   0  -5   4    1.10    0.69
   1  -5   4    8.85    1.31
   2  -5   4   37.90    2.21
   3  -5   4   13.21    1.57
   4  -5   4   45.13    2.40
   5  -5   4    0.94    0.52
   6  -5   4  301.09    7.74
   7  -5   4    2.17    0.72
   8  -5   4   37.51    4.41
   9  -5   4    1.67    1.15
  10  -5   4   19.35    3.40
  11  -5   4   11.42    2.68
  12  -5   4    1.95    1.51
  13  -5   4   16.91    3.63
  -9  -4   4    0.51    1.35
  -8  -4   4   21.43    3.90
  -7  -4   4   -0.50    0.73
  -5  -4   4    2.65    1.24
  -4  -4   4   21.39    3.30
  -3  -4   4  141.92    7.18
  -2  -4   4    5.30    1.66
  -1  -4   4   50.00    3.60
   0  -4   4   31.96    2.78
   1  -4   4   57.26    2.69
   2  -4   4  169.86    5.00
   3  -4   4  347.56    8.15
   4  -4   4   37.60    2.13
   5  -4   4   11.11    1.43
   6  -4   4    1.33    0.47
   7  -4   4   32.22    1.74
   8  -4   4   21.63    3.20
   9  -4   4   48.35    4.17
  10  -4   4   25.25    4.01
  11  -4   4  205.31   10.03
  12  -4   4   17.46    3.47
  13  -4   4   14.45    3.30
  -9  -3   4    2.10    1.61
  -8  -3   4   21.60    3.74
  -7  -3   4   64.67    5.25
  -6  -3   4   91.57    6.02
  -5  -3   4   32.04    4.05
  -4  -3   4   25.03    3.35
  -3  -3   4    5.56    1.55
  -2  -3   4    9.99    2.01
  -1  -3   4  333.52   11.58
   0  -3   4   27.79    2.56
   1  -3   4    1.95    0.62
   2  -3   4  146.01    4.55
   3  -3   4   27.33    1.74
   4  -3   4   58.85    2.64
   5  -3   4   35.61    2.08
   6  -3   4    7.70    0.93
   7  -3   4  144.28    4.89
   8  -3   4  131.78    4.81
   9  -3   4   24.01    3.50
  10  -3   4   17.04    3.06
  11  -3   4    8.33    2.28
  12  -3   4   30.18    4.51
 -10  -2   4   98.07    7.30
  -9  -2   4   10.75    2.79
  -8  -2   4   18.20    3.41
  -7  -2   4   21.23    3.31
  -6  -2   4   20.35    3.14
  -5  -2   4    3.23    1.27
  -4  -2   4    1.97    1.06
  -3  -2   4   29.89    3.64
  -2  -2   4  163.24    7.20
  -1  -2   4  148.90    6.63
   0  -2   4   35.80    2.90
   1  -2   4   63.30    2.68
   2  -2   4   35.46    1.94
   3  -2   4    4.54    0.85
   4  -2   4  167.74    4.86
   5  -2   4   11.02    1.47
   6  -2   4    5.88    1.07
   7  -2   4  104.08    3.97
   8  -2   4    1.44    0.71
   9  -2   4   41.50    2.64
  10  -2   4    4.11    1.59
 -11  -1   4    0.20    1.39
 -10  -1   4    1.06    1.23
  -9  -1   4   18.89    3.34
  -8  -1   4    4.51    1.66
  -7  -1   4   22.15    3.30
  -6  -1   4   14.12    2.59
  -5  -1   4  301.75   11.43
  -4  -1   4   10.55    2.05
  -3  -1   4   57.72    3.93
  -2  -1   4    4.33    1.25
  -1  -1   4   69.85    4.16
   0  -1   4   18.90    2.55
   1  -1   4   22.31    1.54
   2  -1   4   62.57    2.58
   3  -1   4  152.37    4.44
   4  -1   4  339.97    7.98
   5  -1   4   39.82    2.21
   6  -1   4   10.59    1.44
   7  -1   4   60.62    2.97
   8  -1   4    1.15    0.62
   9  -1   4   46.77    3.09
  10  -1   4    8.21    2.41
 -12   0   4    3.21    1.96
 -11   0   4    6.28    2.22
 -10   0   4   17.48    3.28
  -9   0   4   69.60    5.31
  -8   0   4  128.88    7.33
  -7   0   4   22.07    3.28
  -6   0   4    2.64    1.14
  -5   0   4    0.32    0.55
  -4   0   4   33.82    2.94
  -3   0   4   31.98    2.77
  -2   0   4   35.85    1.55
  -1   0   4   18.95    1.17
   0   0   4  984.49   14.24
   1   0   4   20.91    1.42
   2   0   4   37.19    1.80
   3   0   4   26.81    1.71
   4   0   4   36.43    1.92
   5   0   4    1.37    0.55
   6   0   4    5.73    1.02
   7   0   4   18.51    3.12
   8   0   4  144.65    7.83
   9   0   4   72.17    5.53
  10   0   4   12.00    2.88
  11   0   4    7.19    2.24
 -12   1   4   60.61    5.54
 -11   1   4    4.16    1.79
 -10   1   4    6.50    2.09
  -9   1   4   42.43    4.05
  -8   1   4    0.09    0.74
  -7   1   4   57.42    4.24
  -6   1   4    5.05    1.50
  -5   1   4   44.58    2.04
  -4   1   4  336.74    7.45
  -3   1   4  151.10    4.09
  -2   1   4   63.15    2.39
  -1   1   4   19.27    1.31
   0   1   4   19.75    1.08
   1   1   4   66.64    2.33
   2   1   4    3.41    0.63
   3   1   4   57.41    2.26
   4   1   4   10.65    2.30
   5   1   4  289.20   11.60
   6   1   4   16.84    3.03
   7   1   4   20.51    3.30
   8   1   4    4.69    1.74
   9   1   4   15.68    3.16
  10   1   4    2.05    1.47
  11   1   4    2.69    1.62
 -11   2   4   22.60    3.67
 -10   2   4    5.05    1.79
  -9   2   4   47.99    4.01
  -8   2   4    2.86    1.21
  -7   2   4  106.36    3.65
  -6   2   4    5.75    0.93
  -5   2   4   13.09    1.36
  -4   2   4  173.53    4.58
  -3   2   4    4.54    0.75
  -2   2   4   36.60    1.84
  -1   2   4   68.29    1.89
   0   2   4   35.03    1.45
   1   2   4  145.87    4.52
   2   2   4  165.11    7.55
   3   2   4   32.39    3.11
   4   2   4    0.96    0.83
   5   2   4    3.45    1.40
   6   2   4   17.99    3.26
   7   2   4   17.80    3.34
   8   2   4   12.98    3.05
   9   2   4    8.82    2.66
  10   2   4  106.51    7.88
 -11   3   4    6.46    1.92
 -10   3   4   22.17    3.37
  -9   3   4   22.85    2.18
  -8   3   4  137.56    4.53
  -7   3   4  150.88    4.62
  -6   3   4    8.72    1.16
  -5   3   4   34.71    1.87
  -4   3   4   62.09    2.52
  -3   3   4   30.34    1.73
  -2   3   4  142.34    4.36
  -1   3   4    3.52    0.74
   0   3   4   26.45    2.17
   1   3   4  343.61    8.31
   2   3   4   16.27    2.74
   3   3   4    6.00    1.77
   4   3   4   27.28    3.77
   5   3   4   33.29    4.35
   6   3   4   95.28    6.41
   7   3   4   54.03    6.28
   8   3   4   28.78    4.53
   9   3   4    1.22    1.25
  10   3   4    0.20    1.24
 -10   4   4   24.74    2.34
  -9   4   4   54.88    2.75
  -8   4   4   21.17    1.98
  -7   4   4   32.27    1.96
  -6   4   4    1.23    0.55
  -5   4   4   11.06    1.28
  -4   4   4   36.67    1.96
  -3   4   4  346.93    8.00
  -2   4   4  169.46    4.92
  -1   4   4   61.75    2.74
   0   4   4   34.43    2.11
   1   4   4   43.95    2.48
   2   4   4    6.40    1.80
   3   4   4  132.26    7.37
   4   4   4   19.60    3.24
   5   4   4    3.08    1.45
   6   4   4   64.18    5.59
   7   4   4   -0.28    0.69
   8   4   4   26.85    4.46
   9   4   4    1.98    1.57
 -11   5   4   18.58    3.03
 -10   5   4   20.50    2.90
  -9   5   4    2.33    0.78
  -8   5   4   33.44    2.30
  -7   5   4    1.21    0.56
  -6   5   4  299.87    7.48
  -5   5   4    1.58    0.59
  -4   5   4   42.12    2.24
  -3   5   4   11.37    1.39
  -2   5   4   33.22    2.02
  -1   5   4   10.23    1.34
   0   5   4    0.50    0.47
   1   5   4    7.31    1.21
   2   5   4  100.74    6.17
   3   5   4  148.08    7.90
   4   5   4   53.05    4.68
   5   5   4   19.03    3.57
   6   5   4   35.83    5.15
   7   5   4   -0.50    0.94
   8   5   4   38.48    5.62
 -13   6   4   14.11    3.53
 -12   6   4   13.81    2.69
 -11   6   4   31.07    3.93
 -10   6   4   63.02    4.51
  -9   6   4   84.28    5.15
  -8   6   4   18.34    1.91
  -7   6   4   16.38    1.74
  -6   6   4    4.49    0.87
  -5   6   4    6.13    1.06
  -4   6   4    6.27    1.07
  -3   6   4    7.15    1.20
  -2   6   4    1.01    0.58
  -1   6   4  319.84    8.12
   0   6   4    6.34    1.22
   1   6   4   58.92    3.18
   2   6   4    2.42    1.28
   3   6   4   18.47    3.44
   4   6   4   20.42    3.61
   5   6   4   14.60    3.19
   6   6   4   17.52    3.72
   7   6   4   58.39    7.06
 -13   7   4   72.41    5.52
 -12   7   4    0.88    1.00
 -11   7   4    0.35    0.88
 -10   7   4   55.47    4.41
  -9   7   4   27.65    3.57
  -8   7   4   27.13    3.50
  -7   7   4   20.63    2.88
  -6   7   4   60.41    2.85
  -5   7   4   99.65    3.84
  -4   7   4  148.65    4.89
  -3   7   4   31.35    2.22
  -2   7   4    2.97    0.88
  -1   7   4   16.08    1.94
   0   7   4   19.41    2.13
   1   7   4    1.16    0.72
   2   7   4   34.66    4.38
   3   7   4   19.91    3.60
   4   7   4  214.49   10.97
   5   7   4    0.99    1.38
   6   7   4    9.10    2.81
 -13   8   4   55.01    5.80
 -12   8   4   33.11    4.46
 -11   8   4   24.84    3.68
 -10   8   4   20.81    3.28
  -9   8   4    6.93    1.84
  -8   8   4  144.38    7.24
  -7   8   4    0.39    0.77
  -6   8   4    2.38    1.12
  -5   8   4  133.57    4.72
  -4   8   4   20.97    2.18
  -3   8   4   35.41    2.78
  -2   8   4   22.86    2.31
  -1   8   4   24.85    2.44
   0   8   4  147.65    5.53
   1   8   4   43.21    3.54
   2   8   4    5.39    2.07
   3   8   4    3.26    1.68
   4   8   4   17.53    3.70
   5   8   4   16.18    3.63
 -13   9   4    3.19    1.64
 -12   9   4    4.14    1.74
 -11   9   4   11.79    2.50
 -10   9   4   18.97    3.31
  -9   9   4   74.17    5.19
  -8   9   4   46.50    4.08
  -7   9   4   43.76    4.71
  -6   9   4   25.57    3.56
  -5   9   4   52.51    4.21
  -4   9   4    3.92    1.02
  -3   9   4   91.07    3.96
  -2   9   4   27.08    2.71
  -1   9   4    7.70    1.48
   0   9   4   67.26    3.74
   1   9   4    4.17    1.22
   2   9   4   37.86    5.23
   3   9   4   24.57    4.46
   4   9   4   18.74    4.07
 -13  10   4    0.51    1.16
 -12  10   4  106.09    7.11
 -11  10   4    0.38    1.08
 -10  10   4   13.95    2.92
  -9  10   4    4.61    1.72
  -8  10   4    4.55    1.69
  -7  10   4   14.08    2.80
  -6  10   4   24.32    3.54
  -5  10   4   30.15    4.05
  -4  10   4   63.83    4.98
  -3  10   4   67.42    3.54
  -2  10   4   20.25    2.37
  -1  10   4   17.49    2.33
   0  10   4   13.77    2.17
   1  10   4    4.55    2.05
   2  10   4   75.87    6.44
   3  10   4    0.42    1.49
 -12  11   4    1.96    1.57
 -11  11   4    5.08    1.94
 -10  11   4    1.51    1.20
  -9  11   4   30.68    4.20
  -8  11   4    6.06    1.93
  -7  11   4  204.54   10.01
  -6  11   4   15.08    3.01
  -5  11   4   30.94    4.19
  -4  11   4    0.10    0.89
  -3  11   4   20.70    3.56
  -2  11   4    7.32    2.21
  -1  11   4    1.81    0.97
   0  11   4    4.08    1.33
   1  11   4   70.97    6.17
 -11  12   4   68.55    5.76
 -10  12   4   86.77    6.47
  -9  12   4   25.28    4.09
  -8  12   4   13.61    3.04
  -7  12   4    0.91    1.23
  -6  12   4    9.31    2.49
  -5  12   4    3.59    1.67
  -4  12   4   24.81    4.11
  -3  12   4    1.98    1.37
  -2  12   4  104.83    7.40
  -1  12   4    1.47    1.42
  -9  13   4   15.89    3.44
  -8  13   4   15.90    3.47
  -7  13   4   10.18    2.80
  -6  13   4   61.87    6.54
  -5  13   4   45.74    5.64
  -4  13   4    4.35    1.91
   4 -12   5   92.22    7.59
   5 -12   5    2.82    1.95
   6 -12   5   13.27    2.45
   7 -12   5   34.60    3.92
   8 -12   5   20.60    2.95
   9 -12   5   12.48    3.31
  10 -12   5    3.21    2.95
   1 -11   5   21.52    4.30
   2 -11   5    4.68    2.05
   3 -11   5    8.09    2.72
   4 -11   5   16.81    3.60
   5 -11   5   36.72    5.69
   6 -11   5   33.26    3.60
   7 -11   5    1.09    0.97
   8 -11   5   23.48    2.96
   9 -11   5   22.62    3.07
  10 -11   5    7.06    1.90
  -2 -10   5    4.86    2.21
  -1 -10   5    3.84    1.35
   0 -10   5  125.71    8.64
   1 -10   5   43.85    5.69
   2 -10   5   81.09    6.62
   3 -10   5    7.90    2.54
   4 -10   5    4.74    2.03
   5 -10   5   20.02    3.85
   6 -10   5   31.48    4.88
   7 -10   5   20.92    2.70
   8 -10   5   20.08    2.70
   9 -10   5    5.94    1.64
  10 -10   5  134.63    6.21
  11 -10   5   17.13    3.94
  -3  -9   5    9.55    2.85
  -2  -9   5   27.22    4.52
  -1  -9   5    8.42    1.75
   0  -9   5    0.96    0.83
   1  -9   5   -0.36    0.53
   2  -9   5    0.74    1.03
   3  -9   5    0.53    1.07
   4  -9   5   12.34    2.80
   5  -9   5   28.56    4.57
   6  -9   5   14.33    3.13
   7  -9   5   61.07    4.19
   8  -9   5   12.59    2.09
   9  -9   5    3.60    1.27
  10  -9   5   34.92    5.08
  11  -9   5    4.50    2.16
  12  -9   5    4.23    2.19
  -4  -8   5   18.56    3.91
  -3  -8   5   22.66    4.16
  -2  -8   5   15.42    3.19
  -1  -8   5   11.99    2.64
   0  -8   5    7.14    1.46
   1  -8   5   82.17    4.06
   2  -8   5   92.22    4.29
   3  -8   5  209.94   10.32
   4  -8   5   26.49    4.10
   5  -8   5    9.66    2.58
   6  -8   5   18.40    3.53
   7  -8   5   19.25    2.49
   8  -8   5    7.65    1.60
   9  -8   5    0.17    0.73
  10  -8   5   96.90    7.04
  11  -8   5   12.57    3.33
  12  -8   5  107.58    7.90
  -5  -7   5   35.96    5.41
  -4  -7   5    0.69    1.19
  -3  -7   5   22.50    3.81
  -2  -7   5   56.13    5.03
  -1  -7   5   13.84    2.72
   0  -7   5    7.80    1.42
   1  -7   5    6.00    1.23
   2  -7   5   17.32    2.14
   3  -7   5   23.97    2.42
   4  -7   5   12.14    2.02
   5  -7   5    2.96    1.36
   6  -7   5  251.02   11.21
   7  -7   5   11.97    1.84
   8  -7   5   80.81    3.98
   9  -7   5    0.50    1.01
  10  -7   5    4.71    1.98
  11  -7   5   15.56    3.50
  12  -7   5    0.12    1.21
  -6  -6   5   13.27    3.30
  -5  -6   5   36.49    5.36
  -4  -6   5   38.34    5.14
  -3  -6   5   12.48    2.79
  -2  -6   5   13.33    2.68
  -1  -6   5  250.74   10.88
   0  -6   5    8.78    1.48
   1  -6   5   29.10    2.69
   2  -6   5   24.41    2.40
   3  -6   5  144.26    5.17
   4  -6   5    0.01    0.43
   5  -6   5   72.66    3.47
   6  -6   5   12.92    2.62
   7  -6   5    7.85    1.49
   8  -6   5   94.76    6.32
   9  -6   5    0.07    0.91
  10  -6   5    3.98    1.74
  11  -6   5   43.06    5.53
  12  -6   5   19.78    3.85
  -7  -5   5    3.38    1.88
  -6  -5   5   31.55    4.87
  -5  -5   5   18.97    3.68
  -4  -5   5   28.07    4.16
  -3  -5   5    7.82    2.18
  -2  -5   5    6.20    1.86
  -1  -5   5   66.71    4.85
   0  -5   5    9.22    2.05
   1  -5   5   11.87    1.63
   2  -5   5   92.63    3.82
   3  -5   5    5.37    1.13
   4  -5   5  178.31    5.73
   5  -5   5    9.27    1.45
   6  -5   5   34.95    2.51
   7  -5   5   13.47    2.63
   8  -5   5  209.57    9.82
   9  -5   5    9.82    2.45
  10  -5   5   22.80    3.80
  11  -5   5   31.13    4.76
  12  -5   5   37.31    5.34
  -8  -4   5  112.96    8.17
  -7  -4   5   21.60    4.10
  -6  -4   5    4.57    1.87
  -5  -4   5   13.72    2.94
  -4  -4   5   22.64    3.54
  -3  -4   5    5.81    1.73
  -2  -4   5    0.84    0.69
  -1  -4   5  165.35    8.09
   0  -4   5    5.18    1.53
   1  -4   5  323.34    8.35
   2  -4   5    3.33    0.88
   3  -4   5    9.65    1.43
   4  -4   5    5.93    1.16
   5  -4   5    9.92    1.45
   6  -4   5   26.49    2.50
   7  -4   5   23.49    2.37
   8  -4   5   21.92    3.48
   9  -4   5   26.25    3.85
  10  -4   5   34.62    4.57
  -9  -3   5    1.03    1.68
  -8  -3   5    6.94    2.32
  -7  -3   5    4.94    2.01
  -6  -3   5    1.53    1.09
  -5  -3   5  209.24   10.16
  -4  -3   5   23.51    3.53
  -3  -3   5  136.87    7.32
  -2  -3   5    0.75    0.74
  -1  -3   5   11.74    2.41
   0  -3   5   59.52    2.94
   1  -3   5   32.92    2.14
   2  -3   5   31.01    2.24
   3  -3   5   60.56    2.95
   4  -3   5  324.24    8.17
   5  -3   5   88.89    3.69
   6  -3   5  148.48    5.08
   7  -3   5   12.55    1.73
   8  -3   5    9.95    1.65
   9  -3   5   11.44    2.80
  -9  -2   5    3.58    1.84
  -8  -2   5   90.91    6.70
  -7  -2   5   -0.01    0.91
  -6  -2   5   96.63    6.42
  -5  -2   5   13.29    2.59
  -4  -2   5   20.31    3.23
  -3  -2   5   84.49    5.45
  -2  -2   5    1.82    0.98
  -1  -2   5   30.25    3.68
   0  -2   5   75.69    3.25
   1  -2   5   47.31    2.47
   2  -2   5   71.41    3.13
   3  -2   5   26.26    1.99
   4  -2   5    2.93    0.80
   5  -2   5    3.41    0.88
   6  -2   5    0.39    0.49
   7  -2   5    3.49    1.15
   8  -2   5   14.37    2.79
   9  -2   5   65.97    5.23
 -10  -1   5   12.66    3.20
  -9  -1   5   38.53    5.15
  -8  -1   5   -0.17    0.81
  -7  -1   5   77.07    5.68
  -6  -1   5    6.01    1.84
  -5  -1   5   28.36    3.66
  -4  -1   5   11.73    2.48
  -3  -1   5  311.59   11.95
  -2  -1   5   28.88    3.69
  -1  -1   5   52.01    3.95
   0  -1   5   79.73    3.19
   1  -1   5   75.33    3.05
   2  -1   5   48.18    2.41
   3  -1   5   29.48    2.04
   4  -1   5   11.98    1.44
   5  -1   5  178.38    8.51
   6  -1   5   64.76    5.00
   7  -1   5  265.81   11.23
   8  -1   5   15.41    3.13
   9  -1   5    7.72    2.22
  10  -1   5    7.94    2.52
 -11   0   5    2.23    1.34
 -10   0   5  122.86    8.02
  -9   0   5    2.55    1.49
  -8   0   5    4.83    1.81
  -7   0   5   10.97    2.61
  -6   0   5    9.16    2.31
  -5   0   5    8.70    2.15
  -4   0   5    4.28    1.56
  -3   0   5   60.11    4.41
  -2   0   5   67.74    4.68
  -1   0   5   70.23    4.73
   0   0   5   -0.17    0.35
   1   0   5   78.85    2.98
   2   0   5   77.50    5.06
   3   0   5   55.66    4.40
   4   0   5    8.32    2.11
   5   0   5    7.47    1.95
   6   0   5   13.87    2.84
   7   0   5   11.36    2.59
   8   0   5    6.87    1.99
   9   0   5    5.80    2.10
  10   0   5  129.85    8.44
 -11   1   5    6.92    2.40
 -10   1   5   10.72    2.75
  -9   1   5    7.68    2.13
  -8   1   5   13.29    2.80
  -7   1   5  252.23   10.94
  -6   1   5   64.09    4.81
  -5   1   5  165.76    8.16
  -4   1   5    9.79    2.12
  -3   1   5   33.01    3.93
  -2   1   5   50.00    3.91
  -1   1   5   73.64    3.07
   0   1   5   72.77    2.88
   1   1   5   47.36    3.89
   2   1   5   23.53    3.39
   3   1   5  314.51   12.41
   4   1   5    9.28    2.21
   5   1   5   22.73    3.59
   6   1   5    7.64    2.13
   7   1   5   68.70    5.63
   8   1   5    0.66    1.11
   9   1   5   46.33    6.04
  10   1   5   15.82    3.71
 -11   2   5   27.57    4.47
 -10   2   5   24.21    3.94
  -9   2   5   63.21    5.13
  -8   2   5   19.49    3.35
  -7   2   5    5.11    1.68
  -6   2   5    0.30    0.77
  -5   2   5    4.54    1.54
  -4   2   5    2.07    1.06
  -3   2   5   28.71    3.67
  -2   2   5   74.63    2.97
  -1   2   5   46.59    2.35
   0   2   5   73.96    3.12
   1   2   5   28.97    3.67
   2   2   5    1.95    1.14
   3   2   5   78.03    5.42
   4   2   5   25.10    3.69
   5   2   5    7.89    2.16
   6   2   5   86.90    6.37
   7   2   5    0.17    0.92
   8   2   5   81.30    6.61
   9   2   5    4.65    2.15
 -11   3   5   25.69    4.22
 -10   3   5   33.52    4.47
  -9   3   5   15.13    3.03
  -8   3   5    7.10    1.94
  -7   3   5   12.23    2.58
  -6   3   5  139.53    7.12
  -5   3   5   88.83    5.46
  -4   3   5  322.88    7.81
  -3   3   5   60.02    2.72
  -2   3   5   30.89    2.05
  -1   3   5   31.83    2.12
   0   3   5   62.81    2.95
   1   3   5    9.14    2.13
   2   3   5    2.55    1.23
   3   3   5  135.07    7.72
   4   3   5   26.99    4.10
   5   3   5  205.84   10.41
   6   3   5    0.82    0.94
   7   3   5    1.96    1.39
   8   3   5    7.27    2.57
   9   3   5    2.09    1.73
 -10   4   5   47.50    5.32
  -9   4   5   28.81    3.87
  -8   4   5   24.54    3.44
  -7   4   5   29.64    3.78
  -6   4   5   24.84    2.18
  -5   4   5    7.67    1.20
  -4   4   5    6.86    1.14
  -3   4   5   13.19    1.55
  -2   4   5    2.95    0.77
  -1   4   5  327.25    8.24
   0   4   5    6.96    1.21
   1   4   5  177.66    5.75
   2   4   5    0.07    0.68
   3   4   5    8.51    2.38
   4   4   5   21.89    3.70
   5   4   5   15.53    3.24
   6   4   5    4.23    1.90
   7   4   5   24.01    4.40
   8   4   5   93.51    7.70
  -9   5   5   13.96    2.72
  -8   5   5  223.08    6.55
  -7   5   5   17.58    1.90
  -6   5   5   32.24    2.56
  -5   5   5    8.28    1.32
  -4   5   5  181.70    5.52
  -3   5   5    2.73    0.75
  -2   5   5   81.99    3.60
  -1   5   5   11.28    1.63
   0   5   5   10.07    1.53
   1   5   5   68.87    3.51
   2   5   5    2.90    1.44
   3   5   5   13.54    2.96
   4   5   5   25.03    4.15
   5   5   5   17.99    3.75
   6   5   5   35.01    5.26
   7   5   5    1.75    1.58
  -9   6   5    0.45    0.81
  -8   6   5   91.86    3.91
  -7   6   5    7.54    1.30
  -6   6   5   11.21    1.55
  -5   6   5   69.15    3.26
  -4   6   5    0.76    0.52
  -3   6   5  138.47    4.92
  -2   6   5   22.42    2.23
  -1   6   5   31.96    2.75
   0   6   5   12.75    1.77
   1   6   5  246.88    7.72
   2   6   5   16.25    3.11
   3   6   5   11.61    2.79
   4   6   5   29.47    4.69
   5   6   5   36.57    5.59
   6   6   5   16.17    3.63
 -10   7   5    4.42    1.65
  -9   7   5    0.80    1.02
  -8   7   5   83.56    5.28
  -7   7   5   11.66    1.62
  -6   7   5  251.97    7.26
  -5   7   5    3.92    0.99
  -4   7   5   12.85    1.75
  -3   7   5   26.28    2.46
  -2   7   5   16.03    1.91
  -1   7   5    5.77    1.26
   0   7   5    9.47    1.60
   1   7   5   12.98    1.90
   2   7   5   65.05    5.61
   3   7   5   18.25    3.58
   4   7   5    1.32    1.57
   5   7   5   30.25    5.19
 -12   8   5  104.45    8.27
 -11   8   5    8.33    2.41
 -10   8   5   81.53    5.73
  -9   8   5    0.33    0.75
  -8   8   5    3.91    1.47
  -7   8   5   12.00    2.48
  -6   8   5   17.46    2.90
  -5   8   5    9.08    1.53
  -4   8   5   23.19    2.36
  -3   8   5  214.12    6.85
  -2   8   5   81.83    4.04
  -1   8   5   77.23    3.94
   0   8   5    7.77    1.58
   1   8   5   13.32    3.11
   2   8   5   13.71    3.14
   3   8   5   21.02    4.10
   4   8   5   21.49    4.18
 -12   9   5   -0.26    1.20
 -11   9   5    5.37    1.96
 -10   9   5   41.97    5.15
  -9   9   5    3.79    1.61
  -8   9   5    5.05    1.80
  -7   9   5   70.74    5.26
  -6   9   5   13.52    2.73
  -5   9   5   37.99    4.46
  -4   9   5   12.96    1.84
  -3   9   5    0.49    0.66
  -2   9   5    0.61    0.65
  -1   9   5   -0.11    0.61
   0   9   5    1.61    0.88
   1   9   5    4.55    1.97
   2   9   5   29.86    4.87
   3   9   5   12.65    3.35
 -12  10   5   10.13    2.79
 -11  10   5   16.22    3.32
 -10  10   5  131.93    7.94
  -9  10   5   11.02    2.71
  -8  10   5   14.68    3.05
  -7  10   5   23.80    3.68
  -6  10   5   38.50    4.84
  -5  10   5   15.43    2.96
  -4  10   5    3.17    1.48
  -3  10   5    4.19    1.19
  -2  10   5   84.39    4.37
  -1  10   5   44.82    3.88
   0  10   5  137.81    5.99
   1  10   5    6.79    2.42
 -11  11   5    2.82    1.68
 -10  11   5   10.61    2.77
  -9  11   5   29.21    4.37
  -8  11   5   29.19    4.34
  -7  11   5    1.26    1.30
  -6  11   5   32.54    4.45
  -5  11   5   48.96    5.55
  -4  11   5   19.68    3.50
  -3  11   5    8.70    2.45
  -2  11   5    2.70    1.59
  -1  11   5   18.10    2.57
   0  11   5    0.46    1.30
  -9  12   5    7.41    2.41
  -8  12   5   20.58    3.83
  -7  12   5   31.83    4.85
  -6  12   5   14.91    3.18
  -5  12   5    6.49    2.37
  -4  12   5   95.79    7.11
   5 -11   6   14.25    5.14
   6 -11   6    0.00    1.41
   7 -11   6  115.68    8.38
   8 -11   6    6.23    2.52
   1 -10   6    3.38    2.84
   2 -10   6   28.21    4.95
   3 -10   6   44.87    6.16
   4 -10   6   52.26    6.69
   5 -10   6   33.03    5.12
   6 -10   6    0.86    1.39
   7 -10   6    9.04    2.04
   8 -10   6   59.51    4.88
   9 -10   6    0.86    1.13
  -1  -9   6    2.32    1.32
   0  -9   6   12.67    2.10
   1  -9   6    3.10    1.95
   2  -9   6    0.94    1.28
   3  -9   6   29.94    4.74
   4  -9   6    7.32    2.34
   5  -9   6   16.26    3.46
   6  -9   6   42.25    5.50
   7  -9   6   12.33    2.15
   8  -9   6   49.87    4.32
   9  -9   6   13.19    3.39
  10  -9   6    6.11    2.41
  -3  -8   6    6.72    3.48
  -2  -8   6   74.08    6.17
  -1  -8   6   52.32    3.89
   0  -8   6   63.11    4.20
   1  -8   6   23.59    2.78
   2  -8   6    5.32    1.41
   3  -8   6   26.04    4.25
   4  -8   6   18.46    3.48
   5  -8   6   27.69    4.29
   6  -8   6    2.46    1.50
   7  -8   6   22.90    3.92
   8  -8   6   69.26    5.93
   9  -8   6    3.76    1.98
  10  -8   6   39.29    5.71
  11  -8   6    9.64    3.07
  -4  -7   6   88.86    8.40
  -3  -7   6    8.35    2.45
  -2  -7   6   10.61    2.69
  -1  -7   6   30.70    3.18
   0  -7   6   18.92    2.49
   1  -7   6   -0.42    0.52
   2  -7   6   12.50    1.95
   3  -7   6   21.12    2.46
   4  -7   6   80.97    5.98
   5  -7   6   40.04    5.12
   6  -7   6   18.44    3.40
   7  -7   6   10.74    2.71
   8  -7   6   21.36    3.82
   9  -7   6   -0.01    1.08
  10  -7   6   39.10    5.22
  11  -7   6   41.47    5.73
  -5  -6   6   -0.30    1.19
  -4  -6   6    4.73    2.05
  -3  -6   6   40.45    5.51
  -2  -6   6    3.63    1.67
  -1  -6   6   19.42    2.45
   0  -6   6    6.88    1.53
   1  -6   6  167.53    6.24
   2  -6   6    6.71    1.42
   3  -6   6   86.69    4.16
   4  -6   6    7.22    1.38
   5  -6   6   34.36    4.44
   6  -6   6    4.44    1.71
   7  -6   6   -0.15    0.89
   8  -6   6    4.64    1.90
   9  -6   6   35.74    4.84
  10  -6   6   65.54    5.63
  -6  -5   6   11.03    4.95
  -5  -5   6   29.12    4.57
  -4  -5   6   16.71    3.47
  -3  -5   6   31.47    4.64
  -2  -5   6   43.67    5.25
  -1  -5   6   25.14    3.92
   0  -5   6    3.48    1.05
   1  -5   6   26.20    2.65
   2  -5   6    9.69    1.61
   3  -5   6    4.63    1.13
   4  -5   6   38.29    3.25
   5  -5   6    4.70    1.15
   6  -5   6  170.53    8.63
   7  -5   6   10.17    2.38
   8  -5   6   23.94    3.79
  -6  -4   6   49.37    6.24
  -5  -4   6    7.17    2.20
  -4  -4   6   19.71    3.52
  -3  -4   6   68.33    5.57
  -2  -4   6    7.74    2.18
  -1  -4   6   45.65    4.26
   0  -4   6   14.28    1.93
   1  -4   6   43.97    3.04
   2  -4   6   37.19    3.07
   3  -4   6   78.37    3.71
   4  -4   6   14.99    1.95
   5  -4   6   28.87    2.72
   6  -4   6    7.47    1.47
   7  -4   6   18.54    3.75
  -7  -3   6   49.60    6.01
  -6  -3   6   43.67    5.47
  -5  -3   6   25.76    4.33
  -4  -3   6   21.61    3.72
  -3  -3   6   91.32    6.28
  -2  -3   6    6.06    1.89
  -1  -3   6   69.89    5.29
   0  -3   6   20.50    2.22
   1  -3   6    4.41    1.03
   2  -3   6  114.59    4.48
   3  -3   6   20.99    2.21
   4  -3   6   46.89    2.79
   5  -3   6    7.73    2.11
   6  -3   6   83.63    5.88
   7  -3   6   85.21    5.99
   8  -3   6   26.03    4.54
  -8  -2   6   33.29    4.94
  -7  -2   6   -0.29    1.04
  -6  -2   6    2.67    1.58
  -5  -2   6   12.93    2.95
  -4  -2   6    8.28    2.23
  -3  -2   6    8.80    2.28
  -2  -2   6   31.26    4.29
  -1  -2   6  114.16    4.48
   0  -2   6   63.06    3.19
   1  -2   6   84.40    3.66
   2  -2   6   70.57    3.34
   3  -2   6    3.05    1.31
   4  -2   6   41.37    4.76
   5  -2   6    2.58    1.32
   6  -2   6    6.51    2.00
   7  -2   6   52.98    4.76
   8  -2   6    0.79    1.09
  -9  -1   6    7.35    2.45
  -8  -1   6    3.27    1.62
  -7  -1   6   20.27    3.70
  -6  -1   6    0.06    0.75
  -5  -1   6  159.18    8.90
  -4  -1   6   24.65    3.93
  -3  -1   6   47.40    4.35
  -2  -1   6    6.47    1.97
  -1  -1   6   83.76    3.66
   0  -1   6   15.92    2.93
   1  -1   6   22.11    3.49
   2  -1   6   76.52    5.44
   3  -1   6  104.03    6.54
   4  -1   6   74.14    5.50
   5  -1   6   44.39    5.30
   6  -1   6   39.22    4.91
   7  -1   6   18.06    3.46
   8  -1   6   30.23    4.54
   9  -1   6   48.72    6.00
  -9   0   6   12.36    3.04
  -8   0   6   61.78    5.51
  -7   0   6   14.08    3.02
  -6   0   6    6.04    1.92
  -5   0   6    3.69    1.42
  -4   0   6   13.14    2.65
  -3   0   6   14.74    2.85
  -2   0   6   65.55    5.05
  -1   0   6   20.56    3.43
   0   0   6  148.15    7.90
   1   0   6   20.12    3.38
   2   0   6   66.37    5.15
   3   0   6   16.55    3.14
   4   0   6   11.73    2.70
   5   0   6    2.23    1.33
   6   0   6    7.14    2.29
   7   0   6   12.81    3.11
   8   0   6   63.11    5.74
   9   0   6   13.11    3.34
  10   0   6   23.82    4.51
 -10   1   6    2.43    1.68
  -9   1   6   43.99    5.55
  -8   1   6   39.36    5.09
  -7   1   6   13.01    2.96
  -6   1   6   34.40    4.46
  -5   1   6   33.72    4.32
  -4   1   6   68.90    5.32
  -3   1   6  107.48    6.68
  -2   1   6   80.47    5.63
  -1   1   6   20.94    3.32
   0   1   6   15.26    2.97
   1   1   6   79.50    5.71
   2   1   6    1.22    1.11
   3   1   6   45.62    5.38
   4   1   6   29.48    4.33
   5   1   6  183.66    9.69
   6   1   6    0.32    0.77
   7   1   6   25.02    4.30
   8   1   6    2.44    1.51
   9   1   6    5.02    2.21
 -10   2   6   58.48    5.48
  -9   2   6   14.69    3.24
  -8   2   6    1.91    1.28
  -7   2   6   48.04    4.55
  -6   2   6    9.66    2.32
  -5   2   6    3.53    1.49
  -4   2   6   39.80    4.66
  -3   2   6    5.42    1.82
  -2   2   6   75.85    5.35
  -1   2   6   80.72    5.66
   0   2   6   61.77    5.05
   1   2   6  107.66    6.88
   2   2   6   43.32    5.31
   3   2   6    7.84    2.24
   4   2   6    5.89    1.99
   5   2   6   12.11    2.88
   6   2   6    5.24    1.97
   7   2   6   -0.56    1.05
   8   2   6   35.97    5.51
 -10   3   6    9.15    2.59
  -9   3   6   32.93    4.55
  -8   3   6   39.28    4.81
  -7   3   6   77.31    5.73
  -6   3   6   87.53    6.06
  -5   3   6    9.61    2.33
  -4   3   6   55.47    4.56
  -3   3   6   21.81    3.47
  -2   3   6  111.86    6.74
  -1   3   6    3.10    1.50
   0   3   6   20.49    2.05
   1   3   6   77.09    5.85
   2   3   6    5.83    1.91
   3   3   6   86.61    6.39
   4   3   6   14.00    3.18
   5   3   6   23.65    4.06
   6   3   6   22.29    4.27
   7   3   6   41.70    5.79
 -10   4   6    2.24    1.44
  -9   4   6   13.93    2.92
  -8   4   6   22.57    3.83
  -7   4   6   16.10    3.08
  -6   4   6    8.16    2.18
  -5   4   6   31.84    4.28
  -4   4   6   18.47    3.27
  -3   4   6   73.50    5.36
  -2   4   6   37.44    3.11
  -1   4   6   45.31    2.91
   0   4   6   17.76    2.08
   1   4   6   44.85    5.31
   2   4   6    7.60    2.32
   3   4   6   66.19    5.78
   4   4   6   22.84    4.14
   5   4   6    7.59    2.45
   6   4   6   52.61    6.40
  -9   5   6    8.93    2.45
  -8   5   6   27.89    4.09
  -7   5   6   11.87    2.64
  -6   5   6  183.89    8.98
  -5   5   6    2.91    1.39
  -4   5   6   47.48    4.27
  -3   5   6    2.85    0.82
  -2   5   6    8.81    1.47
  -1   5   6   30.66    2.83
   0   5   6    4.19    1.13
   1   5   6   27.16    4.24
   2   5   6   41.17    5.38
   3   5   6   33.75    4.98
   4   5   6   11.33    2.93
   5   5   6   31.65    5.14
   6   5   6   15.70    5.49
  -8   6   6    3.03    1.38
  -7   6   6    1.07    1.08
  -6   6   6    6.06    1.92
  -5   6   6   36.22    3.02
  -4   6   6    6.62    1.27
  -3   6   6   85.59    3.96
  -2   6   6    7.18    1.38
  -1   6   6  178.70    6.20
   0   6   6    5.29    1.26
   1   6   6   17.81    3.55
   2   6   6    1.81    1.46
   3   6   6   47.15    6.09
   4   6   6    3.82    1.96
  -7   7   6   10.74    3.10
  -6   7   6   21.82    2.33
  -5   7   6   42.44    3.02
  -4   7   6   68.23    3.62
  -3   7   6   18.42    2.24
  -2   7   6   10.17    1.65
  -1   7   6    0.92    0.70
   0   7   6   17.41    2.33
   1   7   6   29.94    4.58
   2   7   6    9.70    2.79
   3   7   6    9.15    2.71
  -8   8   6   75.83    5.45
  -7   8   6   36.94    4.45
  -6   8   6    2.37    1.27
  -5   8   6   32.04    2.99
  -4   8   6   20.50    2.32
  -3   8   6   26.19    2.81
  -2   8   6    3.68    1.16
  -1   8   6   19.97    2.45
   0   8   6   65.10    3.87
   1   8   6   54.73    6.64
   2   8   6   48.34    5.97
  -9   9   6   15.22    3.16
  -8   9   6   49.12    5.41
  -7   9   6   15.58    3.09
  -6   9   6   39.40    4.71
  -5   9   6   15.36    2.93
  -4   9   6    4.66    1.30
  -3   9   6   33.34    3.20
  -2   9   6    0.47    0.75
  -1   9   6    3.47    1.21
   0   9   6   16.99    3.62
   1   9   6    1.63    1.47
 -10  10   6   32.67    4.86
  -9  10   6    1.62    1.60
  -8  10   6   60.77    6.35
  -7  10   6    9.93    2.63
  -6  10   6    4.79    1.90
  -5  10   6   35.64    4.91
  -4  10   6   46.06    5.42
  -3  10   6   49.63    5.51
  -2  10   6   36.08    3.43
  -1  10   6    5.23    1.43
   0  10   6   27.95    6.87
  -8  11   6    5.68    2.17
  -7  11   6  103.91    7.19
  -6  11   6    1.00    1.39
  -5  11   6   17.03    3.61
  -4  11   6   34.44    4.90
   3  -9   7   -0.72    1.23
   4  -9   7    3.41    2.18
   5  -9   7   50.27    6.35
   6  -9   7    8.56    2.72
   7  -9   7   32.27    3.88
   0  -8   7    3.53    1.40
   1  -8   7   64.94    4.74
   2  -8   7   13.93    3.30
   3  -8   7   81.34    6.67
   4  -8   7   11.72    3.06
   5  -8   7   -0.51    0.93
   6  -8   7    8.47    2.60
   7  -8   7    8.48    2.73
   8  -8   7    1.03    1.47
  -2  -7   7   33.10    7.86
  -1  -7   7    7.25    1.78
   0  -7   7   14.92    2.25
   1  -7   7    7.63    1.74
   2  -7   7    5.03    1.46
   3  -7   7   12.64    2.92
   4  -7   7    0.49    1.20
   5  -7   7    2.03    1.42
   6  -7   7   71.75    6.02
   7  -7   7   17.80    3.55
  -3  -6   7    9.53    3.25
  -2  -6   7    7.47    1.84
  -1  -6   7   73.75    4.37
   0  -6   7   19.00    2.59
   1  -6   7    7.50    1.66
   2  -6   7   11.64    1.96
   3  -6   7   75.53    4.12
   4  -6   7    2.69    1.15
   5  -6   7   21.79    3.59
   6  -6   7   18.00    3.55
  -4  -5   7   75.20    9.00
  -3  -5   7   -0.48    1.03
  -2  -5   7    3.25    1.19
  -1  -5   7   23.39    2.70
   0  -5   7   19.31    2.52
   1  -5   7    5.97    1.39
   2  -5   7   53.04    3.66
   3  -5   7    3.99    1.20
   4  -5   7   75.32    4.15
   5  -5   7   22.43    3.91
  -5  -4   7    8.02    3.93
  -4  -4   7   14.65    3.45
  -3  -4   7    0.16    1.16
  -2  -4   7    4.96    1.32
  -1  -4   7   78.60    4.19
   0  -4   7   13.84    2.07
   1  -4   7  138.02    5.54
   2  -4   7    3.39    1.46
   3  -4   7    1.06    1.09
   4  -4   7   13.81    3.00
   5  -4   7    5.74    2.06
   6  -4   7   11.35    2.88
  -5  -3   7   84.39    6.94
  -4  -3   7   13.75    3.23
  -3  -3   7   74.89    6.27
  -2  -3   7    4.63    1.25
  -1  -3   7    0.58    0.72
   0  -3   7   10.52    2.54
   1  -3   7    0.95    1.05
   2  -3   7    0.03    0.83
   3  -3   7    6.67    2.07
   4  -3   7  128.99    7.93
   5  -3   7   55.00    5.09
   6  -3   7   78.72    6.22
   7  -3   7    1.17    1.32
  -6  -2   7   13.99    3.40
  -5  -2   7    8.11    2.54
  -4  -2   7    8.30    2.49
  -3  -2   7   49.11    5.83
  -2  -2   7    2.75    1.54
  -1  -2   7   -0.03    0.84
   0  -2   7   53.59    6.03
   1  -2   7   17.34    3.33
   2  -2   7   64.86    5.35
   3  -2   7    4.75    1.76
   4  -2   7    3.39    1.72
   5  -2   7    3.10    1.66
   6  -2   7    2.55    1.52
   7  -2   7    2.15    1.51
   8  -2   7    9.55    2.60
  -7  -1   7   73.79    6.57
  -6  -1   7    8.75    2.66
  -5  -1   7    6.24    2.25
  -4  -1   7    3.45    1.64
  -3  -1   7  132.43    8.32
  -2  -1   7    2.47    1.45
  -1  -1   7   21.82    3.72
   0  -1   7   41.82    5.30
   1  -1   7   29.68    4.34
   2  -1   7   19.21    3.52
   3  -1   7   -0.16    0.81
   4  -1   7    2.98    1.58
   5  -1   7   72.92    6.11
   6  -1   7   24.34    4.31
   7  -1   7   76.07    6.52
   8  -1   7   10.53    2.89
  -7   0   7   16.25    3.60
  -6   0   7   13.50    3.08
  -5   0   7   17.82    3.53
  -4   0   7   17.07    3.38
  -3   0   7   11.30    2.82
  -2   0   7   57.12    5.16
  -1   0   7   35.74    4.81
   0   0   7   -0.33    0.78
   1   0   7   41.86    5.35
   2   0   7   58.18    5.19
   3   0   7   13.94    3.02
   4   0   7   17.85    3.48
   5   0   7   17.76    3.50
   7   0   7   18.90    3.99
   8   0   7    1.52    1.62
  -8   1   7    5.97    2.26
  -7   1   7   84.04    6.61
  -6   1   7   22.19    4.05
  -5   1   7   73.94    6.15
  -4   1   7    0.16    0.82
  -3   1   7   -0.15    1.02
  -2   1   7   10.51    2.62
  -1   1   7   36.53    4.81
   0   1   7   32.53    4.62
   1   1   7   19.96    3.66
   2   1   7    3.20    1.57
   3   1   7  131.94    8.47
   4   1   7    1.85    1.47
   5   1   7    7.77    2.54
   6   1   7   12.38    3.16
   7   1   7   72.65    6.58
  -9   2   7   36.05    5.38
  -8   2   7    8.61    2.62
  -7   2   7    2.95    1.77
  -6   2   7    5.54    2.01
  -5   2   7    4.80    1.88
  -4   2   7    2.15    1.25
  -3   2   7    1.18    1.24
  -2   2   7   52.02    4.94
  -1   2   7   18.40    3.50
   0   2   7   62.35    5.40
   1   2   7    0.80    1.12
   2   2   7    4.20    2.06
   3   2   7   49.59    6.01
   4   2   7   13.02    3.21
   5   2   7    3.19    1.87
   6   2   7   10.96    3.01
  -9   3   7   13.37    3.30
  -8   3   7   -0.26    1.31
  -7   3   7    2.09    1.35
  -6   3   7   77.74    6.24
  -5   3   7   48.80    5.68
  -4   3   7  147.62    8.56
  -3   3   7   12.22    2.84
  -2   3   7    0.69    1.00
  -1   3   7    2.49    1.55
   0   3   7   12.81    3.18
   1   3   7    0.00    0.90
   2   3   7    3.34    1.68
   3   3   7   86.22    6.87
   4   3   7   17.03    3.88
   5   3   7   85.13    7.08
  -9   4   7   56.34    6.34
  -8   4   7   21.33    3.84
  -7   4   7   18.46    3.64
  -6   4   7    7.26    2.34
  -5   4   7    6.93    2.27
  -4   4   7   13.77    3.06
  -3   4   7   -0.48    0.73
  -2   4   7    2.71    1.47
  -1   4   7  141.68    8.65
   0   4   7   16.82    3.58
   1   4   7   75.06    6.29
   2   4   7    1.30    1.27
   3   4   7   -0.73    0.98
   4   4   7   22.41    4.18
   5   4   7    5.17    3.53
  -8   5   7   76.96    6.20
  -7   5   7    5.15    2.07
  -6   5   7    3.13    1.76
  -5   5   7   20.64    3.64
  -4   5   7   82.83    6.32
  -3   5   7    6.81    2.07
  -2   5   7   50.69    5.95
  -1   5   7    7.71    2.58
   0   5   7   17.48    3.61
   1   5   7   21.49    4.11
   2   5   7    1.30    1.48
   3   5   7    0.62    1.25
  -7   6   7    8.81    2.43
  -6   6   7   15.90    3.31
  -5   6   7   21.22    3.79
  -4   6   7    4.29    1.84
  -3   6   7   73.39    6.14
  -2   6   7   12.15    2.96
  -1   6   7    5.20    2.07
   0   6   7   20.21    3.98
   1   6   7   84.75    6.95
   2   6   7   13.43    3.34
  -6   7   7   80.84    6.26
  -5   7   7    3.92    1.80
  -4   7   7    1.83    1.30
  -3   7   7   15.25    3.32
  -2   7   7    7.00    2.33
  -1   7   7    8.56    1.67
   0   7   7   12.47    3.30
   1   7   7    6.89    2.47
  -5   8   7    1.19    1.20
  -4   8   7   17.04    3.47
  -3   8   7   76.68    4.25
  -2   8   7   13.39    2.15
  -1   8   7   89.36    4.69
   0   8   7    0.80    1.48
  -4   9   7    4.03    1.32
  -3   9   7    0.07    0.85
  -2   9   7    2.42    1.14
   1  -6   8   98.19    7.52
   2  -6   8    2.17    1.55
   3  -6   8   32.80    5.89
  -1  -5   8    1.43    2.18
   0  -5   8    2.92    1.82
   1  -5   8    5.22    2.18
   2  -5   8    5.71    2.28
   3  -5   8   -0.87    1.03
   4  -5   8   34.41    5.12
  -2  -4   8   -0.33    1.47
  -1  -4   8   30.58    5.09
   0  -4   8    9.95    3.00
   1  -4   8   11.70    3.05
   2  -4   8   37.58    5.39
   3  -4   8   83.15    6.72
   4  -4   8    6.02    2.15
   5  -4   8   11.52    3.19
  -2  -3   8    0.49    1.22
  -1  -3   8   78.83    6.74
   0  -3   8   10.56    2.85
   1  -3   8    3.19    1.87
   2  -3   8   46.76    5.90
   3  -3   8   10.79    2.99
   4  -3   8   12.38    3.30
   5  -3   8    8.89    2.74
   6  -3   8   26.65    4.81
  -3  -2   8    8.22    2.58
  -2  -2   8   28.77    4.67
  -1  -2   8   42.74    5.67
   0  -2   8   11.93    2.96
   1  -2   8   32.19    4.98
   2  -2   8    5.51    2.05
   3  -2   8    2.13    1.49
   4  -2   8   33.95    5.27
   5  -2   8    1.40    1.46
   6  -2   8    0.75    1.37
  -4  -1   8    8.92    2.77
  -3  -1   8   12.26    3.25
  -2  -1   8    1.19    1.36
  -1  -1   8   24.12    4.26
   0  -1   8    4.21    2.01
   1  -1   8    3.03    1.82
   2  -1   8   38.55    5.42
   3  -1   8   48.49    6.31
   4  -1   8   85.48    7.12
   5  -1   8   29.71    5.15
   6  -1   8    0.54    1.42
  -5   0   8    1.64    1.53
  -4   0   8    8.23    2.70
  -3   0   8    7.63    2.45
  -2   0   8    5.26    2.12
  -1   0   8    2.04    1.57
   0   0   8  212.12   11.21
   1   0   8    0.48    1.34
   2   0   8    5.32    2.10
   3   0   8   10.53    3.05
   4   0   8    9.92    2.87
   5   0   8    1.31    1.64
  -5   1   8   28.90    4.83
  -4   1   8   84.27    6.93
  -3   1   8   43.59    5.75
  -2   1   8   25.53    4.38
  -1   1   8    2.63    1.64
   0   1   8    5.15    2.27
   1   1   8   35.89    5.30
   2   1   8    0.53    1.17
   3   1   8   14.83    3.52
   4   1   8    4.98    2.14
  -6   2   8   -0.82    1.30
  -5   2   8    1.93    1.55
  -4   2   8   34.09    5.34
  -3   2   8    0.38    1.31
  -2   2   8    5.59    2.09
  -1   2   8   43.27    5.75
   0   2   8    5.62    2.23
   1   2   8   46.67    6.11
   2   2   8   31.59    4.94
   3   2   8    7.00    2.62
  -6   3   8   24.74    4.39
  -5   3   8    5.25    2.22
  -4   3   8    9.29    2.82
  -3   3   8    5.66    2.12
  -2   3   8   58.02    6.93
  -1   3   8    1.56    1.41
   0   3   8   12.81    3.24
   1   3   8   91.98    7.44
   2   3   8   -0.23    1.27
  -6   4   8    0.51    1.32
  -5   4   8    6.27    2.21
  -4   4   8   10.08    2.85
  -3   4   8   88.42    6.99
  -2   4   8   29.21    4.74
  -1   4   8   12.21    3.23
   0   4   8    9.02    2.77
   1   4   8   27.60    4.75
  -6   5   8   90.22    7.28
  -5   5   8    0.61    1.52
  -4   5   8   33.97    5.14
  -3   5   8    0.22    1.37
  -2   5   8    6.63    2.47
  -1   5   8    5.81    2.32
   0   5   8    0.58    1.26
  -5   6   8   -0.32    1.32
  -4   6   8    2.08    1.77
  -3   6   8   25.24    4.51
  -2   6   8    2.35    1.55
   0   0   0    0.00    0.00
;
_shelx_hkl_checksum              97352
loop_
_space_group_symop_operation_xyz
'x, y, z'
'-y, x-y, z'
'-x+y, -x, z'
'-x, -y, z+1/2'
'y, -x+y, z+1/2'
'x-y, x, z+1/2'
loop_
_atom_site_label
_atom_site_type_symbol
_atom_site_fract_x
_atom_site_fract_y
_atom_site_fract_z
_atom_site_U_iso_or_equiv
_atom_site_adp_type
_atom_site_occupancy
_atom_site_site_symmetry_order
_atom_site_calc_flag
_atom_site_refinement_flags_posn
_atom_site_refinement_flags_adp
_atom_site_refinement_flags_occupancy
_atom_site_disorder_assembly
_atom_site_disorder_group
Pr Pr 0.12820(3) 0.35593(3) 0.48389(13) 0.00993(8) Uani 1 1 d . . . . .
CoA Co 0.0000 0.0000 0.2515(10) 0.0067(6) Uani 0.442(3) 3 d S T P . .
CoB Co 0.0000 0.0000 0.490(8) 0.0067(6) Uani 0.058(3) 3 d S T P . .
Ge Ge 0.3333 0.6667 0.9022(2) 0.0107(2) Uani 1 3 d S T P . .
S1 S 0.24252(18) 0.15493(17) 0.5000(5) 0.0146(3) Uani 1 1 d . . . . .
S2 S 0.52023(19) 0.10276(19) 0.2517(3) 0.0111(3) Uani 1 1 d . . . . .
S3 S 0.3333 0.6667 0.2783(5) 0.0117(5) Uani 1 3 d S T P . .
loop_
_atom_site_aniso_label
_atom_site_aniso_U_11
_atom_site_aniso_U_22
_atom_site_aniso_U_33
_atom_site_aniso_U_23
_atom_site_aniso_U_13
_atom_site_aniso_U_12
Pr 0.01035(14) 0.00870(13) 0.01077(14) -0.0007(2) -0.0007(2) 0.00479(11)
CoA 0.0053(7) 0.0053(7) 0.0096(16) 0.000 0.000 0.0027(3)
CoB 0.0053(7) 0.0053(7) 0.0096(16) 0.000 0.000 0.0027(3)
Ge 0.0118(3) 0.0118(3) 0.0085(5) 0.000 0.000 0.00590(17)
S1 0.0141(6) 0.0112(6) 0.0202(8) -0.0028(9) -0.0015(9) 0.0076(5)
S2 0.0100(7) 0.0110(7) 0.0110(7) -0.0003(6) 0.0004(6) 0.0042(6)
S3 0.0133(8) 0.0133(8) 0.0085(12) 0.000 0.000 0.0066(4)
loop_
_atom_type_symbol
_atom_type_description
_atom_type_scat_dispersion_real
_atom_type_scat_dispersion_imag
_atom_type_scat_source
S S 0.1246 0.1234 'International Tables Vol C Tables 4.2.6.8 and 6.1.1.4'
Co Co 0.3494 0.9721 'International Tables Vol C Tables 4.2.6.8 and 6.1.1.4'
Ge Ge 0.1547 1.8001 'International Tables Vol C Tables 4.2.6.8 and 6.1.1.4'
Pr Pr -0.2180 2.8214 'International Tables Vol C Tables 4.2.6.8 and 6.1.1.4'
loop_
_geom_angle_atom_site_label_1
_geom_angle_atom_site_label_2
_geom_angle_atom_site_label_3
_geom_angle
_geom_angle_site_symmetry_1
_geom_angle_site_symmetry_3
S1 Pr S1 83.58(6) 2 .
S1 Pr S2 107.41(6) 2 5_565
S1 Pr S2 142.57(7) . 5_565
S1 Pr S1 77.24(6) 2 6_554
S1 Pr S1 77.17(6) . 6_554
S2 Pr S1 139.64(5) 5_565 6_554
S1 Pr S2 140.33(7) 2 6
S1 Pr S2 74.95(5) . 6
S2 Pr S2 74.40(7) 5_565 6
S1 Pr S2 127.73(5) 6_554 6
S1 Pr S3 149.75(6) 2 .
S1 Pr S3 116.87(4) . .
S2 Pr S3 70.72(5) 5_565 .
S1 Pr S3 85.58(6) 6_554 .
S2 Pr S3 69.48(5) 6 .
S1 Pr S2 72.04(5) 2 2
S1 Pr S2 143.99(6) . 2
S2 Pr S2 71.79(3) 5_565 2
S1 Pr S2 71.94(5) 6_554 2
S2 Pr S2 139.69(5) 6 2
S3 Pr S2 79.06(4) . 2
S1 Pr S1 74.36(6) 2 6
S1 Pr S1 74.30(6) . 6
S2 Pr S1 74.63(5) 5_565 6
S1 Pr S1 141.49(6) 6_554 6
S2 Pr S1 67.94(5) 6 6
S3 Pr S1 130.55(6) . 6
S2 Pr S1 121.52(5) 2 6
S1 Pr CoB 41.84(5) 2 .
S1 Pr CoB 41.82(5) . .
S2 Pr CoB 138.8(7) 5_565 .
S1 Pr CoB 70.8(8) 6_554 .
S2 Pr CoB 111.1(5) 6 .
S3 Pr CoB 150.4(7) . .
S2 Pr CoB 108.7(4) 2 .
S1 Pr CoB 70.7(8) 6 .
S1 Pr CoA 47.74(6) 2 .
S1 Pr CoA 47.72(6) . .
S2 Pr CoA 155.14(6) 5_565 .
S1 Pr CoA 47.17(9) 6_554 .
S2 Pr CoA 122.64(5) 6 .
S3 Pr CoA 130.02(10) . .
S2 Pr CoA 96.76(6) 2 .
S1 Pr CoA 94.32(9) 6 .
CoB Pr CoA 23.6(9) . .
S1 Pr CoA 46.87(5) 2 4
S1 Pr CoA 46.86(5) . 4
S2 Pr CoA 116.44(9) 5_565 4
S1 Pr CoA 96.23(9) 6_554 4
S2 Pr CoA 95.74(6) 6 4
S3 Pr CoA 161.927(19) . 4
S2 Pr CoA 118.65(4) 2 4
S1 Pr CoA 45.26(9) 6 4
CoB Pr CoA 25.5(8) . 4
CoA Pr CoA 49.056(7) . 4
CoB CoA CoB 180.000(13) . 4_554
CoB CoA S1 56.33(12) . .
CoB CoA S1 123.67(12) 4_554 .
CoB CoA S1 56.33(12) . 3
CoB CoA S1 123.67(12) 4_554 3
S1 CoA S1 92.23(16) . 3
CoB CoA S1 56.33(12) . 2
CoB CoA S1 123.67(12) 4_554 2
S1 CoA S1 92.23(16) . 2
S1 CoA S1 92.23(16) 3 2
CoB CoA S1 124.00(11) . 4_554
CoB CoA S1 56.00(11) 4_554 4_554
S1 CoA S1 179.7(2) . 4_554
S1 CoA S1 88.00(3) 3 4_554
S1 CoA S1 88.00(3) 2 4_554
CoB CoA S1 124.00(11) . 6_554
CoB CoA S1 56.00(11) 4_554 6_554
S1 CoA S1 88.00(3) . 6_554
S1 CoA S1 179.7(2) 3 6_554
S1 CoA S1 88.00(3) 2 6_554
S1 CoA S1 91.77(16) 4_554 6_554
CoB CoA S1 124.00(11) . 5_554
CoB CoA S1 56.00(11) 4_554 5_554
S1 CoA S1 88.00(3) . 5_554
S1 CoA S1 88.00(3) 3 5_554
S1 CoA S1 179.7(2) 2 5_554
S1 CoA S1 91.77(16) 4_554 5_554
S1 CoA S1 91.77(16) 6_554 5_554
CoB CoA CoA 180.0 . 4_554
CoB CoA CoA 0.0 4_554 4_554
S1 CoA CoA 123.67(12) . 4_554
S1 CoA CoA 123.67(12) 3 4_554
S1 CoA CoA 123.67(12) 2 4_554
S1 CoA CoA 56.00(11) 4_554 4_554
S1 CoA CoA 56.00(11) 6_554 4_554
S1 CoA CoA 56.00(11) 5_554 4_554
CoB CoA CoA 0.000(7) . 4
CoB CoA CoA 180.0 4_554 4
S1 CoA CoA 56.33(12) . 4
S1 CoA CoA 56.33(12) 3 4
S1 CoA CoA 56.33(12) 2 4
S1 CoA CoA 124.00(12) 4_554 4
S1 CoA CoA 124.00(11) 6_554 4
S1 CoA CoA 124.00(11) 5_554 4
CoA CoA CoA 180.0 4_554 4
CoB CoA Pr 67.00(9) . .
CoB CoA Pr 113.00(9) 4_554 .
S1 CoA Pr 53.21(6) . .
S1 CoA Pr 123.3(2) 3 .
S1 CoA Pr 53.10(6) 2 .
S1 CoA Pr 126.82(5) 4_554 .
S1 CoA Pr 57.00(6) 6_554 .
S1 CoA Pr 126.93(4) 5_554 .
CoA CoA Pr 113.00(9) 4_554 .
CoA CoA Pr 67.00(9) 4 .
CoB CoA Pr 67.00(9) . 2
CoB CoA Pr 113.00(9) 4_554 2
S1 CoA Pr 123.3(2) . 2
S1 CoA Pr 53.10(6) 3 2
S1 CoA Pr 53.21(6) 2 2
S1 CoA Pr 57.00(6) 4_554 2
S1 CoA Pr 126.93(4) 6_554 2
S1 CoA Pr 126.82(5) 5_554 2
CoA CoA Pr 113.00(9) 4_554 2
CoA CoA Pr 67.00(9) 4 2
Pr CoA Pr 105.73(10) . 2
CoA CoB CoA 180.0 . 4
CoA CoB S1 91.6(12) . .
CoA CoB S1 88.4(12) 4 .
CoA CoB S1 91.6(12) . 3
CoA CoB S1 88.4(12) 4 3
S1 CoB S1 119.92(12) . 3
CoA CoB S1 91.6(12) . 2
CoA CoB S1 88.4(12) 4 2
S1 CoB S1 119.92(12) . 2
S1 CoB S1 119.92(12) 3 2
CoA CoB CoB 180.0 . 4
CoA CoB CoB 0.000(3) 4 4
S1 CoB CoB 88.4(12) . 4
S1 CoB CoB 88.4(12) 3 4
S1 CoB CoB 88.4(12) 2 4
CoA CoB CoB 0.000(4) . 4_554
CoA CoB CoB 180.0 4 4_554
S1 CoB CoB 91.6(12) . 4_554
S1 CoB CoB 91.6(12) 3 4_554
S1 CoB CoB 91.6(12) 2 4_554
CoB CoB CoB 180.000(12) 4 4_554
CoA CoB Pr 89.4(8) . .
CoA CoB Pr 90.6(8) 4 .
S1 CoB Pr 60.10(4) . .
S1 CoB Pr 179(2) 3 .
S1 CoB Pr 59.97(4) 2 .
CoB CoB Pr 90.6(8) 4 .
CoB CoB Pr 89.4(8) 4_554 .
CoA CoB Pr 89.4(8) . 2
CoA CoB Pr 90.6(8) 4 2
S1 CoB Pr 179(2) . 2
S1 CoB Pr 59.97(4) 3 2
S1 CoB Pr 60.10(4) 2 2
CoB CoB Pr 90.6(8) 4 2
CoB CoB Pr 89.4(8) 4_554 2
Pr CoB Pr 119.99(3) . 2
CoA CoB Pr 89.4(8) . 3
CoA CoB Pr 90.6(8) 4 3
S1 CoB Pr 59.97(4) . 3
S1 CoB Pr 60.10(4) 3 3
S1 CoB Pr 179(2) 2 3
CoB CoB Pr 90.6(8) 4 3
CoB CoB Pr 89.4(8) 4_554 3
Pr CoB Pr 119.99(3) . 3
Pr CoB Pr 119.99(3) 2 3
S3 Ge S2 113.03(6) 1_556 5_565
S3 Ge S2 113.03(6) 1_556 4_665
S2 Ge S2 105.70(6) 5_565 4_665
S3 Ge S2 113.02(5) 1_556 6
S2 Ge S2 105.70(6) 5_565 6
S2 Ge S2 105.70(6) 4_665 6
CoB S1 CoA 32.1(12) . .
CoB S1 CoA 35.6(12) . 4
CoA S1 CoA 67.68(4) . 4
CoB S1 Pr 78.19(6) . 3
CoA S1 Pr 79.16(5) . 3
CoA S1 Pr 81.35(5) 4 3
CoB S1 Pr 78.08(6) . .
CoA S1 Pr 79.07(5) . .
CoA S1 Pr 81.26(5) 4 .
Pr S1 Pr 156.06(7) 3 .
CoB S1 Pr 111.4(13) . 5
CoA S1 Pr 143.50(13) . 5
CoA S1 Pr 75.83(12) 4 5
Pr S1 Pr 95.83(7) 3 5
Pr S1 Pr 95.73(7) . 5
CoB S1 Pr 107.1(12) . 5_554
CoA S1 Pr 75.01(12) . 5_554
CoA S1 Pr 142.68(13) 4 5_554
Pr S1 Pr 92.00(6) 3 5_554
Pr S1 Pr 91.91(6) . 5_554
Pr S1 Pr 141.49(6) 5 5_554
Ge S2 Pr 91.16(6) 4_664 6_654
Ge S2 Pr 88.73(6) 4_664 5_554
Pr S2 Pr 109.94(6) 6_654 5_554
Ge S2 Pr 121.37(7) 4_664 3
Pr S2 Pr 142.11(6) 6_654 3
Pr S2 Pr 91.14(5) 5_554 3
Ge S3 Pr 113.19(6) 1_554 3_565
Ge S3 Pr 113.19(6) 1_554 2_665
Pr S3 Pr 105.51(6) 3_565 2_665
Ge S3 Pr 113.19(6) 1_554 .
Pr S3 Pr 105.51(6) 3_565 .
Pr S3 Pr 105.51(6) 2_665 .
loop_
_geom_bond_atom_site_label_1
_geom_bond_atom_site_label_2
_geom_bond_distance
_geom_bond_site_symmetry_2
Pr S1 2.7979(15) 2
Pr S1 2.8026(15) .
Pr S2 2.8848(17) 5_565
Pr S1 2.972(3) 6_554
Pr S2 2.9791(18) 6
Pr S3 3.0161(13) .
Pr S2 3.0203(17) 2
Pr S1 3.148(3) 6
Pr CoB 3.1633(7) .
Pr CoA 3.436(2) .
Pr CoA 3.521(3) 4
CoA CoB 1.38(5) .
CoA CoB 1.51(5) 4_554
CoA S1 2.589(4) .
CoA S1 2.589(4) 3
CoA S1 2.589(4) 2
CoA S1 2.599(4) 4_554
CoA S1 2.599(4) 6_554
CoA S1 2.599(4) 5_554
CoA CoA 2.8892(2) 4_554
CoA CoA 2.8893(2) 4
CoA Pr 3.436(2) 2
CoB CoA 1.51(5) 4
CoB S1 2.156(2) .
CoB S1 2.156(2) 3
CoB S1 2.156(2) 2
CoB CoB 2.8892(2) 4
CoB CoB 2.8893(2) 4_554
CoB Pr 3.1634(6) 2
CoB Pr 3.1634(6) 3
Ge S3 2.173(3) 1_556
Ge S2 2.2246(18) 5_565
Ge S2 2.2246(18) 4_665
Ge S2 2.2246(18) 6
S1 CoA 2.599(4) 4
S1 Pr 2.7980(15) 3
S1 Pr 2.972(3) 5
S1 Pr 3.148(3) 5_554
S2 Ge 2.2246(18) 4_664
S2 Pr 2.8848(17) 6_654
S2 Pr 2.9790(18) 5_554
S2 Pr 3.0203(17) 3
S3 Ge 2.173(3) 1_554
S3 Pr 3.0161(13) 3_565
S3 Pr 3.0161(13) 2_665
